data_PCOD9082374
_publ_section_title
;
Structure prediction by ZEFSAII (Michael W. Deem and Ramdas Pophale) SiO2 
 PCOD9082374
Probable space group: P -1
;
_chemical_formula_sum "Si O2"
_cell_formula_units_Z 16
_cell_length_a 14.477414
_cell_length_b 9.353826
_cell_length_c 5.227429
_cell_angle_alpha 56.129427
_cell_angle_beta 77.421484
_cell_angle_gamma 81.668492
_cell_volume 573.414611
_symmetry_space_group_name_H-M "P -1"
_symmetry_group_IT_number 2
_symmetry_cell_setting 'triclinic'
loop_
_space_group_symop_operation_xyz
x,y,z
-x,-y,-z
loop_
_atom_site_type_symbol
_atom_site_label
_atom_site_fract_x
_atom_site_fract_y
_atom_site_fract_z
Si Si1 0.700544 0.528646 0.445490
Si Si2 0.246242 0.843566 0.623610
Si Si3 0.860516 0.460726 0.058128
Si Si4 0.080731 0.977917 0.248582
Si Si5 0.536602 0.602967 0.125940
Si Si6 0.613874 0.170199 0.842551
Si Si7 0.248618 0.130109 0.738820
Si Si8 0.011425 0.337024 0.468295
O O1 0.805265 0.500030 0.310213
O O2 0.645957 0.592545 0.152909
O O3 0.661614 0.346248 0.739079
O O4 0.702218 0.687467 0.476486
O O5 0.201305 0.671460 0.933885
O O6 0.174216 0.872994 0.402002
O O7 0.354209 0.816101 0.489341
O O8 0.232660 0.017747 0.610485
O O9 0.954708 0.364588 0.205654
O O10 0.882622 0.635358 0.722664
O O11 0.030056 0.840459 0.227792
O O12 0.144351 0.130574 0.940687
O O13 0.000000 0.000000 0.500000
O O14 0.500000 0.500000 0.500000
O O15 0.490497 0.794588 0.015549
O O16 0.500000 0.500000 0.000000
O O17 0.667674 0.995579 0.063276
O O18 0.000000 0.500000 0.500000
#
# Coordination Sequence:
#
# PCOD9082374 Si02
#       8
#     2   2   2   2   2   2   2   2
#     4  10  22  42  63  97 124 168 223 266 330 407
#     4   9  20  38  58  87 125 168 214 267 332 391
#     4   9  19  35  55  81 122 160 208 268 319 389
#     4  10  21  36  52  85 128 161 212 272 324 390
#     4  10  23  45  71 105 136 178 228 282 345 411
#     4   9  22  42  64  89 130 165 210 273 328 394
#     4  11  22  39  64  92 125 173 217 267 335 395
#     4  10  19  33  54  82 112 162 214 253 323 388
#
# _framework density 27.903023000000001
#
# number of rings (size 3 to 8) (size 9 to 14) (size 15 to 20)
#    0.000    2.250    0.000    2.250    5.250    2.000 
#   11.250    0.625    0.000    0.000    0.000    0.000 
#    0.000    0.000    0.000    0.000    0.000    0.000 
#
# Total GULP energy -89153.766189 kJ/mol
# GULP energy per Si atom -5572.110387 kJ/mol
# Density = 2.783951 g / cm^3
# Si number density = 27.903023 Si / 1000 Ang^3
#
#
#
# Elastic Constant Matrix: (Units=GPa)
#
#
# Indices 1 2 3 4 5 6 
#
# 1 62.8932 5.7512 -10.4246 11.4732 18.4132 -4.7480
# 2 5.7512 173.5458 21.5890 -2.5951 -11.4047 14.4450
# 3 -10.4246 21.5890 59.9998 -2.7892 -3.3221 10.1596
# 4 11.4732 -2.5951 -2.7892 48.2018 5.1440 -9.5792
# 5 18.4132 -11.4047 -3.3221 5.1440 27.1260 10.4090
# 6 -4.7480 14.4450 10.1596 -9.5792 10.4090 50.0143
#
#
#
# Elastic Compliance Matrix: (Units=1/GPa)
#
#
# Indices 1 2 3 4 5 6 
#
# 1 0.022769 -0.002807 0.002897 -0.002351 -0.018016 0.005683
# 2 -0.002807 0.006739 -0.002097 -0.000301 0.005702 -0.003031
# 3 0.002897 -0.002097 0.018466 -0.000421 0.000680 -0.003092
# 4 -0.002351 -0.000301 -0.000421 0.022862 -0.004976 0.005364
# 5 -0.018016 0.005702 0.000680 -0.004976 0.058932 -0.016713
# 6 0.005683 -0.003031 -0.003092 0.005364 -0.016713 0.026543
#
#
# Mechanical properties :
#
#
# Convention : Reuss Voigt Hill
#
# Bulk Modulus (GPa) = 22.74834 36.69667 29.72251
# Shear Modulus (GPa) = 28.57472 43.70330 36.13901
#
# Velocity S-wave (km/s) = 3.20359 3.96189 3.60274
# Velocity P-wave (km/s) = 4.67486 5.84028 5.28976
#
# Compressibility (1/GPa) = 0.04395925
#
# Stress axis : x y z
#
# Youngs Moduli (GPa) = 43.91868 148.39866 54.15228
#
# Poissons Ratio (x) = 0.41657 -0.15688
# Poissons Ratio (y) = 0.12328 0.11358
# Poissons Ratio (z) = -0.12723 0.31126
#
# Static dielectric constant tensor:
#      x y z
#    x 2.413860 -0.019000 -0.021030 
#    y -0.019000 2.210960 -0.061170 
#    z -0.021030 -0.061170 2.500840 
# 
# From -- ./inp_files/55029.got.cif
#   From: 2010.05.17/outbox.cif.g08.bks.cpg/sg2_28_cif.got.tgz:55029.got - 2010.06.03 11:33:40.
