data_PCOD9082238
_publ_section_title
;
Structure prediction by ZEFSAII (Michael W. Deem and Ramdas Pophale) SiO2 
 PCOD9082238
Probable space group: P -1
;
_chemical_formula_sum "Si O2"
_cell_formula_units_Z 12
_cell_length_a 11.043803
_cell_length_b 9.255815
_cell_length_c 9.235354
_cell_angle_alpha 61.597045
_cell_angle_beta 48.902680
_cell_angle_gamma 88.449549
_cell_volume 564.710305
_symmetry_space_group_name_H-M "P -1"
_symmetry_group_IT_number 2
_symmetry_cell_setting 'triclinic'
loop_
_space_group_symop_operation_xyz
x,y,z
-x,-y,-z
loop_
_atom_site_type_symbol
_atom_site_label
_atom_site_fract_x
_atom_site_fract_y
_atom_site_fract_z
Si Si1 0.765581 0.213288 0.047927
Si Si2 0.431917 0.314762 0.235058
Si Si3 0.445442 0.450714 0.729070
Si Si4 0.435487 0.070025 0.877491
Si Si5 0.934749 0.568222 0.877464
Si Si6 0.761001 0.082830 0.443025
O O1 0.587692 0.247513 0.161301
O O2 0.775431 0.123407 0.238346
O O3 0.737930 0.078226 0.999127
O O4 0.917538 0.421822 0.836197
O O5 0.402675 0.391137 0.373600
O O6 0.273309 0.125552 0.402600
O O7 0.500000 0.500000 0.000000
O O8 0.500000 0.500000 0.500000
O O9 0.422013 0.247492 0.860548
O O10 0.260078 0.449515 0.923778
O O11 0.594472 0.119760 0.611406
O O12 0.500000 0.000000 0.000000
O O13 0.073359 0.777133 0.661381
O O14 0.000000 0.500000 0.000000
#
# Coordination Sequence:
#
# PCOD9082238 Si02
#       6
#     2   2   2   2   2   2
#     4   9  18  36  57  76 105 148 183 214 269 337
#     4  10  19  33  53  79 108 144 182 218 267 332
#     4  11  20  34  57  84 108 139 184 231 268 315
#     4  11  21  35  55  83 111 140 180 232 274 314
#     4   9  19  36  58  82 108 144 186 225 268 325
#     4  10  19  38  60  76 105 151 186 218 267 331
#
# _framework density 21.249835000000001
#
# number of rings (size 3 to 8) (size 9 to 14) (size 15 to 20)
#    0.000    2.000    0.000    8.000    0.000    0.000 
#    0.000   17.500    0.000    0.000    0.000    0.000 
#    0.000    0.000    0.000    0.000    0.000    0.000 
#
# Total GULP energy -66828.809144 kJ/mol
# GULP energy per Si atom -5569.067429 kJ/mol
# Density = 2.120147 g / cm^3
# Si number density = 21.249835 Si / 1000 Ang^3
#
#
#
# Elastic Constant Matrix: (Units=GPa)
#
#
# Indices 1 2 3 4 5 6 
#
# 1 28.2527 7.7474 10.4067 -13.7292 -3.5352 4.8956
# 2 7.7474 116.8046 23.1240 -42.2441 -19.9515 5.7970
# 3 10.4067 23.1240 47.7199 -33.5201 -0.5630 7.7311
# 4 -13.7292 -42.2441 -33.5201 39.0798 9.9871 -6.7748
# 5 -3.5352 -19.9515 -0.5630 9.9871 32.2658 -15.6101
# 6 4.8956 5.7970 7.7311 -6.7748 -15.6101 41.6078
#
#
#
# Elastic Compliance Matrix: (Units=1/GPa)
#
#
# Indices 1 2 3 4 5 6 
#
# 1 0.045320 0.005724 0.008572 0.029386 -0.002275 -0.003791
# 2 0.005724 0.017003 0.011010 0.029287 0.002582 0.000649
# 3 0.008572 0.011010 0.070687 0.078972 -0.020558 -0.010531
# 4 0.029386 0.029287 0.078972 0.140157 -0.024900 -0.008732
# 5 -0.002275 0.002582 -0.020558 -0.024900 0.048296 0.017793
# 6 -0.003791 0.000649 -0.010531 -0.008732 0.017793 0.031600
#
#
# Mechanical properties :
#
#
# Convention : Reuss Voigt Hill
#
# Bulk Modulus (GPa) = 5.44596 30.59259 18.01927
# Shear Modulus (GPa) = 13.74915 32.69062 23.21988
#
# Velocity S-wave (km/s) = 2.54643 3.92649 3.30920
# Velocity P-wave (km/s) = 3.34875 5.91476 4.80616
#
# Compressibility (1/GPa) = 0.18362250
#
# Stress axis : x y z
#
# Youngs Moduli (GPa) = 22.06534 58.81375 14.14680
#
# Poissons Ratio (x) = -0.33668 -0.12126
# Poissons Ratio (y) = -0.12631 -0.15575
# Poissons Ratio (z) = -0.18914 -0.64753
#
# Static dielectric constant tensor:
#      x y z
#    x 1.804260 0.030670 -0.008030 
#    y 0.030670 1.770800 -0.099820 
#    z -0.008030 -0.099820 1.877980 
# 
# From -- ./inp_files/144978.got.cif
#   From: 2010.05.17/outbox.cif.g08.bks.cpg/sg2_73_cif.got.tgz:144978.got - 2010.06.03 11:33:40.
