data_PCOD9082709
_publ_section_title
;
Structure prediction by ZEFSAII (Michael W. Deem and Ramdas Pophale) SiO2 
 PCOD9082709
Probable space group: P -1
;
_chemical_formula_sum "Si O2"
_cell_formula_units_Z 16
_cell_length_a 16.392172
_cell_length_b 10.844699
_cell_length_c 11.694127
_cell_angle_alpha 137.063560
_cell_angle_beta 124.649402
_cell_angle_gamma 38.671074
_cell_volume 884.813297
_symmetry_space_group_name_H-M "P -1"
_symmetry_group_IT_number 2
_symmetry_cell_setting 'triclinic'
loop_
_space_group_symop_operation_xyz
x,y,z
-x,-y,-z
loop_
_atom_site_type_symbol
_atom_site_label
_atom_site_fract_x
_atom_site_fract_y
_atom_site_fract_z
Si Si1 0.873899 0.706911 0.256191
Si Si2 0.422794 0.335964 0.129054
Si Si3 0.720867 0.559843 0.137380
Si Si4 0.701120 0.874687 0.014921
Si Si5 0.876456 0.031897 0.887618
Si Si6 0.829915 0.712968 0.760891
Si Si7 0.650900 0.857373 0.505012
Si Si8 0.256664 0.899132 0.387474
O O1 0.832661 0.557842 0.172116
O O2 0.029366 0.547318 0.281985
O O3 0.795526 0.945101 0.433270
O O4 0.817760 0.773331 0.128408
O O5 0.356886 0.258864 0.102070
O O6 0.349058 0.613688 0.280266
O O7 0.394092 0.299463 0.951954
O O8 0.578823 0.149110 0.136385
O O9 0.695074 0.667543 0.313617
O O10 0.757409 0.307798 0.003527
O O11 0.753219 0.827529 0.896061
O O12 0.867068 0.004604 0.726155
O O13 0.864152 0.866182 0.837308
O O14 0.000000 0.000000 0.000000
O O15 0.737226 0.735149 0.605153
O O16 0.500000 0.000000 0.500000
O O17 0.671963 0.031256 0.584163
#
# Coordination Sequence:
#
# PCOD9082709 Si02
#       8
#     2   2   2   2   2   2   2   2
#     4  10  20  36  55  80 111 146 182 223 268 325
#     4   9  19  39  60  78 105 146 192 227 262 323
#     4   9  18  34  57  82 107 142 181 221 272 327
#     4  10  21  37  57  78 108 151 187 224 269 314
#     4  10  19  33  57  84 109 141 175 221 276 329
#     4  11  22  35  56  84 116 142 180 226 273 329
#     4  10  21  35  55  84 114 142 176 227 279 326
#     4   9  21  36  59  82 107 143 185 226 273 328
#
# _framework density 18.082909999999998
#
# number of rings (size 3 to 8) (size 9 to 14) (size 15 to 20)
#    0.000    2.250    1.250    1.125    1.750    4.000 
#    0.000    5.625    0.000    0.000    0.000    0.000 
#    0.000    0.000    0.000    0.000    0.000    0.000 
#
# Total GULP energy -89159.998240 kJ/mol
# GULP energy per Si atom -5572.499890 kJ/mol
# Density = 1.804175 g / cm^3
# Si number density = 18.082910 Si / 1000 Ang^3
#
#
#
# Elastic Constant Matrix: (Units=GPa)
#
#
# Indices 1 2 3 4 5 6 
#
# 1 20.7441 27.5344 12.9400 -6.0379 -13.3348 -4.3415
# 2 27.5344 97.7965 23.8050 -4.2295 -5.4522 -6.2280
# 3 12.9400 23.8050 74.6017 -4.4967 -5.8615 10.8574
# 4 -6.0379 -4.2295 -4.4967 29.1103 2.8541 7.6057
# 5 -13.3348 -5.4522 -5.8615 2.8541 22.8664 -6.5270
# 6 -4.3415 -6.2280 10.8574 7.6057 -6.5270 26.3522
#
#
#
# Elastic Compliance Matrix: (Units=1/GPa)
#
#
# Indices 1 2 3 4 5 6 
#
# 1 0.223022 -0.045319 -0.023215 0.005813 0.131559 0.066504
# 2 -0.045319 0.021015 0.000348 -0.001953 -0.023328 -0.007858
# 3 -0.023215 0.000348 0.018783 0.003629 -0.013633 -0.015905
# 4 0.005813 -0.001953 0.003629 0.039931 -0.005062 -0.013777
# 5 0.131559 -0.023328 -0.013633 -0.005062 0.127688 0.054865
# 6 0.066504 -0.007858 -0.015905 -0.013777 0.054865 0.071166
#
#
# Mechanical properties :
#
#
# Convention : Reuss Voigt Hill
#
# Bulk Modulus (GPa) = 7.90845 35.74456 21.82650
# Shear Modulus (GPa) = 7.35159 24.25664 15.80412
#
# Velocity S-wave (km/s) = 2.01849 3.66650 2.95952
# Velocity P-wave (km/s) = 3.13295 6.14282 4.87594
#
# Compressibility (1/GPa) = 0.12644697
#
# Stress axis : x y z
#
# Youngs Moduli (GPa) = 4.48386 47.58556 53.24103
#
# Poissons Ratio (x) = 2.15655 1.23598
# Poissons Ratio (y) = 0.20321 -0.01854
# Poissons Ratio (z) = 0.10409 -0.01657
#
# Static dielectric constant tensor:
#      x y z
#    x 1.623260 -0.019470 -0.016620 
#    y -0.019470 1.702650 0.014470 
#    z -0.016620 0.014470 1.662290 
# 
# From -- ./inp_files/243909.got.cif
#   From: 2010.05.17/outbox.cif.g08.bks.cpg/sg2_122_cif.got.tgz:243909.got - 2010.06.03 11:33:40.
