data_PCOD9082835
_publ_section_title
;
Structure prediction by ZEFSAII (Michael W. Deem and Ramdas Pophale) SiO2 
 PCOD9082835
Probable space group: P -1
;
_chemical_formula_sum "Si O2"
_cell_formula_units_Z 16
_cell_length_a 11.768768
_cell_length_b 10.474754
_cell_length_c 9.492222
_cell_angle_alpha 86.855967
_cell_angle_beta 131.587198
_cell_angle_gamma 101.190459
_cell_volume 854.197693
_symmetry_space_group_name_H-M "P -1"
_symmetry_group_IT_number 2
_symmetry_cell_setting 'triclinic'
loop_
_space_group_symop_operation_xyz
x,y,z
-x,-y,-z
loop_
_atom_site_type_symbol
_atom_site_label
_atom_site_fract_x
_atom_site_fract_y
_atom_site_fract_z
Si Si1 0.328966 0.241656 0.595550
Si Si2 0.253403 0.599681 0.403712
Si Si3 0.515435 0.750750 0.766710
Si Si4 0.679689 0.274601 0.828649
Si Si5 0.343228 0.387606 0.876544
Si Si6 0.258763 0.342600 0.264655
Si Si7 0.108373 0.468904 0.892089
Si Si8 0.503810 0.971340 0.171339
O O1 0.508631 0.309435 0.699297
O O2 0.289079 0.327888 0.684929
O O3 0.222195 0.244131 0.371822
O O4 0.353235 0.099584 0.672333
O O5 0.351355 0.650348 0.618550
O O6 0.280687 0.717899 0.304557
O O7 0.311237 0.481874 0.379187
O O8 0.072148 0.549445 0.284850
O O9 0.616586 0.710732 0.724289
O O10 0.490183 0.896898 0.744540
O O11 0.603799 0.725762 0.982059
O O12 0.645697 0.136268 0.889432
O O13 0.809339 0.385322 0.000745
O O14 0.207936 0.434166 0.846501
O O15 0.500000 0.500000 0.000000
O O16 0.132541 0.374143 0.048611
O O17 0.500000 0.000000 0.000000
#
# Coordination Sequence:
#
# PCOD9082835 Si02
#       8
#     2   2   2   2   2   2   2   2
#     4  10  19  33  58  85 115 140 192 252 273 327
#     4  11  21  36  57  91 125 145 185 244 303 348
#     4  11  20  34  62  86 113 154 193 243 278 342
#     4   9  18  33  57  84 113 149 188 237 285 330
#     4  11  19  34  58  86 113 149 200 236 287 340
#     4  10  20  35  57  89 114 149 192 240 287 337
#     4  10  22  36  60  85 123 154 182 239 304 351
#     4  10  20  36  56  88 115 151 201 243 279 326
#
# _framework density 18.731027000000001
#
# number of rings (size 3 to 8) (size 9 to 14) (size 15 to 20)
#    0.750    1.000    3.750    2.625    1.750    2.000 
#    0.000    2.500    2.750   14.250    0.000    0.000 
#    0.000    0.000    0.000    0.000    0.000    0.000 
#
# Total GULP energy -89121.556934 kJ/mol
# GULP energy per Si atom -5570.097308 kJ/mol
# Density = 1.868839 g / cm^3
# Si number density = 18.731027 Si / 1000 Ang^3
#
#
#
# Elastic Constant Matrix: (Units=GPa)
#
#
# Indices 1 2 3 4 5 6 
#
# 1 74.1099 26.8190 25.6673 6.0345 -1.0671 -8.1985
# 2 26.8190 87.7414 18.5281 -9.1585 -3.7658 -17.4696
# 3 25.6673 18.5281 56.4709 2.1406 -2.1517 -8.1016
# 4 6.0345 -9.1585 2.1406 21.7214 6.9712 -8.0315
# 5 -1.0671 -3.7658 -2.1517 6.9712 20.9021 -1.9503
# 6 -8.1985 -17.4696 -8.1016 -8.0315 -1.9503 22.6755
#
#
#
# Elastic Compliance Matrix: (Units=1/GPa)
#
#
# Indices 1 2 3 4 5 6 
#
# 1 0.018120 -0.005534 -0.006440 -0.008347 0.001786 -0.002816
# 2 -0.005534 0.018569 -0.001737 0.016252 -0.000916 0.017362
# 3 -0.006440 -0.001737 0.021904 -0.000189 0.002075 0.004271
# 4 -0.008347 0.016252 -0.000189 0.073882 -0.018989 0.033971
# 5 0.001786 -0.000916 0.002075 -0.018989 0.054186 -0.001384
# 6 -0.002816 0.017362 0.004271 0.033971 -0.001384 0.069898
#
#
# Mechanical properties :
#
#
# Convention : Reuss Voigt Hill
#
# Bulk Modulus (GPa) = 32.08055 40.03899 36.05977
# Shear Modulus (GPa) = 16.98523 22.88032 19.93277
#
# Velocity S-wave (km/s) = 3.01457 3.49882 3.26568
# Velocity P-wave (km/s) = 5.41119 6.14365 5.78902
#
# Compressibility (1/GPa) = 0.03117153
#
# Stress axis : x y z
#
# Youngs Moduli (GPa) = 55.18626 53.85175 45.65322
#
# Poissons Ratio (x) = 0.29802 0.29400
# Poissons Ratio (y) = 0.30540 0.07932
# Poissons Ratio (z) = 0.35539 0.09356
#
# Static dielectric constant tensor:
#      x y z
#    x 1.650020 0.016380 -0.028570 
#    y 0.016380 1.675950 -0.052820 
#    z -0.028570 -0.052820 1.677870 
# 
# From -- ./inp_files/258659.got.cif
#   From: 2010.05.17/outbox.cif.g08.bks.cpg/sg2_130_cif.got.tgz:258659.got - 2010.06.03 11:33:40.
