data_PCOD9082607
_publ_section_title
;
Structure prediction by ZEFSAII (Michael W. Deem and Ramdas Pophale) SiO2 
 PCOD9082607
Probable space group: P -1
;
_chemical_formula_sum "Si O2"
_cell_formula_units_Z 16
_cell_length_a 4.862949
_cell_length_b 8.224362
_cell_length_c 21.697226
_cell_angle_alpha 121.378105
_cell_angle_beta 77.048576
_cell_angle_gamma 72.803717
_cell_volume 627.110890
_symmetry_space_group_name_H-M "P -1"
_symmetry_group_IT_number 2
_symmetry_cell_setting 'triclinic'
loop_
_space_group_symop_operation_xyz
x,y,z
-x,-y,-z
loop_
_atom_site_type_symbol
_atom_site_label
_atom_site_fract_x
_atom_site_fract_y
_atom_site_fract_z
Si Si1 0.671278 0.002794 0.653412
Si Si2 0.884810 0.566230 0.222357
Si Si3 0.604246 0.566229 0.722357
Si Si4 0.215361 0.744482 0.053780
Si Si5 0.480895 0.997205 0.846588
Si Si6 0.647218 0.203596 0.567385
Si Si7 0.567401 0.255519 0.446220
Si Si8 0.485583 0.796404 0.932615
O O1 0.633869 0.792477 0.603172
O O2 0.052537 0.915845 0.622495
O O3 0.399932 0.203874 0.746622
O O4 0.539636 0.132901 0.620404
O O5 0.711631 0.432857 0.231111
O O6 0.106710 0.567144 0.268889
O O7 0.162153 0.421013 0.130121
O O8 0.656590 0.421013 0.630121
O O9 0.597049 0.796126 0.753378
O O10 0.286631 0.915845 0.122495
O O11 0.867313 0.792478 0.103172
O O12 0.500000 0.500000 0.000000
O O13 0.235465 0.773310 0.984596
O O14 0.413346 0.867098 0.879596
O O15 0.477967 0.226690 0.515404
O O16 0.000000 0.000000 0.500000
O O17 0.500000 0.500000 0.500000
O O18 0.500000 0.000000 0.000000
#
# Coordination Sequence:
#
# PCOD9082607 Si02
#       8
#     2   2   2   2   2   2   2   2
#     4  10  20  37  57  81 110 146 186 229 275 328
#     4  10  19  33  56  85 111 140 183 236 278 320
#     4  10  19  33  56  85 111 140 183 236 278 320
#     4  11  22  37  57  83 113 148 184 228 277 329
#     4  10  20  37  57  81 110 146 186 229 275 328
#     4   9  19  35  59  83 107 142 187 227 269 327
#     4  11  22  37  57  83 113 148 184 228 277 329
#     4   9  19  35  59  83 107 142 187 227 269 327
#
# _framework density 25.513829999999999
#
# number of rings (size 3 to 8) (size 9 to 14) (size 15 to 20)
#    0.000    2.000    0.000    6.000    0.000    6.000 
#    0.000    1.250    0.000    9.000    0.000    0.000 
#    0.000    0.000    0.000    0.000    0.000    0.000 
#
# Total GULP energy -89295.022910 kJ/mol
# GULP energy per Si atom -5580.938932 kJ/mol
# Density = 2.545576 g / cm^3
# Si number density = 25.513830 Si / 1000 Ang^3
#
#
#
# Elastic Constant Matrix: (Units=GPa)
#
#
# Indices 1 2 3 4 5 6 
#
# 1 92.8661 -23.1656 10.3190 -8.2362 -0.5451 6.8849
# 2 -23.1656 42.1941 -15.4453 4.5830 1.1132 -2.7879
# 3 10.3190 -15.4453 98.5935 19.2934 -1.6916 2.0373
# 4 -8.2362 4.5830 19.2934 42.5371 1.2058 -0.0857
# 5 -0.5451 1.1132 -1.6916 1.2058 56.0572 8.9618
# 6 6.8849 -2.7879 2.0373 -0.0857 8.9618 15.5091
#
#
#
# Elastic Compliance Matrix: (Units=1/GPa)
#
#
# Indices 1 2 3 4 5 6 
#
# 1 0.012972 0.006303 -0.000668 0.002105 0.000726 -0.004946
# 2 0.006303 0.029487 0.004697 -0.004064 -0.000653 0.002240
# 3 -0.000668 0.004697 0.012183 -0.006178 0.000529 -0.000799
# 4 0.002105 -0.004064 -0.006178 0.027173 -0.000614 -0.000348
# 5 0.000726 -0.000653 0.000529 -0.000614 0.019799 -0.011953
# 6 -0.004946 0.002240 -0.000799 -0.000348 -0.011953 0.074087
#
#
# Mechanical properties :
#
#
# Convention : Reuss Voigt Hill
#
# Bulk Modulus (GPa) = 13.27880 19.67445 16.47662
# Shear Modulus (GPa) = 27.75660 40.28373 34.02016
#
# Velocity S-wave (km/s) = 3.30192 3.97785 3.65554
# Velocity P-wave (km/s) = 4.44440 5.36896 4.92841
#
# Compressibility (1/GPa) = 0.07530800
#
# Stress axis : x y z
#
# Youngs Moduli (GPa) = 77.08714 33.91354 82.08261
#
# Poissons Ratio (x) = -0.21376 0.05479
# Poissons Ratio (y) = -0.48590 -0.38557
# Poissons Ratio (z) = 0.05146 -0.15930
#
# Static dielectric constant tensor:
#      x y z
#    x 2.017150 -0.010460 0.002680 
#    y -0.010460 2.149370 -0.006870 
#    z 0.002680 -0.006870 2.299170 
# 
# From -- ./inp_files/615259.got.cif
#   From: 2010.05.17/outbox.cif.g08.bks.cpg/sg2_308_cif.got.tgz:615259.got - 2010.06.03 11:33:40.
