data_PCOD9082495
_publ_section_title
;
Structure prediction by ZEFSAII (Michael W. Deem and Ramdas Pophale) SiO2 
 PCOD9082495
Probable space group: P -1
;
_chemical_formula_sum "Si O2"
_cell_formula_units_Z 14
_cell_length_a 15.810976
_cell_length_b 7.892765
_cell_length_c 8.800136
_cell_angle_alpha 113.601778
_cell_angle_beta 44.662113
_cell_angle_gamma 133.031535
_cell_volume 556.501759
_symmetry_space_group_name_H-M "P -1"
_symmetry_group_IT_number 2
_symmetry_cell_setting 'triclinic'
loop_
_space_group_symop_operation_xyz
x,y,z
-x,-y,-z
loop_
_atom_site_type_symbol
_atom_site_label
_atom_site_fract_x
_atom_site_fract_y
_atom_site_fract_z
Si Si1 0.945013 0.334007 0.368951
Si Si2 0.262998 0.114598 0.332264
Si Si3 0.388078 0.975216 0.849475
Si Si4 0.584158 0.387808 0.160606
Si Si5 0.368146 0.532693 0.205504
Si Si6 0.166780 0.602305 0.761729
Si Si7 0.144803 0.273237 0.896532
O O1 0.844675 0.360678 0.389019
O O2 0.000000 0.500000 0.500000
O O3 0.088702 0.392781 0.114159
O O4 0.855701 0.078741 0.466879
O O5 0.414246 0.291469 0.304943
O O6 0.229811 0.275327 0.346493
O O7 0.301005 0.001049 0.108541
O O8 0.428404 0.811396 0.800361
O O9 0.286257 0.847256 0.785270
O O10 0.543833 0.238538 0.718980
O O11 0.654134 0.407596 0.911728
O O12 0.697279 0.635547 0.191541
O O13 0.500000 0.500000 0.000000
O O14 0.180849 0.405610 0.737324
O O15 0.000000 0.500000 0.000000
O O16 0.000000 0.000000 0.000000
#
# Coordination Sequence:
#
# PCOD9082495 Si02
#       7
#     2   2   2   2   2   2   2
#     4  11  23  39  58  84 114 147 187 234 280 328
#     4  10  19  33  55  85 110 141 188 236 271 316
#     4   9  16  32  55  80 106 146 190 223 267 336
#     4   9  17  33  57  80 107 148 188 221 269 339
#     4   8  16  28  50  80 109 143 181 223 273 330
#     4   9  19  35  56  76 107 154 188 216 274 350
#     4  10  22  40  59  83 113 151 188 227 279 337
#
# _framework density 25.157153999999998
#
# number of rings (size 3 to 8) (size 9 to 14) (size 15 to 20)
#    0.000    2.857    0.000    4.286    0.000    8.000 
#    0.000   11.429    0.000    0.000    0.000    0.000 
#    0.000    0.000    0.000    0.000    0.000    0.000 
#
# Total GULP energy -78204.818755 kJ/mol
# GULP energy per Si atom -5586.058483 kJ/mol
# Density = 2.509989 g / cm^3
# Si number density = 25.157154 Si / 1000 Ang^3
#
#
#
# Elastic Constant Matrix: (Units=GPa)
#
#
# Indices 1 2 3 4 5 6 
#
# 1 93.6622 53.3792 10.3517 5.4250 36.9567 17.9232
# 2 53.3792 152.7848 5.0926 -17.8707 33.0296 3.1725
# 3 10.3517 5.0926 92.2882 5.7024 21.7023 0.5950
# 4 5.4250 -17.8707 5.7024 42.0477 -5.4062 15.0568
# 5 36.9567 33.0296 21.7023 -5.4062 40.3774 -0.3782
# 6 17.9232 3.1725 0.5950 15.0568 -0.3782 35.8141
#
#
#
# Elastic Compliance Matrix: (Units=1/GPa)
#
#
# Indices 1 2 3 4 5 6 
#
# 1 0.022200 -0.004005 0.002511 -0.004019 -0.019018 -0.009308
# 2 -0.004005 0.009197 0.000540 0.004096 -0.003605 -0.000579
# 3 0.002511 0.000540 0.013115 -0.003062 -0.010203 -0.000343
# 4 -0.004019 0.004096 -0.003062 0.031320 0.006060 -0.011404
# 5 -0.019018 -0.003605 -0.010203 0.006060 0.051492 0.008002
# 6 -0.009308 -0.000579 -0.000343 -0.011404 0.008002 0.037516
#
#
# Mechanical properties :
#
#
# Convention : Reuss Voigt Hill
#
# Bulk Modulus (GPa) = 23.47209 52.93137 38.20173
# Shear Modulus (GPa) = 27.63228 41.64196 34.63712
#
# Velocity S-wave (km/s) = 3.31779 4.07292 3.71459
# Velocity P-wave (km/s) = 4.90177 6.57299 5.79791
#
# Compressibility (1/GPa) = 0.04260380
#
# Stress axis : x y z
#
# Youngs Moduli (GPa) = 45.04599 108.73246 76.24997
#
# Poissons Ratio (x) = 0.43549 -0.19150
# Poissons Ratio (y) = 0.18042 -0.04118
# Poissons Ratio (z) = -0.11313 -0.05872
#
# Static dielectric constant tensor:
#      x y z
#    x 2.024610 -0.048390 -0.030130 
#    y -0.048390 2.062850 -0.000920 
#    z -0.030130 -0.000920 2.126080 
# 
# From -- ./inp_files/326426.got.cif
#   From: 2010.05.17/outbox.cif.g08.bks.cpg/sg2_164_cif.got.tgz:326426.got - 2010.06.03 11:33:40.
