data_PCOD9082882
_publ_section_title
;
Structure prediction by ZEFSAII (Michael W. Deem and Ramdas Pophale) SiO2 
 PCOD9082882
Probable space group: P -1
;
_chemical_formula_sum "Si O2"
_cell_formula_units_Z 16
_cell_length_a 15.860956
_cell_length_b 9.865472
_cell_length_c 17.761400
_cell_angle_alpha 52.218752
_cell_angle_beta 24.632780
_cell_angle_gamma 39.880095
_cell_volume 704.255399
_symmetry_space_group_name_H-M "P -1"
_symmetry_group_IT_number 2
_symmetry_cell_setting 'triclinic'
loop_
_space_group_symop_operation_xyz
x,y,z
-x,-y,-z
loop_
_atom_site_type_symbol
_atom_site_label
_atom_site_fract_x
_atom_site_fract_y
_atom_site_fract_z
Si Si1 0.969961 0.687296 0.912337
Si Si2 0.799349 0.669076 0.891470
Si Si3 0.563510 0.192600 0.254107
Si Si4 0.047276 0.171009 0.821676
Si Si5 0.718226 0.439099 0.516878
Si Si6 0.426562 0.025759 0.303091
Si Si7 0.347615 0.805588 0.573821
Si Si8 0.712461 0.080781 0.692795
O O1 0.889107 0.665248 0.903982
O O2 0.188997 0.714803 0.720909
O O3 0.721711 0.908679 0.078226
O O4 0.000000 0.500000 0.000000
O O5 0.916476 0.428448 0.846148
O O6 0.964451 0.718800 0.692420
O O7 0.484878 0.834025 0.104505
O O8 0.386968 0.405186 0.378226
O O9 0.722906 0.970019 0.253286
O O10 0.375980 0.209499 0.338266
O O11 0.804730 0.175307 0.033698
O O12 0.180886 0.028895 0.685193
O O13 0.595138 0.610412 0.488656
O O14 0.597818 0.314535 0.662459
O O15 0.410031 0.867932 0.424322
O O16 0.287138 0.063151 0.324209
O O17 0.000000 0.000000 0.500000
#
# Coordination Sequence:
#
# PCOD9082882 Si02
#       8
#     2   2   2   2   2   2   2   2
#     4  11  21  31  50  82 122 156 189 226 280 347
#     4  11  22  37  59  84 113 156 196 242 289 344
#     4  10  19  34  58  90 126 158 183 225 290 362
#     4  10  19  33  58  90 129 157 182 222 290 366
#     4  11  22  37  62  90 120 157 192 233 293 356
#     4  11  22  37  59  86 120 155 193 238 294 349
#     4  11  21  35  59  94 128 153 182 230 292 365
#     4  11  26  45  61  80 112 157 208 257 291 330
#
# _framework density 22.719031999999999
#
# number of rings (size 3 to 8) (size 9 to 14) (size 15 to 20)
#    0.000    1.250    2.500    5.250    1.750    4.000 
#    0.000    0.625    0.000    1.500    0.000    0.000 
#    0.000    0.000    0.000    0.000    0.000    0.000 
#
# Total GULP energy -89317.979498 kJ/mol
# GULP energy per Si atom -5582.373719 kJ/mol
# Density = 2.266732 g / cm^3
# Si number density = 22.719032 Si / 1000 Ang^3
#
#
#
# Elastic Constant Matrix: (Units=GPa)
#
#
# Indices 1 2 3 4 5 6 
#
# 1 57.4322 13.3957 23.7219 4.6481 -2.3862 30.4053
# 2 13.3957 60.7513 29.9854 -2.6971 -3.4887 30.3397
# 3 23.7219 29.9854 159.5486 2.7521 1.8059 8.9077
# 4 4.6481 -2.6971 2.7521 47.0718 3.4562 5.3345
# 5 -2.3862 -3.4887 1.8059 3.4562 35.2744 -5.4908
# 6 30.4053 30.3397 8.9077 5.3345 -5.4908 27.6360
#
#
#
# Elastic Compliance Matrix: (Units=1/GPa)
#
#
# Indices 1 2 3 4 5 6 
#
# 1 1.613991 1.570693 -0.341524 0.371941 -0.302655 -3.521923
# 2 1.570693 1.572141 -0.337953 0.370556 -0.298324 -3.475899
# 3 -0.341524 -0.337953 0.079383 -0.079885 0.063870 0.749285
# 4 0.371941 0.370556 -0.079885 0.109413 -0.073392 -0.825972
# 5 -0.302655 -0.298324 0.063870 -0.073392 0.086789 0.671315
# 6 -3.521923 -3.475899 0.749285 -0.825972 0.671315 7.778274
#
#
# Mechanical properties :
#
#
# Convention : Reuss Voigt Hill
#
# Bulk Modulus (GPa) = 0.19810 45.77088 22.98449
# Shear Modulus (GPa) = 0.44882 36.03837 18.24360
#
# Velocity S-wave (km/s) = 0.44495 3.98711 2.83682
# Velocity P-wave (km/s) = 0.59276 6.43322 4.56824
#
# Compressibility (1/GPa) = 5.04794659
#
# Stress axis : x y z
#
# Youngs Moduli (GPa) = 0.61958 0.63608 12.59723
#
# Poissons Ratio (x) = -0.99908 4.30226
# Poissons Ratio (y) = -0.97317 4.25727
# Poissons Ratio (z) = 0.21160 0.21496
#
# Static dielectric constant tensor:
#      x y z
#    x 1.872220 -0.083490 -0.016670 
#    y -0.083490 1.880450 -0.004690 
#    z -0.016670 -0.004690 1.870730 
# 
# From -- ./inp_files/436477.got.cif
#   From: 2010.05.17/outbox.cif.g08.bks.cpg/sg2_219_cif.got.tgz:436477.got - 2010.06.03 11:33:40.
