data_PCOD9082148
_publ_section_title
;
Structure prediction by ZEFSAII (Michael W. Deem and Ramdas Pophale) SiO2 
 PCOD9082148
Probable space group: P -1
;
_chemical_formula_sum "Si O2"
_cell_formula_units_Z 16
_cell_length_a 9.237398
_cell_length_b 7.625739
_cell_length_c 16.087285
_cell_angle_alpha 107.009549
_cell_angle_beta 142.327408
_cell_angle_gamma 72.697889
_cell_volume 658.050542
_symmetry_space_group_name_H-M "P -1"
_symmetry_group_IT_number 2
_symmetry_cell_setting 'triclinic'
loop_
_space_group_symop_operation_xyz
x,y,z
-x,-y,-z
loop_
_atom_site_type_symbol
_atom_site_label
_atom_site_fract_x
_atom_site_fract_y
_atom_site_fract_z
Si Si1 0.612946 0.455950 0.790757
Si Si2 0.913591 0.522010 0.083252
Si Si3 0.084191 0.323672 0.722994
Si Si4 0.620577 0.163091 0.473041
Si Si5 0.228577 0.075045 0.901073
Si Si6 0.854114 0.847681 0.666350
Si Si7 0.877687 0.329610 0.383856
Si Si8 0.297757 0.161816 0.635404
O O1 0.401789 0.621844 0.729576
O O2 0.473274 0.281243 0.679513
O O3 0.809872 0.499063 0.819451
O O4 0.759588 0.409455 0.936873
O O5 0.880432 0.524926 0.168368
O O6 0.815517 0.734331 0.043174
O O7 0.149420 0.138190 0.781107
O O8 0.258674 0.280670 0.718635
O O9 0.808844 0.311997 0.571935
O O10 0.358997 0.235356 0.395816
O O11 0.724691 0.007485 0.567676
O O12 0.597674 0.047779 0.361550
O O13 0.037865 0.939900 0.822168
O O14 0.500000 0.000000 0.000000
O O15 0.024600 0.703510 0.669062
O O16 0.000000 0.500000 0.500000
O O17 0.026365 0.165702 0.478782
#
# Coordination Sequence:
#
# PCOD9082148 Si02
#       8
#     2   2   2   2   2   2   2   2
#     4  10  19  35  53  73 102 135 181 204 239 299
#     4   9  20  33  53  76  98 138 175 208 240 296
#     4   9  20  32  51  79 103 131 164 207 264 300
#     4   9  17  29  52  73 103 125 166 211 251 305
#     4   9  17  31  52  75  97 130 169 208 244 299
#     4   9  16  28  50  77  93 131 168 208 249 286
#     4   9  19  29  51  76  99 130 171 209 243 294
#     4  10  19  33  52  78 103 134 161 211 263 300
#
# _framework density 24.314243999999999
#
# number of rings (size 3 to 8) (size 9 to 14) (size 15 to 20)
#    0.750    2.000    0.000    1.875    5.250    0.500 
#    0.000    0.625    0.000    4.500    0.000    0.000 
#    0.000    0.000    0.000    0.000    0.000    0.000 
#
# Total GULP energy -89123.695655 kJ/mol
# GULP energy per Si atom -5570.230978 kJ/mol
# Density = 2.425890 g / cm^3
# Si number density = 24.314244 Si / 1000 Ang^3
#
#
#
# Elastic Constant Matrix: (Units=GPa)
#
#
# Indices 1 2 3 4 5 6 
#
# 1 74.6397 11.4274 23.5504 -12.0436 3.2840 -15.5373
# 2 11.4274 59.4189 18.1681 -10.4636 8.1541 -20.1559
# 3 23.5504 18.1681 107.1106 -9.8545 24.6578 -7.0509
# 4 -12.0436 -10.4636 -9.8545 32.1377 -16.8332 9.8099
# 5 3.2840 8.1541 24.6578 -16.8332 38.1590 -3.1357
# 6 -15.5373 -20.1559 -7.0509 9.8099 -3.1357 32.3869
#
#
#
# Elastic Compliance Matrix: (Units=1/GPa)
#
#
# Indices 1 2 3 4 5 6 
#
# 1 0.016442 0.000458 -0.003649 0.005231 0.003658 0.006148
# 2 0.000458 0.022432 -0.002597 0.002155 -0.001148 0.012851
# 3 -0.003649 -0.002597 0.012180 -0.002538 -0.008182 -0.000738
# 4 0.005231 0.002155 -0.002538 0.046405 0.020479 -0.008775
# 5 0.003658 -0.001148 -0.008182 0.020479 0.040207 -0.003051
# 6 0.006148 0.012851 -0.000738 -0.008775 -0.003051 0.044026
#
#
# Mechanical properties :
#
#
# Convention : Reuss Voigt Hill
#
# Bulk Modulus (GPa) = 25.32996 38.60679 31.96837
# Shear Modulus (GPa) = 24.22161 33.07161 28.64661
#
# Velocity S-wave (km/s) = 3.15967 3.69206 3.43619
# Velocity P-wave (km/s) = 4.87357 5.83847 5.37771
#
# Compressibility (1/GPa) = 0.03947895
#
# Stress axis : x y z
#
# Youngs Moduli (GPa) = 60.82065 44.57936 82.09883
#
# Poissons Ratio (x) = -0.02044 0.29957
# Poissons Ratio (y) = -0.02788 0.21323
# Poissons Ratio (z) = 0.22193 0.11578
#
# Static dielectric constant tensor:
#      x y z
#    x 2.047230 0.030570 -0.062510 
#    y 0.030570 2.026090 -0.002670 
#    z -0.062510 -0.002670 1.942340 
# 
# From -- ./inp_files/253131.got.cif
#   From: 2010.05.17/outbox.cif.g08.bks.cpg/sg2_127_cif.got.tgz:253131.got - 2010.06.03 11:33:40.
