data_PCOD9082127
_publ_section_title
;
Structure prediction by ZEFSAII (Michael W. Deem and Ramdas Pophale) SiO2 
 PCOD9082127
Probable space group: P -1
;
_chemical_formula_sum "Si O2"
_cell_formula_units_Z 14
_cell_length_a 22.558977
_cell_length_b 12.729444
_cell_length_c 12.040913
_cell_angle_alpha 137.071601
_cell_angle_beta 145.514389
_cell_angle_gamma 17.284604
_cell_volume 549.909591
_symmetry_space_group_name_H-M "P -1"
_symmetry_group_IT_number 2
_symmetry_cell_setting 'triclinic'
loop_
_space_group_symop_operation_xyz
x,y,z
-x,-y,-z
loop_
_atom_site_type_symbol
_atom_site_label
_atom_site_fract_x
_atom_site_fract_y
_atom_site_fract_z
Si Si1 0.568550 0.432761 0.279624
Si Si2 0.211543 0.440141 0.763415
Si Si3 0.993609 0.478989 0.310495
Si Si4 0.440787 0.848645 0.073198
Si Si5 0.974373 0.996519 0.326627
Si Si6 0.853410 0.820551 0.924998
Si Si7 0.266966 0.827521 0.312569
O O1 0.410036 0.758633 0.208740
O O2 0.366084 0.621305 0.192853
O O3 0.683144 0.138740 0.159874
O O4 0.779692 0.244165 0.525249
O O5 0.054056 0.564688 0.518389
O O6 0.466025 0.156617 0.879622
O O7 0.229542 0.296880 0.784821
O O8 0.009665 0.836235 0.805826
O O9 0.005379 0.441745 0.167322
O O10 0.225401 0.061263 0.390831
O O11 0.711800 0.422514 0.208912
O O12 0.255340 0.143239 0.116231
O O13 0.980036 0.809341 0.156235
O O14 0.000000 0.000000 0.500000
O O15 0.500000 0.500000 0.500000
#
# Coordination Sequence:
#
# PCOD9082127 Si02
#       7
#     2   2   2   2   2   2   2
#     4  10  19  33  51  83 118 138 183 234 289 331
#     4   9  19  36  57  78 114 153 188 225 278 336
#     4   8  19  38  55  77 115 155 186 223 280 342
#     4  11  20  31  56  85 106 149 189 228 278 340
#     4  11  18  32  54  82 120 145 172 245 293 320
#     4  10  19  34  56  81 109 150 191 221 283 341
#     4   9  17  33  56  83 107 141 186 233 277 330
#
# _framework density 25.458729999999999
#
# number of rings (size 3 to 8) (size 9 to 14) (size 15 to 20)
#    0.857    1.429    2.857    1.714    0.000    1.143 
#    2.571    0.000    0.000    9.429    0.000    0.000 
#    0.000    0.000    0.000    0.000    0.000    0.000 
#
# Total GULP energy -78106.390610 kJ/mol
# GULP energy per Si atom -5579.027901 kJ/mol
# Density = 2.540079 g / cm^3
# Si number density = 25.458730 Si / 1000 Ang^3
#
#
#
# Elastic Constant Matrix: (Units=GPa)
#
#
# Indices 1 2 3 4 5 6 
#
# 1 166.9087 43.9750 58.5115 2.9951 -2.4040 -54.2876
# 2 43.9750 103.2176 38.1609 -1.9764 13.1459 -37.3822
# 3 58.5115 38.1609 115.9468 -0.0343 12.3064 -24.3948
# 4 2.9951 -1.9764 -0.0343 35.4086 -16.1200 -3.5174
# 5 -2.4040 13.1459 12.3064 -16.1200 42.7316 -6.6818
# 6 -54.2876 -37.3822 -24.3948 -3.5174 -6.6818 59.2333
#
#
#
# Elastic Compliance Matrix: (Units=1/GPa)
#
#
# Indices 1 2 3 4 5 6 
#
# 1 0.009944 -0.000505 -0.003584 0.001514 0.003539 0.007808
# 2 -0.000505 0.013624 -0.002548 0.000463 -0.002239 0.006861
# 3 -0.003584 -0.002548 0.011498 -0.001420 -0.003362 -0.000621
# 4 0.001514 0.000463 -0.001420 0.035155 0.014364 0.004803
# 5 0.003539 -0.002239 -0.003362 0.014364 0.031434 0.004845
# 6 0.007808 0.006861 -0.000621 0.004803 0.004845 0.028944
#
#
# Mechanical properties :
#
#
# Convention : Reuss Voigt Hill
#
# Bulk Modulus (GPa) = 45.89042 74.15200 60.02121
# Shear Modulus (GPa) = 33.08218 43.83642 38.45930
#
# Velocity S-wave (km/s) = 3.60869 4.15403 3.89093
# Velocity P-wave (km/s) = 5.95215 7.22479 6.61913
#
# Compressibility (1/GPa) = 0.02179104
#
# Stress axis : x y z
#
# Youngs Moduli (GPa) = 100.55877 73.39827 86.97382
#
# Poissons Ratio (x) = 0.03710 0.31175
# Poissons Ratio (y) = 0.05083 0.22159
# Poissons Ratio (z) = 0.36044 0.18700
#
# Static dielectric constant tensor:
#      x y z
#    x 2.200730 -0.072640 -0.040950 
#    y -0.072640 2.070080 -0.029170 
#    z -0.040950 -0.029170 1.939350 
# 
# From -- ./inp_files/82961.got.cif
#   From: 2010.05.17/outbox.cif.g08.bks.cpg/sg2_42_cif.got.tgz:82961.got - 2010.06.03 11:33:40.
