data_PCOD9082671
_publ_section_title
;
Structure prediction by ZEFSAII (Michael W. Deem and Ramdas Pophale) SiO2 
 PCOD9082671
Probable space group: P -1
;
_chemical_formula_sum "Si O2"
_cell_formula_units_Z 16
_cell_length_a 4.912678
_cell_length_b 21.629940
_cell_length_c 11.224936
_cell_angle_alpha 134.767416
_cell_angle_beta 85.219776
_cell_angle_gamma 91.982969
_cell_volume 843.399408
_symmetry_space_group_name_H-M "P -1"
_symmetry_group_IT_number 2
_symmetry_cell_setting 'triclinic'
loop_
_space_group_symop_operation_xyz
x,y,z
-x,-y,-z
loop_
_atom_site_type_symbol
_atom_site_label
_atom_site_fract_x
_atom_site_fract_y
_atom_site_fract_z
Si Si1 0.946133 0.797513 0.295257
Si Si2 0.515995 0.793501 0.969229
Si Si3 0.517218 0.234503 0.325545
Si Si4 0.227908 0.591738 0.417926
Si Si5 0.047927 0.740990 0.482489
Si Si6 0.003935 0.692218 0.919245
Si Si7 0.462585 0.898796 0.345462
Si Si8 0.305361 0.505662 0.630939
O O1 0.648646 0.842577 0.354453
O O2 0.019928 0.768322 0.385353
O O3 0.157155 0.868382 0.337495
O O4 0.959973 0.717161 0.093087
O O5 0.542278 0.817272 0.862406
O O6 0.211601 0.762055 0.956933
O O7 0.723156 0.712911 0.887498
O O8 0.558097 0.867200 0.167113
O O9 0.641501 0.327333 0.405997
O O10 0.744199 0.202565 0.369543
O O11 0.241630 0.252490 0.432240
O O12 0.159700 0.641181 0.363638
O O13 0.469232 0.518456 0.308279
O O14 0.947216 0.559856 0.441708
O O15 0.148414 0.598335 0.773222
O O16 0.500000 0.000000 0.500000
O O17 0.500000 0.500000 0.500000
#
# Coordination Sequence:
#
# PCOD9082671 Si02
#       8
#     2   2   2   2   2   2   2   2
#     4  10  21  40  61  83 112 147 188 220 267 343
#     4  10  20  36  55  83 111 142 181 229 276 340
#     4  10  19  33  57  76 109 143 198 220 268 318
#     4  10  21  35  48  79 105 151 196 226 276 318
#     4  10  20  36  58  76 108 153 200 216 261 329
#     4  10  22  34  53  80 110 147 186 233 287 318
#     4  10  21  38  65  91 113 137 172 228 288 330
#     4  12  22  32  51  77 118 145 185 244 288 317
#
# _framework density 18.970845000000001
#
# number of rings (size 3 to 8) (size 9 to 14) (size 15 to 20)
#    0.750    1.000    1.250    3.750    1.750    0.000 
#    0.000    1.250    0.000    4.500    0.000    0.000 
#    0.000    0.000    0.000    0.000    0.000    0.000 
#
# Total GULP energy -89163.263151 kJ/mol
# GULP energy per Si atom -5572.703947 kJ/mol
# Density = 1.892767 g / cm^3
# Si number density = 18.970845 Si / 1000 Ang^3
#
#
#
# Elastic Constant Matrix: (Units=GPa)
#
#
# Indices 1 2 3 4 5 6 
#
# 1 88.4790 -4.5196 8.2950 -11.1395 -0.4222 -1.7012
# 2 -4.5196 36.8824 40.0335 -14.8088 2.7675 -6.6034
# 3 8.2950 40.0335 82.4204 -14.8187 2.2612 -11.2191
# 4 -11.1395 -14.8088 -14.8187 31.7607 -7.0874 9.3229
# 5 -0.4222 2.7675 2.2612 -7.0874 21.2564 -4.4705
# 6 -1.7012 -6.6034 -11.2191 9.3229 -4.4705 20.6581
#
#
#
# Elastic Compliance Matrix: (Units=1/GPa)
#
#
# Indices 1 2 3 4 5 6 
#
# 1 0.013187 0.009539 -0.004845 0.007668 0.001761 -0.001575
# 2 0.009539 0.071780 -0.032228 0.023211 0.001172 -0.003994
# 3 -0.004845 -0.032228 0.028256 -0.005509 0.000793 0.007302
# 4 0.007668 0.023211 -0.005509 0.049222 0.011022 -0.014769
# 5 0.001761 0.001172 0.000793 0.011022 0.052040 0.007238
# 6 -0.001575 -0.003994 0.007302 -0.014769 0.007238 0.059198
#
#
# Mechanical properties :
#
#
# Convention : Reuss Voigt Hill
#
# Bulk Modulus (GPa) = 17.19501 32.82217 25.00859
# Shear Modulus (GPa) = 14.36225 25.66657 20.01441
#
# Velocity S-wave (km/s) = 2.75448 3.68223 3.25161
# Velocity P-wave (km/s) = 4.38175 5.95125 5.22576
#
# Compressibility (1/GPa) = 0.05815642
#
# Stress axis : x y z
#
# Youngs Moduli (GPa) = 75.83189 13.93147 35.39064
#
# Poissons Ratio (x) = -0.13289 0.17146
# Poissons Ratio (y) = -0.72337 1.14056
# Poissons Ratio (z) = 0.36738 0.44898
#
# Static dielectric constant tensor:
#      x y z
#    x 1.679950 -0.019700 0.019980 
#    y -0.019700 1.668740 -0.004060 
#    z 0.019980 -0.004060 1.692780 
# 
# From -- ./inp_files/140827.got.cif
#   From: 2010.05.17/outbox.cif.g08.bks.cpg/sg2_71_cif.got.tgz:140827.got - 2010.06.03 11:33:40.
