data_PCOD9082924
_publ_section_title
;
Structure prediction by ZEFSAII (Michael W. Deem and Ramdas Pophale) SiO2 
 PCOD9082924
Probable space group: P -1
;
_chemical_formula_sum "Si O2"
_cell_formula_units_Z 16
_cell_length_a 12.360206
_cell_length_b 8.584035
_cell_length_c 14.550334
_cell_angle_alpha 76.505870
_cell_angle_beta 129.297432
_cell_angle_gamma 63.154010
_cell_volume 702.392758
_symmetry_space_group_name_H-M "P -1"
_symmetry_group_IT_number 2
_symmetry_cell_setting 'triclinic'
loop_
_space_group_symop_operation_xyz
x,y,z
-x,-y,-z
loop_
_atom_site_type_symbol
_atom_site_label
_atom_site_fract_x
_atom_site_fract_y
_atom_site_fract_z
Si Si1 0.621269 0.079945 0.248640
Si Si2 0.304641 0.815256 0.341624
Si Si3 0.684555 0.161992 0.450851
Si Si4 0.852837 0.046141 0.113179
Si Si5 0.306535 0.298233 0.892249
Si Si6 0.776383 0.273084 0.222648
Si Si7 0.977834 0.390137 0.601041
Si Si8 0.516028 0.294064 0.738501
O O1 0.594365 0.112348 0.338308
O O2 0.691490 0.198137 0.242999
O O3 0.840511 0.786050 0.362089
O O4 0.386840 0.241776 0.048832
O O5 0.500000 0.500000 0.500000
O O6 0.313165 0.894523 0.433996
O O7 0.361711 0.852088 0.273126
O O8 0.055772 0.957034 0.183913
O O9 0.551728 0.453918 0.331789
O O10 0.947726 0.960104 0.591255
O O11 0.966743 0.812008 0.274552
O O12 0.735986 0.271865 0.093078
O O13 0.687682 0.116227 0.940397
O O14 0.323756 0.463175 0.841524
O O15 0.061302 0.457083 0.703470
O O16 0.500000 0.000000 0.000000
O O17 0.717601 0.596754 0.400126
#
# Coordination Sequence:
#
# PCOD9082924 Si02
#       8
#     2   2   2   2   2   2   2   2
#     4  10  19  37  58  82 112 152 197 234 283 343
#     4   9  17  34  57  91 118 140 187 254 281 321
#     4  10  19  33  59  86 113 146 193 245 282 331
#     4  10  19  35  63  89 108 155 191 234 289 336
#     4  10  22  37  53  78 120 159 189 234 286 345
#     4  10  19  36  57  81 118 148 192 246 276 338
#     4  10  21  39  52  86 126 147 186 239 288 345
#     4  11  19  34  61  89 115 149 190 243 290 336
#
# _framework density 22.77928
#
# number of rings (size 3 to 8) (size 9 to 14) (size 15 to 20)
#    0.000    2.000    5.000    1.875    0.000    2.000 
#    2.250    1.250    0.000    3.750    0.000    0.000 
#    0.000    0.000    0.000    0.000    0.000    0.000 
#
# Total GULP energy -89418.139427 kJ/mol
# GULP energy per Si atom -5588.633714 kJ/mol
# Density = 2.272743 g / cm^3
# Si number density = 22.779280 Si / 1000 Ang^3
#
#
#
# Elastic Constant Matrix: (Units=GPa)
#
#
# Indices 1 2 3 4 5 6 
#
# 1 83.1335 40.2479 39.5121 16.4041 3.6846 -15.0357
# 2 40.2479 87.4353 45.7018 24.2813 4.4259 1.6356
# 3 39.5121 45.7018 165.4573 54.7727 2.9134 -20.1534
# 4 16.4041 24.2813 54.7727 50.3099 4.3311 -8.0169
# 5 3.6846 4.4259 2.9134 4.3311 17.9200 6.6121
# 6 -15.0357 1.6356 -20.1534 -8.0169 6.6121 32.5300
#
#
#
# Elastic Compliance Matrix: (Units=1/GPa)
#
#
# Indices 1 2 3 4 5 6 
#
# 1 0.018186 -0.007938 -0.001354 0.001330 -0.005341 0.009379
# 2 -0.007938 0.017701 -0.002382 -0.004691 0.001551 -0.007506
# 3 -0.001354 -0.002382 0.010564 -0.009316 0.000022 0.003738
# 4 0.001330 -0.004691 -0.009316 0.033248 -0.007399 0.004777
# 5 -0.005341 0.001551 0.000022 -0.007399 0.064768 -0.017521
# 6 0.009379 -0.007506 0.003738 0.004777 -0.017521 0.042508
#
#
# Mechanical properties :
#
#
# Convention : Reuss Voigt Hill
#
# Bulk Modulus (GPa) = 43.28619 65.21664 54.25141
# Shear Modulus (GPa) = 22.93310 34.18960 28.56135
#
# Velocity S-wave (km/s) = 3.17638 3.87836 3.54479
# Velocity P-wave (km/s) = 5.70054 6.98194 6.37353
#
# Compressibility (1/GPa) = 0.02310206
#
# Stress axis : x y z
#
# Youngs Moduli (GPa) = 54.98676 56.49452 94.65854
#
# Poissons Ratio (x) = 0.44846 0.12818
# Poissons Ratio (y) = 0.43649 0.22552
# Poissons Ratio (z) = 0.07446 0.13459
#
# Static dielectric constant tensor:
#      x y z
#    x 1.859550 0.005330 -0.031680 
#    y 0.005330 1.904580 -0.017020 
#    z -0.031680 -0.017020 1.938870 
# 
# From -- ./inp_files/528650.got.cif
#   From: 2010.05.17/outbox.cif.g08.bks.cpg/sg2_265_cif.got.tgz:528650.got - 2010.06.03 11:33:40.
