data_PCOD9082746
_publ_section_title
;
Structure prediction by ZEFSAII (Michael W. Deem and Ramdas Pophale) SiO2 
 PCOD9082746
Probable space group: P -1
;
_chemical_formula_sum "Si O2"
_cell_formula_units_Z 16
_cell_length_a 9.058824
_cell_length_b 4.903772
_cell_length_c 29.693608
_cell_angle_alpha 95.750901
_cell_angle_beta 36.453543
_cell_angle_gamma 77.613963
_cell_volume 675.706027
_symmetry_space_group_name_H-M "P -1"
_symmetry_group_IT_number 2
_symmetry_cell_setting 'triclinic'
loop_
_space_group_symop_operation_xyz
x,y,z
-x,-y,-z
loop_
_atom_site_type_symbol
_atom_site_label
_atom_site_fract_x
_atom_site_fract_y
_atom_site_fract_z
Si Si1 0.877556 0.173897 0.190848
Si Si2 0.144187 0.316181 0.862404
Si Si3 0.481693 0.174468 0.960463
Si Si4 0.788736 0.869459 0.060927
Si Si5 0.582376 0.264951 0.641109
Si Si6 0.991253 0.371861 0.605492
Si Si7 0.791866 0.232768 0.400320
Si Si8 0.595177 0.697047 0.579171
O O1 0.733973 0.436807 0.268502
O O2 0.856569 0.378349 0.153948
O O3 0.744053 0.956594 0.206785
O O4 0.193846 0.906032 0.124118
O O5 0.310975 0.126834 0.863316
O O6 0.798260 0.474359 0.960591
O O7 0.427122 0.030765 0.926135
O O8 0.500000 0.000000 0.000000
O O9 0.000000 0.500000 0.000000
O O10 0.000000 0.000000 0.000000
O O11 0.707784 0.358358 0.568833
O O12 0.741092 0.316089 0.645749
O O13 0.581591 0.947198 0.623450
O O14 0.969833 0.674359 0.642036
O O15 0.191564 0.323934 0.512595
O O16 0.141335 0.093687 0.599770
O O17 0.500000 0.500000 0.500000
O O18 0.702691 0.222118 0.370703
#
# Coordination Sequence:
#
# PCOD9082746 Si02
#       8
#     2   2   2   2   2   2   2   2
#     4  11  23  39  56  82 117 155 190 235 292 347
#     4  10  20  38  59  82 112 151 192 237 283 342
#     4   9  19  36  61  85 111 146 189 234 285 340
#     4  10  19  33  57  87 110 137 185 237 278 329
#     4  12  24  38  58  88 122 156 197 247 297 353
#     4  11  21  38  62  89 117 155 199 246 297 355
#     4  10  20  37  62  89 116 150 198 250 297 351
#     4  11  21  39  61  86 116 154 199 248 296 351
#
# _framework density 23.678934999999999
#
# number of rings (size 3 to 8) (size 9 to 14) (size 15 to 20)
#    0.000    1.500    0.000    8.625    0.000    3.000 
#    0.000    3.750    0.000    1.500    0.000    0.000 
#    0.000    0.000    0.000    0.000    0.000    0.000 
#
# Total GULP energy -89160.601613 kJ/mol
# GULP energy per Si atom -5572.537601 kJ/mol
# Density = 2.362504 g / cm^3
# Si number density = 23.678935 Si / 1000 Ang^3
#
#
#
# Elastic Constant Matrix: (Units=GPa)
#
#
# Indices 1 2 3 4 5 6 
#
# 1 156.2410 27.6879 23.0130 -13.3295 15.1247 -1.9969
# 2 27.6879 118.8664 -2.9394 -4.6080 13.8989 0.7177
# 3 23.0130 -2.9394 52.3481 2.4526 11.0742 3.5278
# 4 -13.3295 -4.6080 2.4526 16.8151 -3.0511 14.9997
# 5 15.1247 13.8989 11.0742 -3.0511 18.9550 0.1264
# 6 -1.9969 0.7177 3.5278 14.9997 0.1264 49.4033
#
#
#
# Elastic Compliance Matrix: (Units=1/GPa)
#
#
# Indices 1 2 3 4 5 6 
#
# 1 0.007974 -0.001386 -0.003368 0.007567 -0.002149 -0.001709
# 2 -0.001386 0.009702 0.002785 0.000150 -0.007609 -0.000422
# 3 -0.003368 0.002785 0.024268 -0.008906 -0.014972 0.000833
# 4 0.007567 0.000150 -0.008906 0.094100 0.014387 -0.027667
# 5 -0.002149 -0.007609 -0.014972 0.014387 0.071137 -0.003457
# 6 -0.001709 -0.000422 0.000833 -0.027667 -0.003457 0.028528
#
#
# Mechanical properties :
#
#
# Convention : Reuss Voigt Hill
#
# Bulk Modulus (GPa) = 26.31045 46.99761 36.65403
# Shear Modulus (GPa) = 19.81644 35.68094 27.74869
#
# Velocity S-wave (km/s) = 2.89603 3.88605 3.42698
# Velocity P-wave (km/s) = 4.72420 6.32662 5.58320
#
# Compressibility (1/GPa) = 0.03800771
#
# Stress axis : x y z
#
# Youngs Moduli (GPa) = 125.41133 103.06629 41.20595
#
# Poissons Ratio (x) = 0.14281 0.13877
# Poissons Ratio (y) = 0.17377 -0.11476
# Poissons Ratio (z) = 0.42236 -0.28704
#
# Static dielectric constant tensor:
#      x y z
#    x 2.043870 -0.008900 0.004580 
#    y -0.008900 1.849450 -0.002610 
#    z 0.004580 -0.002610 1.998320 
# 
# From -- ./inp_files/616355.got.cif
#   From: 2010.05.17/outbox.cif.g08.bks.cpg/sg2_309_cif.got.tgz:616355.got - 2010.06.03 11:33:40.
