data_PCOD9082844
_publ_section_title
;
Structure prediction by ZEFSAII (Michael W. Deem and Ramdas Pophale) SiO2 
 PCOD9082844
Probable space group: P -1
;
_chemical_formula_sum "Si O2"
_cell_formula_units_Z 14
_cell_length_a 11.770456
_cell_length_b 7.456590
_cell_length_c 11.901484
_cell_angle_alpha 101.780300
_cell_angle_beta 45.857872
_cell_angle_gamma 72.427742
_cell_volume 568.579274
_symmetry_space_group_name_H-M "P -1"
_symmetry_group_IT_number 2
_symmetry_cell_setting 'triclinic'
loop_
_space_group_symop_operation_xyz
x,y,z
-x,-y,-z
loop_
_atom_site_type_symbol
_atom_site_label
_atom_site_fract_x
_atom_site_fract_y
_atom_site_fract_z
Si Si1 0.967535 0.404365 0.125785
Si Si2 0.451670 0.121621 0.430705
Si Si3 0.103660 0.373053 0.263923
Si Si4 0.679143 0.783673 0.694710
Si Si5 0.319070 0.692219 0.733738
Si Si6 0.426420 0.618938 0.896110
Si Si7 0.179532 0.753142 0.288587
O O1 0.762356 0.629880 0.355619
O O2 0.895703 0.246898 0.136786
O O3 0.125062 0.310161 0.109826
O O4 0.000000 0.500000 0.000000
O O5 0.396428 0.056387 0.344455
O O6 0.641795 0.118289 0.272972
O O7 0.500000 0.000000 0.500000
O O8 0.246428 0.178137 0.236772
O O9 0.135219 0.568754 0.282983
O O10 0.872200 0.518550 0.486021
O O11 0.508853 0.762339 0.839840
O O12 0.500000 0.500000 0.500000
O O13 0.377460 0.577799 0.802536
O O14 0.610684 0.379864 0.801940
O O15 0.229210 0.771125 0.129355
O O16 0.000000 0.000000 0.500000
#
# Coordination Sequence:
#
# PCOD9082844 Si02
#       7
#     2   2   2   2   2   2   2
#     4  10  19  33  58  86 115 157 199 238 295 373
#     4   9  18  35  59  80 112 152 196 253 303 351
#     4   9  17  33  58  82 114 154 195 246 300 360
#     4   8  16  33  61  74 107 157 193 234 307 356
#     4   9  18  35  61  86 111 165 206 230 302 386
#     4   9  18  36  61  83 118 162 198 247 307 368
#     4  10  20  35  58  91 120 152 202 259 307 363
#
# _framework density 24.622778
#
# number of rings (size 3 to 8) (size 9 to 14) (size 15 to 20)
#    0.000    2.857    0.000    1.714    0.000    0.000 
#   10.286    1.429   44.000    0.000    0.000    0.000 
#    0.000    0.000    0.000    0.000    0.000    0.000 
#
# Total GULP energy -78058.767138 kJ/mol
# GULP energy per Si atom -5575.626224 kJ/mol
# Density = 2.456674 g / cm^3
# Si number density = 24.622778 Si / 1000 Ang^3
#
#
#
# Elastic Constant Matrix: (Units=GPa)
#
#
# Indices 1 2 3 4 5 6 
#
# 1 165.4370 72.7570 62.2450 -23.1202 33.0640 -39.2569
# 2 72.7570 73.2656 25.5514 -29.0258 18.1133 -26.7771
# 3 62.2450 25.5514 146.9446 -24.2744 13.8577 0.7525
# 4 -23.1202 -29.0258 -24.2744 50.7354 -4.3862 10.3633
# 5 33.0640 18.1133 13.8577 -4.3862 35.8973 -14.2057
# 6 -39.2569 -26.7771 0.7525 10.3633 -14.2057 43.9438
#
#
#
# Elastic Compliance Matrix: (Units=1/GPa)
#
#
# Indices 1 2 3 4 5 6 
#
# 1 0.014029 -0.010703 -0.004262 -0.003252 -0.004085 0.005531
# 2 -0.010703 0.031518 0.001324 0.012362 -0.002743 0.005820
# 3 -0.004262 0.001324 0.009226 0.004036 -0.001649 -0.004643
# 4 -0.003252 0.012362 0.004036 0.027577 -0.002523 -0.002761
# 5 -0.004085 -0.002743 -0.001649 -0.002523 0.036090 0.006969
# 6 0.005531 0.005820 -0.004643 -0.002761 0.006969 0.034227
#
#
# Mechanical properties :
#
#
# Convention : Reuss Voigt Hill
#
# Bulk Modulus (GPa) = 36.37301 78.52822 57.45061
# Shear Modulus (GPa) = 26.43916 41.12154 33.78035
#
# Velocity S-wave (km/s) = 3.28040 4.09107 3.70795
# Velocity P-wave (km/s) = 5.39927 7.36733 6.45870
#
# Compressibility (1/GPa) = 0.02749291
#
# Stress axis : x y z
#
# Youngs Moduli (GPa) = 71.27881 31.72771 108.38542
#
# Poissons Ratio (x) = 0.33957 0.46194
# Poissons Ratio (y) = 0.76287 -0.14352
# Poissons Ratio (z) = 0.30379 -0.04201
#
# Static dielectric constant tensor:
#      x y z
#    x 1.878200 0.411080 -0.122100 
#    y 0.411080 1.085290 0.321000 
#    z -0.122100 0.321000 1.866280 
# 
# From -- ./inp_files/332109.got.cif
#   From: 2010.05.17/outbox.cif.g08.bks.cpg/sg2_167_cif.got.tgz:332109.got - 2010.06.03 11:33:40.
