data_PCOD9082878
_publ_section_title
;
Structure prediction by ZEFSAII (Michael W. Deem and Ramdas Pophale) SiO2 
 PCOD9082878
Probable space group: P -1
;
_chemical_formula_sum "Si O2"
_cell_formula_units_Z 14
_cell_length_a 10.100145
_cell_length_b 11.742000
_cell_length_c 15.998564
_cell_angle_alpha 134.091237
_cell_angle_beta 142.756874
_cell_angle_gamma 71.501681
_cell_volume 691.810198
_symmetry_space_group_name_H-M "P -1"
_symmetry_group_IT_number 2
_symmetry_cell_setting 'triclinic'
loop_
_space_group_symop_operation_xyz
x,y,z
-x,-y,-z
loop_
_atom_site_type_symbol
_atom_site_label
_atom_site_fract_x
_atom_site_fract_y
_atom_site_fract_z
Si Si1 0.572040 0.419933 0.720597
Si Si2 0.917699 0.620479 0.222118
Si Si3 0.677887 0.698534 0.644427
Si Si4 0.254660 0.037642 0.602196
Si Si5 0.743293 0.078225 0.901849
Si Si6 0.888598 0.304275 0.931346
Si Si7 0.651765 0.589226 0.233783
O O1 0.424750 0.328003 0.514448
O O2 0.379390 0.435077 0.695160
O O3 0.836559 0.623379 0.937424
O O4 0.694410 0.310493 0.770728
O O5 0.947730 0.465503 0.112394
O O6 0.872793 0.601471 0.290694
O O7 0.635192 0.574738 0.027092
O O8 0.149721 0.825078 0.411905
O O9 0.500000 0.500000 0.500000
O O10 0.666648 0.865979 0.768486
O O11 0.983705 0.776945 0.843633
O O12 0.505675 0.099321 0.815990
O O13 0.327043 0.211515 0.668181
O O14 0.000000 0.000000 0.500000
O O15 0.779618 0.122377 0.842194
#
# Coordination Sequence:
#
# PCOD9082878 Si02
#       7
#     2   2   2   2   2   2   2
#     4  10  19  36  57  89 121 148 197 256 299 340
#     4   9  17  32  55  84 118 153 180 244 302 350
#     4  11  24  40  59  82 127 169 192 238 310 369
#     4  10  19  33  58  90 112 150 204 249 292 349
#     4  11  22  39  59  89 117 160 205 240 295 379
#     4  10  19  35  61  92 115 147 204 251 300 352
#     4   9  18  34  54  87 118 146 194 244 298 352
#
# _framework density 20.236763
#
# number of rings (size 3 to 8) (size 9 to 14) (size 15 to 20)
#    0.000    2.000    4.286    0.857    0.000    0.571 
#    7.714    0.000    0.000    4.286    0.000    0.000 
#    0.000    0.000    0.000    0.000    0.000    0.000 
#
# Total GULP energy -77982.772829 kJ/mol
# GULP energy per Si atom -5570.198059 kJ/mol
# Density = 2.019070 g / cm^3
# Si number density = 20.236763 Si / 1000 Ang^3
#
#
#
# Elastic Constant Matrix: (Units=GPa)
#
#
# Indices 1 2 3 4 5 6 
#
# 1 96.2406 23.3211 36.6888 -5.3657 2.3757 5.1045
# 2 23.3211 74.2298 45.6353 11.9235 3.3258 4.0487
# 3 36.6888 45.6353 110.0265 0.0688 10.1726 15.6362
# 4 -5.3657 11.9235 0.0688 38.7115 1.5754 -0.7948
# 5 2.3757 3.3258 10.1726 1.5754 30.7225 -4.7678
# 6 5.1045 4.0487 15.6362 -0.7948 -4.7678 18.6170
#
#
#
# Elastic Compliance Matrix: (Units=1/GPa)
#
#
# Indices 1 2 3 4 5 6 
#
# 1 0.012285 -0.002319 -0.003146 0.002413 0.000209 -0.000065
# 2 -0.002319 0.019978 -0.008108 -0.006457 0.001532 0.003217
# 3 -0.003146 -0.008108 0.015782 0.002032 -0.006087 -0.012101
# 4 0.002413 -0.006457 0.002032 0.028214 -0.001635 -0.000179
# 5 0.000209 0.001532 -0.006087 -0.001635 0.036645 0.014037
# 6 -0.000065 0.003217 -0.012101 -0.000179 0.014037 0.066783
#
#
# Mechanical properties :
#
#
# Convention : Reuss Voigt Hill
#
# Bulk Modulus (GPa) = 47.84916 54.64305 51.24610
# Shear Modulus (GPa) = 23.38646 29.26696 26.32671
#
# Velocity S-wave (km/s) = 3.40316 3.80706 3.61076
# Velocity P-wave (km/s) = 6.25604 6.81068 6.53924
#
# Compressibility (1/GPa) = 0.02089901
#
# Stress axis : x y z
#
# Youngs Moduli (GPa) = 81.40202 50.05604 63.36369
#
# Poissons Ratio (x) = 0.11606 0.19936
# Poissons Ratio (y) = 0.18874 0.51373
# Poissons Ratio (z) = 0.25612 0.40584
#
# Static dielectric constant tensor:
#      x y z
#    x 1.797100 -0.005480 0.011500 
#    y -0.005480 1.794590 0.047480 
#    z 0.011500 0.047480 1.780210 
# 
# From -- ./inp_files/568844.got.cif
#   From: 2010.05.17/outbox.cif.g08.bks.cpg/sg2_285_cif.got.tgz:568844.got - 2010.06.03 11:33:40.
