data_PCOD9082032
_publ_section_title
;
Structure prediction by ZEFSAII (Michael W. Deem and Ramdas Pophale) SiO2 
 PCOD9082032
Probable space group: P -1
;
_chemical_formula_sum "Si O2"
_cell_formula_units_Z 16
_cell_length_a 9.620050
_cell_length_b 9.853733
_cell_length_c 13.731846
_cell_angle_alpha 50.394683
_cell_angle_beta 95.797267
_cell_angle_gamma 133.601490
_cell_volume 577.179500
_symmetry_space_group_name_H-M "P -1"
_symmetry_group_IT_number 2
_symmetry_cell_setting 'triclinic'
loop_
_space_group_symop_operation_xyz
x,y,z
-x,-y,-z
loop_
_atom_site_type_symbol
_atom_site_label
_atom_site_fract_x
_atom_site_fract_y
_atom_site_fract_z
Si Si1 0.732715 0.618201 0.061020
Si Si2 0.062888 0.163967 0.729398
Si Si3 0.166551 0.522042 0.052241
Si Si4 0.184114 0.562860 0.692215
Si Si5 0.627460 0.889231 0.007661
Si Si6 0.918681 0.262747 0.527196
Si Si7 0.596854 0.405200 0.667694
Si Si8 0.261914 0.099619 0.617285
O O1 0.758804 0.548945 0.989802
O O2 0.994758 0.982175 0.902670
O O3 0.597145 0.659272 0.063685
O O4 0.693478 0.411964 0.221861
O O5 0.226648 0.483283 0.638710
O O6 0.853101 0.042846 0.703305
O O7 0.194486 0.175604 0.659862
O O8 0.427656 0.816061 0.982897
O O9 0.984455 0.261987 0.242350
O O10 0.000000 0.500000 0.000000
O O11 0.235650 0.807528 0.539269
O O12 0.895177 0.240212 0.843294
O O13 0.562149 0.803962 0.154900
O O14 0.144913 0.418209 0.412399
O O15 0.000000 0.500000 0.500000
O O16 0.454745 0.198379 0.653339
O O17 0.652455 0.674495 0.560379
#
# Coordination Sequence:
#
# PCOD9082032 Si02
#       8
#     2   2   2   2   2   2   2   2
#     4  10  20  39  62  83 116 157 203 243 286 350
#     4   8  15  33  55  83 111 150 185 238 289 345
#     4  11  25  39  57  82 125 161 193 242 292 352
#     4  10  19  32  61  90 118 143 197 255 291 337
#     4  11  22  36  60  89 115 158 198 236 298 353
#     4   9  19  32  52  87 120 146 178 242 304 338
#     4  10  20  35  64  88 113 146 202 247 288 348
#     4   9  19  38  59  85 113 153 195 239 291 346
#
# _framework density 27.721012000000002
#
# number of rings (size 3 to 8) (size 9 to 14) (size 15 to 20)
#    0.000    2.250    0.000    4.125    3.500    2.000 
#    0.000    0.000    0.000    0.750    0.000    0.000 
#    0.000    0.000    0.000    0.000    0.000    0.000 
#
# Total GULP energy -89123.797320 kJ/mol
# GULP energy per Si atom -5570.237332 kJ/mol
# Density = 2.765792 g / cm^3
# Si number density = 27.721012 Si / 1000 Ang^3
#
#
#
# Elastic Constant Matrix: (Units=GPa)
#
#
# Indices 1 2 3 4 5 6 
#
# 1 129.4163 36.5725 59.1312 6.2746 7.0939 18.6640
# 2 36.5725 38.2129 28.2869 -2.9260 -0.2728 2.5738
# 3 59.1312 28.2869 166.5119 10.7692 2.1138 4.0544
# 4 6.2746 -2.9260 10.7692 41.7992 0.2365 3.1918
# 5 7.0939 -0.2728 2.1138 0.2365 34.2523 11.2439
# 6 18.6640 2.5738 4.0544 3.1918 11.2439 31.0655
#
#
#
# Elastic Compliance Matrix: (Units=1/GPa)
#
#
# Indices 1 2 3 4 5 6 
#
# 1 0.012697 -0.009956 -0.002567 -0.001471 -0.000530 -0.006126
# 2 -0.009956 0.038454 -0.003387 0.004891 0.001868 0.002059
# 3 -0.002567 -0.003387 0.007591 -0.001893 -0.000327 0.001145
# 4 -0.001471 0.004891 -0.001893 0.025139 0.001017 -0.002226
# 5 -0.000530 0.001868 -0.000327 0.001017 0.033250 -0.011933
# 6 -0.006126 0.002059 0.001145 -0.002226 -0.011933 0.040098
#
#
# Mechanical properties :
#
#
# Convention : Reuss Voigt Hill
#
# Bulk Modulus (GPa) = 37.14309 64.68026 50.91168
# Shear Modulus (GPa) = 25.24959 35.43344 30.34152
#
# Velocity S-wave (km/s) = 3.02130 3.57909 3.31196
# Velocity P-wave (km/s) = 5.05954 6.36106 5.74726
#
# Compressibility (1/GPa) = 0.02692291
#
# Stress axis : x y z
#
# Youngs Moduli (GPa) = 78.75916 26.00501 131.73202
#
# Poissons Ratio (x) = 0.25890 0.33811
# Poissons Ratio (y) = 0.78411 0.44621
# Poissons Ratio (z) = 0.20214 0.08809
#
# Static dielectric constant tensor:
#      x y z
#    x 2.269500 0.052770 0.095570 
#    y 0.052770 2.411690 -0.042960 
#    z 0.095570 -0.042960 2.243560 
# 
# From -- ./inp_files/500043.got.cif
#   From: 2010.05.17/outbox.cif.g08.bks.cpg/sg2_251_cif.got.tgz:500043.got - 2010.06.03 11:33:40.
