data_PCOD9082917
_publ_section_title
;
Structure prediction by ZEFSAII (Michael W. Deem and Ramdas Pophale) SiO2 
 PCOD9082917
Probable space group: P -1
;
_chemical_formula_sum "Si O2"
_cell_formula_units_Z 14
_cell_length_a 17.073122
_cell_length_b 8.983943
_cell_length_c 12.698100
_cell_angle_alpha 104.814722
_cell_angle_beta 132.766206
_cell_angle_gamma 114.730710
_cell_volume 762.537982
_symmetry_space_group_name_H-M "P -1"
_symmetry_group_IT_number 2
_symmetry_cell_setting 'triclinic'
loop_
_space_group_symop_operation_xyz
x,y,z
-x,-y,-z
loop_
_atom_site_type_symbol
_atom_site_label
_atom_site_fract_x
_atom_site_fract_y
_atom_site_fract_z
Si Si1 0.618522 0.276871 0.713845
Si Si2 0.968384 0.283657 0.900686
Si Si3 0.481962 0.441428 0.151194
Si Si4 0.390564 0.310397 0.468510
Si Si5 0.822139 0.055758 0.490242
Si Si6 0.758424 0.550623 0.105995
Si Si7 0.463860 0.123181 0.940882
O O1 0.491602 0.273463 0.585313
O O2 0.500000 0.000000 0.500000
O O3 0.669656 0.331104 0.894261
O O4 0.821341 0.536884 0.886739
O O5 0.875034 0.169031 0.677863
O O6 0.832401 0.012401 0.799840
O O7 0.000000 0.500000 0.000000
O O8 0.565474 0.529609 0.361762
O O9 0.651032 0.725070 0.287421
O O10 0.304049 0.349970 0.965962
O O11 0.439259 0.224776 0.025142
O O12 0.500000 0.500000 0.500000
O O13 0.013487 0.210229 0.642686
O O14 0.726192 0.080213 0.342604
O O15 0.648795 0.384068 0.083666
O O16 0.500000 0.000000 0.000000
#
# Coordination Sequence:
#
# PCOD9082917 Si02
#       7
#     2   2   2   2   2   2   2
#     4  10  19  33  59  84 111 150 192 235 276 334
#     4  10  19  35  59  87 112 147 197 231 271 338
#     4   9  20  38  56  80 108 149 191 228 272 340
#     4  10  21  37  56  84 119 149 184 235 289 336
#     4   9  19  37  60  81 108 145 193 229 271 334
#     4   9  19  36  59  79 105 149 195 224 273 336
#     4  11  23  36  54  83 117 143 181 236 287 330
#
# _framework density 18.359741
#
# number of rings (size 3 to 8) (size 9 to 14) (size 15 to 20)
#    0.000    2.286    1.429    2.571    0.000    4.571 
#    0.000    0.000    0.000    0.000    0.000    0.000 
#    0.000    0.000    0.000    0.000    0.000    0.000 
#
# Total GULP energy -78011.646242 kJ/mol
# GULP energy per Si atom -5572.260446 kJ/mol
# Density = 1.831795 g / cm^3
# Si number density = 18.359741 Si / 1000 Ang^3
#
#
#
# Elastic Constant Matrix: (Units=GPa)
#
#
# Indices 1 2 3 4 5 6 
#
# 1 94.2790 25.8316 32.2964 11.2072 9.2697 2.7869
# 2 25.8316 63.6760 25.3073 2.4131 -1.5332 9.1718
# 3 32.2964 25.3073 85.7330 7.9266 18.4411 -0.5185
# 4 11.2072 2.4131 7.9266 15.9914 -1.5546 3.7998
# 5 9.2697 -1.5332 18.4411 -1.5546 39.1568 6.1604
# 6 2.7869 9.1718 -0.5185 3.7998 6.1604 31.6421
#
#
#
# Elastic Compliance Matrix: (Units=1/GPa)
#
#
# Indices 1 2 3 4 5 6 
#
# 1 0.013990 -0.004692 -0.002448 -0.008572 -0.002949 0.001691
# 2 -0.004692 0.021238 -0.006468 0.005769 0.006444 -0.007796
# 3 -0.002448 -0.006468 0.017160 -0.007874 -0.008861 0.005042
# 4 -0.008572 0.005769 -0.007874 0.075540 0.010888 -0.012237
# 5 -0.002949 0.006444 -0.008861 0.010888 0.032574 -0.009403
# 6 0.001691 -0.007796 0.005042 -0.012237 -0.009403 0.037097
#
#
# Mechanical properties :
#
#
# Convention : Reuss Voigt Hill
#
# Bulk Modulus (GPa) = 39.72761 45.61763 42.67262
# Shear Modulus (GPa) = 21.44027 28.04156 24.74092
#
# Velocity S-wave (km/s) = 3.42100 3.91236 3.67490
# Velocity P-wave (km/s) = 6.10653 6.73121 6.42647
#
# Compressibility (1/GPa) = 0.02517141
#
# Stress axis : x y z
#
# Youngs Moduli (GPa) = 71.48014 47.08487 58.27423
#
# Poissons Ratio (x) = 0.22093 0.14265
# Poissons Ratio (y) = 0.33540 0.37694
# Poissons Ratio (z) = 0.17498 0.30456
#
# Static dielectric constant tensor:
#      x y z
#    x 1.657800 0.010230 -0.043520 
#    y 0.010230 1.606100 -0.004210 
#    z -0.043520 -0.004210 1.666790 
# 
# From -- ./inp_files/201830.got.cif
#   From: 2010.05.17/outbox.cif.g08.bks.cpg/sg2_101_cif.got.tgz:201830.got - 2010.06.03 11:33:40.
