data_PCOD9082584
_publ_section_title
;
Structure prediction by ZEFSAII (Michael W. Deem and Ramdas Pophale) SiO2 
 PCOD9082584
Probable space group: P -1
;
_chemical_formula_sum "Si O2"
_cell_formula_units_Z 16
_cell_length_a 21.433978
_cell_length_b 8.630263
_cell_length_c 21.819315
_cell_angle_alpha 137.240064
_cell_angle_beta 166.238032
_cell_angle_gamma 41.085726
_cell_volume 630.944874
_symmetry_space_group_name_H-M "P -1"
_symmetry_group_IT_number 2
_symmetry_cell_setting 'triclinic'
loop_
_space_group_symop_operation_xyz
x,y,z
-x,-y,-z
loop_
_atom_site_type_symbol
_atom_site_label
_atom_site_fract_x
_atom_site_fract_y
_atom_site_fract_z
Si Si1 0.360048 0.341113 0.742231
Si Si2 0.364697 0.477720 0.059341
Si Si3 0.282945 0.975414 0.135493
Si Si4 0.470113 0.556144 0.382115
Si Si5 0.239123 0.842761 0.369696
Si Si6 0.934593 0.749601 0.877400
Si Si7 0.141326 0.816388 0.750485
Si Si8 0.061333 0.828391 0.449109
O O1 0.506926 0.431602 0.852039
O O2 0.244519 0.578987 0.739938
O O3 0.104447 0.230939 0.457494
O O4 0.594075 0.167783 0.954919
O O5 0.621452 0.305059 0.286546
O O6 0.240276 0.727881 0.046435
O O7 0.131187 0.351275 0.783255
O O8 0.080405 0.058266 0.910221
O O9 0.595002 0.959078 0.417479
O O10 0.195750 0.189472 0.161754
O O11 0.326060 0.696246 0.346340
O O12 0.652038 0.318043 0.515040
O O13 0.680189 0.679755 0.582948
O O14 0.213401 0.551736 0.093875
O O15 0.000000 0.000000 0.000000
O O16 0.025122 0.023444 0.652021
O O17 0.000000 0.000000 0.500000
#
# Coordination Sequence:
#
# PCOD9082584 Si02
#       8
#     2   2   2   2   2   2   2   2
#     4  10  21  36  60  85 112 148 189 241 298 350
#     4  12  24  39  62  87 119 157 202 244 300 361
#     4  10  21  36  57  80 115 150 183 233 288 341
#     4   9  17  30  55  83 103 135 181 237 268 316
#     4   9  17  33  55  81 106 134 184 229 280 321
#     4  10  19  33  56  83 112 150 190 225 273 339
#     4  10  21  37  59  86 115 143 190 248 295 336
#     4  12  24  39  62  91 115 154 204 252 290 351
#
# _framework density 25.358791
#
# number of rings (size 3 to 8) (size 9 to 14) (size 15 to 20)
#    0.000    1.750    1.250    3.750    3.500    3.000 
#    0.000    0.000   16.500    0.000    0.000    0.000 
#    0.000    0.000    0.000    0.000    0.000    0.000 
#
# Total GULP energy -89465.952034 kJ/mol
# GULP energy per Si atom -5591.622002 kJ/mol
# Density = 2.530107 g / cm^3
# Si number density = 25.358791 Si / 1000 Ang^3
#
#
#
# Elastic Constant Matrix: (Units=GPa)
#
#
# Indices 1 2 3 4 5 6 
#
# 1 50.3435 2.5406 4.8019 -4.8733 6.5656 6.1801
# 2 2.5406 67.2757 1.3240 -9.8590 -14.7411 0.4301
# 3 4.8019 1.3240 76.2373 0.5816 -6.2431 -10.8418
# 4 -4.8733 -9.8590 0.5816 51.5791 14.0710 -0.3852
# 5 6.5656 -14.7411 -6.2431 14.0710 15.8909 0.6341
# 6 6.1801 0.4301 -10.8418 -0.3852 0.6341 36.9053
#
#
#
# Elastic Compliance Matrix: (Units=1/GPa)
#
#
# Indices 1 2 3 4 5 6 
#
# 1 0.024806 -0.004702 -0.004096 0.007683 -0.022830 -0.004830
# 2 -0.004702 0.019760 0.002034 -0.003198 0.023875 0.000711
# 3 -0.004096 0.002034 0.015072 -0.003522 0.012426 0.004840
# 4 0.007683 -0.003198 -0.003522 0.028438 -0.032649 -0.001426
# 5 -0.022830 0.023875 0.012426 -0.032649 0.128116 0.004653
# 6 -0.004830 0.000711 0.004840 -0.001426 0.004653 0.029224
#
#
# Mechanical properties :
#
#
# Convention : Reuss Voigt Hill
#
# Bulk Modulus (GPa) = 21.68726 23.46547 22.57637
# Shear Modulus (GPa) = 18.22732 33.22106 25.72419
#
# Velocity S-wave (km/s) = 2.68391 3.62338 3.18843
# Velocity P-wave (km/s) = 4.26324 5.17481 4.74098
#
# Compressibility (1/GPa) = 0.04611001
#
# Stress axis : x y z
#
# Youngs Moduli (GPa) = 40.31359 50.60745 66.34699
#
# Poissons Ratio (x) = 0.23794 0.27174
# Poissons Ratio (y) = 0.18954 -0.13492
# Poissons Ratio (z) = 0.16512 -0.10292
#
# Static dielectric constant tensor:
#      x y z
#    x 2.522160 -0.270060 -0.065240 
#    y -0.270060 2.149030 0.053150 
#    z -0.065240 0.053150 1.985870 
# 
# From -- ./inp_files/621181.got.cif
#   From: 2010.05.17/outbox.cif.g08.bks.cpg/sg2_311_cif.got.tgz:621181.got - 2010.06.03 11:33:40.
