data_PCOD9082952
_publ_section_title
;
Structure prediction by ZEFSAII (Michael W. Deem and Ramdas Pophale) SiO2 
 PCOD9082952
Probable space group: P -1
;
_chemical_formula_sum "Si O2"
_cell_formula_units_Z 16
_cell_length_a 12.431702
_cell_length_b 16.398975
_cell_length_c 20.587694
_cell_angle_alpha 24.740574
_cell_angle_beta 28.010307
_cell_angle_gamma 23.590072
_cell_volume 670.174835
_symmetry_space_group_name_H-M "P -1"
_symmetry_group_IT_number 2
_symmetry_cell_setting 'triclinic'
loop_
_space_group_symop_operation_xyz
x,y,z
-x,-y,-z
loop_
_atom_site_type_symbol
_atom_site_label
_atom_site_fract_x
_atom_site_fract_y
_atom_site_fract_z
Si Si1 0.171896 0.713555 0.690807
Si Si2 0.179588 0.900927 0.084823
Si Si3 0.283094 0.568610 0.873736
Si Si4 0.838479 0.326290 0.608667
Si Si5 0.400471 0.941578 0.531045
Si Si6 0.777768 0.856888 0.677625
Si Si7 0.202273 0.202271 0.698330
Si Si8 0.218800 0.565693 0.063483
O O1 0.092828 0.678929 0.830489
O O2 0.497757 0.491461 0.661760
O O3 0.974418 0.735294 0.723349
O O4 0.159336 0.956546 0.518427
O O5 0.512157 0.714414 0.040027
O O6 0.105408 0.830862 0.243666
O O7 0.045872 0.827409 0.154444
O O8 0.032468 0.180989 0.958108
O O9 0.206484 0.611530 0.959072
O O10 0.457364 0.683168 0.689321
O O11 0.900649 0.525662 0.439456
O O12 0.060105 0.138403 0.573275
O O13 0.500000 0.000000 0.500000
O O14 0.599694 0.915864 0.385904
O O15 0.443995 0.033314 0.743664
O O16 0.820696 0.647507 0.759939
O O17 0.500000 0.500000 0.000000
#
# Coordination Sequence:
#
# PCOD9082952 Si02
#       8
#     2   2   2   2   2   2   2   2
#     4   9  21  43  69  87 120 173 217 258 296 364
#     4  11  20  37  59  91 129 159 206 254 318 378
#     4  11  23  39  65  90 123 166 211 255 311 376
#     4  10  19  33  59  92 120 157 214 261 301 359
#     4  12  19  30  60  95 121 155 206 259 311 359
#     4  10  21  42  65  88 130 169 204 259 315 362
#     4  11  19  36  59  91 127 162 204 262 310 361
#     4  12  25  41  62  95 133 164 196 261 330 381
#
# _framework density 23.874369000000002
#
# number of rings (size 3 to 8) (size 9 to 14) (size 15 to 20)
#    0.000    1.250    7.500    1.125    0.000    1.000 
#    0.000    4.375    2.750    0.000    0.000    0.000 
#    0.000    0.000    0.000    0.000    0.000    0.000 
#
# Total GULP energy -89347.274082 kJ/mol
# GULP energy per Si atom -5584.204630 kJ/mol
# Density = 2.382003 g / cm^3
# Si number density = 23.874369 Si / 1000 Ang^3
#
#
#
# Elastic Constant Matrix: (Units=GPa)
#
#
# Indices 1 2 3 4 5 6 
#
# 1 127.7236 45.9550 41.9530 -3.1004 0.4846 -8.0082
# 2 45.9550 133.0792 33.0920 -27.2116 4.7571 3.3849
# 3 41.9530 33.0920 103.7512 -29.1184 3.0378 -4.1823
# 4 -3.1004 -27.2116 -29.1184 47.4198 11.2325 2.3235
# 5 0.4846 4.7571 3.0378 11.2325 45.6949 2.2984
# 6 -8.0082 3.3849 -4.1823 2.3235 2.2984 30.2724
#
#
#
# Elastic Compliance Matrix: (Units=1/GPa)
#
#
# Indices 1 2 3 4 5 6 
#
# 1 0.010635 -0.003654 -0.004349 -0.004577 0.001538 0.002856
# 2 -0.003654 0.010224 -0.000040 0.006302 -0.002451 -0.002413
# 3 -0.004349 -0.000040 0.014054 0.009046 -0.003125 0.000338
# 4 -0.004577 0.006302 0.009046 0.032213 -0.009004 -0.002454
# 5 0.001538 -0.002451 -0.003125 -0.009004 0.024591 -0.000927
# 6 0.002856 -0.002413 0.000338 -0.002454 -0.000927 0.034364
#
#
# Mechanical properties :
#
#
# Convention : Reuss Voigt Hill
#
# Bulk Modulus (GPa) = 53.11970 67.39488 60.25729
# Shear Modulus (GPa) = 33.68296 40.91437 37.29867
#
# Velocity S-wave (km/s) = 3.76019 4.14422 3.95687
# Velocity P-wave (km/s) = 6.41483 7.15470 6.79484
#
# Compressibility (1/GPa) = 0.01882541
#
# Stress axis : x y z
#
# Youngs Moduli (GPa) = 94.02978 97.81060 71.15509
#
# Poissons Ratio (x) = 0.35744 0.30946
# Poissons Ratio (y) = 0.34362 0.00285
# Poissons Ratio (z) = 0.40895 0.00391
#
# Static dielectric constant tensor:
#      x y z
#    x 2.026650 -0.005720 0.081510 
#    y -0.005720 1.886330 0.033720 
#    z 0.081510 0.033720 1.965230 
# 
# From -- ./inp_files/595347.got.cif
#   From: 2010.05.17/outbox.cif.g08.bks.cpg/sg2_298_cif.got.tgz:595347.got - 2010.06.03 11:33:40.
