data_PCOD9082843
_publ_section_title
;
Structure prediction by ZEFSAII (Michael W. Deem and Ramdas Pophale) SiO2 
 PCOD9082843
Probable space group: P -1
;
_chemical_formula_sum "Si O2"
_cell_formula_units_Z 12
_cell_length_a 9.125589
_cell_length_b 9.521656
_cell_length_c 14.214422
_cell_angle_alpha 29.577679
_cell_angle_beta 62.971824
_cell_angle_gamma 73.054101
_cell_volume 527.733497
_symmetry_space_group_name_H-M "P -1"
_symmetry_group_IT_number 2
_symmetry_cell_setting 'triclinic'
loop_
_space_group_symop_operation_xyz
x,y,z
-x,-y,-z
loop_
_atom_site_type_symbol
_atom_site_label
_atom_site_fract_x
_atom_site_fract_y
_atom_site_fract_z
Si Si1 0.575485 0.347616 0.771169
Si Si2 0.532974 0.643735 0.008254
Si Si3 0.007555 0.824134 0.856900
Si Si4 0.220019 0.485955 0.739544
Si Si5 0.688031 0.172862 0.322817
Si Si6 0.782286 0.239645 0.609934
O O1 0.607825 0.426738 0.826524
O O2 0.414620 0.455841 0.712164
O O3 0.732736 0.387143 0.632762
O O4 0.500000 0.000000 0.000000
O O5 0.669887 0.487934 0.106129
O O6 0.500000 0.500000 0.000000
O O7 0.613746 0.988540 0.776008
O O8 0.209310 0.955334 0.710659
O O9 0.919396 0.050961 0.698259
O O10 0.000000 0.500000 0.000000
O O11 0.916901 0.761920 0.020746
O O12 0.220458 0.776525 0.632480
O O13 0.175531 0.533138 0.618981
O O14 0.500000 0.000000 0.500000
#
# Coordination Sequence:
#
# PCOD9082843 Si02
#       6
#     2   2   2   2   2   2
#     4   9  17  34  56  85 118 146 191 240 273 340
#     4  10  19  34  55  85 115 150 190 235 284 338
#     4  10  19  36  53  84 120 141 194 247 276 333
#     4  10  19  33  58  86 112 148 192 233 288 334
#     4  10  20  36  53  80 119 150 186 241 292 337
#     4  11  19  34  60  89 110 152 194 236 283 338
#
# _framework density 22.738748999999999
#
# number of rings (size 3 to 8) (size 9 to 14) (size 15 to 20)
#    0.000    2.000    6.667    1.500    0.000    2.667 
#    3.000    0.000    0.000    5.000    0.000    0.000 
#    0.000    0.000    0.000    0.000    0.000    0.000 
#
# Total GULP energy -66807.967301 kJ/mol
# GULP energy per Si atom -5567.330608 kJ/mol
# Density = 2.268700 g / cm^3
# Si number density = 22.738749 Si / 1000 Ang^3
#
#
#
# Elastic Constant Matrix: (Units=GPa)
#
#
# Indices 1 2 3 4 5 6 
#
# 1 49.4803 21.4883 35.2199 23.0045 1.4119 -27.1468
# 2 21.4883 109.5960 26.8995 23.4572 11.8606 -4.9039
# 3 35.2199 26.8995 89.4912 31.3925 17.9017 -9.5935
# 4 23.0045 23.4572 31.3925 47.5942 1.5493 0.1439
# 5 1.4119 11.8606 17.9017 1.5493 33.6338 2.4501
# 6 -27.1468 -4.9039 -9.5935 0.1439 2.4501 34.2898
#
#
#
# Elastic Compliance Matrix: (Units=1/GPa)
#
#
# Indices 1 2 3 4 5 6 
#
# 1 0.070373 -0.003428 -0.013370 -0.023750 0.002721 0.051388
# 2 -0.003428 0.010907 -0.000105 -0.003536 -0.003416 -0.000925
# 3 -0.013370 -0.000105 0.020197 -0.006484 -0.009544 -0.004240
# 4 -0.023750 -0.003536 -0.006484 0.038396 0.005506 -0.021677
# 5 0.002721 -0.003416 -0.009544 0.005506 0.035911 -0.003593
# 6 0.051388 -0.000925 -0.004240 -0.021677 -0.003593 0.068876
#
#
# Mechanical properties :
#
#
# Convention : Reuss Voigt Hill
#
# Bulk Modulus (GPa) = 14.77714 46.19810 30.48762
# Shear Modulus (GPa) = 16.61006 34.10089 25.35547
#
# Velocity S-wave (km/s) = 2.70566 3.87677 3.34290
# Velocity P-wave (km/s) = 4.03405 6.35611 5.32324
#
# Compressibility (1/GPa) = 0.06767211
#
# Stress axis : x y z
#
# Youngs Moduli (GPa) = 14.20998 91.68066 49.51287
#
# Poissons Ratio (x) = 0.31430 0.66197
# Poissons Ratio (y) = 0.04872 0.00519
# Poissons Ratio (z) = 0.18998 0.00961
#
# Static dielectric constant tensor:
#      x y z
#    x 1.969360 0.016890 -0.113170 
#    y 0.016890 1.971340 0.002950 
#    z -0.113170 0.002950 1.942210 
# 
# From -- ./inp_files/255402.got.cif
#   From: 2010.05.17/outbox.cif.g08.bks.cpg/sg2_128_cif.got.tgz:255402.got - 2010.06.03 11:33:40.
