data_PCOD9082294
_publ_section_title
;
Structure prediction by ZEFSAII (Michael W. Deem and Ramdas Pophale) SiO2 
 PCOD9082294
Probable space group: P -1
;
_chemical_formula_sum "Si O2"
_cell_formula_units_Z 14
_cell_length_a 9.633458
_cell_length_b 17.303709
_cell_length_c 7.297853
_cell_angle_alpha 120.018354
_cell_angle_beta 54.089330
_cell_angle_gamma 144.911688
_cell_volume 565.843069
_symmetry_space_group_name_H-M "P -1"
_symmetry_group_IT_number 2
_symmetry_cell_setting 'triclinic'
loop_
_space_group_symop_operation_xyz
x,y,z
-x,-y,-z
loop_
_atom_site_type_symbol
_atom_site_label
_atom_site_fract_x
_atom_site_fract_y
_atom_site_fract_z
Si Si1 0.784866 0.239626 0.830684
Si Si2 0.944583 0.535641 0.851230
Si Si3 0.275420 0.336292 0.470031
Si Si4 0.187819 0.692022 0.505702
Si Si5 0.376577 0.368915 0.037849
Si Si6 0.249135 0.145944 0.757900
Si Si7 0.291734 0.140221 0.163089
O O1 0.747056 0.223150 0.621102
O O2 0.022500 0.263247 0.697375
O O3 0.501470 0.142028 0.024000
O O4 0.911191 0.380382 0.977721
O O5 0.980711 0.453440 0.632737
O O6 0.039243 0.646041 0.757106
O O7 0.637930 0.423249 0.975694
O O8 0.500000 0.500000 0.500000
O O9 0.204237 0.318828 0.288220
O O10 0.354130 0.262880 0.343500
O O11 0.477411 0.776849 0.443947
O O12 0.500000 0.500000 0.000000
O O13 0.237545 0.247706 0.865781
O O14 0.267251 0.141418 0.961206
O O15 0.993419 0.997844 0.715623
#
# Coordination Sequence:
#
# PCOD9082294 Si02
#       7
#     2   2   2   2   2   2   2
#     4  11  21  36  61  85 116 156 192 245 301 342
#     4  10  19  33  53  87 117 147 197 242 292 354
#     4  11  22  35  57  90 116 147 199 242 292 354
#     4   9  19  33  57  83 113 155 194 240 294 350
#     4  10  19  35  57  85 119 151 191 248 295 344
#     4   8  17  38  59  81 118 158 197 239 291 354
#     4   9  20  38  60  85 117 157 198 241 290 354
#
# _framework density 24.741841000000001
#
# number of rings (size 3 to 8) (size 9 to 14) (size 15 to 20)
#    0.000    2.286    1.429    2.143    2.000    0.000 
#    0.000   13.571    0.000    1.714    0.000    0.000 
#    0.000    0.000    0.000    0.000    0.000    0.000 
#
# Total GULP energy -77965.209170 kJ/mol
# GULP energy per Si atom -5568.943512 kJ/mol
# Density = 2.468553 g / cm^3
# Si number density = 24.741841 Si / 1000 Ang^3
#
#
#
# Elastic Constant Matrix: (Units=GPa)
#
#
# Indices 1 2 3 4 5 6 
#
# 1 48.3307 8.7143 22.4030 -5.5470 1.9385 6.8058
# 2 8.7143 117.2171 33.9507 -17.5237 -15.0931 14.8633
# 3 22.4030 33.9507 124.9904 -17.0133 -14.9226 16.3179
# 4 -5.5470 -17.5237 -17.0133 24.1993 3.2174 -10.2682
# 5 1.9385 -15.0931 -14.9226 3.2174 37.9722 -6.7082
# 6 6.8058 14.8633 16.3179 -10.2682 -6.7082 20.5314
#
#
#
# Elastic Compliance Matrix: (Units=1/GPa)
#
#
# Indices 1 2 3 4 5 6 
#
# 1 0.023503 -0.000358 -0.003771 0.000674 -0.003844 -0.005454
# 2 -0.000358 0.010411 -0.001392 0.004843 0.002666 -0.003019
# 3 -0.003771 -0.001392 0.010303 0.003644 0.002816 -0.003189
# 4 0.000674 0.004843 0.003644 0.056804 0.002502 0.022601
# 5 -0.003844 0.002666 0.002816 0.002502 0.029923 0.008134
# 6 -0.005454 -0.003019 -0.003189 0.022601 0.008134 0.069194
#
#
# Mechanical properties :
#
#
# Convention : Reuss Voigt Hill
#
# Bulk Modulus (GPa) = 30.14272 46.74160 38.44216
# Shear Modulus (GPa) = 22.49843 31.57193 27.03518
#
# Velocity S-wave (km/s) = 3.01878 3.57607 3.30917
# Velocity P-wave (km/s) = 4.93559 5.99864 5.49289
#
# Compressibility (1/GPa) = 0.03317551
#
# Stress axis : x y z
#
# Youngs Moduli (GPa) = 42.54840 96.05195 97.05850
#
# Poissons Ratio (x) = 0.03437 0.36597
# Poissons Ratio (y) = 0.01523 0.13513
# Poissons Ratio (z) = 0.16043 0.13373
#
# Static dielectric constant tensor:
#      x y z
#    x 2.162230 -0.036860 -0.049240 
#    y -0.036860 1.933230 0.020540 
#    z -0.049240 0.020540 2.024160 
# 
# From -- ./inp_files/182561.got.cif
#   From: 2010.05.17/outbox.cif.g08.bks.cpg/sg2_92_cif.got.tgz:182561.got - 2010.06.03 11:33:40.
