data_PCOD9082514
_publ_section_title
;
Structure prediction by ZEFSAII (Michael W. Deem and Ramdas Pophale) SiO2 
 PCOD9082514
Probable space group: P -1
;
_chemical_formula_sum "Si O2"
_cell_formula_units_Z 10
_cell_length_a 9.267325
_cell_length_b 5.168104
_cell_length_c 15.340880
_cell_angle_alpha 69.338342
_cell_angle_beta 37.493459
_cell_angle_gamma 80.190211
_cell_volume 410.633508
_symmetry_space_group_name_H-M "P -1"
_symmetry_group_IT_number 2
_symmetry_cell_setting 'triclinic'
loop_
_space_group_symop_operation_xyz
x,y,z
-x,-y,-z
loop_
_atom_site_type_symbol
_atom_site_label
_atom_site_fract_x
_atom_site_fract_y
_atom_site_fract_z
Si Si1 0.143893 0.982713 0.845098
Si Si2 0.260426 0.330548 0.016616
Si Si3 0.024258 0.053791 0.333262
Si Si4 0.773547 0.580053 0.392207
Si Si5 0.512552 0.971593 0.802880
O O1 0.413650 0.004203 0.748529
O O2 0.109039 0.230028 0.767877
O O3 0.009940 0.705967 0.891255
O O4 0.000000 0.000000 0.000000
O O5 0.392746 0.650660 0.923438
O O6 0.212609 0.164509 0.150010
O O7 0.414109 0.180406 0.892605
O O8 0.200411 0.983857 0.331869
O O9 0.895312 0.314355 0.380479
O O10 0.830979 0.788964 0.422038
O O11 0.500000 0.500000 0.500000
#
# Coordination Sequence:
#
# PCOD9082514 Si02
#       5
#     2   2   2   2   2
#     4   9  20  37  59  86 114 148 187 230 278 333
#     4  10  19  33  55  87 120 150 179 225 286 342
#     4  11  21  37  58  83 112 151 191 231 279 335
#     4  11  24  42  59  79 113 156 192 227 280 344
#     4  11  20  33  56  89 117 143 184 239 281 324
#
# _framework density 24.352615
#
# number of rings (size 3 to 8) (size 9 to 14) (size 15 to 20)
#    0.000    1.600    0.000    7.200    0.000    4.800 
#    0.000    2.000    0.000    0.000    0.000    0.000 
#    0.000    0.000    0.000    0.000    0.000    0.000 
#
# Total GULP energy -55948.952598 kJ/mol
# GULP energy per Si atom -5594.895260 kJ/mol
# Density = 2.429719 g / cm^3
# Si number density = 24.352615 Si / 1000 Ang^3
#
#
#
# Elastic Constant Matrix: (Units=GPa)
#
#
# Indices 1 2 3 4 5 6 
#
# 1 105.3333 23.7430 27.4012 1.3496 -46.4112 -9.9656
# 2 23.7430 152.1714 28.6324 -8.5134 -24.5853 6.7810
# 3 27.4012 28.6324 59.1209 -1.7506 -13.9553 -4.6361
# 4 1.3496 -8.5134 -1.7506 24.4165 2.0989 -17.2929
# 5 -46.4112 -24.5853 -13.9553 2.0989 44.2036 8.0196
# 6 -9.9656 6.7810 -4.6361 -17.2929 8.0196 24.1232
#
#
#
# Elastic Compliance Matrix: (Units=1/GPa)
#
#
# Indices 1 2 3 4 5 6 
#
# 1 0.019112 0.001097 -0.005147 -0.005740 0.020085 -0.004194
# 2 0.001097 0.008160 -0.003648 -0.002288 0.005753 -0.006094
# 3 -0.005147 -0.003648 0.021357 0.007169 -0.002669 0.009030
# 4 -0.005740 -0.002288 0.007169 0.098346 -0.023872 0.078086
# 5 0.020085 0.005753 -0.002669 -0.023872 0.052344 -0.028347
# 6 -0.004194 -0.006094 0.009030 0.078086 -0.028347 0.108570
#
#
# Mechanical properties :
#
#
# Convention : Reuss Voigt Hill
#
# Bulk Modulus (GPa) = 30.09072 52.90878 41.49975
# Shear Modulus (GPa) = 14.95386 34.33858 24.64622
#
# Velocity S-wave (km/s) = 2.48070 3.75915 3.18473
# Velocity P-wave (km/s) = 4.53743 6.37298 5.53187
#
# Compressibility (1/GPa) = 0.03323284
#
# Stress axis : x y z
#
# Youngs Moduli (GPa) = 52.32389 122.55263 46.82279
#
# Poissons Ratio (x) = -0.13447 0.24100
# Poissons Ratio (y) = -0.05741 0.17081
# Poissons Ratio (z) = 0.26932 0.44707
#
# Static dielectric constant tensor:
#      x y z
#    x 1.994310 -0.029430 -0.042860 
#    y -0.029430 1.894990 -0.008790 
#    z -0.042860 -0.008790 2.013460 
# 
# From -- ./inp_files/19856.got.cif
#   From: 2010.05.17/outbox.cif.g08.bks.cpg/sg2_10_cif.got.tgz:19856.got - 2010.06.03 11:33:40.
