data_PCOD9082921
_publ_section_title
;
Structure prediction by ZEFSAII (Michael W. Deem and Ramdas Pophale) SiO2 
 PCOD9082921
Probable space group: P -1
;
_chemical_formula_sum "Si O2"
_cell_formula_units_Z 16
_cell_length_a 15.317589
_cell_length_b 21.884143
_cell_length_c 11.297353
_cell_angle_alpha 33.120841
_cell_angle_beta 155.202185
_cell_angle_gamma 157.743738
_cell_volume 601.499773
_symmetry_space_group_name_H-M "P -1"
_symmetry_group_IT_number 2
_symmetry_cell_setting 'triclinic'
loop_
_space_group_symop_operation_xyz
x,y,z
-x,-y,-z
loop_
_atom_site_type_symbol
_atom_site_label
_atom_site_fract_x
_atom_site_fract_y
_atom_site_fract_z
Si Si1 0.780418 0.539203 0.441795
Si Si2 0.593429 0.880686 0.219547
Si Si3 0.027555 0.159892 0.696890
Si Si4 0.724346 0.953045 0.886620
Si Si5 0.651232 0.672209 0.558175
Si Si6 0.071546 0.427670 0.072793
Si Si7 0.565608 0.115165 0.732608
Si Si8 0.869963 0.232008 0.697828
O O1 0.874022 0.678211 0.416741
O O2 0.842052 0.607906 0.274239
O O3 0.450257 0.386239 0.335230
O O4 0.981504 0.507102 0.766070
O O5 0.754722 0.841881 0.412939
O O6 0.557668 0.858937 0.353674
O O7 0.239979 0.729620 0.993316
O O8 0.683275 0.042915 0.044433
O O9 0.974036 0.086725 0.879726
O O10 0.715182 0.026618 0.463548
O O11 0.246763 0.168988 0.872265
O O12 0.397446 0.847604 0.598845
O O13 0.815003 0.076247 0.899031
O O14 0.348409 0.553512 0.297319
O O15 0.840447 0.642249 0.789660
O O16 0.794252 0.257225 0.689582
#
# Coordination Sequence:
#
# PCOD9082921 Si02
#       8
#     2   2   2   2   2   2   2   2
#     4  10  19  33  59  85 119 140 183 239 279 326
#     4  10  21  41  58  79 117 148 191 236 273 337
#     4   9  16  30  51  85 113 144 180 220 279 332
#     4   8  16  28  48  79 120 144 177 222 268 337
#     4  10  21  38  60  83 109 147 195 237 279 321
#     4  10  21  38  60  84 106 150 192 238 278 324
#     4  10  20  37  58  80 115 157 180 228 289 335
#     4   9  18  33  52  86 117 151 180 226 288 335
#
# _framework density 26.600173999999999
#
# number of rings (size 3 to 8) (size 9 to 14) (size 15 to 20)
#    0.000    2.500    0.000    3.750    1.750    0.000 
#    6.750    3.750    0.000    1.500    0.000    0.000 
#    0.000    0.000    0.000    0.000    0.000    0.000 
#
# Total GULP energy -89421.403666 kJ/mol
# GULP energy per Si atom -5588.837729 kJ/mol
# Density = 2.653963 g / cm^3
# Si number density = 26.600174 Si / 1000 Ang^3
#
#
#
# Elastic Constant Matrix: (Units=GPa)
#
#
# Indices 1 2 3 4 5 6 
#
# 1 130.3811 3.4934 41.9425 -21.8284 15.3614 -11.3027
# 2 3.4934 67.1549 23.5814 -20.2838 3.0565 -14.1001
# 3 41.9425 23.5814 104.2847 -20.0487 44.2552 -4.5016
# 4 -21.8284 -20.2838 -20.0487 38.2667 -5.5843 8.7004
# 5 15.3614 3.0565 44.2552 -5.5843 52.1018 -5.7237
# 6 -11.3027 -14.1001 -4.5016 8.7004 -5.7237 34.3163
#
#
#
# Elastic Compliance Matrix: (Units=1/GPa)
#
#
# Indices 1 2 3 4 5 6 
#
# 1 0.009768 0.002836 -0.004123 0.004433 0.001252 0.002927
# 2 0.002836 0.020686 -0.005813 0.008556 0.004604 0.007270
# 3 -0.004123 -0.005813 0.019463 0.003613 -0.015097 -0.004627
# 4 0.004433 0.008556 0.003613 0.035752 -0.001470 -0.003860
# 5 0.001252 0.004604 -0.015097 -0.001470 0.031880 0.006014
# 6 0.002927 0.007270 -0.004627 -0.003860 0.006014 0.034466
#
#
# Mechanical properties :
#
#
# Convention : Reuss Voigt Hill
#
# Bulk Modulus (GPa) = 27.99775 48.87278 38.43526
# Shear Modulus (GPa) = 28.07060 40.45719 34.26389
#
# Velocity S-wave (km/s) = 3.25203 3.90415 3.59292
# Velocity P-wave (km/s) = 4.96479 6.22384 5.62962
#
# Compressibility (1/GPa) = 0.03571716
#
# Stress axis : x y z
#
# Youngs Moduli (GPa) = 102.37007 48.34225 51.37886
#
# Poissons Ratio (x) = -0.13710 0.21184
# Poissons Ratio (y) = -0.29033 0.29868
# Poissons Ratio (z) = 0.42207 0.28103
#
# Static dielectric constant tensor:
#      x y z
#    x 2.141860 0.028440 0.019270 
#    y 0.028440 2.115050 0.009930 
#    z 0.019270 0.009930 2.180500 
# 
# From -- ./inp_files/457460.got.cif
#   From: 2010.05.17/outbox.cif.g08.bks.cpg/sg2_229_cif.got.tgz:457460.got - 2010.06.03 11:33:40.
