data_PCOD9082416
_publ_section_title
;
Structure prediction by ZEFSAII (Michael W. Deem and Ramdas Pophale) SiO2 
 PCOD9082416
Probable space group: P -1
;
_chemical_formula_sum "Si O2"
_cell_formula_units_Z 16
_cell_length_a 13.074438
_cell_length_b 15.029258
_cell_length_c 12.131680
_cell_angle_alpha 41.315693
_cell_angle_beta 61.623463
_cell_angle_gamma 31.104960
_cell_volume 707.812537
_symmetry_space_group_name_H-M "P -1"
_symmetry_group_IT_number 2
_symmetry_cell_setting 'triclinic'
loop_
_space_group_symop_operation_xyz
x,y,z
-x,-y,-z
loop_
_atom_site_type_symbol
_atom_site_label
_atom_site_fract_x
_atom_site_fract_y
_atom_site_fract_z
Si Si1 0.327630 0.162531 0.740866
Si Si2 0.506645 0.704930 0.478356
Si Si3 0.842185 0.163035 0.536248
Si Si4 0.814897 0.650917 0.614998
Si Si5 0.489377 0.712091 0.118920
Si Si6 0.586961 0.117831 0.397141
Si Si7 0.095541 0.906067 0.184156
Si Si8 0.626314 0.284476 0.048065
O O1 0.437892 0.197969 0.676929
O O2 0.272758 0.219724 0.583880
O O3 0.084627 0.385426 0.717288
O O4 0.477984 0.883468 0.954972
O O5 0.324065 0.801064 0.414822
O O6 0.407720 0.815008 0.551121
O O7 0.735121 0.387742 0.654005
O O8 0.679245 0.456824 0.336090
O O9 0.963532 0.044281 0.701463
O O10 0.000000 0.000000 0.500000
O O11 0.680833 0.644803 0.708206
O O12 0.693465 0.087894 0.267429
O O13 0.242159 0.895813 0.103928
O O14 0.524015 0.611771 0.073578
O O15 0.718197 0.845443 0.577948
O O16 0.855185 0.130638 0.038251
O O17 0.500000 0.500000 0.000000
#
# Coordination Sequence:
#
# PCOD9082416 Si02
#       8
#     2   2   2   2   2   2   2   2
#     4  10  20  36  60  93 128 163 208 255 316 368
#     4  10  21  38  66  89 118 173 214 246 307 389
#     4  11  24  48  66  86 123 174 209 257 319 378
#     4   9  19  34  55  83 136 173 185 245 328 385
#     4  11  23  39  64  97 125 160 213 265 305 369
#     4  10  19  33  54  89 127 163 203 240 315 373
#     4  11  24  43  64  86 127 172 212 248 319 380
#     4  12  23  35  60  98 126 156 208 269 306 359
#
# _framework density 22.604856999999999
#
# number of rings (size 3 to 8) (size 9 to 14) (size 15 to 20)
#    0.000    1.500    1.250    5.625    5.250    0.000 
#    0.000    3.125    0.000    0.000    0.000    0.000 
#    0.000    0.000    0.000    0.000    0.000    0.000 
#
# Total GULP energy -89435.509002 kJ/mol
# GULP energy per Si atom -5589.719313 kJ/mol
# Density = 2.255341 g / cm^3
# Si number density = 22.604857 Si / 1000 Ang^3
#
#
#
# Elastic Constant Matrix: (Units=GPa)
#
#
# Indices 1 2 3 4 5 6 
#
# 1 72.6795 9.9395 43.4014 -8.9470 -20.5979 -4.2266
# 2 9.9395 102.0196 -5.2041 -3.0288 -7.4279 -2.0608
# 3 43.4014 -5.2041 62.2184 0.4282 -25.1199 -4.4252
# 4 -8.9470 -3.0288 0.4282 28.9592 1.4769 -1.8821
# 5 -20.5979 -7.4279 -25.1199 1.4769 35.0749 4.4756
# 6 -4.2266 -2.0608 -4.4252 -1.8821 4.4756 40.0172
#
#
#
# Elastic Compliance Matrix: (Units=1/GPa)
#
#
# Indices 1 2 3 4 5 6 
#
# 1 0.026482 -0.003144 -0.018151 0.008103 0.001437 0.000848
# 2 -0.003144 0.010610 0.004573 -0.000095 0.003640 0.000308
# 3 -0.018151 0.004573 0.035678 -0.006469 0.016113 0.000157
# 4 0.008103 -0.000095 -0.006469 0.037344 -0.001733 0.002086
# 5 0.001437 0.003640 0.016113 -0.001733 0.042078 -0.002667
# 6 0.000848 0.000308 0.000157 0.002086 -0.002667 0.025508
#
#
# Mechanical properties :
#
#
# Convention : Reuss Voigt Hill
#
# Bulk Modulus (GPa) = 25.42884 37.02124 31.22504
# Shear Modulus (GPa) = 22.29609 33.39565 27.84587
#
# Velocity S-wave (km/s) = 3.14401 3.84782 3.51358
# Velocity P-wave (km/s) = 4.94504 6.01283 5.50489
#
# Compressibility (1/GPa) = 0.03932543
#
# Stress axis : x y z
#
# Youngs Moduli (GPa) = 37.76092 94.25036 28.02866
#
# Poissons Ratio (x) = 0.29629 0.50876
# Poissons Ratio (y) = 0.11871 -0.12817
# Poissons Ratio (z) = 0.68541 -0.43098
#
# Static dielectric constant tensor:
#      x y z
#    x 1.881480 -0.034860 -0.107740 
#    y -0.034860 1.882680 0.076460 
#    z -0.107740 0.076460 1.971410 
# 
# From -- ./inp_files/455476.got.cif
#   From: 2010.05.17/outbox.cif.g08.bks.cpg/sg2_228_cif.got.tgz:455476.got - 2010.06.03 11:33:40.
