data_PCOD9082345
_publ_section_title
;
Structure prediction by ZEFSAII (Michael W. Deem and Ramdas Pophale) SiO2 
 PCOD9082345
Probable space group: P -1
;
_chemical_formula_sum "Si O2"
_cell_formula_units_Z 13
_cell_length_a 5.048812
_cell_length_b 24.734823
_cell_length_c 22.312787
_cell_angle_alpha 10.770560
_cell_angle_beta 65.258145
_cell_angle_gamma 67.902644
_cell_volume 462.770860
_symmetry_space_group_name_H-M "P -1"
_symmetry_group_IT_number 2
_symmetry_cell_setting 'triclinic'
loop_
_space_group_symop_operation_xyz
x,y,z
-x,-y,-z
loop_
_atom_site_type_symbol
_atom_site_label
_atom_site_fract_x
_atom_site_fract_y
_atom_site_fract_z
Si Si1 0.000000 0.500000 0.500000
Si Si2 0.064616 0.076125 0.341768
Si Si3 0.249328 0.201553 0.908798
Si Si4 0.644256 0.500285 0.233059
Si Si5 0.015474 0.007321 0.723726
Si Si6 0.740337 0.572671 0.846092
Si Si7 0.353760 0.283868 0.609902
O O1 0.138253 0.272678 0.777703
O O2 0.049714 0.311643 0.639324
O O3 0.353637 0.297085 0.046552
O O4 0.000000 0.000000 0.500000
O O5 0.009338 0.774592 0.638477
O O6 0.813858 0.273042 0.140391
O O7 0.423888 0.482407 0.623455
O O8 0.982842 0.051843 0.141478
O O9 0.505979 0.007350 0.089387
O O10 0.762044 0.206711 0.526045
O O11 0.373032 0.415141 0.397455
O O12 0.895407 0.708419 0.024367
O O13 0.290546 0.210180 0.442334
O O14 0.500000 0.500000 0.000000
#
# Coordination Sequence:
#
# PCOD9082345 Si02
#       7
#     1   2   2   2   2   2   2
#     4  12  24  38  64  92 116 146 204 234 296 352
#     4  10  19  33  54  80 110 147 187 231 282 336
#     4  10  22  40  60  85 118 156 190 240 292 343
#     4   8  16  33  55  73 106 150 184 218 280 342
#     4   8  16  33  55  73 106 150 184 218 280 342
#     4  10  19  33  54  80 110 147 187 231 282 336
#     4  10  22  40  60  85 118 156 190 240 292 343
#
# _framework density 28.091653999999998
#
# number of rings (size 3 to 8) (size 9 to 14) (size 15 to 20)
#    0.000    2.462    0.000    1.846    0.000    2.462 
#    2.769    0.000    0.000    0.000    0.000    0.000 
#    0.000    0.000    0.000    0.000    0.000    0.000 
#
# Total GULP energy -72510.735046 kJ/mol
# GULP energy per Si atom -5577.748850 kJ/mol
# Density = 2.802772 g / cm^3
# Si number density = 28.091654 Si / 1000 Ang^3
#
#
#
# Elastic Constant Matrix: (Units=GPa)
#
#
# Indices 1 2 3 4 5 6 
#
# 1 77.8238 22.3956 2.3197 10.4569 3.7766 13.3175
# 2 22.3956 235.8827 80.7576 20.1467 3.8149 -5.5060
# 3 2.3197 80.7576 153.9240 -28.4486 13.3860 -5.7746
# 4 10.4569 20.1467 -28.4486 110.0997 10.4174 6.6620
# 5 3.7766 3.8149 13.3860 10.4174 30.8731 -17.0313
# 6 13.3175 -5.5060 -5.7746 6.6620 -17.0313 36.1542
#
#
#
# Elastic Compliance Matrix: (Units=1/GPa)
#
#
# Indices 1 2 3 4 5 6 
#
# 1 0.015289 -0.002009 0.001216 0.000504 -0.007484 -0.009362
# 2 -0.002009 0.005927 -0.003727 -0.002407 0.003734 0.003250
# 3 0.001216 -0.003727 0.009656 0.003959 -0.007192 -0.003591
# 4 0.000504 -0.002407 0.003959 0.011719 -0.008894 -0.006269
# 5 -0.007484 0.003734 -0.007192 -0.008894 0.055488 0.029955
# 6 -0.009362 0.003250 -0.003591 -0.006269 0.029955 0.046295
#
#
# Mechanical properties :
#
#
# Convention : Reuss Voigt Hill
#
# Bulk Modulus (GPa) = 45.80150 75.39737 60.59943
# Shear Modulus (GPa) = 31.11557 59.56925 45.34241
#
# Velocity S-wave (km/s) = 3.33174 4.60992 4.02193
# Velocity P-wave (km/s) = 5.58035 7.43190 6.57166
#
# Compressibility (1/GPa) = 0.02183334
#
# Stress axis : x y z
#
# Youngs Moduli (GPa) = 65.40785 168.71502 103.55865
#
# Poissons Ratio (x) = 0.33886 -0.12595
# Poissons Ratio (y) = 0.13137 0.38598
# Poissons Ratio (z) = -0.07955 0.62882
#
# Static dielectric constant tensor:
#      x y z
#    x 2.115700 -0.132640 -0.148290 
#    y -0.132640 2.211620 0.159940 
#    z -0.148290 0.159940 2.257890 
# 
# From -- ./inp_files/8413.got.cif
#   From: 2010.05.17/outbox.cif.g08.bks.cpg/sg2_5_cif.got.tgz:8413.got - 2010.06.03 11:33:40.
