data_PCOD9082787
_publ_section_title
;
Structure prediction by ZEFSAII (Michael W. Deem and Ramdas Pophale) SiO2 
 PCOD9082787
Probable space group: P -1
;
_chemical_formula_sum "Si O2"
_cell_formula_units_Z 14
_cell_length_a 8.132323
_cell_length_b 12.246880
_cell_length_c 9.772650
_cell_angle_alpha 117.097305
_cell_angle_beta 102.070859
_cell_angle_gamma 126.133623
_cell_volume 523.001070
_symmetry_space_group_name_H-M "P -1"
_symmetry_group_IT_number 2
_symmetry_cell_setting 'triclinic'
loop_
_space_group_symop_operation_xyz
x,y,z
-x,-y,-z
loop_
_atom_site_type_symbol
_atom_site_label
_atom_site_fract_x
_atom_site_fract_y
_atom_site_fract_z
Si Si1 0.235288 0.703359 0.572165
Si Si2 0.260334 0.738809 0.165743
Si Si3 0.877228 0.789059 0.713107
Si Si4 0.403862 0.205265 0.101320
Si Si5 0.596580 0.567250 0.259190
Si Si6 0.168738 0.888298 0.463986
Si Si7 0.111871 0.420377 0.200907
O O1 0.468068 0.825606 0.796686
O O2 0.179896 0.801659 0.548256
O O3 0.258057 0.627098 0.399255
O O4 0.000000 0.500000 0.500000
O O5 0.222234 0.836880 0.309540
O O6 0.568118 0.874813 0.329933
O O7 0.000000 0.500000 0.000000
O O8 0.194207 0.734902 0.995737
O O9 0.733145 0.789153 0.801745
O O10 0.687429 0.661985 0.479566
O O11 0.915366 0.682648 0.733130
O O12 0.164077 0.015054 0.859040
O O13 0.577618 0.407076 0.164166
O O14 0.298895 0.458731 0.140417
O O15 0.858359 0.756914 0.324497
#
# Coordination Sequence:
#
# PCOD9082787 Si02
#       7
#     2   2   2   2   2   2   2
#     4  12  20  36  64  97 125 159 199 250 312 372
#     4  11  25  46  66  85 121 172 212 257 303 362
#     4  10  19  34  59  91 125 163 197 243 315 364
#     4  10  19  33  57  92 127 163 192 241 315 372
#     4  11  21  40  61  94 127 157 204 263 307 365
#     4  11  25  42  66  91 123 162 214 256 305 367
#     4  11  21  40  64  86 129 166 203 256 306 364
#
# _framework density 26.768588999999999
#
# number of rings (size 3 to 8) (size 9 to 14) (size 15 to 20)
#    0.000    1.143    5.714    1.714    0.000    2.857 
#    0.000    3.571    0.000    0.000    0.000    0.000 
#    0.000    0.000    0.000    0.000    0.000    0.000 
#
# Total GULP energy -78265.555624 kJ/mol
# GULP energy per Si atom -5590.396830 kJ/mol
# Density = 2.670766 g / cm^3
# Si number density = 26.768589 Si / 1000 Ang^3
#
#
#
# Elastic Constant Matrix: (Units=GPa)
#
#
# Indices 1 2 3 4 5 6 
#
# 1 65.3548 3.6127 7.3020 4.6197 -4.5560 2.4395
# 2 3.6127 59.7299 22.7827 13.9186 -8.1911 7.4082
# 3 7.3020 22.7827 150.9762 26.8810 5.5973 -4.4467
# 4 4.6197 13.9186 26.8810 48.1992 3.2862 2.8034
# 5 -4.5560 -8.1911 5.5973 3.2862 25.1329 0.5324
# 6 2.4395 7.4082 -4.4467 2.8034 0.5324 31.7054
#
#
#
# Elastic Compliance Matrix: (Units=1/GPa)
#
#
# Indices 1 2 3 4 5 6 
#
# 1 0.015741 0.000247 -0.000723 -0.001325 0.003296 -0.001308
# 2 0.000247 0.020584 -0.002724 -0.004713 0.008080 -0.004930
# 3 -0.000723 -0.002724 0.007839 -0.003480 -0.002355 0.002139
# 4 -0.001325 -0.004713 -0.003480 0.024542 -0.004181 -0.001385
# 5 0.003296 0.008080 -0.002355 -0.004181 0.044151 -0.002844
# 6 -0.001308 -0.004930 0.002139 -0.001385 -0.002844 0.033263
#
#
# Mechanical properties :
#
#
# Convention : Reuss Voigt Hill
#
# Bulk Modulus (GPa) = 26.48063 38.16176 32.32119
# Shear Modulus (GPa) = 30.28333 37.16506 33.72420
#
# Velocity S-wave (km/s) = 3.36713 3.73014 3.55328
# Velocity P-wave (km/s) = 5.00307 5.73054 5.37911
#
# Compressibility (1/GPa) = 0.03776345
#
# Stress axis : x y z
#
# Youngs Moduli (GPa) = 63.53022 48.58204 127.55935
#
# Poissons Ratio (x) = -0.01200 0.09227
# Poissons Ratio (y) = -0.01569 0.34744
# Poissons Ratio (z) = 0.04595 0.13232
#
# Static dielectric constant tensor:
#      x y z
#    x 2.236120 0.016390 0.045830 
#    y 0.016390 2.194740 0.016900 
#    z 0.045830 0.016900 2.078870 
# 
# From -- ./inp_files/397665.got.cif
#   From: 2010.05.17/outbox.cif.g08.bks.cpg/sg2_199_cif.got.tgz:397665.got - 2010.06.03 11:33:40.
