data_PCOD9082131
_publ_section_title
;
Structure prediction by ZEFSAII (Michael W. Deem and Ramdas Pophale) SiO2 
 PCOD9082131
Probable space group: P -1
;
_chemical_formula_sum "Si O2"
_cell_formula_units_Z 14
_cell_length_a 12.309219
_cell_length_b 5.489756
_cell_length_c 16.620794
_cell_angle_alpha 96.812422
_cell_angle_beta 35.414042
_cell_angle_gamma 115.607125
_cell_volume 524.997680
_symmetry_space_group_name_H-M "P -1"
_symmetry_group_IT_number 2
_symmetry_cell_setting 'triclinic'
loop_
_space_group_symop_operation_xyz
x,y,z
-x,-y,-z
loop_
_atom_site_type_symbol
_atom_site_label
_atom_site_fract_x
_atom_site_fract_y
_atom_site_fract_z
Si Si1 0.515289 0.172729 0.229024
Si Si2 0.734328 0.506849 0.608015
Si Si3 0.029082 0.380070 0.092948
Si Si4 0.130958 0.302460 0.682622
Si Si5 0.775149 0.282603 0.731737
Si Si6 0.246588 0.362100 0.115470
Si Si7 0.426902 0.164818 0.609741
O O1 0.400043 0.345269 0.322473
O O2 0.396460 0.859908 0.338352
O O3 0.789514 0.412592 0.077133
O O4 0.448181 0.041436 0.172400
O O5 0.999266 0.691072 0.429479
O O6 0.756549 0.505343 0.693116
O O7 0.180186 0.320171 0.059569
O O8 0.961199 0.563042 0.195028
O O9 0.780823 0.067386 0.214020
O O10 0.291015 0.252411 0.639616
O O11 0.316331 0.540372 0.513724
O O12 0.929345 0.977003 0.758818
O O13 0.803824 0.409961 0.807348
O O14 0.500000 0.500000 0.000000
O O15 0.500000 0.000000 0.500000
#
# Coordination Sequence:
#
# PCOD9082131 Si02
#       7
#     2   2   2   2   2   2   2
#     4  10  19  33  52  72 103 131 182 223 258 306
#     4   9  20  35  51  70  98 143 190 220 253 302
#     4  10  20  30  51  78 108 137 173 220 273 314
#     4   9  18  32  48  73 107 139 173 211 262 328
#     4   9  20  32  50  68 104 143 183 217 254 314
#     4  11  21  32  47  79 114 145 171 208 271 325
#     4   8  16  32  51  70 101 135 178 215 256 318
#
# _framework density 26.666785999999998
#
# number of rings (size 3 to 8) (size 9 to 14) (size 15 to 20)
#    0.857    1.714    0.000    2.143    4.000    3.429 
#    0.000    0.000    0.000    0.000    0.000    2.000 
#    0.000    0.000    0.000    0.000    0.000    0.000 
#
# Total GULP energy -78217.811819 kJ/mol
# GULP energy per Si atom -5586.986559 kJ/mol
# Density = 2.660609 g / cm^3
# Si number density = 26.666786 Si / 1000 Ang^3
#
#
#
# Elastic Constant Matrix: (Units=GPa)
#
#
# Indices 1 2 3 4 5 6 
#
# 1 56.3097 14.4967 29.1211 -5.7068 -11.2183 -29.8342
# 2 14.4967 111.0444 54.2335 -15.2127 -6.9626 -22.0004
# 3 29.1211 54.2335 167.1722 -44.5153 -12.2964 -22.6918
# 4 -5.7068 -15.2127 -44.5153 62.7853 1.1694 -2.7439
# 5 -11.2183 -6.9626 -12.2964 1.1694 45.7425 -11.2685
# 6 -29.8342 -22.0004 -22.6918 -2.7439 -11.2685 43.3560
#
#
#
# Elastic Compliance Matrix: (Units=1/GPa)
#
#
# Indices 1 2 3 4 5 6 
#
# 1 0.038885 0.003707 -0.000835 0.004956 0.017922 0.033173
# 2 0.003707 0.011956 -0.002651 0.001645 0.004040 0.008384
# 3 -0.000835 -0.002651 0.009351 0.006038 0.002754 0.004072
# 4 0.004956 0.001645 0.006038 0.021404 0.005021 0.010065
# 5 0.017922 0.004040 0.002754 0.005021 0.033612 0.024877
# 6 0.033173 0.008384 0.004072 0.010065 0.024877 0.059380
#
#
# Mechanical properties :
#
#
# Convention : Reuss Voigt Hill
#
# Bulk Modulus (GPa) = 16.49295 58.91432 37.70363
# Shear Modulus (GPa) = 25.72570 46.15509 35.94040
#
# Velocity S-wave (km/s) = 3.10935 4.16481 3.67517
# Velocity P-wave (km/s) = 4.36909 6.72817 5.67262
#
# Compressibility (1/GPa) = 0.06063198
#
# Stress axis : x y z
#
# Youngs Moduli (GPa) = 25.71665 83.63957 106.94613
#
# Poissons Ratio (x) = -0.31002 0.08934
# Poissons Ratio (y) = -0.09532 0.28353
# Poissons Ratio (z) = 0.02148 0.22174
#
# Static dielectric constant tensor:
#      x y z
#    x 2.452630 -0.176170 -0.233910 
#    y -0.176170 2.165610 0.138240 
#    z -0.233910 0.138240 2.329590 
# 
# From -- ./inp_files/369200.got.cif
#   From: 2010.05.17/outbox.cif.g08.bks.cpg/sg2_185_cif.got.tgz:369200.got - 2010.06.03 11:33:40.
