data_PCOD9082957
_publ_section_title
;
Structure prediction by ZEFSAII (Michael W. Deem and Ramdas Pophale) SiO2 
 PCOD9082957
Probable space group: P -1
;
_chemical_formula_sum "Si O2"
_cell_formula_units_Z 14
_cell_length_a 5.491669
_cell_length_b 18.092667
_cell_length_c 13.438120
_cell_angle_alpha 28.779302
_cell_angle_beta 62.999155
_cell_angle_gamma 58.418910
_cell_volume 547.571798
_symmetry_space_group_name_H-M "P -1"
_symmetry_group_IT_number 2
_symmetry_cell_setting 'triclinic'
loop_
_space_group_symop_operation_xyz
x,y,z
-x,-y,-z
loop_
_atom_site_type_symbol
_atom_site_label
_atom_site_fract_x
_atom_site_fract_y
_atom_site_fract_z
Si Si1 0.299865 0.494171 0.397277
Si Si2 0.822568 0.148647 0.936789
Si Si3 0.845098 0.153706 0.412369
Si Si4 0.056583 0.570036 0.154836
Si Si5 0.766208 0.922543 0.865194
Si Si6 0.787720 0.694749 0.706163
Si Si7 0.867488 0.274952 0.577682
O O1 0.326931 0.662093 0.234371
O O2 0.318012 0.519099 0.244335
O O3 0.525366 0.319146 0.577656
O O4 0.000000 0.500000 0.500000
O O5 0.957631 0.162504 0.787838
O O6 0.553456 0.081823 0.055643
O O7 0.051231 0.087718 0.055185
O O8 0.553464 0.245978 0.301369
O O9 0.058935 0.253540 0.289540
O O10 0.759328 0.076699 0.619498
O O11 0.000000 0.000000 0.500000
O O12 0.122735 0.490092 0.129038
O O13 0.876615 0.459922 0.368163
O O14 0.920579 0.758494 0.968368
O O15 0.913460 0.774271 0.495980
#
# Coordination Sequence:
#
# PCOD9082957 Si02
#       7
#     2   2   2   2   2   2   2
#     4  11  16  28  52  92 135 175 207 234 289 360
#     4  11  20  33  57  96 134 168 200 247 296 364
#     4  12  26  49  69  86 117 167 214 268 335 384
#     4   9  20  34  62  90 131 158 207 254 299 351
#     4  11  24  39  61  96 128 162 215 262 294 366
#     4  10  23  43  69  92 122 166 209 254 318 389
#     4  10  19  33  59  93 133 170 199 241 307 366
#
# _framework density 25.567425
#
# number of rings (size 3 to 8) (size 9 to 14) (size 15 to 20)
#    0.857    0.571    2.857    4.286    0.000    0.000 
#    0.000    5.714    0.000    0.000    0.000    0.000 
#    0.000    0.000    0.000    0.000    0.000    0.000 
#
# Total GULP energy -78141.477449 kJ/mol
# GULP energy per Si atom -5581.534104 kJ/mol
# Density = 2.550923 g / cm^3
# Si number density = 25.567425 Si / 1000 Ang^3
#
#
#
# Elastic Constant Matrix: (Units=GPa)
#
#
# Indices 1 2 3 4 5 6 
#
# 1 171.8052 88.1065 36.3267 -12.2399 -0.6552 -5.9970
# 2 88.1065 121.1459 -1.8408 -14.3713 1.0193 15.3710
# 3 36.3267 -1.8408 87.5082 -1.9729 11.0122 -4.1599
# 4 -12.2399 -14.3713 -1.9729 23.2726 1.9399 -1.0755
# 5 -0.6552 1.0193 11.0122 1.9399 30.9907 -11.3999
# 6 -5.9970 15.3710 -4.1599 -1.0755 -11.3999 40.7971
#
#
#
# Elastic Compliance Matrix: (Units=1/GPa)
#
#
# Indices 1 2 3 4 5 6 
#
# 1 0.012333 -0.009933 -0.005655 -0.000246 0.004950 0.006355
# 2 -0.009933 0.017491 0.004987 0.006103 -0.006302 -0.009142
# 3 -0.005655 0.004987 0.014619 0.001763 -0.006710 -0.003048
# 4 -0.000246 0.006103 0.001763 0.047039 -0.004585 -0.002197
# 5 0.004950 -0.006302 -0.006710 -0.004585 0.040231 0.013539
# 6 0.006355 -0.009142 -0.003048 -0.002197 0.013539 0.032304
#
#
# Mechanical properties :
#
#
# Convention : Reuss Voigt Hill
#
# Bulk Modulus (GPa) = 43.02464 69.51602 56.27033
# Shear Modulus (GPa) = 25.91123 36.20322 31.05723
#
# Velocity S-wave (km/s) = 3.18692 3.76705 3.48906
# Velocity P-wave (km/s) = 5.51420 6.79479 6.18771
#
# Compressibility (1/GPa) = 0.02324249
#
# Stress axis : x y z
#
# Youngs Moduli (GPa) = 81.08130 57.17209 68.40305
#
# Poissons Ratio (x) = 0.56788 0.38683
# Poissons Ratio (y) = 0.80536 -0.34115
# Poissons Ratio (z) = 0.45852 -0.28514
#
# Static dielectric constant tensor:
#      x y z
#    x 2.416100 0.019260 0.003160 
#    y 0.019260 2.097590 -0.009760 
#    z 0.003160 -0.009760 2.023370 
# 
# From -- ./inp_files/485427.got.cif
#   From: 2010.05.17/outbox.cif.g08.bks.cpg/sg2_243_cif.got.tgz:485427.got - 2010.06.03 11:33:40.
