data_PCOD9082578
_publ_section_title
;
Structure prediction by ZEFSAII (Michael W. Deem and Ramdas Pophale) SiO2 
 PCOD9082578
Probable space group: P -1
;
_chemical_formula_sum "Si O2"
_cell_formula_units_Z 14
_cell_length_a 10.718920
_cell_length_b 13.338557
_cell_length_c 12.734287
_cell_angle_alpha 150.604774
_cell_angle_beta 72.173619
_cell_angle_gamma 120.215158
_cell_volume 733.696234
_symmetry_space_group_name_H-M "P -1"
_symmetry_group_IT_number 2
_symmetry_cell_setting 'triclinic'
loop_
_space_group_symop_operation_xyz
x,y,z
-x,-y,-z
loop_
_atom_site_type_symbol
_atom_site_label
_atom_site_fract_x
_atom_site_fract_y
_atom_site_fract_z
Si Si1 0.227469 0.576467 0.008783
Si Si2 0.434994 0.154808 0.885106
Si Si3 0.278795 0.221420 0.801684
Si Si4 0.585485 0.898646 0.530735
Si Si5 0.675806 0.708634 0.532423
Si Si6 0.433643 0.161187 0.126560
Si Si7 0.022266 0.178262 0.561403
O O1 0.231299 0.411445 0.950127
O O2 0.086512 0.429409 0.833548
O O3 0.385344 0.650160 0.973641
O O4 0.264115 0.835919 0.268413
O O5 0.348559 0.249915 0.923897
O O6 0.448574 0.952455 0.630640
O O7 0.372541 0.088488 0.957588
O O8 0.400715 0.227051 0.691066
O O9 0.131039 0.961120 0.591636
O O10 0.595565 0.775499 0.521417
O O11 0.571479 0.432436 0.333684
O O12 0.681006 0.847005 0.763150
O O13 0.839489 0.781548 0.511568
O O14 0.500000 0.000000 0.000000
O O15 0.000000 0.000000 0.500000
#
# Coordination Sequence:
#
# PCOD9082578 Si02
#       7
#     2   2   2   2   2   2   2
#     4   9  19  32  54  81 110 147 183 216 271 326
#     4  10  20  35  54  83 108 144 188 228 274 316
#     4  11  20  35  52  80 123 142 174 228 280 328
#     4  10  19  33  56  83 109 141 184 225 275 322
#     4  11  20  36  58  87 107 140 192 235 260 322
#     4  11  21  37  60  82 105 146 193 235 263 313
#     4  10  19  36  55  81 116 149 173 222 280 330
#
# _framework density 19.081465999999999
#
# number of rings (size 3 to 8) (size 9 to 14) (size 15 to 20)
#    0.857    0.857    5.714    0.857    0.000    0.571 
#    0.000    0.714    0.000    0.857    0.000    0.000 
#    0.000    0.000    0.000    0.000    0.000    0.000 
#
# Total GULP energy -77997.822659 kJ/mol
# GULP energy per Si atom -5571.273047 kJ/mol
# Density = 1.903804 g / cm^3
# Si number density = 19.081466 Si / 1000 Ang^3
#
#
#
# Elastic Constant Matrix: (Units=GPa)
#
#
# Indices 1 2 3 4 5 6 
#
# 1 43.1176 24.9415 7.7803 1.9960 6.5309 -3.1958
# 2 24.9415 107.9255 29.6257 -14.5186 -7.4749 -8.7889
# 3 7.7803 29.6257 63.2730 9.2692 -10.5194 -6.6142
# 4 1.9960 -14.5186 9.2692 34.3255 -1.8864 -6.3261
# 5 6.5309 -7.4749 -10.5194 -1.8864 23.1511 -3.4212
# 6 -3.1958 -8.7889 -6.6142 -6.3261 -3.4212 33.6558
#
#
#
# Elastic Compliance Matrix: (Units=1/GPa)
#
#
# Indices 1 2 3 4 5 6 
#
# 1 0.030421 -0.008591 -0.001133 -0.006166 -0.012672 -0.002025
# 2 -0.008591 0.014910 -0.005872 0.009517 0.005983 0.004321
# 3 -0.001133 -0.005872 0.021270 -0.007376 0.007774 0.001943
# 4 -0.006166 0.009517 -0.007376 0.037303 0.005688 0.008040
# 5 -0.012672 0.005983 0.007774 0.005688 0.053944 0.008440
# 6 -0.002025 0.004321 0.001943 0.008040 0.008440 0.033399
#
#
# Mechanical properties :
#
#
# Convention : Reuss Voigt Hill
#
# Bulk Modulus (GPa) = 28.24325 37.66789 32.95557
# Shear Modulus (GPa) = 21.34534 28.35773 24.85154
#
# Velocity S-wave (km/s) = 3.34824 3.85923 3.61278
# Velocity P-wave (km/s) = 5.45721 6.29616 5.89164
#
# Compressibility (1/GPa) = 0.03540669
#
# Stress axis : x y z
#
# Youngs Moduli (GPa) = 32.87157 67.07129 47.01564
#
# Poissons Ratio (x) = 0.57624 0.05328
# Poissons Ratio (y) = 0.28241 0.27609
# Poissons Ratio (z) = 0.03725 0.39386
#
# Static dielectric constant tensor:
#      x y z
#    x 1.673910 0.021830 -0.018420 
#    y 0.021830 1.659510 -0.011670 
#    z -0.018420 -0.011670 1.764140 
# 
# From -- ./inp_files/429220.got.cif
#   From: 2010.05.17/outbox.cif.g08.bks.cpg/sg2_215_cif.got.tgz:429220.got - 2010.06.03 11:33:40.
