data_PCOD9082385
_publ_section_title
;
Structure prediction by ZEFSAII (Michael W. Deem and Ramdas Pophale) SiO2 
 PCOD9082385
Probable space group: P -1
;
_chemical_formula_sum "Si O2"
_cell_formula_units_Z 16
_cell_length_a 5.194736
_cell_length_b 11.843854
_cell_length_c 16.979750
_cell_angle_alpha 45.438096
_cell_angle_beta 89.855391
_cell_angle_gamma 75.484453
_cell_volume 697.448008
_symmetry_space_group_name_H-M "P -1"
_symmetry_group_IT_number 2
_symmetry_cell_setting 'triclinic'
loop_
_space_group_symop_operation_xyz
x,y,z
-x,-y,-z
loop_
_atom_site_type_symbol
_atom_site_label
_atom_site_fract_x
_atom_site_fract_y
_atom_site_fract_z
Si Si1 0.981088 0.053455 0.114076
Si Si2 0.311599 0.388027 0.537356
Si Si3 0.869829 0.735083 0.122702
Si Si4 0.626858 0.564172 0.659049
Si Si5 0.583767 0.837679 0.844462
Si Si6 0.444314 0.310201 0.233178
Si Si7 0.484654 0.755045 0.236707
Si Si8 0.813983 0.521689 0.095211
O O1 0.180690 0.098098 0.155093
O O2 0.693418 0.091889 0.138605
O O3 0.161318 0.861084 0.185961
O O4 0.985822 0.164679 0.981868
O O5 0.500000 0.500000 0.500000
O O6 0.345090 0.344119 0.466715
O O7 0.403196 0.247983 0.673492
O O8 0.000000 0.500000 0.500000
O O9 0.642030 0.835417 0.136962
O O10 0.708383 0.657133 0.099379
O O11 0.087012 0.576132 0.244778
O O12 0.523279 0.688852 0.672369
O O13 0.463661 0.437472 0.697470
O O14 0.531218 0.848541 0.745375
O O15 0.716747 0.636596 0.962777
O O16 0.671877 0.383647 0.166178
O O17 0.135759 0.439867 0.153657
#
# Coordination Sequence:
#
# PCOD9082385 Si02
#       8
#     2   2   2   2   2   2   2   2
#     4  11  26  36  56  81 120 161 187 216 270 347
#     4  10  21  37  59  84 112 142 183 240 286 330
#     4  10  20  35  55  85 119 144 188 226 281 340
#     4  10  21  36  61  89 110 140 191 238 296 319
#     4  11  22  39  51  81 114 155 195 221 273 332
#     4  11  20  34  60  79 113 144 187 244 276 326
#     4  11  22  39  58  81 119 151 187 230 280 342
#     4  10  19  33  54  83 110 147 187 233 281 325
#
# _framework density 22.940776
#
# number of rings (size 3 to 8) (size 9 to 14) (size 15 to 20)
#    0.000    1.500    2.500    4.125    3.500    0.500 
#    0.000    0.000    0.000    1.500    0.000    0.000 
#    0.000    0.000    0.000    0.000    0.000    0.000 
#
# Total GULP energy -89333.983259 kJ/mol
# GULP energy per Si atom -5583.373954 kJ/mol
# Density = 2.288856 g / cm^3
# Si number density = 22.940776 Si / 1000 Ang^3
#
#
#
# Elastic Constant Matrix: (Units=GPa)
#
#
# Indices 1 2 3 4 5 6 
#
# 1 63.8593 16.7348 7.8349 -1.9562 12.9495 7.1785
# 2 16.7348 92.1670 41.7119 43.7942 -6.5283 -0.9808
# 3 7.8349 41.7119 101.0894 36.0809 6.4081 0.9674
# 4 -1.9562 43.7942 36.0809 40.6814 -1.0003 9.8688
# 5 12.9495 -6.5283 6.4081 -1.0003 23.4857 0.5969
# 6 7.1785 -0.9808 0.9674 9.8688 0.5969 30.7676
#
#
#
# Elastic Compliance Matrix: (Units=1/GPa)
#
#
# Indices 1 2 3 4 5 6 
#
# 1 0.025963 -0.016305 -0.002722 0.024182 -0.016721 -0.013924
# 2 -0.016305 0.035792 0.001185 -0.044547 0.016239 0.018882
# 3 -0.002722 0.001185 0.015791 -0.016865 -0.003340 0.005651
# 4 0.024182 -0.044547 -0.016865 0.097347 -0.016017 -0.037446
# 5 -0.016721 0.016239 -0.003340 -0.016017 0.056324 0.008569
# 6 -0.013924 0.018882 0.005651 -0.037446 0.008569 0.048019
#
#
# Mechanical properties :
#
#
# Convention : Reuss Voigt Hill
#
# Bulk Modulus (GPa) = 23.88846 43.29764 33.59305
# Shear Modulus (GPa) = 15.20327 31.70921 23.45624
#
# Velocity S-wave (km/s) = 2.57712 3.72186 3.20108
# Velocity P-wave (km/s) = 4.39217 6.11427 5.32332
#
# Compressibility (1/GPa) = 0.04186121
#
# Stress axis : x y z
#
# Youngs Moduli (GPa) = 38.51635 27.93887 63.32526
#
# Poissons Ratio (x) = 0.45555 0.17239
# Poissons Ratio (y) = 0.62801 -0.07501
# Poissons Ratio (z) = 0.10485 -0.03310
#
# Static dielectric constant tensor:
#      x y z
#    x 1.846360 0.023350 -0.019900 
#    y 0.023350 1.983380 0.059680 
#    z -0.019900 0.059680 1.887680 
# 
# From -- ./inp_files/77672.got.cif
#   From: 2010.05.17/outbox.cif.g08.bks.cpg/sg2_39_cif.got.tgz:77672.got - 2010.06.03 11:33:40.
