data_PCOD9082227
_publ_section_title
;
Structure prediction by ZEFSAII (Michael W. Deem and Ramdas Pophale) SiO2 
 PCOD9082227
Probable space group: P -1
;
_chemical_formula_sum "Si O2"
_cell_formula_units_Z 16
_cell_length_a 25.366741
_cell_length_b 4.958828
_cell_length_c 5.367984
_cell_angle_alpha 96.087424
_cell_angle_beta 77.148778
_cell_angle_gamma 107.467253
_cell_volume 627.404399
_symmetry_space_group_name_H-M "P -1"
_symmetry_group_IT_number 2
_symmetry_cell_setting 'triclinic'
loop_
_space_group_symop_operation_xyz
x,y,z
-x,-y,-z
loop_
_atom_site_type_symbol
_atom_site_label
_atom_site_fract_x
_atom_site_fract_y
_atom_site_fract_z
Si Si1 0.329060 0.214664 0.168497
Si Si2 0.559196 0.489902 0.034688
Si Si3 0.563720 0.027061 0.341831
Si Si4 0.035861 0.600815 0.721410
Si Si5 0.317491 0.662742 0.823443
Si Si6 0.196954 0.496720 0.047192
Si Si7 0.789171 0.941908 0.627773
Si Si8 0.890065 0.768729 0.255462
O O1 0.275928 0.192146 0.398424
O O2 0.391916 0.371249 0.198546
O O3 0.322363 0.389593 0.943289
O O4 0.325032 0.902202 0.053523
O O5 0.561792 0.188360 0.096511
O O6 0.568051 0.711601 0.275125
O O7 0.500000 0.500000 0.000000
O O8 0.626572 0.207417 0.391184
O O9 0.500000 0.000000 0.500000
O O10 0.085942 0.451051 0.640824
O O11 0.000000 0.500000 0.500000
O O12 0.060781 0.937928 0.761944
O O13 0.000000 0.500000 0.000000
O O14 0.251464 0.617435 0.819883
O O15 0.135483 0.407387 0.981411
O O16 0.204712 0.216102 0.137122
O O17 0.201104 0.733063 0.277963
O O18 0.836015 0.868334 0.405596
#
# Coordination Sequence:
#
# PCOD9082227 Si02
#       8
#     2   2   2   2   2   2   2   2
#     4   8  16  32  54  79 114 161 203 258 327 397
#     4  10  19  33  53  77 111 155 207 257 324 389
#     4  10  19  33  53  77 111 155 207 257 324 389
#     4  12  30  52  78 110 150 192 235 288 343 412
#     4   8  16  32  54  79 114 161 203 258 327 397
#     4  10  21  39  66  95 133 173 218 278 343 398
#     4  10  21  39  66  95 133 173 218 278 343 398
#     4  12  26  44  76 106 138 178 235 276 335 418
#
# _framework density 25.501888999999998
#
# number of rings (size 3 to 8) (size 9 to 14) (size 15 to 20)
#    0.000    2.000    0.000    3.000    5.250    0.000 
#    2.250    0.000    2.750    0.000    0.000    0.000 
#    0.000    0.000    0.000    0.000    0.000    0.000 
#
# Total GULP energy -89303.717688 kJ/mol
# GULP energy per Si atom -5581.482356 kJ/mol
# Density = 2.544385 g / cm^3
# Si number density = 25.501889 Si / 1000 Ang^3
#
#
#
# Elastic Constant Matrix: (Units=GPa)
#
#
# Indices 1 2 3 4 5 6 
#
# 1 91.7405 25.9235 18.3998 -4.9177 -7.8705 4.2056
# 2 25.9235 82.5108 14.8861 0.3993 4.2818 -1.0979
# 3 18.3998 14.8861 79.3209 8.2864 -21.8674 12.4953
# 4 -4.9177 0.3993 8.2864 25.6659 -6.9251 -14.2659
# 5 -7.8705 4.2818 -21.8674 -6.9251 39.8473 4.1346
# 6 4.2056 -1.0979 12.4953 -14.2659 4.1346 48.6043
#
#
#
# Elastic Compliance Matrix: (Units=1/GPa)
#
#
# Indices 1 2 3 4 5 6 
#
# 1 0.012796 -0.003797 -0.002035 0.004001 0.002483 0.000293
# 2 -0.003797 0.014139 -0.003224 -0.000033 -0.004234 0.001827
# 3 -0.002035 -0.003224 0.018347 -0.008043 0.009422 -0.007775
# 4 0.004001 -0.000033 -0.008043 0.052729 0.003793 0.016874
# 5 0.002483 -0.004234 0.009422 0.003793 0.032324 -0.004369
# 6 0.000293 0.001827 -0.007775 0.016874 -0.004369 0.027914
#
#
# Mechanical properties :
#
#
# Convention : Reuss Voigt Hill
#
# Bulk Modulus (GPa) = 36.80823 41.33234 39.07028
# Shear Modulus (GPa) = 26.96637 35.78103 31.37370
#
# Velocity S-wave (km/s) = 3.25534 3.74983 3.51130
# Velocity P-wave (km/s) = 5.34738 5.91532 5.63851
#
# Compressibility (1/GPa) = 0.02716784
#
# Stress axis : x y z
#
# Youngs Moduli (GPa) = 78.15207 70.72854 54.50601
#
# Poissons Ratio (x) = 0.26858 0.11092
# Poissons Ratio (y) = 0.29677 0.17573
# Poissons Ratio (z) = 0.15904 0.22804
#
# Static dielectric constant tensor:
#      x y z
#    x 2.062860 0.100070 -0.050240 
#    y 0.100070 1.971690 0.001060 
#    z -0.050240 0.001060 2.053940 
# 
# From -- ./inp_files/121741.got.cif
#   From: 2010.05.17/outbox.cif.g08.bks.cpg/sg2_61_cif.got.tgz:121741.got - 2010.06.03 11:33:40.
