data_PCOD9082646
_publ_section_title
;
Structure prediction by ZEFSAII (Michael W. Deem and Ramdas Pophale) SiO2 
 PCOD9082646
Probable space group: P -1
;
_chemical_formula_sum "Si O2"
_cell_formula_units_Z 14
_cell_length_a 18.740436
_cell_length_b 12.913740
_cell_length_c 8.044229
_cell_angle_alpha 145.744989
_cell_angle_beta 143.389956
_cell_angle_gamma 31.300630
_cell_volume 537.425860
_symmetry_space_group_name_H-M "P -1"
_symmetry_group_IT_number 2
_symmetry_cell_setting 'triclinic'
loop_
_space_group_symop_operation_xyz
x,y,z
-x,-y,-z
loop_
_atom_site_type_symbol
_atom_site_label
_atom_site_fract_x
_atom_site_fract_y
_atom_site_fract_z
Si Si1 0.033916 0.615048 0.967018
Si Si2 0.694357 0.593975 0.648393
Si Si3 0.547426 0.329133 0.513100
Si Si4 0.800504 0.545914 0.280963
Si Si5 0.213272 0.915441 0.867833
Si Si6 0.166564 0.876339 0.102319
Si Si7 0.534194 0.713919 0.166338
O O1 0.912038 0.585854 0.627518
O O2 0.135089 0.565723 0.926261
O O3 0.155078 0.429462 0.073024
O O4 0.934040 0.865832 0.187512
O O5 0.570917 0.717056 0.723001
O O6 0.757182 0.327319 0.428816
O O7 0.606248 0.705541 0.463947
O O8 0.500000 0.500000 0.500000
O O9 0.718115 0.132612 0.566437
O O10 0.540338 0.483865 0.856793
O O11 0.798891 0.369132 0.160119
O O12 0.627925 0.734907 0.225788
O O13 0.189433 0.952928 0.071764
O O14 0.360774 0.893250 0.066181
O O15 0.000000 0.000000 0.000000
#
# Coordination Sequence:
#
# PCOD9082646 Si02
#       7
#     2   2   2   2   2   2   2
#     4  11  24  37  59  85 118 153 189 235 279 344
#     4  11  19  36  59  86 116 147 191 233 287 334
#     4  10  19  33  56  88 112 148 188 234 284 334
#     4  10  22  40  57  82 117 158 187 227 291 339
#     4  11  20  37  60  89 112 145 193 242 280 327
#     4  11  19  36  63  86 111 148 192 241 277 332
#     4  10  20  38  59  81 117 150 187 238 285 336
#
# _framework density 26.050106
#
# number of rings (size 3 to 8) (size 9 to 14) (size 15 to 20)
#    0.000    1.429    5.714    3.000    0.000    1.143 
#    0.000    0.000    0.000   11.143    0.000    0.000 
#    0.000    0.000    0.000    0.000    0.000    0.000 
#
# Total GULP energy -78087.956087 kJ/mol
# GULP energy per Si atom -5577.711149 kJ/mol
# Density = 2.599081 g / cm^3
# Si number density = 26.050106 Si / 1000 Ang^3
#
#
#
# Elastic Constant Matrix: (Units=GPa)
#
#
# Indices 1 2 3 4 5 6 
#
# 1 114.4018 25.8462 28.9757 -35.0442 18.5035 -36.9253
# 2 25.8462 83.4098 39.5126 -32.3697 18.1334 -28.9732
# 3 28.9757 39.5126 81.7232 -31.9937 11.6094 -17.7678
# 4 -35.0442 -32.3697 -31.9937 52.7485 -9.1926 19.8855
# 5 18.5035 18.1334 11.6094 -9.1926 39.5065 -21.3858
# 6 -36.9253 -28.9732 -17.7678 19.8855 -21.3858 42.0580
#
#
#
# Elastic Compliance Matrix: (Units=1/GPa)
#
#
# Indices 1 2 3 4 5 6 
#
# 1 0.013648 0.002228 -0.001458 0.005707 -0.000187 0.010108
# 2 0.002228 0.020231 -0.005674 0.006574 -0.002083 0.009329
# 3 -0.001458 -0.005674 0.018024 0.006800 -0.001179 -0.001389
# 4 0.005707 0.006574 0.006800 0.031968 -0.002364 -0.003905
# 5 -0.000187 -0.002083 -0.001179 -0.002364 0.035353 0.016997
# 6 0.010108 0.009329 -0.001389 -0.003905 0.016997 0.048980
#
#
# Mechanical properties :
#
#
# Convention : Reuss Voigt Hill
#
# Bulk Modulus (GPa) = 23.75519 52.02264 37.88892
# Shear Modulus (GPa) = 26.03575 39.20929 32.62252
#
# Velocity S-wave (km/s) = 3.16484 3.88383 3.54262
# Velocity P-wave (km/s) = 4.74276 6.33449 5.59551
#
# Compressibility (1/GPa) = 0.04209606
#
# Stress axis : x y z
#
# Youngs Moduli (GPa) = 73.27071 49.42971 55.48088
#
# Poissons Ratio (x) = -0.11013 0.08088
# Poissons Ratio (y) = -0.16325 0.31478
# Poissons Ratio (z) = 0.10682 0.28045
#
# Static dielectric constant tensor:
#      x y z
#    x 2.205960 -0.315510 0.019800 
#    y -0.315510 2.520300 -0.049010 
#    z 0.019800 -0.049010 2.174090 
# 
# From -- ./inp_files/181318.got.cif
#   From: 2010.05.17/outbox.cif.g08.bks.cpg/sg2_91_cif.got.tgz:181318.got - 2010.06.03 11:33:40.
