data_PCOD9082252
_publ_section_title
;
Structure prediction by ZEFSAII (Michael W. Deem and Ramdas Pophale) SiO2 
 PCOD9082252
Probable space group: P -1
;
_chemical_formula_sum "Si O2"
_cell_formula_units_Z 14
_cell_length_a 11.510230
_cell_length_b 23.767134
_cell_length_c 25.959499
_cell_angle_alpha 169.220042
_cell_angle_beta 33.753020
_cell_angle_gamma 146.216644
_cell_volume 730.907328
_symmetry_space_group_name_H-M "P -1"
_symmetry_group_IT_number 2
_symmetry_cell_setting 'triclinic'
loop_
_space_group_symop_operation_xyz
x,y,z
-x,-y,-z
loop_
_atom_site_type_symbol
_atom_site_label
_atom_site_fract_x
_atom_site_fract_y
_atom_site_fract_z
Si Si1 0.529676 0.814680 0.955657
Si Si2 0.623460 0.835466 0.763462
Si Si3 0.495593 0.073744 0.711964
Si Si4 0.532280 0.252711 0.671852
Si Si5 0.006681 0.013543 0.948511
Si Si6 0.550649 0.131023 0.343787
Si Si7 0.914297 0.304749 0.511399
O O1 0.478021 0.453822 0.650730
O O2 0.383013 0.981023 0.122309
O O3 0.766171 0.892335 0.913492
O O4 0.525125 0.934048 0.123641
O O5 0.500000 0.500000 0.500000
O O6 0.859573 0.798429 0.659308
O O7 0.500000 0.000000 0.000000
O O8 0.574344 0.875484 0.458266
O O9 0.554199 0.016581 0.698006
O O10 0.539652 0.427243 0.000392
O O11 0.244377 0.950555 0.689449
O O12 0.782130 0.320510 0.626997
O O13 0.500000 0.000000 0.500000
O O14 0.066898 0.360974 0.220159
O O15 0.000000 0.000000 0.000000
O O16 0.196998 0.822317 0.695081
#
# Coordination Sequence:
#
# PCOD9082252 Si02
#       7
#     2   2   2   2   2   2   2
#     4  11  23  34  52  76 113 157 201 219 272 330
#     4  12  26  39  54  77 121 166 204 225 264 341
#     4  10  20  35  60  85 116 137 182 239 307 330
#     4  10  21  37  60  89 115 139 185 239 307 354
#     4  10  19  33  53  80 114 148 189 232 280 327
#     4  11  20  37  52  82 110 149 186 246 276 337
#     4  10  23  37  59  84 120 155 190 235 288 334
#
# _framework density 19.154274999999998
#
# number of rings (size 3 to 8) (size 9 to 14) (size 15 to 20)
#    0.857    0.571    2.857    4.286    6.000    0.000 
#    0.000    0.000    0.000    0.000    0.000    6.000 
#    0.000    0.000    0.000    0.000    0.000    0.000 
#
# Total GULP energy -78024.938513 kJ/mol
# GULP energy per Si atom -5573.209894 kJ/mol
# Density = 1.911068 g / cm^3
# Si number density = 19.154275 Si / 1000 Ang^3
#
#
#
# Elastic Constant Matrix: (Units=GPa)
#
#
# Indices 1 2 3 4 5 6 
#
# 1 50.8734 5.8332 8.5420 0.0511 -15.1896 -12.8163
# 2 5.8332 42.8795 6.1874 17.8978 -11.1423 -16.5290
# 3 8.5420 6.1874 99.3201 13.1993 -13.3150 -1.2210
# 4 0.0511 17.8978 13.1993 33.1150 -13.3933 -7.1724
# 5 -15.1896 -11.1423 -13.3150 -13.3933 35.1771 1.6643
# 6 -12.8163 -16.5290 -1.2210 -7.1724 1.6643 19.6114
#
#
#
# Elastic Compliance Matrix: (Units=1/GPa)
#
#
# Indices 1 2 3 4 5 6 
#
# 1 0.031822 0.007675 -0.001793 0.010137 0.017965 0.029336
# 2 0.007675 0.044292 0.000059 -0.011343 0.011285 0.037243
# 3 -0.001793 0.000059 0.010997 -0.004075 0.001954 -0.002094
# 4 0.010137 -0.011343 -0.004075 0.047456 0.016707 0.012749
# 5 0.017965 0.011285 0.001954 0.016707 0.045743 0.023601
# 6 0.029336 0.037243 -0.002094 0.012749 0.023601 0.104081
#
#
# Mechanical properties :
#
#
# Convention : Reuss Voigt Hill
#
# Bulk Modulus (GPa) = 10.10186 26.02201 18.06194
# Shear Modulus (GPa) = 16.36626 29.08139 22.72382
#
# Velocity S-wave (km/s) = 2.92626 3.90073 3.44809
# Velocity P-wave (km/s) = 4.08690 5.82259 5.03017
#
# Compressibility (1/GPa) = 0.09899169
#
# Stress axis : x y z
#
# Youngs Moduli (GPa) = 31.42498 22.57744 90.93505
#
# Poissons Ratio (x) = -0.17328 0.16306
# Poissons Ratio (y) = -0.24118 -0.00535
# Poissons Ratio (z) = 0.05635 -0.00133
#
# Static dielectric constant tensor:
#      x y z
#    x 1.745310 -0.029730 0.047600 
#    y -0.029730 1.707940 -0.029520 
#    z 0.047600 -0.029520 1.669910 
# 
# From -- ./inp_files/92073.got.cif
#   From: 2010.05.17/outbox.cif.g08.bks.cpg/sg2_47_cif.got.tgz:92073.got - 2010.06.03 11:33:40.
