data_PCOD9082618
_publ_section_title
;
Structure prediction by ZEFSAII (Michael W. Deem and Ramdas Pophale) SiO2 
 PCOD9082618
Probable space group: P -1
;
_chemical_formula_sum "Si O2"
_cell_formula_units_Z 16
_cell_length_a 20.952012
_cell_length_b 12.905780
_cell_length_c 17.484904
_cell_angle_alpha 30.909636
_cell_angle_beta 20.592815
_cell_angle_gamma 32.349450
_cell_volume 831.226447
_symmetry_space_group_name_H-M "P -1"
_symmetry_group_IT_number 2
_symmetry_cell_setting 'triclinic'
loop_
_space_group_symop_operation_xyz
x,y,z
-x,-y,-z
loop_
_atom_site_type_symbol
_atom_site_label
_atom_site_fract_x
_atom_site_fract_y
_atom_site_fract_z
Si Si1 0.924114 0.187237 0.329910
Si Si2 0.798182 0.717884 0.913960
Si Si3 0.366876 0.823752 0.205229
Si Si4 0.239314 0.792937 0.202650
Si Si5 0.096543 0.424267 0.520106
Si Si6 0.362875 0.096098 0.337726
Si Si7 0.312154 0.640046 0.655368
Si Si8 0.223260 0.350459 0.179425
O O1 0.748313 0.173909 0.589424
O O2 0.839766 0.321256 0.266776
O O3 0.058536 0.262800 0.192089
O O4 0.058876 0.979908 0.276083
O O5 0.873979 0.718610 0.742469
O O6 0.636911 0.932690 0.962282
O O7 0.747037 0.500388 0.123985
O O8 0.265910 0.758075 0.285932
O O9 0.569300 0.671258 0.072845
O O10 0.205334 0.592180 0.324198
O O11 0.428942 0.861402 0.920849
O O12 0.241604 0.212703 0.470520
O O13 0.000000 0.500000 0.500000
O O14 0.917982 0.441383 0.765200
O O15 0.269802 0.201667 0.295689
O O16 0.352619 0.858067 0.497220
O O17 0.500000 0.500000 0.500000
#
# Coordination Sequence:
#
# PCOD9082618 Si02
#       8
#     2   2   2   2   2   2   2   2
#     4  11  21  35  56  84 114 144 181 226 274 326
#     4  11  21  33  54  83 114 148 180 222 274 325
#     4  10  19  33  56  86 114 144 180 224 271 324
#     4  10  19  34  57  85 110 139 182 231 273 318
#     4  10  19  34  57  83 107 139 184 233 273 313
#     4  10  22  37  56  81 110 146 185 226 270 320
#     4  12  23  37  54  79 114 149 181 221 273 332
#     4  10  19  35  57  81 109 143 185 225 268 318
#
# _framework density 19.248664999999999
#
# number of rings (size 3 to 8) (size 9 to 14) (size 15 to 20)
#    0.000    1.500    0.000    9.375    0.000    0.000 
#    0.000    0.625    0.000    0.000    0.000   10.500 
#    0.000    0.000    0.000    0.000    0.000    0.000 
#
# Total GULP energy -89158.561379 kJ/mol
# GULP energy per Si atom -5572.410086 kJ/mol
# Density = 1.920485 g / cm^3
# Si number density = 19.248665 Si / 1000 Ang^3
#
#
#
# Elastic Constant Matrix: (Units=GPa)
#
#
# Indices 1 2 3 4 5 6 
#
# 1 96.0585 48.5471 23.0549 0.0125 -7.3998 0.4853
# 2 48.5471 145.1346 61.5479 19.0242 5.1977 17.6862
# 3 23.0549 61.5479 95.1924 12.4476 -2.7529 -4.0602
# 4 0.0125 19.0242 12.4476 41.3439 1.2575 -1.8596
# 5 -7.3998 5.1977 -2.7529 1.2575 27.9305 1.5831
# 6 0.4853 17.6862 -4.0602 -1.8596 1.5831 38.3821
#
#
#
# Elastic Compliance Matrix: (Units=1/GPa)
#
#
# Indices 1 2 3 4 5 6 
#
# 1 0.013352 -0.005212 0.000045 0.002348 0.004283 0.002175
# 2 -0.005212 0.013154 -0.007111 -0.004095 -0.003961 -0.006783
# 3 0.000045 -0.007111 0.015538 -0.001273 0.002655 0.004749
# 4 0.002348 -0.004095 -0.001273 0.026593 -0.000110 0.003016
# 5 0.004283 -0.003961 0.002655 -0.000110 0.037914 0.000483
# 6 0.002175 -0.006783 0.004749 0.003016 0.000483 0.029780
#
#
# Mechanical properties :
#
#
# Convention : Reuss Voigt Hill
#
# Bulk Modulus (GPa) = 57.17836 66.96504 62.07170
# Shear Modulus (GPa) = 29.99115 35.08035 32.53575
#
# Velocity S-wave (km/s) = 3.95155 4.27369 4.11577
# Velocity P-wave (km/s) = 7.11261 7.69529 7.40968
#
# Compressibility (1/GPa) = 0.01748913
#
# Stress axis : x y z
#
# Youngs Moduli (GPa) = 74.89556 76.02096 64.35974
#
# Poissons Ratio (x) = 0.39619 -0.00293
# Poissons Ratio (y) = 0.39033 0.45768
# Poissons Ratio (z) = -0.00341 0.54060
#
# Static dielectric constant tensor:
#      x y z
#    x 1.693770 0.014000 -0.022980 
#    y 0.014000 1.683180 0.011470 
#    z -0.022980 0.011470 1.787810 
# 
# From -- ./inp_files/577896.got.cif
#   From: 2010.05.17/outbox.cif.g08.bks.cpg/sg2_289_cif.got.tgz:577896.got - 2010.06.03 11:33:40.
