data_PCOD9082100
_publ_section_title
;
Structure prediction by ZEFSAII (Michael W. Deem and Ramdas Pophale) SiO2 
 PCOD9082100
Probable space group: P -1
;
_chemical_formula_sum "Si O2"
_cell_formula_units_Z 12
_cell_length_a 8.976471
_cell_length_b 19.892168
_cell_length_c 7.623005
_cell_angle_alpha 126.368213
_cell_angle_beta 79.648916
_cell_angle_gamma 140.953492
_cell_volume 574.974293
_symmetry_space_group_name_H-M "P -1"
_symmetry_group_IT_number 2
_symmetry_cell_setting 'triclinic'
loop_
_space_group_symop_operation_xyz
x,y,z
-x,-y,-z
loop_
_atom_site_type_symbol
_atom_site_label
_atom_site_fract_x
_atom_site_fract_y
_atom_site_fract_z
Si Si1 0.700111 0.977677 0.043273
Si Si2 0.182005 0.784526 0.633322
Si Si3 0.447500 0.215762 0.926384
Si Si4 0.362917 0.525995 0.561061
Si Si5 0.448892 0.176711 0.492222
Si Si6 0.913466 0.506726 0.709657
O O1 0.379716 0.862469 0.885916
O O2 0.688551 0.915865 0.120424
O O3 0.761348 0.948912 0.815023
O O4 0.873198 0.143971 0.275254
O O5 0.379915 0.830576 0.521406
O O6 0.897321 0.601447 0.443821
O O7 0.450827 0.307987 0.160998
O O8 0.782958 0.346509 0.035546
O O9 0.330098 0.158768 0.666731
O O10 0.500000 0.500000 0.500000
O O11 0.239258 0.484192 0.327314
O O12 0.679705 0.346663 0.619843
O O13 0.000000 0.500000 0.500000
#
# Coordination Sequence:
#
# PCOD9082100 Si02
#       6
#     2   2   2   2   2   2
#     4   9  17  33  53  77 106 126 168 217 251 297
#     4   9  17  33  50  80 104 132 162 217 256 288
#     4  11  18  32  58  77  98 136 173 210 256 293
#     4  11  20  34  53  76 106 138 170 206 257 306
#     4  10  17  29  58  80  99 126 177 215 249 297
#     4  10  15  31  52  75 101 131 168 213 245 290
#
# _framework density 20.870497
#
# number of rings (size 3 to 8) (size 9 to 14) (size 15 to 20)
#    1.000    1.000    8.333    0.500    0.000    0.667 
#    0.000    1.667    0.000    1.000    0.000    0.000 
#    0.000    0.000    0.000    0.000    0.000    0.000 
#
# Total GULP energy -66807.931906 kJ/mol
# GULP energy per Si atom -5567.327659 kJ/mol
# Density = 2.082299 g / cm^3
# Si number density = 20.870497 Si / 1000 Ang^3
#
#
#
# Elastic Constant Matrix: (Units=GPa)
#
#
# Indices 1 2 3 4 5 6 
#
# 1 83.2421 23.2745 8.3276 7.2358 -14.3618 -16.8330
# 2 23.2745 83.9549 45.8198 7.3040 -5.7813 -28.0332
# 3 8.3276 45.8198 56.2124 -3.6031 -8.4567 -11.0933
# 4 7.2358 7.3040 -3.6031 30.6192 -3.4572 -4.7542
# 5 -14.3618 -5.7813 -8.4567 -3.4572 16.5220 12.7672
# 6 -16.8330 -28.0332 -11.0933 -4.7542 12.7672 25.6429
#
#
#
# Elastic Compliance Matrix: (Units=1/GPa)
#
#
# Indices 1 2 3 4 5 6 
#
# 1 0.015687 -0.007607 0.005642 0.000065 0.016983 -0.004022
# 2 -0.007607 0.055732 -0.041381 -0.013068 -0.062645 0.066799
# 3 0.005642 -0.041381 0.050984 0.013790 0.052795 -0.043208
# 4 0.000065 -0.013068 0.013790 0.037850 0.018587 -0.010515
# 5 0.016983 -0.062645 0.052795 0.018587 0.175980 -0.118668
# 6 -0.004022 0.066799 -0.043208 -0.010515 -0.118668 0.147825
#
#
# Mechanical properties :
#
#
# Convention : Reuss Voigt Hill
#
# Bulk Modulus (GPa) = 28.00236 42.02811 35.01524
# Shear Modulus (GPa) = 8.58143 24.28932 16.43537
#
# Velocity S-wave (km/s) = 2.02994 3.41517 2.80928
# Velocity P-wave (km/s) = 4.35208 5.97766 5.22843
#
# Compressibility (1/GPa) = 0.03571127
#
# Stress axis : x y z
#
# Youngs Moduli (GPa) = 63.74730 17.94287 19.61401
#
# Poissons Ratio (x) = 0.13650 -0.11067
# Poissons Ratio (y) = 0.48494 0.81165
# Poissons Ratio (z) = -0.35969 0.74250
#
# Static dielectric constant tensor:
#      x y z
#    x 1.857660 0.008180 0.041330 
#    y 0.008180 1.729460 0.001130 
#    z 0.041330 0.001130 1.799450 
# 
# From -- ./inp_files/211094.got.cif
#   From: 2010.05.17/outbox.cif.g08.bks.cpg/sg2_106_cif.got.tgz:211094.got - 2010.06.03 11:33:40.
