data_PCOD9082804
_publ_section_title
;
Structure prediction by ZEFSAII (Michael W. Deem and Ramdas Pophale) SiO2 
 PCOD9082804
Probable space group: P -1
;
_chemical_formula_sum "Si O2"
_cell_formula_units_Z 12
_cell_length_a 25.029999
_cell_length_b 9.838453
_cell_length_c 24.969967
_cell_angle_alpha 31.439781
_cell_angle_beta 168.846018
_cell_angle_gamma 149.465945
_cell_volume 602.256648
_symmetry_space_group_name_H-M "P -1"
_symmetry_group_IT_number 2
_symmetry_cell_setting 'triclinic'
loop_
_space_group_symop_operation_xyz
x,y,z
-x,-y,-z
loop_
_atom_site_type_symbol
_atom_site_label
_atom_site_fract_x
_atom_site_fract_y
_atom_site_fract_z
Si Si1 0.849810 0.276505 0.606309
Si Si2 0.309792 0.119887 0.846592
Si Si3 0.060575 0.229035 0.171988
Si Si4 0.206507 0.753298 0.646038
Si Si5 0.541053 0.381284 0.878218
Si Si6 0.549660 0.993805 0.307177
O O1 0.628248 0.400121 0.380074
O O2 0.721070 0.236611 0.432506
O O3 0.159350 0.468064 0.851932
O O4 0.878221 0.972642 0.746201
O O5 0.342306 0.213706 0.785585
O O6 0.002780 0.112856 0.570190
O O7 0.554153 0.312284 0.057799
O O8 0.386662 0.830799 0.020612
O O9 0.780396 0.067717 0.982381
O O10 0.000000 0.500000 0.000000
O O11 0.324691 0.251550 0.464466
O O12 0.000000 0.500000 0.500000
O O13 0.371804 0.938195 0.699116
#
# Coordination Sequence:
#
# PCOD9082804 Si02
#       6
#     2   2   2   2   2   2
#     4  10  19  33  58  77 110 136 174 233 278 309
#     4  11  24  34  53  76 112 152 193 212 261 307
#     4  10  20  35  57  87 110 133 178 231 291 320
#     4  12  23  36  54  80 114 153 180 212 270 330
#     4  11  20  37  51  78 109 150 188 230 245 317
#     4  10  20  34  55  83 113 139 175 219 280 327
#
# _framework density 19.925060999999999
#
# number of rings (size 3 to 8) (size 9 to 14) (size 15 to 20)
#    1.000    0.333    1.667    6.000    0.000    2.667 
#    0.000    0.000    0.000    0.000    0.000   23.333 
#    0.000    0.000    0.000    0.000    0.000    0.000 
#
# Total GULP energy -66943.197744 kJ/mol
# GULP energy per Si atom -5578.599812 kJ/mol
# Density = 1.987971 g / cm^3
# Si number density = 19.925061 Si / 1000 Ang^3
#
#
#
# Elastic Constant Matrix: (Units=GPa)
#
#
# Indices 1 2 3 4 5 6 
#
# 1 29.4058 4.8722 1.6263 -2.7105 10.4680 -1.3576
# 2 4.8722 61.2173 14.9063 -16.4251 6.7250 -5.5119
# 3 1.6263 14.9063 108.6151 -10.5201 21.6452 -2.5721
# 4 -2.7105 -16.4251 -10.5201 41.2544 -2.5405 -1.2820
# 5 10.4680 6.7250 21.6452 -2.5405 28.7018 -2.0248
# 6 -1.3576 -5.5119 -2.5721 -1.2820 -2.0248 13.1722
#
#
#
# Elastic Compliance Matrix: (Units=1/GPa)
#
#
# Indices 1 2 3 4 5 6 
#
# 1 0.040151 -0.001486 0.003081 0.001882 -0.016326 0.001792
# 2 -0.001486 0.019768 -0.001408 0.007563 -0.001772 0.008308
# 3 0.003081 -0.001408 0.011390 0.002006 -0.009154 0.000740
# 4 0.001882 0.007563 0.002006 0.028018 -0.001045 0.006316
# 5 -0.016326 -0.001772 -0.009154 -0.001045 0.048240 0.003102
# 6 0.001792 0.008308 0.000740 0.006316 0.003102 0.080814
#
#
# Mechanical properties :
#
#
# Convention : Reuss Voigt Hill
#
# Bulk Modulus (GPa) = 13.95045 26.89421 20.42233
# Shear Modulus (GPa) = 19.84900 28.48123 24.16511
#
# Velocity S-wave (km/s) = 3.15966 3.78487 3.48631
# Velocity P-wave (km/s) = 4.50865 5.71203 5.14564
#
# Compressibility (1/GPa) = 0.07168228
#
# Stress axis : x y z
#
# Youngs Moduli (GPa) = 24.90620 50.58600 87.79711
#
# Poissons Ratio (x) = 0.07517 -0.27050
# Poissons Ratio (y) = 0.03701 0.12365
# Poissons Ratio (z) = -0.07674 0.07124
#
# Static dielectric constant tensor:
#      x y z
#    x 1.688190 -0.022890 -0.019870 
#    y -0.022890 1.787550 -0.040510 
#    z -0.019870 -0.040510 1.739530 
# 
# From -- ./inp_files/51506.got.cif
#   From: 2010.05.17/outbox.cif.g08.bks.cpg/sg2_26_cif.got.tgz:51506.got - 2010.06.03 11:33:40.
