data_PCOD9082135
_publ_section_title
;
Structure prediction by ZEFSAII (Michael W. Deem and Ramdas Pophale) SiO2 
 PCOD9082135
Probable space group: P -1
;
_chemical_formula_sum "Si O2"
_cell_formula_units_Z 16
_cell_length_a 18.398224
_cell_length_b 6.883295
_cell_length_c 8.788505
_cell_angle_alpha 75.523141
_cell_angle_beta 39.066780
_cell_angle_gamma 69.706523
_cell_volume 657.539249
_symmetry_space_group_name_H-M "P -1"
_symmetry_group_IT_number 2
_symmetry_cell_setting 'triclinic'
loop_
_space_group_symop_operation_xyz
x,y,z
-x,-y,-z
loop_
_atom_site_type_symbol
_atom_site_label
_atom_site_fract_x
_atom_site_fract_y
_atom_site_fract_z
Si Si1 0.273193 0.067238 0.601294
Si Si2 0.523967 0.459224 0.144760
Si Si3 0.856238 0.692132 0.647950
Si Si4 0.082165 0.990734 0.721822
Si Si5 0.091650 0.158104 0.152999
Si Si6 0.768676 0.297794 0.901181
Si Si7 0.619861 0.831629 0.876501
Si Si8 0.619777 0.371693 0.409723
O O1 0.209706 0.943508 0.605776
O O2 0.372048 0.874596 0.545717
O O3 0.321336 0.213918 0.378918
O O4 0.181506 0.169009 0.863311
O O5 0.399407 0.499616 0.427742
O O6 0.500000 0.500000 0.000000
O O7 0.642633 0.284033 0.029771
O O8 0.574192 0.655501 0.068571
O O9 0.827613 0.472486 0.702210
O O10 0.726726 0.856704 0.805777
O O11 0.932118 0.789447 0.385154
O O12 0.903959 0.695490 0.740281
O O13 0.037047 0.839770 0.709606
O O14 0.000000 0.000000 0.000000
O O15 0.143053 0.926775 0.183663
O O16 0.730065 0.373927 0.121770
O O17 0.500000 0.000000 0.000000
O O18 0.500000 0.500000 0.500000
#
# Coordination Sequence:
#
# PCOD9082135 Si02
#       8
#     2   2   2   2   2   2   2   2
#     4   9  18  34  56  78 107 145 181 221 269 322
#     4  10  20  31  50  76 106 143 183 219 263 321
#     4  10  21  36  57  82 109 140 184 225 264 326
#     4   9  19  36  59  81 107 142 180 225 274 320
#     4  10  20  36  59  81 106 143 186 223 272 319
#     4   9  21  36  52  79 112 140 175 227 271 313
#     4  10  19  33  52  74 107 145 177 217 269 315
#     4   9  17  33  50  72 110 145 171 216 271 313
#
# _framework density 24.333148999999999
#
# number of rings (size 3 to 8) (size 9 to 14) (size 15 to 20)
#    0.000    2.500    1.250    0.375    1.750    1.500 
#    0.000    0.625    0.000   12.750    0.000    0.000 
#    0.000    0.000    0.000    0.000    0.000    0.000 
#
# Total GULP energy -89080.139705 kJ/mol
# GULP energy per Si atom -5567.508732 kJ/mol
# Density = 2.427777 g / cm^3
# Si number density = 24.333149 Si / 1000 Ang^3
#
#
#
# Elastic Constant Matrix: (Units=GPa)
#
#
# Indices 1 2 3 4 5 6 
#
# 1 86.9766 -5.4767 18.6304 12.5082 15.8525 -4.8994
# 2 -5.4767 40.6365 12.8141 -2.1947 0.3408 -7.2262
# 3 18.6304 12.8141 101.1427 -14.6839 20.4695 8.5880
# 4 12.5082 -2.1947 -14.6839 29.9257 -8.7756 -0.1507
# 5 15.8525 0.3408 20.4695 -8.7756 37.1078 2.6930
# 6 -4.8994 -7.2262 8.5880 -0.1507 2.6930 23.3204
#
#
#
# Elastic Compliance Matrix: (Units=1/GPa)
#
#
# Indices 1 2 3 4 5 6 
#
# 1 0.015909 0.004142 -0.004032 -0.010518 -0.007600 0.006920
# 2 0.004142 0.028980 -0.005745 -0.002457 -0.000318 0.011986
# 3 -0.004032 -0.005745 0.013705 0.006887 -0.003633 -0.007210
# 4 -0.010518 -0.002457 0.006887 0.044408 0.011696 -0.006571
# 5 -0.007600 -0.000318 -0.003633 0.011696 0.035284 -0.004356
# 6 0.006920 0.011986 -0.007210 -0.006571 -0.004356 0.051165
#
#
# Mechanical properties :
#
#
# Convention : Reuss Voigt Hill
#
# Bulk Modulus (GPa) = 21.13073 31.18794 26.15934
# Shear Modulus (GPa) = 23.09524 31.58999 27.34262
#
# Velocity S-wave (km/s) = 3.08413 3.60700 3.35577
# Velocity P-wave (km/s) = 4.62442 5.49474 5.07826
#
# Compressibility (1/GPa) = 0.04732445
#
# Stress axis : x y z
#
# Youngs Moduli (GPa) = 62.85583 34.50713 72.96755
#
# Poissons Ratio (x) = -0.14292 0.29418
# Poissons Ratio (y) = -0.26033 0.41918
# Poissons Ratio (z) = 0.25342 0.19823
#
# Static dielectric constant tensor:
#      x y z
#    x 2.128310 0.012470 -0.033230 
#    y 0.012470 1.965270 0.030760 
#    z -0.033230 0.030760 2.081860 
# 
# From -- ./inp_files/197491.got.cif
#   From: 2010.05.17/outbox.cif.g08.bks.cpg/sg2_99_cif.got.tgz:197491.got - 2010.06.03 11:33:40.
