data_PCOD9082858
_publ_section_title
;
Structure prediction by ZEFSAII (Michael W. Deem and Ramdas Pophale) SiO2 
 PCOD9082858
Probable space group: P -1
;
_chemical_formula_sum "Si O2"
_cell_formula_units_Z 14
_cell_length_a 15.944933
_cell_length_b 15.930150
_cell_length_c 15.789318
_cell_angle_alpha 161.433716
_cell_angle_beta 144.597613
_cell_angle_gamma 34.745795
_cell_volume 713.181866
_symmetry_space_group_name_H-M "P -1"
_symmetry_group_IT_number 2
_symmetry_cell_setting 'triclinic'
loop_
_space_group_symop_operation_xyz
x,y,z
-x,-y,-z
loop_
_atom_site_type_symbol
_atom_site_label
_atom_site_fract_x
_atom_site_fract_y
_atom_site_fract_z
Si Si1 0.883092 0.405825 0.719862
Si Si2 0.693020 0.462711 0.935184
Si Si3 0.633534 0.645881 0.234362
Si Si4 0.563168 0.826148 0.517780
Si Si5 0.491460 0.934449 0.130619
Si Si6 0.574165 0.497752 0.467493
Si Si7 0.916046 0.185450 0.714072
O O1 0.749472 0.458572 0.593753
O O2 0.831236 0.326922 0.694570
O O3 0.015618 0.136949 0.549171
O O4 0.947770 0.668887 0.029543
O O5 0.536092 0.375498 0.727309
O O6 0.814448 0.261198 0.785360
O O7 0.738485 0.486249 0.093091
O O8 0.646082 0.752611 0.124886
O O9 0.681889 0.693913 0.415676
O O10 0.555625 0.932779 0.399454
O O11 0.500000 0.500000 0.000000
O O12 0.611343 0.958928 0.768543
O O13 0.499393 0.209247 0.354176
O O14 0.442490 0.742516 0.838253
O O15 0.500000 0.500000 0.500000
#
# Coordination Sequence:
#
# PCOD9082858 Si02
#       7
#     2   2   2   2   2   2   2
#     4  10  23  39  54  78 108 148 191 234 275 317
#     4  10  19  33  58  87 116 146 185 225 286 339
#     4   8  16  29  51  83 123 141 172 226 279 345
#     4   9  17  32  51  86 121 142 178 222 287 341
#     4  11  22  34  56  83 114 149 181 226 285 328
#     4  12  24  39  56  80 110 149 194 237 275 328
#     4  10  22  38  58  77 110 147 187 233 276 327
#
# _framework density 19.630336
#
# number of rings (size 3 to 8) (size 9 to 14) (size 15 to 20)
#    0.000    2.000    1.429    2.143    4.000    2.286 
#    0.000    0.000    0.000    0.000    0.000    6.000 
#    0.000    0.000    0.000    0.000    0.000    0.000 
#
# Total GULP energy -78031.176031 kJ/mol
# GULP energy per Si atom -5573.655431 kJ/mol
# Density = 1.958566 g / cm^3
# Si number density = 19.630336 Si / 1000 Ang^3
#
#
#
# Elastic Constant Matrix: (Units=GPa)
#
#
# Indices 1 2 3 4 5 6 
#
# 1 124.7014 27.0635 35.4750 -7.1525 -40.2557 26.8754
# 2 27.0635 27.7621 21.5727 -0.9023 2.6322 15.7380
# 3 35.4750 21.5727 104.3781 -1.8114 -21.8761 18.8117
# 4 -7.1525 -0.9023 -1.8114 31.1712 14.8595 -0.6765
# 5 -40.2557 2.6322 -21.8761 14.8595 40.8293 -5.2848
# 6 26.8754 15.7380 18.8117 -0.6765 -5.2848 22.8658
#
#
#
# Elastic Compliance Matrix: (Units=1/GPa)
#
#
# Indices 1 2 3 4 5 6 
#
# 1 0.021836 -0.023765 0.004365 -0.008786 0.027724 -0.006751
# 2 -0.023765 0.098055 -0.015538 0.019534 -0.050076 -0.037769
# 3 0.004365 -0.015538 0.014973 -0.005799 0.014991 -0.003462
# 4 -0.008786 0.019534 -0.005799 0.044356 -0.029676 -0.003893
# 5 0.027724 -0.050076 0.014991 -0.029676 0.074654 0.005924
# 6 -0.006751 -0.037769 -0.003462 -0.003893 0.005924 0.081766
#
#
# Mechanical properties :
#
#
# Convention : Reuss Voigt Hill
#
# Bulk Modulus (GPa) = 15.38738 47.22933 31.30836
# Shear Modulus (GPa) = 11.70471 30.48862 21.09667
#
# Velocity S-wave (km/s) = 2.44449 3.94526 3.28181
# Velocity P-wave (km/s) = 3.97781 6.69814 5.50854
#
# Compressibility (1/GPa) = 0.06498830
#
# Stress axis : x y z
#
# Youngs Moduli (GPa) = 45.79636 10.19838 66.78514
#
# Poissons Ratio (x) = 0.24237 -0.29153
# Poissons Ratio (y) = 1.08836 1.03770
# Poissons Ratio (z) = -0.19991 0.15846
#
# Static dielectric constant tensor:
#      x y z
#    x 1.768550 0.027910 -0.026550 
#    y 0.027910 1.692140 0.000100 
#    z -0.026550 0.000100 1.787750 
# 
# From -- ./inp_files/37455.got.cif
#   From: 2010.05.17/outbox.cif.g08.bks.cpg/sg2_19_cif.got.tgz:37455.got - 2010.06.03 11:33:40.
