data_PCOD9082911
_publ_section_title
;
Structure prediction by ZEFSAII (Michael W. Deem and Ramdas Pophale) SiO2 
 PCOD9082911
Probable space group: P -1
;
_chemical_formula_sum "Si O2"
_cell_formula_units_Z 16
_cell_length_a 12.134265
_cell_length_b 12.842233
_cell_length_c 11.374898
_cell_angle_alpha 32.067377
_cell_angle_beta 56.362406
_cell_angle_gamma 76.598386
_cell_volume 660.633537
_symmetry_space_group_name_H-M "P -1"
_symmetry_group_IT_number 2
_symmetry_cell_setting 'triclinic'
loop_
_space_group_symop_operation_xyz
x,y,z
-x,-y,-z
loop_
_atom_site_type_symbol
_atom_site_label
_atom_site_fract_x
_atom_site_fract_y
_atom_site_fract_z
Si Si1 0.973380 0.245070 0.951942
Si Si2 0.418479 0.200683 0.758340
Si Si3 0.153693 0.740622 0.639963
Si Si4 0.040716 0.309099 0.617113
Si Si5 0.555476 0.179642 0.468069
Si Si6 0.090512 0.995659 0.244020
Si Si7 0.694916 0.319449 0.014857
Si Si8 0.696822 0.321598 0.621744
O O1 0.947791 0.125459 0.953797
O O2 0.153533 0.458296 0.620480
O O3 0.841299 0.301710 0.990699
O O4 0.982772 0.101288 0.191504
O O5 0.494570 0.281004 0.507782
O O6 0.543877 0.318644 0.676602
O O7 0.263080 0.181460 0.914522
O O8 0.367696 0.928142 0.042827
O O9 0.297421 0.831444 0.558675
O O10 0.104994 0.907452 0.446982
O O11 0.227120 0.686668 0.537239
O O12 0.000000 0.500000 0.000000
O O13 0.000000 0.500000 0.500000
O O14 0.970114 0.198061 0.637694
O O15 0.225892 0.461421 0.329455
O O16 0.612811 0.331948 0.169114
O O17 0.422168 0.920271 0.753627
#
# Coordination Sequence:
#
# PCOD9082911 Si02
#       8
#     2   2   2   2   2   2   2   2
#     4  11  21  35  55  83 117 142 175 231 288 330
#     4   9  17  33  54  79 106 142 190 224 265 317
#     4  10  19  36  59  80 107 143 188 228 268 324
#     4  10  19  34  56  77 105 145 188 224 260 322
#     4  10  19  33  59  82 104 139 187 237 258 307
#     4  11  22  34  56  86 113 142 176 229 287 334
#     4  10  20  35  57  82 106 143 191 222 269 329
#     4   9  18  32  54  78 105 145 187 226 262 321
#
# _framework density 24.219175
#
# number of rings (size 3 to 8) (size 9 to 14) (size 15 to 20)
#    0.000    2.000    0.000    7.875    0.000    0.500 
#    0.000    2.500    0.000   18.000    0.000    0.000 
#    0.000    0.000    0.000    0.000    0.000    0.000 
#
# Total GULP energy -89170.952647 kJ/mol
# GULP energy per Si atom -5573.184540 kJ/mol
# Density = 2.416405 g / cm^3
# Si number density = 24.219175 Si / 1000 Ang^3
#
#
#
# Elastic Constant Matrix: (Units=GPa)
#
#
# Indices 1 2 3 4 5 6 
#
# 1 111.5072 -2.8948 32.1719 -5.4947 -7.6240 4.4654
# 2 -2.8948 22.4595 10.0315 21.0743 2.3818 8.5620
# 3 32.1719 10.0315 103.2120 23.5510 -10.3545 13.1361
# 4 -5.4947 21.0743 23.5510 41.5703 7.3491 10.2154
# 5 -7.6240 2.3818 -10.3545 7.3491 37.9322 5.7785
# 6 4.4654 8.5620 13.1361 10.2154 5.7785 26.2529
#
#
#
# Elastic Compliance Matrix: (Units=1/GPa)
#
#
# Indices 1 2 3 4 5 6 
#
# 1 0.010365 -0.000069 -0.003875 0.003860 0.000497 -0.001413
# 2 -0.000069 0.090793 0.004291 -0.045873 0.006685 -0.015367
# 3 -0.003875 0.004291 0.014041 -0.010411 0.005554 -0.004937
# 4 0.003860 -0.045873 -0.010411 0.055447 -0.009947 0.000128
# 5 0.000497 0.006685 0.005554 -0.009947 0.030694 -0.007929
# 6 -0.001413 -0.015367 -0.004937 0.000128 -0.007929 0.047509
#
#
# Mechanical properties :
#
#
# Convention : Reuss Voigt Hill
#
# Bulk Modulus (GPa) = 8.62871 35.08841 21.85856
# Shear Modulus (GPa) = 17.43466 34.34242 25.88854
#
# Velocity S-wave (km/s) = 2.68595 3.76970 3.27299
# Velocity P-wave (km/s) = 3.63175 5.78505 4.82993
#
# Compressibility (1/GPa) = 0.11589213
#
# Stress axis : x y z
#
# Youngs Moduli (GPa) = 96.47794 11.01411 71.22162
#
# Poissons Ratio (x) = 0.00076 0.27600
# Poissons Ratio (y) = 0.00665 -0.30561
# Poissons Ratio (z) = 0.37387 -0.04726
#
# Static dielectric constant tensor:
#      x y z
#    x 2.291660 0.079400 -0.005170 
#    y 0.079400 1.967800 -0.065640 
#    z -0.005170 -0.065640 2.078060 
# 
# From -- ./inp_files/433648.got.cif
#   From: 2010.05.17/outbox.cif.g08.bks.cpg/sg2_217_cif.got.tgz:433648.got - 2010.06.03 11:33:40.
