data_PCOD9082177
_publ_section_title
;
Structure prediction by ZEFSAII (Michael W. Deem and Ramdas Pophale) SiO2 
 PCOD9082177
Probable space group: P -1
;
_chemical_formula_sum "Si O2"
_cell_formula_units_Z 16
_cell_length_a 11.590632
_cell_length_b 10.931694
_cell_length_c 19.689159
_cell_angle_alpha 121.588900
_cell_angle_beta 124.936264
_cell_angle_gamma 25.257806
_cell_volume 872.522682
_symmetry_space_group_name_H-M "P -1"
_symmetry_group_IT_number 2
_symmetry_cell_setting 'triclinic'
loop_
_space_group_symop_operation_xyz
x,y,z
-x,-y,-z
loop_
_atom_site_type_symbol
_atom_site_label
_atom_site_fract_x
_atom_site_fract_y
_atom_site_fract_z
Si Si1 0.968234 0.320904 0.174964
Si Si2 0.091141 0.847482 0.592842
Si Si3 0.238272 0.676416 0.005654
Si Si4 0.804442 0.758006 0.561169
Si Si5 0.341557 0.783239 0.343147
Si Si6 0.913396 0.499925 0.662804
Si Si7 0.686269 0.097456 0.412135
Si Si8 0.560786 0.321243 0.813759
O O1 0.740573 0.459738 0.193372
O O2 0.040720 0.422162 0.241306
O O3 0.855080 0.388414 0.080308
O O4 0.240085 0.983758 0.182445
O O5 0.354434 0.512606 0.604819
O O6 0.853553 0.979606 0.504605
O O7 0.229735 0.848455 0.593809
O O8 0.908579 0.077294 0.660042
O O9 0.328384 0.629222 0.099299
O O10 0.500000 0.500000 0.000000
O O11 0.000000 0.000000 0.000000
O O12 0.858243 0.642036 0.618371
O O13 0.000000 0.500000 0.500000
O O14 0.500000 0.000000 0.500000
O O15 0.799040 0.934220 0.617810
O O16 0.407766 0.694730 0.261001
O O17 0.189447 0.161294 0.648431
O O18 0.647009 0.628580 0.615247
#
# Coordination Sequence:
#
# PCOD9082177 Si02
#       8
#     2   2   2   2   2   2   2   2
#     4  10  19  33  52  81 115 144 172 212 265 333
#     4  11  24  41  58  74 102 144 197 238 267 301
#     4   8  16  30  50  74 110 147 172 203 256 321
#     4  12  24  34  50  77 114 143 169 208 277 341
#     4  12  22  36  58  82 108 143 179 227 277 322
#     4  12  22  36  56  80 109 142 179 223 276 323
#     4  11  24  41  56  75 101 145 196 238 263 304
#     4  10  19  33  52  82 114 142 174 213 264 334
#
# _framework density 18.337634000000001
#
# number of rings (size 3 to 8) (size 9 to 14) (size 15 to 20)
#    0.000    1.250    1.250    6.750    1.750    2.000 
#    0.000    0.000    0.000    0.000    0.000    5.250 
#    0.000    0.000    0.000    0.000    0.000    0.000 
#
# Total GULP energy -89219.370738 kJ/mol
# GULP energy per Si atom -5576.210671 kJ/mol
# Density = 1.829590 g / cm^3
# Si number density = 18.337634 Si / 1000 Ang^3
#
#
#
# Elastic Constant Matrix: (Units=GPa)
#
#
# Indices 1 2 3 4 5 6 
#
# 1 42.4385 -2.9332 26.0576 -1.2914 -7.1992 -3.4792
# 2 -2.9332 86.9254 2.1564 5.5978 -9.6079 -10.5855
# 3 26.0576 2.1564 109.2723 6.1713 1.8129 4.0986
# 4 -1.2914 5.5978 6.1713 20.7495 -5.1183 0.5599
# 5 -7.1992 -9.6079 1.8129 -5.1183 17.6116 3.9979
# 6 -3.4792 -10.5855 4.0986 0.5599 3.9979 26.1385
#
#
#
# Elastic Compliance Matrix: (Units=1/GPa)
#
#
# Indices 1 2 3 4 5 6 
#
# 1 0.032702 0.003244 -0.008757 0.007941 0.017391 0.004210
# 2 0.003244 0.013111 -0.001258 -0.001339 0.007112 0.004880
# 3 -0.008757 -0.001258 0.011758 -0.005227 -0.006446 -0.002421
# 4 0.007941 -0.001339 -0.005227 0.055582 0.019864 -0.002894
# 5 0.017391 0.007112 -0.006446 0.019864 0.075516 -0.005770
# 6 0.004210 0.004880 -0.002421 -0.002894 -0.005770 0.042118
#
#
# Mechanical properties :
#
#
# Convention : Reuss Voigt Hill
#
# Bulk Modulus (GPa) = 22.71224 32.13308 27.42266
# Shear Modulus (GPa) = 19.30465 27.12360 23.21412
#
# Velocity S-wave (km/s) = 3.24811 3.85011 3.56185
# Velocity P-wave (km/s) = 5.14581 6.10946 5.64823
#
# Compressibility (1/GPa) = 0.04402913
#
# Stress axis : x y z
#
# Youngs Moduli (GPa) = 30.57945 76.27005 85.05203
#
# Poissons Ratio (x) = -0.24744 0.74481
# Poissons Ratio (y) = -0.09921 0.10698
# Poissons Ratio (z) = 0.26779 0.09593
#
# Static dielectric constant tensor:
#      x y z
#    x 1.833930 0.020820 -0.000780 
#    y 0.020820 1.635370 0.002100 
#    z -0.000780 0.002100 1.705220 
# 
# From -- ./inp_files/569196.got.cif
#   From: 2010.05.17/outbox.cif.g08.bks.cpg/sg2_285_cif.got.tgz:569196.got - 2010.06.03 11:33:40.
