data_PCOD9082293
_publ_section_title
;
Structure prediction by ZEFSAII (Michael W. Deem and Ramdas Pophale) SiO2 
 PCOD9082293
Probable space group: P -1
;
_chemical_formula_sum "Si O2"
_cell_formula_units_Z 16
_cell_length_a 4.956022
_cell_length_b 14.291132
_cell_length_c 15.188505
_cell_angle_alpha 138.186338
_cell_angle_beta 82.195580
_cell_angle_gamma 96.316625
_cell_volume 710.512724
_symmetry_space_group_name_H-M "P -1"
_symmetry_group_IT_number 2
_symmetry_cell_setting 'triclinic'
loop_
_space_group_symop_operation_xyz
x,y,z
-x,-y,-z
loop_
_atom_site_type_symbol
_atom_site_label
_atom_site_fract_x
_atom_site_fract_y
_atom_site_fract_z
Si Si1 0.249198 0.652438 0.377863
Si Si2 0.310942 0.871710 0.386882
Si Si3 0.155831 0.983930 0.298305
Si Si4 0.678662 0.144573 0.344141
Si Si5 0.800336 0.520053 0.199915
Si Si6 0.276808 0.009404 0.941874
Si Si7 0.464666 0.244186 0.971502
Si Si8 0.678648 0.637139 0.112139
O O1 0.181259 0.788236 0.415525
O O2 0.226213 0.706010 0.516142
O O3 0.558571 0.613283 0.316198
O O4 0.052066 0.531874 0.263463
O O5 0.111945 0.928626 0.360198
O O6 0.497419 0.756318 0.249254
O O7 0.500000 0.000000 0.500000
O O8 0.378222 0.110694 0.371925
O O9 0.320124 0.863382 0.155826
O O10 0.883871 0.030140 0.295329
O O11 0.686905 0.113550 0.218610
O O12 0.649344 0.372112 0.088442
O O13 0.876952 0.584710 0.144746
O O14 0.500000 0.000000 0.000000
O O15 0.309943 0.155504 0.990167
O O16 0.000000 0.000000 0.000000
O O17 0.260950 0.299423 0.942424
O O18 0.500000 0.500000 0.000000
#
# Coordination Sequence:
#
# PCOD9082293 Si02
#       8
#     2   2   2   2   2   2   2   2
#     4  11  23  36  57  87 125 165 200 242 300 362
#     4  10  19  33  53  86 125 166 209 248 290 357
#     4  10  21  35  58  88 119 163 203 247 301 353
#     4  11  22  39  59  86 122 153 194 253 316 363
#     4  10  22  39  60  90 126 170 204 236 287 370
#     4  11  24  42  66  93 116 149 201 267 324 361
#     4   9  20  41  65  88 123 160 207 254 304 361
#     4   8  17  36  56  86 125 167 205 243 291 358
#
# _framework density 22.518948000000002
#
# number of rings (size 3 to 8) (size 9 to 14) (size 15 to 20)
#    0.000    2.000    1.250    2.250    1.750    7.500 
#    0.000   22.500    0.000    4.500    0.000    0.000 
#    0.000    0.000    0.000    0.000    0.000    0.000 
#
# Total GULP energy -89513.090096 kJ/mol
# GULP energy per Si atom -5594.568131 kJ/mol
# Density = 2.246769 g / cm^3
# Si number density = 22.518948 Si / 1000 Ang^3
#
#
#
# Elastic Constant Matrix: (Units=GPa)
#
#
# Indices 1 2 3 4 5 6 
#
# 1 111.1691 27.1441 27.2190 -17.4992 12.2041 5.4145
# 2 27.1441 101.8614 37.3572 -19.6928 5.1667 11.1618
# 3 27.2190 37.3572 155.9933 -10.4824 24.6761 5.6111
# 4 -17.4992 -19.6928 -10.4824 41.1131 -2.4776 4.5038
# 5 12.2041 5.1667 24.6761 -2.4776 31.9942 -2.5853
# 6 5.4145 11.1618 5.6111 4.5038 -2.5853 28.4148
#
#
#
# Elastic Compliance Matrix: (Units=1/GPa)
#
#
# Indices 1 2 3 4 5 6 
#
# 1 0.010545 -0.001458 -0.000665 0.003668 -0.003165 -0.002175
# 2 -0.001458 0.012627 -0.002266 0.005421 0.000275 -0.005069
# 3 -0.000665 -0.002266 0.008033 0.000467 -0.005633 -0.001156
# 4 0.003668 0.005421 0.000467 0.029381 -0.000979 -0.007667
# 5 -0.003165 0.000275 -0.005633 -0.000979 0.037103 0.005138
# 6 -0.002175 -0.005069 -0.001156 -0.007667 0.005138 0.039509
#
#
# Mechanical properties :
#
#
# Convention : Reuss Voigt Hill
#
# Bulk Modulus (GPa) = 44.59227 61.38494 52.98861
# Shear Modulus (GPa) = 32.58328 38.79130 35.68729
#
# Velocity S-wave (km/s) = 3.80798 4.15493 3.98523
# Velocity P-wave (km/s) = 6.25934 7.09481 6.69013
#
# Compressibility (1/GPa) = 0.02242541
#
# Stress axis : x y z
#
# Youngs Moduli (GPa) = 94.83177 79.19819 124.47986
#
# Poissons Ratio (x) = 0.11548 0.08283
# Poissons Ratio (y) = 0.13827 0.28211
# Poissons Ratio (z) = 0.06310 0.17949
#
# Static dielectric constant tensor:
#      x y z
#    x 1.833810 -0.014980 -0.002390 
#    y -0.014980 1.815190 0.014960 
#    z -0.002390 0.014960 1.919660 
# 
# From -- ./inp_files/484477.got.cif
#   From: 2010.05.17/outbox.cif.g08.bks.cpg/sg2_243_cif.got.tgz:484477.got - 2010.06.03 11:33:40.
