data_PCOD9082022
_publ_section_title
;
Structure prediction by ZEFSAII (Michael W. Deem and Ramdas Pophale) SiO2 
 PCOD9082022
Probable space group: P -1
;
_chemical_formula_sum "Si O2"
_cell_formula_units_Z 16
_cell_length_a 19.318911
_cell_length_b 5.523470
_cell_length_c 8.884414
_cell_angle_alpha 112.506757
_cell_angle_beta 54.281795
_cell_angle_gamma 123.302574
_cell_volume 640.594285
_symmetry_space_group_name_H-M "P -1"
_symmetry_group_IT_number 2
_symmetry_cell_setting 'triclinic'
loop_
_space_group_symop_operation_xyz
x,y,z
-x,-y,-z
loop_
_atom_site_type_symbol
_atom_site_label
_atom_site_fract_x
_atom_site_fract_y
_atom_site_fract_z
Si Si1 0.488806 0.388451 0.660088
Si Si2 0.142176 0.064985 0.942998
Si Si3 0.078385 0.551411 0.127342
Si Si4 0.791475 0.752357 0.401155
Si Si5 0.077728 0.303329 0.536213
Si Si6 0.633662 0.924471 0.726643
Si Si7 0.231359 0.588570 0.150958
Si Si8 0.354140 0.853980 0.577673
O O1 0.500000 0.500000 0.500000
O O2 0.528283 0.660072 0.789546
O O3 0.564305 0.256713 0.550382
O O4 0.386411 0.117006 0.718740
O O5 0.078855 0.239799 0.033031
O O6 0.223280 0.307477 0.001925
O O7 0.092170 0.762841 0.019759
O O8 0.183129 0.040153 0.725212
O O9 0.170681 0.711010 0.155341
O O10 0.982041 0.514394 0.318329
O O11 0.879058 0.772010 0.389553
O O12 0.713047 0.801070 0.609363
O O13 0.740822 0.422479 0.324155
O O14 0.164664 0.463480 0.351686
O O15 0.000000 0.000000 0.500000
O O16 0.666577 0.175871 0.869451
O O17 0.648464 0.055199 0.569982
#
# Coordination Sequence:
#
# PCOD9082022 Si02
#       8
#     2   2   2   2   2   2   2   2
#     4   8  16  30  54  86 122 148 184 246 293 353
#     4  10  25  41  59  84 124 166 201 252 311 365
#     4  10  23  41  60  82 120 163 210 251 308 351
#     4  11  24  36  60  87 122 160 203 247 306 364
#     4  12  21  40  61  86 116 158 210 264 299 354
#     4  10  19  32  60  91 115 152 199 247 299 356
#     4  10  22  38  63  86 120 156 206 255 307 354
#     4   9  17  34  53  87 120 150 194 241 298 353
#
# _framework density 24.976807000000001
#
# number of rings (size 3 to 8) (size 9 to 14) (size 15 to 20)
#    0.750    1.250    2.500    1.125    1.750    2.000 
#    0.000    0.000    0.000    0.750    0.000   30.625 
#    0.000    0.000    0.000    0.000    0.000    0.000 
#
# Total GULP energy -89427.052047 kJ/mol
# GULP energy per Si atom -5589.190753 kJ/mol
# Density = 2.491996 g / cm^3
# Si number density = 24.976807 Si / 1000 Ang^3
#
#
#
# Elastic Constant Matrix: (Units=GPa)
#
#
# Indices 1 2 3 4 5 6 
#
# 1 129.4747 50.5851 27.5526 15.0152 16.1637 -2.6137
# 2 50.5851 136.5912 18.0279 15.9776 28.0883 29.4321
# 3 27.5526 18.0279 40.7274 1.1105 11.7462 4.2466
# 4 15.0152 15.9776 1.1105 28.3837 -4.7930 21.8525
# 5 16.1637 28.0883 11.7462 -4.7930 34.3667 17.4262
# 6 -2.6137 29.4321 4.2466 21.8525 17.4262 59.4520
#
#
#
# Elastic Compliance Matrix: (Units=1/GPa)
#
#
# Indices 1 2 3 4 5 6 
#
# 1 0.013108 -0.002690 -0.005634 -0.014959 -0.009498 0.010593
# 2 -0.002690 0.010743 -0.000588 -0.004540 -0.007115 -0.001640
# 3 -0.005634 -0.000588 0.030605 0.001538 -0.006745 -0.000731
# 4 -0.014959 -0.004540 0.001538 0.086374 0.044181 -0.043218
# 5 -0.009498 -0.007115 -0.006745 0.044181 0.063736 -0.031335
# 6 0.010593 -0.001640 -0.000731 -0.043218 -0.031335 0.043221
#
#
# Mechanical properties :
#
#
# Convention : Reuss Voigt Hill
#
# Bulk Modulus (GPa) = 27.30001 55.45829 41.37915
# Shear Modulus (GPa) = 17.99715 38.48233 28.23974
#
# Velocity S-wave (km/s) = 2.68723 3.92946 3.36614
# Velocity P-wave (km/s) = 4.53675 6.54520 5.63124
#
# Compressibility (1/GPa) = 0.03663002
#
# Stress axis : x y z
#
# Youngs Moduli (GPa) = 76.29002 93.08651 32.67454
#
# Poissons Ratio (x) = 0.25044 0.18409
# Poissons Ratio (y) = 0.20525 0.01922
# Poissons Ratio (z) = 0.42982 0.05476
#
# Static dielectric constant tensor:
#      x y z
#    x 1.948560 0.019780 -0.007580 
#    y 0.019780 2.075960 0.062840 
#    z -0.007580 0.062840 1.994500 
# 
# From -- ./inp_files/322749.got.cif
#   From: 2010.05.17/outbox.cif.g08.bks.cpg/sg2_162_cif.got.tgz:322749.got - 2010.06.03 11:33:40.
