data_PCOD9082101
_publ_section_title
;
Structure prediction by ZEFSAII (Michael W. Deem and Ramdas Pophale) SiO2 
 PCOD9082101
Probable space group: P -1
;
_chemical_formula_sum "Si O2"
_cell_formula_units_Z 14
_cell_length_a 21.472238
_cell_length_b 18.259843
_cell_length_c 11.903884
_cell_angle_alpha 151.632585
_cell_angle_beta 143.965753
_cell_angle_gamma 18.430920
_cell_volume 690.418194
_symmetry_space_group_name_H-M "P -1"
_symmetry_group_IT_number 2
_symmetry_cell_setting 'triclinic'
loop_
_space_group_symop_operation_xyz
x,y,z
-x,-y,-z
loop_
_atom_site_type_symbol
_atom_site_label
_atom_site_fract_x
_atom_site_fract_y
_atom_site_fract_z
Si Si1 0.708091 0.092803 0.809260
Si Si2 0.801075 0.285211 0.480362
Si Si3 0.634338 0.158267 0.054620
Si Si4 0.235750 0.307006 0.649026
Si Si5 0.796638 0.364791 0.824815
Si Si6 0.291189 0.267803 0.414423
Si Si7 0.699801 0.438357 0.290153
O O1 0.522151 0.313280 0.749788
O O2 0.836500 0.779040 0.555064
O O3 0.627671 0.171735 0.926646
O O4 0.803359 0.145359 0.017303
O O5 0.729553 0.199735 0.289365
O O6 0.765947 0.428507 0.733151
O O7 0.695809 0.462237 0.450617
O O8 0.036325 0.973388 0.378007
O O9 0.410317 0.425364 0.135915
O O10 0.749988 0.857786 0.850447
O O11 0.252582 0.328780 0.572687
O O12 0.467606 0.019996 0.639317
O O13 0.127733 0.574351 0.920358
O O14 0.207652 0.521257 0.572729
#
# Coordination Sequence:
#
# PCOD9082101 Si02
#       7
#     2   2   2   2   2   2   2
#     4   8  15  28  51  75  97 122 156 198 243 286
#     4  10  21  32  49  73  96 128 165 197 233 278
#     4   9  17  34  54  71  93 128 162 195 236 284
#     4   8  14  28  48  69  92 128 160 190 235 284
#     4  10  19  33  51  69  96 130 167 197 225 281
#     4   8  14  27  51  72  93 123 156 195 244 285
#     4   9  15  28  47  73 103 122 149 202 245 278
#
# _framework density 20.277566
#
# number of rings (size 3 to 8) (size 9 to 14) (size 15 to 20)
#    0.000    3.143    0.000    3.000    0.000    0.000 
#    0.000   15.714    0.000   13.714    0.000    0.000 
#    0.000    0.000    0.000    0.000    0.000    0.000 
#
# Total GULP energy -78030.170086 kJ/mol
# GULP energy per Si atom -5573.583578 kJ/mol
# Density = 2.023141 g / cm^3
# Si number density = 20.277566 Si / 1000 Ang^3
#
#
#
# Elastic Constant Matrix: (Units=GPa)
#
#
# Indices 1 2 3 4 5 6 
#
# 1 74.4371 15.8128 57.9327 -1.0033 27.0825 17.2876
# 2 15.8128 35.3239 -0.2103 3.3984 -9.1312 -2.0305
# 3 57.9327 -0.2103 73.1439 10.0484 4.6944 -7.3718
# 4 -1.0033 3.3984 10.0484 12.5158 1.9454 2.1061
# 5 27.0825 -9.1312 4.6944 1.9454 38.0549 -2.0884
# 6 17.2876 -2.0305 -7.3718 2.1061 -2.0884 21.6097
#
#
#
# Elastic Compliance Matrix: (Units=1/GPa)
#
#
# Indices 1 2 3 4 5 6 
#
# 1 -0.016911 0.016063 0.018783 -0.027676 0.016399 0.025728
# 2 0.016063 0.016754 -0.016012 0.013870 -0.007176 -0.018784
# 3 0.018783 -0.016012 -0.004390 0.015874 -0.018653 -0.021378
# 4 -0.027676 0.013870 0.015874 0.053811 0.019715 0.025520
# 5 0.016399 -0.007176 -0.018653 0.019715 0.013036 -0.020818
# 6 0.025728 -0.018784 -0.021378 0.025520 -0.020818 0.012137
#
#
# Mechanical properties :
#
#
# Convention : Reuss Voigt Hill
#
# Bulk Modulus (GPa) = 30.19219 36.66394 33.42806
# Shear Modulus (GPa) = 104.58194 21.72740 63.15467
#
# Velocity S-wave (km/s) = 7.18938 3.27693 5.58683
# Velocity P-wave (km/s) = 9.15631 5.69543 7.62483
#
# Compressibility (1/GPa) = 0.03312115
#
# Stress axis : x y z
#
# Youngs Moduli (GPa) = -59.13209 59.68577 -227.81545
#
# Poissons Ratio (x) = -0.95873 4.27908
# Poissons Ratio (y) = 0.94983 -3.64783
# Poissons Ratio (z) = 1.11068 0.95570
#
# Static dielectric constant tensor:
#      x y z
#    x 1.724860 -0.015320 0.051260 
#    y -0.015320 1.771220 0.000630 
#    z 0.051260 0.000630 1.792670 
# 
# From -- ./inp_files/429986.got.cif
#   From: 2010.05.17/outbox.cif.g08.bks.cpg/sg2_215_cif.got.tgz:429986.got - 2010.06.03 11:33:40.
