data_PCOD9082454
_publ_section_title
;
Structure prediction by ZEFSAII (Michael W. Deem and Ramdas Pophale) SiO2 
 PCOD9082454
Probable space group: P -1
;
_chemical_formula_sum "Si O2"
_cell_formula_units_Z 14
_cell_length_a 16.233252
_cell_length_b 5.129862
_cell_length_c 26.450056
_cell_angle_alpha 82.247622
_cell_angle_beta 160.719760
_cell_angle_gamma 94.723120
_cell_volume 713.785866
_symmetry_space_group_name_H-M "P -1"
_symmetry_group_IT_number 2
_symmetry_cell_setting 'triclinic'
loop_
_space_group_symop_operation_xyz
x,y,z
-x,-y,-z
loop_
_atom_site_type_symbol
_atom_site_label
_atom_site_fract_x
_atom_site_fract_y
_atom_site_fract_z
Si Si1 0.881075 0.411843 0.261647
Si Si2 0.796824 0.798284 0.344403
Si Si3 0.414399 0.261010 0.054480
Si Si4 0.200732 0.079217 0.539528
Si Si5 0.662354 0.449886 0.905371
Si Si6 0.245597 0.017244 0.109210
Si Si7 0.210584 0.031837 0.849796
O O1 0.600994 0.404308 0.123142
O O2 0.918908 0.707014 0.261244
O O3 0.068249 0.274565 0.415890
O O4 0.897507 0.225245 0.226389
O O5 0.841158 0.825232 0.429111
O O6 0.636740 0.554451 0.256421
O O7 0.600894 0.040346 0.200304
O O8 0.053848 0.818545 0.462578
O O9 0.255658 0.475328 0.993144
O O10 0.235519 0.104430 0.920845
O O11 0.499852 0.048482 0.708760
O O12 0.746748 0.185597 0.928765
O O13 0.730077 0.690893 0.904789
O O14 0.000000 0.000000 0.000000
O O15 0.500000 0.000000 0.000000
#
# Coordination Sequence:
#
# PCOD9082454 Si02
#       7
#     2   2   2   2   2   2   2
#     4  10  22  32  51  81 117 159 182 221 283 333
#     4   9  19  34  54  90 115 149 177 230 291 340
#     4  10  19  33  55  80 116 147 192 228 268 342
#     4   9  19  38  54  84 119 148 186 231 282 357
#     4  11  21  36  58  85 111 147 192 229 289 331
#     4  11  24  41  57  82 115 152 194 237 286 339
#     4  10  21  34  50  77 119 160 188 218 269 337
#
# _framework density 19.613724999999999
#
# number of rings (size 3 to 8) (size 9 to 14) (size 15 to 20)
#    0.000    2.000    2.857    2.143    8.000    2.857 
#    2.571    0.000    0.000    0.000    0.000    6.000 
#    0.000    0.000    0.000    0.000    0.000    0.000 
#
# Total GULP energy -78059.980720 kJ/mol
# GULP energy per Si atom -5575.712909 kJ/mol
# Density = 1.956908 g / cm^3
# Si number density = 19.613725 Si / 1000 Ang^3
#
#
#
# Elastic Constant Matrix: (Units=GPa)
#
#
# Indices 1 2 3 4 5 6 
#
# 1 78.6358 31.8950 50.6096 9.9576 0.6596 -11.9212
# 2 31.8950 97.5233 15.1341 12.0998 9.4183 1.8156
# 3 50.6096 15.1341 70.7917 3.7693 5.4604 1.3948
# 4 9.9576 12.0998 3.7693 21.7063 0.1392 -5.5492
# 5 0.6596 9.4183 5.4604 0.1392 33.1144 10.6616
# 6 -11.9212 1.8156 1.3948 -5.5492 10.6616 21.3537
#
#
#
# Elastic Compliance Matrix: (Units=1/GPa)
#
#
# Indices 1 2 3 4 5 6 
#
# 1 0.034058 -0.007585 -0.022921 -0.001913 -0.001650 0.021482
# 2 -0.007585 0.013312 0.003185 -0.006026 -0.002188 -0.006048
# 3 -0.022921 0.003185 0.030189 -0.000277 -0.000669 -0.014777
# 4 -0.001913 -0.006026 -0.000277 0.054269 -0.003334 0.015230
# 5 -0.001650 -0.002188 -0.000669 -0.003334 0.037509 -0.020286
# 6 0.021482 -0.006048 -0.014777 0.015230 -0.020286 0.074389
#
#
# Mechanical properties :
#
#
# Convention : Reuss Voigt Hill
#
# Bulk Modulus (GPa) = 43.63426 49.13647 46.38536
# Shear Modulus (GPa) = 16.33956 25.18903 20.76430
#
# Velocity S-wave (km/s) = 2.88942 3.58754 3.25724
# Velocity P-wave (km/s) = 5.78159 6.50131 6.15198
#
# Compressibility (1/GPa) = 0.02291777
#
# Stress axis : x y z
#
# Youngs Moduli (GPa) = 29.36179 75.12108 33.12491
#
# Poissons Ratio (x) = 0.56979 0.75925
# Poissons Ratio (y) = 0.22271 -0.10552
# Poissons Ratio (z) = 0.67300 -0.23930
#
# Static dielectric constant tensor:
#      x y z
#    x 1.713370 -0.041160 -0.058360 
#    y -0.041160 1.797710 0.027580 
#    z -0.058360 0.027580 1.744890 
# 
# From -- ./inp_files/620030.got.cif
#   From: 2010.05.17/outbox.cif.g08.bks.cpg/sg2_311_cif.got.tgz:620030.got - 2010.06.03 11:33:40.
