data_PCOD9082384
_publ_section_title
;
Structure prediction by ZEFSAII (Michael W. Deem and Ramdas Pophale) SiO2 
 PCOD9082384
Probable space group: P -1
;
_chemical_formula_sum "Si O2"
_cell_formula_units_Z 16
_cell_length_a 9.810480
_cell_length_b 5.092775
_cell_length_c 30.477310
_cell_angle_alpha 102.892017
_cell_angle_beta 138.378934
_cell_angle_gamma 100.283182
_cell_volume 833.985595
_symmetry_space_group_name_H-M "P -1"
_symmetry_group_IT_number 2
_symmetry_cell_setting 'triclinic'
loop_
_space_group_symop_operation_xyz
x,y,z
-x,-y,-z
loop_
_atom_site_type_symbol
_atom_site_label
_atom_site_fract_x
_atom_site_fract_y
_atom_site_fract_z
Si Si1 0.477798 0.141847 0.933798
Si Si2 0.206645 0.815547 0.671372
Si Si3 0.776503 0.888766 0.041783
Si Si4 0.682884 0.860728 0.455088
Si Si5 0.744411 0.710540 0.372173
Si Si6 0.643805 0.396797 0.499543
Si Si7 0.803242 0.864904 0.908793
Si Si8 0.481607 0.153510 0.835289
O O1 0.276570 0.063362 0.919269
O O2 0.388473 0.090573 0.860508
O O3 0.684131 0.517802 0.001050
O O4 0.603200 0.951279 0.971568
O O5 0.331052 0.640953 0.673031
O O6 0.917090 0.576124 0.590382
O O7 0.267135 0.111786 0.666585
O O8 0.291198 0.920598 0.744956
O O9 0.048048 0.112584 0.098033
O O10 0.620006 0.768027 0.385778
O O11 0.644931 0.553940 0.459447
O O12 0.561058 0.032056 0.456416
O O13 0.972218 0.118502 0.538679
O O14 0.500000 0.500000 0.500000
O O15 0.591789 0.513111 0.858889
O O16 0.699131 0.089427 0.886096
O O17 0.000000 0.000000 0.000000
#
# Coordination Sequence:
#
# PCOD9082384 Si02
#       8
#     2   2   2   2   2   2   2   2
#     4  10  19  34  53  79 104 143 179 221 280 331
#     4  10  21  34  53  79 111 143 177 223 276 342
#     4  10  20  33  54  79 108 133 183 236 269 321
#     4   9  17  30  55  81 102 134 179 226 263 304
#     4   9  17  33  53  78 104 135 177 223 267 315
#     4  10  19  33  54  83 110 142 185 225 263 317
#     4  12  21  35  56  86 107 139 190 241 273 321
#     4  12  22  35  57  80 111 148 183 228 291 333
#
# _framework density 19.184984
#
# number of rings (size 3 to 8) (size 9 to 14) (size 15 to 20)
#    0.000    1.750    2.500    3.000    0.000    3.000 
#    0.000    0.000    8.250    0.000    0.000    0.000 
#    0.000    0.000    0.000    0.000    0.000    0.000 
#
# Total GULP energy -89258.081077 kJ/mol
# GULP energy per Si atom -5578.630067 kJ/mol
# Density = 1.914132 g / cm^3
# Si number density = 19.184984 Si / 1000 Ang^3
#
#
#
# Elastic Constant Matrix: (Units=GPa)
#
#
# Indices 1 2 3 4 5 6 
#
# 1 93.8009 14.6624 28.5008 -12.8356 -28.8694 4.0679
# 2 14.6624 13.5923 36.5039 34.1751 -9.1441 -14.1060
# 3 28.5008 36.5039 46.8930 -29.1713 -28.8536 6.5103
# 4 -12.8356 34.1751 -29.1713 -4.1355 6.2796 -4.0373
# 5 -28.8694 -9.1441 -28.8536 6.2796 25.7428 -5.1657
# 6 4.0679 -14.1060 6.5103 -4.0373 -5.1657 33.0554
#
#
#
# Elastic Compliance Matrix: (Units=1/GPa)
#
#
# Indices 1 2 3 4 5 6 
#
# 1 0.016032 0.001951 -0.000943 -0.001042 0.018224 0.001766
# 2 0.001951 0.010439 0.010848 0.019394 0.014675 0.006740
# 3 -0.000943 0.010848 0.022147 -0.017479 0.032552 0.003335
# 4 -0.001042 0.019394 -0.017479 0.012054 -0.014597 0.011038
# 5 0.018224 0.014675 0.032552 -0.014597 0.107063 0.012557
# 6 0.001766 0.006740 0.003335 0.011038 0.012557 0.035565
#
#
# Mechanical properties :
#
#
# Convention : Reuss Voigt Hill
#
# Bulk Modulus (GPa) = 13.82577 34.84669 24.33623
# Shear Modulus (GPa) = 24.54618 15.90716 20.22667
#
# Velocity S-wave (km/s) = 3.58082 2.88261 3.25052
# Velocity P-wave (km/s) = 4.93138 5.41131 5.17691
#
# Compressibility (1/GPa) = 0.07232871
#
# Stress axis : x y z
#
# Youngs Moduli (GPa) = 62.37479 95.79906 45.15339
#
# Poissons Ratio (x) = -0.18687 0.04256
# Poissons Ratio (y) = -0.12167 -0.48980
# Poissons Ratio (z) = 0.05879 -1.03918
#
# Static dielectric constant tensor:
#      x y z
#    x 1.718850 0.001000 -0.022110 
#    y 0.001000 1.701850 0.011400 
#    z -0.022110 0.011400 1.648760 
# 
# From -- ./inp_files/42249.got.cif
#   From: 2010.05.17/outbox.cif.g08.bks.cpg/sg2_22_cif.got.tgz:42249.got - 2010.06.03 11:33:40.
