data_PCOD9082260
_publ_section_title
;
Structure prediction by ZEFSAII (Michael W. Deem and Ramdas Pophale) SiO2 
 PCOD9082260
Probable space group: P -1
;
_chemical_formula_sum "Si O2"
_cell_formula_units_Z 16
_cell_length_a 12.918618
_cell_length_b 10.601718
_cell_length_c 7.391612
_cell_angle_alpha 41.607194
_cell_angle_beta 120.097257
_cell_angle_gamma 117.310386
_cell_volume 575.361151
_symmetry_space_group_name_H-M "P -1"
_symmetry_group_IT_number 2
_symmetry_cell_setting 'triclinic'
loop_
_space_group_symop_operation_xyz
x,y,z
-x,-y,-z
loop_
_atom_site_type_symbol
_atom_site_label
_atom_site_fract_x
_atom_site_fract_y
_atom_site_fract_z
Si Si1 0.513899 0.734117 0.754321
Si Si2 0.235125 0.281783 0.007043
Si Si3 0.965455 0.707720 0.703921
Si Si4 0.010055 0.729721 0.303366
Si Si5 0.282232 0.242534 0.661519
Si Si6 0.782187 0.190759 0.035428
Si Si7 0.472287 0.813449 0.046653
Si Si8 0.254441 0.693967 0.481696
O O1 0.394719 0.773734 0.503254
O O2 0.500000 0.500000 0.000000
O O3 0.648978 0.800064 0.722955
O O4 0.498195 0.820365 0.846823
O O5 0.265748 0.283787 0.815584
O O6 0.244673 0.511127 0.801514
O O7 0.093154 0.201483 0.987372
O O8 0.974451 0.753602 0.451235
O O9 0.823220 0.705081 0.619832
O O10 0.084024 0.832864 0.757214
O O11 0.000000 0.500000 0.000000
O O12 0.150664 0.815976 0.319513
O O13 0.000000 0.500000 0.500000
O O14 0.422685 0.310648 0.662904
O O15 0.263946 0.012494 0.877847
O O16 0.673248 0.241681 0.009094
O O17 0.790548 0.350367 0.714738
O O18 0.500000 0.000000 0.000000
#
# Coordination Sequence:
#
# PCOD9082260 Si02
#       8
#     2   2   2   2   2   2   2   2
#     4   9  17  33  56  79 107 146 191 238 286 336
#     4   8  16  33  52  72 103 145 184 231 282 328
#     4  11  21  36  58  84 110 146 192 243 294 346
#     4   9  17  32  53  75 105 141 177 228 285 336
#     4   9  19  37  56  78 112 148 187 237 288 342
#     4  11  21  35  56  84 114 152 192 234 286 354
#     4   9  19  37  58  81 115 158 193 235 294 351
#     4  10  19  33  53  81 111 146 188 234 285 343
#
# _framework density 27.808620000000001
#
# number of rings (size 3 to 8) (size 9 to 14) (size 15 to 20)
#    0.000    2.500    0.000    3.375    0.000    0.000 
#    0.000   24.375    0.000    7.500    0.000    0.000 
#    0.000    0.000    0.000    0.000    0.000    0.000 
#
# Total GULP energy -89296.376910 kJ/mol
# GULP energy per Si atom -5581.023557 kJ/mol
# Density = 2.774533 g / cm^3
# Si number density = 27.808620 Si / 1000 Ang^3
#
#
#
# Elastic Constant Matrix: (Units=GPa)
#
#
# Indices 1 2 3 4 5 6 
#
# 1 153.5019 10.5325 59.5834 14.6613 65.7092 29.6490
# 2 10.5325 102.4209 23.8086 7.6101 6.9914 5.6152
# 3 59.5834 23.8086 115.4871 27.9732 54.6129 29.0668
# 4 14.6613 7.6101 27.9732 51.8534 18.2772 9.3893
# 5 65.7092 6.9914 54.6129 18.2772 69.0372 21.6619
# 6 29.6490 5.6152 29.0668 9.3893 21.6619 34.6735
#
#
#
# Elastic Compliance Matrix: (Units=1/GPa)
#
#
# Indices 1 2 3 4 5 6 
#
# 1 0.011454 -0.000245 -0.000789 0.001195 -0.009471 -0.003500
# 2 -0.000245 0.010318 -0.002469 -0.000564 0.001308 -0.000057
# 3 -0.000789 -0.002469 0.016252 -0.003958 -0.008963 -0.005878
# 4 0.001195 -0.000564 -0.003958 0.022670 -0.003450 -0.001596
# 5 -0.009471 0.001308 -0.008963 -0.003450 0.032645 -0.004059
# 6 -0.003500 -0.000057 -0.005878 -0.001596 -0.004059 0.039738
#
#
# Mechanical properties :
#
#
# Convention : Reuss Voigt Hill
#
# Bulk Modulus (GPa) = 32.23781 62.13989 47.18885
# Shear Modulus (GPa) = 33.24016 49.61186 41.42601
#
# Velocity S-wave (km/s) = 3.46109 4.22838 3.86383
# Velocity P-wave (km/s) = 5.25263 6.79948 6.07549
#
# Compressibility (1/GPa) = 0.03101947
#
# Stress axis : x y z
#
# Youngs Moduli (GPa) = 87.30899 96.91444 61.53255
#
# Poissons Ratio (x) = 0.02374 0.04852
# Poissons Ratio (y) = 0.02138 0.15189
# Poissons Ratio (z) = 0.06885 0.23923
#
# Static dielectric constant tensor:
#      x y z
#    x 2.351570 0.070250 0.090160 
#    y 0.070250 2.233990 0.014590 
#    z 0.090160 0.014590 2.145130 
# 
# From -- ./inp_files/304699.got.cif
#   From: 2010.05.17/outbox.cif.g08.bks.cpg/sg2_153_cif.got.tgz:304699.got - 2010.06.03 11:33:40.
