data_PCOD9082929
_publ_section_title
;
Structure prediction by ZEFSAII (Michael W. Deem and Ramdas Pophale) SiO2 
 PCOD9082929
Probable space group: P -1
;
_chemical_formula_sum "Si O2"
_cell_formula_units_Z 16
_cell_length_a 11.823393
_cell_length_b 9.691694
_cell_length_c 15.473694
_cell_angle_alpha 140.193685
_cell_angle_beta 70.223235
_cell_angle_gamma 83.139373
_cell_volume 829.760476
_symmetry_space_group_name_H-M "P -1"
_symmetry_group_IT_number 2
_symmetry_cell_setting 'triclinic'
loop_
_space_group_symop_operation_xyz
x,y,z
-x,-y,-z
loop_
_atom_site_type_symbol
_atom_site_label
_atom_site_fract_x
_atom_site_fract_y
_atom_site_fract_z
Si Si1 0.064688 0.173280 0.077460
Si Si2 0.749722 0.637013 0.464560
Si Si3 0.027057 0.461804 0.873543
Si Si4 0.351095 0.809180 0.167146
Si Si5 0.250284 0.862984 0.035436
Si Si6 0.027056 0.961799 0.373541
Si Si7 0.064683 0.673288 0.577466
Si Si8 0.351096 0.309182 0.667146
O O1 0.926234 0.463905 0.299685
O O2 0.082398 0.256908 0.019279
O O3 0.212249 0.014211 0.025664
O O4 0.000000 0.000000 0.000000
O O5 0.787756 0.485785 0.474331
O O6 0.664221 0.623821 0.399545
O O7 0.663815 0.955491 0.661373
O O8 0.199797 0.343687 0.749035
O O9 0.000002 0.250000 0.749998
O O10 0.000000 0.500000 0.000000
O O11 0.335782 0.876177 0.100454
O O12 0.199797 0.843677 0.249027
O O13 0.500000 0.500000 0.000000
O O14 0.336192 0.544506 0.838623
O O15 0.073772 0.036091 0.200309
O O16 0.000000 0.000000 0.500000
O O17 0.917606 0.243084 0.480714
O O18 0.000000 0.500000 0.500000
O O19 0.500000 0.000000 0.500000
#
# Coordination Sequence:
#
# PCOD9082929 Si02
#       8
#     2   2   2   2   2   2   2   2
#     4  10  19  35  61  85 117 149 199 241 279 344
#     4  10  19  33  59  87 105 151 208 232 268 334
#     4  11  23  36  58  91 119 143 190 252 298 320
#     4  11  22  38  59  86 120 158 193 231 286 362
#     4  10  19  33  59  87 105 151 208 232 268 334
#     4  11  23  36  58  91 119 143 190 252 298 320
#     4  10  19  35  61  85 117 149 199 241 279 344
#     4  11  22  38  59  86 120 158 193 231 286 362
#
# _framework density 19.282672999999999
#
# number of rings (size 3 to 8) (size 9 to 14) (size 15 to 20)
#    0.000    1.500    5.000    3.750    3.500    0.000 
#    0.000    0.000    0.000    9.000    0.000    0.000 
#    0.000    0.000    0.000    0.000    0.000    0.000 
#
# Total GULP energy -89186.559805 kJ/mol
# GULP energy per Si atom -5574.159988 kJ/mol
# Density = 1.923878 g / cm^3
# Si number density = 19.282673 Si / 1000 Ang^3
#
#
#
# Elastic Constant Matrix: (Units=GPa)
#
#
# Indices 1 2 3 4 5 6 
#
# 1 22.4618 21.3206 9.1634 -12.5386 8.6898 -12.6174
# 2 21.3206 162.8197 28.9434 -8.3584 7.7168 -26.9461
# 3 9.1634 28.9434 116.4897 1.1444 15.2556 -15.8748
# 4 -12.5386 -8.3584 1.1444 28.0854 -13.9086 4.4409
# 5 8.6898 7.7168 15.2556 -13.9086 40.0228 7.0893
# 6 -12.6174 -26.9461 -15.8748 4.4409 7.0893 32.6130
#
#
#
# Elastic Compliance Matrix: (Units=1/GPa)
#
#
# Indices 1 2 3 4 5 6 
#
# 1 0.083792 -0.004331 -0.000093 0.024839 -0.013720 0.028394
# 2 -0.004331 0.007637 -0.000697 -0.001134 -0.001506 0.004776
# 3 -0.000093 -0.000697 0.010642 -0.005169 -0.006897 0.006771
# 4 0.024839 -0.001134 -0.005169 0.055868 0.017127 -0.005174
# 5 -0.013720 -0.001506 -0.006897 0.017127 0.040567 -0.021060
# 6 0.028394 0.004776 0.006771 -0.005174 -0.021060 0.054172
#
#
# Mechanical properties :
#
#
# Convention : Reuss Voigt Hill
#
# Bulk Modulus (GPa) = 10.89000 46.73621 28.81310
# Shear Modulus (GPa) = 17.03401 36.30050 26.66725
#
# Velocity S-wave (km/s) = 2.97540 4.34354 3.72286
# Velocity P-wave (km/s) = 4.17898 7.03172 5.78398
#
# Compressibility (1/GPa) = 0.09182737
#
# Stress axis : x y z
#
# Youngs Moduli (GPa) = 11.93426 130.94958 93.96849
#
# Poissons Ratio (x) = 0.56718 0.00874
# Poissons Ratio (y) = 0.05169 0.06554
# Poissons Ratio (z) = 0.00111 0.09133
#
# Static dielectric constant tensor:
#      x y z
#    x 1.664500 -0.043310 0.014590 
#    y -0.043310 1.757710 -0.006950 
#    z 0.014590 -0.006950 1.687740 
# 
# From -- ./inp_files/530239.got.cif
#   From: 2010.05.17/outbox.cif.g08.bks.cpg/sg2_266_cif.got.tgz:530239.got - 2010.06.03 11:33:40.
