data_PCOD9082550
_publ_section_title
;
Structure prediction by ZEFSAII (Michael W. Deem and Ramdas Pophale) SiO2 
 PCOD9082550
Probable space group: P -1
;
_chemical_formula_sum "Si O2"
_cell_formula_units_Z 16
_cell_length_a 11.899674
_cell_length_b 8.123756
_cell_length_c 16.563833
_cell_angle_alpha 73.602935
_cell_angle_beta 46.969596
_cell_angle_gamma 107.933623
_cell_volume 786.427940
_symmetry_space_group_name_H-M "P -1"
_symmetry_group_IT_number 2
_symmetry_cell_setting 'triclinic'
loop_
_space_group_symop_operation_xyz
x,y,z
-x,-y,-z
loop_
_atom_site_type_symbol
_atom_site_label
_atom_site_fract_x
_atom_site_fract_y
_atom_site_fract_z
Si Si1 0.686470 0.864640 0.008313
Si Si2 0.092948 0.609049 0.183289
Si Si3 0.309287 0.436883 0.153141
Si Si4 0.748566 0.913752 0.163138
Si Si5 0.958904 0.974334 0.314051
Si Si6 0.527435 0.825502 0.533412
Si Si7 0.308944 0.576501 0.512932
Si Si8 0.861576 0.614111 0.147865
O O1 0.441825 0.608893 0.141783
O O2 0.720916 0.879727 0.084667
O O3 0.873538 0.911048 0.859567
O O4 0.735486 0.099739 0.924671
O O5 0.212781 0.524531 0.141263
O O6 0.891620 0.453811 0.367455
O O7 0.980616 0.583469 0.158333
O O8 0.111947 0.142513 0.292002
O O9 0.500000 0.500000 0.000000
O O10 0.519532 0.794569 0.327542
O O11 0.808212 0.768054 0.181620
O O12 0.956359 0.204795 0.034924
O O13 0.779565 0.979391 0.392863
O O14 0.810924 0.685769 0.427833
O O15 0.417747 0.632921 0.539777
O O16 0.379134 0.658824 0.706766
O O17 0.500000 0.000000 0.500000
#
# Coordination Sequence:
#
# PCOD9082550 Si02
#       8
#     2   2   2   2   2   2   2   2
#     4   9  20  34  58  83 111 151 189 238 277 333
#     4   9  18  34  58  86 108 144 197 237 275 325
#     4  10  20  37  59  81 110 147 200 246 272 315
#     4  10  19  34  56  87 122 148 181 219 290 349
#     4  10  19  33  56  81 105 146 200 229 274 323
#     4  11  21  34  55  83 115 146 189 233 276 331
#     4  10  20  33  58  83 111 149 183 231 280 343
#     4   9  19  32  57  84 118 143 179 225 281 337
#
# _framework density 20.345155999999999
#
# number of rings (size 3 to 8) (size 9 to 14) (size 15 to 20)
#    0.000    2.250    1.250    3.000    7.000    0.000 
#    0.000    1.875   11.000    0.000    0.000    0.000 
#    0.000    0.000    0.000    0.000    0.000    0.000 
#
# Total GULP energy -89077.538435 kJ/mol
# GULP energy per Si atom -5567.346152 kJ/mol
# Density = 2.029885 g / cm^3
# Si number density = 20.345156 Si / 1000 Ang^3
#
#
#
# Elastic Constant Matrix: (Units=GPa)
#
#
# Indices 1 2 3 4 5 6 
#
# 1 64.2212 26.0260 30.2448 2.9143 -19.7886 -14.0583
# 2 26.0260 57.1696 35.4359 -8.5850 -14.3873 -13.4513
# 3 30.2448 35.4359 141.3305 -7.9972 -13.9829 -7.6588
# 4 2.9143 -8.5850 -7.9972 28.6603 4.5074 -15.0880
# 5 -19.7886 -14.3873 -13.9829 4.5074 31.7343 -1.2095
# 6 -14.0583 -13.4513 -7.6588 -15.0880 -1.2095 43.7057
#
#
#
# Elastic Compliance Matrix: (Units=1/GPa)
#
#
# Indices 1 2 3 4 5 6 
#
# 1 0.024003 -0.006134 -0.002460 -0.004671 0.011923 0.004119
# 2 -0.006134 0.028736 -0.003985 0.012842 0.006034 0.010773
# 3 -0.002460 -0.003985 0.008713 0.001451 0.000293 0.000018
# 4 -0.004671 0.012842 0.001451 0.050659 -0.002880 0.020113
# 5 0.011923 0.006034 0.000293 -0.002880 0.042446 0.005924
# 6 0.004119 0.010773 0.000018 0.020113 0.005924 0.034631
#
#
# Mechanical properties :
#
#
# Convention : Reuss Voigt Hill
#
# Bulk Modulus (GPa) = 27.55255 49.57052 38.56153
# Shear Modulus (GPa) = 22.08037 32.22104 27.15071
#
# Velocity S-wave (km/s) = 3.29795 3.98392 3.65705
# Velocity P-wave (km/s) = 5.29848 6.75128 6.06851
#
# Compressibility (1/GPa) = 0.03629428
#
# Stress axis : x y z
#
# Youngs Moduli (GPa) = 41.66100 34.79979 114.76658
#
# Poissons Ratio (x) = 0.21346 0.28234
# Poissons Ratio (y) = 0.25555 0.45733
# Poissons Ratio (z) = 0.10249 0.13867
#
# Static dielectric constant tensor:
#      x y z
#    x 1.715330 0.030480 -0.013730 
#    y 0.030480 1.799320 -0.020850 
#    z -0.013730 -0.020850 1.803370 
# 
# From -- ./inp_files/227250.got.cif
#   From: 2010.05.17/outbox.cif.g08.bks.cpg/sg2_114_cif.got.tgz:227250.got - 2010.06.03 11:33:40.
