data_PCOD9082097
_publ_section_title
;
Structure prediction by ZEFSAII (Michael W. Deem and Ramdas Pophale) SiO2 
 PCOD9082097
Probable space group: P -1
;
_chemical_formula_sum "Si O2"
_cell_formula_units_Z 16
_cell_length_a 7.677175
_cell_length_b 13.627440
_cell_length_c 7.877934
_cell_angle_alpha 100.533340
_cell_angle_beta 97.342468
_cell_angle_gamma 57.441927
_cell_volume 682.530092
_symmetry_space_group_name_H-M "P -1"
_symmetry_group_IT_number 2
_symmetry_cell_setting 'triclinic'
loop_
_space_group_symop_operation_xyz
x,y,z
-x,-y,-z
loop_
_atom_site_type_symbol
_atom_site_label
_atom_site_fract_x
_atom_site_fract_y
_atom_site_fract_z
Si Si1 0.887782 0.142802 0.832879
Si Si2 0.275882 0.965505 0.977844
Si Si3 0.096918 0.398915 0.194388
Si Si4 0.753368 0.643599 0.167908
Si Si5 0.623276 0.364016 0.020243
Si Si6 0.658992 0.860542 0.769079
Si Si7 0.535349 0.189182 0.557258
Si Si8 0.490889 0.395323 0.376610
O O1 0.751151 0.132994 0.666586
O O2 0.815484 0.108871 0.986267
O O3 0.821278 0.276741 0.903570
O O4 0.131038 0.050965 0.836022
O O5 0.507970 0.881420 0.916149
O O6 0.268760 0.050205 0.152840
O O7 0.162029 0.276843 0.254893
O O8 0.267985 0.430614 0.280003
O O9 0.876846 0.516605 0.235857
O O10 0.113056 0.371514 0.985933
O O11 0.664887 0.748335 0.323413
O O12 0.540589 0.668584 0.071333
O O13 0.645096 0.352114 0.221080
O O14 0.500000 0.500000 0.000000
O O15 0.513255 0.886623 0.598055
O O16 0.534434 0.291820 0.478362
O O17 0.500000 0.500000 0.500000
#
# Coordination Sequence:
#
# PCOD9082097 Si02
#       8
#     2   2   2   2   2   2   2   2
#     4  10  21  39  60  82 113 152 199 239 289 348
#     4  10  22  40  59  81 113 157 202 239 283 350
#     4   9  19  35  56  77 116 152 189 231 284 355
#     4   9  18  34  54  84 112 152 184 229 289 350
#     4  10  20  35  59  83 114 151 187 232 287 354
#     4  10  21  37  58  83 111 152 193 250 288 334
#     4  10  20  36  60  84 118 147 186 249 293 342
#     4  10  19  33  50  82 120 149 181 229 289 341
#
# _framework density 23.44219
#
# number of rings (size 3 to 8) (size 9 to 14) (size 15 to 20)
#    0.000    2.250    0.000    4.500    1.750    3.000 
#    4.500    0.000    0.000    0.000    0.000    0.000 
#    0.000    0.000    0.000    0.000    0.000    0.000 
#
# Total GULP energy -89287.959283 kJ/mol
# GULP energy per Si atom -5580.497455 kJ/mol
# Density = 2.338883 g / cm^3
# Si number density = 23.442190 Si / 1000 Ang^3
#
#
#
# Elastic Constant Matrix: (Units=GPa)
#
#
# Indices 1 2 3 4 5 6 
#
# 1 47.6172 17.5223 14.0576 4.0263 19.3002 -1.6856
# 2 17.5223 90.3624 25.2161 -5.9173 22.7510 -18.7176
# 3 14.0576 25.2161 117.0120 7.1873 30.6739 -2.0526
# 4 4.0263 -5.9173 7.1873 36.2113 4.8532 5.7708
# 5 19.3002 22.7510 30.6739 4.8532 24.2910 -4.6721
# 6 -1.6856 -18.7176 -2.0526 5.7708 -4.6721 28.6678
#
#
#
# Elastic Compliance Matrix: (Units=1/GPa)
#
#
# Indices 1 2 3 4 5 6 
#
# 1 0.032587 -0.000120 0.004438 0.000267 -0.032037 -0.003119
# 2 -0.000120 0.016623 0.000304 0.003459 -0.015064 0.007717
# 3 0.004438 0.000304 0.013473 0.000053 -0.021229 -0.002046
# 4 0.000267 0.003459 0.000053 0.030464 -0.010682 -0.005596
# 5 -0.032037 -0.015064 -0.021229 -0.010682 0.111020 0.007004
# 6 -0.003119 0.007717 -0.002046 -0.005596 0.007004 0.041858
#
#
# Mechanical properties :
#
#
# Convention : Reuss Voigt Hill
#
# Bulk Modulus (GPa) = 13.90292 40.95374 27.42833
# Shear Modulus (GPa) = 19.17497 31.04707 25.11102
#
# Velocity S-wave (km/s) = 2.86312 3.64319 3.27645
# Velocity P-wave (km/s) = 4.10774 5.93339 5.10288
#
# Compressibility (1/GPa) = 0.07192731
#
# Stress axis : x y z
#
# Youngs Moduli (GPa) = 30.68711 60.15882 74.22125
#
# Poissons Ratio (x) = 0.00722 -0.32940
# Poissons Ratio (y) = 0.00368 -0.02258
# Poissons Ratio (z) = -0.13619 -0.01830
#
# Static dielectric constant tensor:
#      x y z
#    x 1.923010 -0.005550 -0.028710 
#    y -0.005550 1.958290 -0.002770 
#    z -0.028710 -0.002770 1.924500 
# 
# From -- ./inp_files/208484.got.cif
#   From: 2010.05.17/outbox.cif.g08.bks.cpg/sg2_105_cif.got.tgz:208484.got - 2010.06.03 11:33:40.
