data_PCOD9082273
_publ_section_title
;
Structure prediction by ZEFSAII (Michael W. Deem and Ramdas Pophale) SiO2 
 PCOD9082273
Probable space group: P -1
;
_chemical_formula_sum "Si O2"
_cell_formula_units_Z 15
_cell_length_a 22.398175
_cell_length_b 13.339222
_cell_length_c 18.545773
_cell_angle_alpha 29.366217
_cell_angle_beta 163.502536
_cell_angle_gamma 158.145362
_cell_volume 576.777684
_symmetry_space_group_name_H-M "P -1"
_symmetry_group_IT_number 2
_symmetry_cell_setting 'triclinic'
loop_
_space_group_symop_operation_xyz
x,y,z
-x,-y,-z
loop_
_atom_site_type_symbol
_atom_site_label
_atom_site_fract_x
_atom_site_fract_y
_atom_site_fract_z
Si Si1 0.942916 0.156568 0.968005
Si Si2 0.793265 0.620112 0.727153
Si Si3 0.077512 0.846502 0.490736
Si Si4 0.331677 0.416432 0.931717
Si Si5 0.163977 0.696087 0.389147
Si Si6 0.500000 0.000000 0.000000
Si Si7 0.487317 0.264262 0.466350
Si Si8 0.521845 0.398571 0.865659
O O1 0.034142 0.339688 0.029046
O O2 0.212738 0.212001 0.211901
O O3 0.731460 0.841822 0.942613
O O4 0.822415 0.228689 0.724327
O O5 0.500000 0.500000 0.500000
O O6 0.712786 0.427668 0.688355
O O7 0.942042 0.922499 0.680998
O O8 0.974938 0.711396 0.375921
O O9 0.886562 0.576444 0.489312
O O10 0.379813 0.996611 0.782235
O O11 0.500000 0.500000 0.000000
O O12 0.494791 0.641729 0.042156
O O13 0.390861 0.971548 0.522700
O O14 0.860215 0.589661 0.128652
O O15 0.391918 0.143436 0.822716
O O16 0.557828 0.437450 0.366803
#
# Coordination Sequence:
#
# PCOD9082273 Si02
#       8
#     2   2   2   2   2   1   2   2
#     4   9  17  33  51  79 110 150 191 230 290 346
#     4   9  18  30  49  78 118 145 181 218 301 368
#     4  10  22  36  53  91 118 149 191 241 308 336
#     4  11  22  39  57  79 121 168 203 226 268 365
#     4  10  18  31  57  84 117 136 185 264 302 333
#     4  10  20  34  60  86 124 134 178 270 298 338
#     4  10  15  31  55  84 112 148 183 245 303 350
#     4  10  18  34  56  87 116 150 193 235 308 340
#
# _framework density 26.006556
#
# number of rings (size 3 to 8) (size 9 to 14) (size 15 to 20)
#    0.000    2.133    4.000    0.800    1.867    2.133 
#    0.000    1.333    0.000    0.000    0.000   12.133 
#    0.000    0.000    0.000    0.000    0.000    0.000 
#
# Total GULP energy -83521.191180 kJ/mol
# GULP energy per Si atom -5568.079412 kJ/mol
# Density = 2.594736 g / cm^3
# Si number density = 26.006556 Si / 1000 Ang^3
#
#
#
# Elastic Constant Matrix: (Units=GPa)
#
#
# Indices 1 2 3 4 5 6 
#
# 1 140.9980 54.3835 50.1246 1.3070 -34.8619 -15.9774
# 2 54.3835 124.0819 25.3240 -6.8137 -31.4089 -3.8404
# 3 50.1246 25.3240 66.1503 2.1790 -32.5801 -3.7806
# 4 1.3070 -6.8137 2.1790 28.0495 -3.3514 -14.0890
# 5 -34.8619 -31.4089 -32.5801 -3.3514 57.2841 1.1476
# 6 -15.9774 -3.8404 -3.7806 -14.0890 1.1476 47.0990
#
#
#
# Elastic Compliance Matrix: (Units=1/GPa)
#
#
# Indices 1 2 3 4 5 6 
#
# 1 0.011346 -0.003100 -0.006518 0.001092 0.001494 0.003363
# 2 -0.003100 0.010678 0.000333 0.003651 0.004355 0.000832
# 3 -0.006518 0.000333 0.025057 -0.000622 0.010443 -0.000613
# 4 0.001092 0.003651 -0.000622 0.043943 0.004610 0.013651
# 5 0.001494 0.004355 0.010443 0.004610 0.026915 0.002424
# 6 0.003363 0.000832 -0.000613 0.013651 0.002424 0.026416
#
#
# Mechanical properties :
#
#
# Convention : Reuss Voigt Hill
#
# Bulk Modulus (GPa) = 35.07346 65.65492 50.36419
# Shear Modulus (GPa) = 28.99754 39.91307 34.45531
#
# Velocity S-wave (km/s) = 3.34280 3.92181 3.64383
# Velocity P-wave (km/s) = 5.33055 6.76815 6.09190
#
# Compressibility (1/GPa) = 0.02851159
#
# Stress axis : x y z
#
# Youngs Moduli (GPa) = 88.14010 93.64669 39.90854
#
# Poissons Ratio (x) = 0.29030 0.26012
# Poissons Ratio (y) = 0.27323 -0.01329
# Poissons Ratio (z) = 0.57449 -0.03119
#
# Static dielectric constant tensor:
#      x y z
#    x 2.024830 0.017650 0.072030 
#    y 0.017650 2.055930 0.092920 
#    z 0.072030 0.092920 2.207730 
# 
# From -- ./inp_files/402558.got.cif
#   From: 2010.05.17/outbox.cif.g08.bks.cpg/sg2_202_cif.got.tgz:402558.got - 2010.06.03 11:33:40.
