data_PCOD9082687
_publ_section_title
;
Structure prediction by ZEFSAII (Michael W. Deem and Ramdas Pophale) SiO2 
 PCOD9082687
Probable space group: P -1
;
_chemical_formula_sum "Si O2"
_cell_formula_units_Z 14
_cell_length_a 9.157618
_cell_length_b 6.218919
_cell_length_c 23.209822
_cell_angle_alpha 91.105529
_cell_angle_beta 141.959686
_cell_angle_gamma 69.258678
_cell_volume 680.046517
_symmetry_space_group_name_H-M "P -1"
_symmetry_group_IT_number 2
_symmetry_cell_setting 'triclinic'
loop_
_space_group_symop_operation_xyz
x,y,z
-x,-y,-z
loop_
_atom_site_type_symbol
_atom_site_label
_atom_site_fract_x
_atom_site_fract_y
_atom_site_fract_z
Si Si1 0.111420 0.583901 0.753112
Si Si2 0.290514 0.730470 0.103784
Si Si3 0.803783 0.493335 0.027503
Si Si4 0.769590 0.148839 0.105284
Si Si5 0.239712 0.590435 0.211477
Si Si6 0.419050 0.465648 0.387482
Si Si7 0.730788 0.072680 0.575555
O O1 0.412215 0.328917 0.828974
O O2 0.141421 0.713759 0.820162
O O3 0.857787 0.542962 0.684027
O O4 0.021277 0.802577 0.677265
O O5 0.327483 0.680433 0.183087
O O6 0.244669 0.527348 0.054689
O O7 0.000000 0.000000 0.000000
O O8 0.762316 0.282287 0.043880
O O9 0.094313 0.450389 0.139138
O O10 0.542999 0.764889 0.971692
O O11 0.991737 0.849006 0.167477
O O12 0.456566 0.444700 0.330228
O O13 0.683461 0.236647 0.504339
O O14 0.349444 0.731776 0.395059
O O15 0.500000 0.000000 0.500000
#
# Coordination Sequence:
#
# PCOD9082687 Si02
#       7
#     2   2   2   2   2   2   2
#     4  10  20  39  59  85 118 154 188 238 285 341
#     4  11  24  39  53  83 130 161 186 228 288 334
#     4  10  21  36  52  79 116 158 196 234 272 334
#     4  10  19  33  57  81 111 150 200 238 275 325
#     4  12  21  35  57  86 113 153 192 238 280 337
#     4  10  20  35  65  91 105 146 200 239 287 341
#     4   9  19  38  63  89 112 137 192 252 293 335
#
# _framework density 20.586827
#
# number of rings (size 3 to 8) (size 9 to 14) (size 15 to 20)
#    0.000    1.714    4.286    0.857    0.000    1.143 
#    2.571    0.714    0.000    7.714    0.000    0.000 
#    0.000    0.000    0.000    0.000    0.000    0.000 
#
# Total GULP energy -78069.550531 kJ/mol
# GULP energy per Si atom -5576.396466 kJ/mol
# Density = 2.053997 g / cm^3
# Si number density = 20.586827 Si / 1000 Ang^3
#
#
#
# Elastic Constant Matrix: (Units=GPa)
#
#
# Indices 1 2 3 4 5 6 
#
# 1 67.1628 10.3056 30.6879 -0.5181 -25.7528 -12.1068
# 2 10.3056 54.4453 16.3695 7.2545 -3.3734 -6.5356
# 3 30.6879 16.3695 86.1146 3.5560 -25.5372 -5.8236
# 4 -0.5181 7.2545 3.5560 43.4316 -2.1857 -1.5490
# 5 -25.7528 -3.3734 -25.5372 -2.1857 36.2331 4.4473
# 6 -12.1068 -6.5356 -5.8236 -1.5490 4.4473 20.8383
#
#
#
# Elastic Compliance Matrix: (Units=1/GPa)
#
#
# Indices 1 2 3 4 5 6 
#
# 1 0.023490 -0.001652 -0.003664 0.001844 0.012906 0.009488
# 2 -0.001652 0.020608 -0.003647 -0.003123 -0.002604 0.004808
# 3 -0.003664 -0.003647 0.016091 -0.000348 0.008450 -0.000605
# 4 0.001844 -0.003123 -0.000348 0.023747 0.002044 0.001323
# 5 0.012906 -0.002604 0.008450 0.002044 0.042596 0.000104
# 6 0.009488 0.004808 -0.000605 0.001323 0.000104 0.054916
#
#
# Mechanical properties :
#
#
# Convention : Reuss Voigt Hill
#
# Bulk Modulus (GPa) = 23.66121 35.82761 29.74441
# Shear Modulus (GPa) = 23.42345 30.12460 26.77402
#
# Velocity S-wave (km/s) = 3.37677 3.82945 3.61021
# Velocity P-wave (km/s) = 5.16931 6.08226 5.64427
#
# Compressibility (1/GPa) = 0.04226326
#
# Stress axis : x y z
#
# Youngs Moduli (GPa) = 42.57113 48.52457 62.14723
#
# Poissons Ratio (x) = 0.08015 0.22772
# Poissons Ratio (y) = 0.07032 0.22665
# Poissons Ratio (z) = 0.15599 0.17697
#
# Static dielectric constant tensor:
#      x y z
#    x 1.793570 0.009000 -0.041600 
#    y 0.009000 1.750150 -0.027420 
#    z -0.041600 -0.027420 1.789720 
# 
# From -- ./inp_files/32032.got.cif
#   From: 2010.05.17/outbox.cif.g08.bks.cpg/sg2_17_cif.got.tgz:32032.got - 2010.06.03 11:33:40.
