data_PCOD9082296
_publ_section_title
;
Structure prediction by ZEFSAII (Michael W. Deem and Ramdas Pophale) SiO2 
 PCOD9082296
Probable space group: P -1
;
_chemical_formula_sum "Si O2"
_cell_formula_units_Z 16
_cell_length_a 14.505781
_cell_length_b 11.760992
_cell_length_c 14.619946
_cell_angle_alpha 149.587562
_cell_angle_beta 117.373893
_cell_angle_gamma 83.516854
_cell_volume 869.914223
_symmetry_space_group_name_H-M "P -1"
_symmetry_group_IT_number 2
_symmetry_cell_setting 'triclinic'
loop_
_space_group_symop_operation_xyz
x,y,z
-x,-y,-z
loop_
_atom_site_type_symbol
_atom_site_label
_atom_site_fract_x
_atom_site_fract_y
_atom_site_fract_z
Si Si1 0.121641 0.120912 0.436559
Si Si2 0.570947 0.872460 0.473692
Si Si3 0.706714 0.729718 0.072006
Si Si4 0.931504 0.705678 0.207103
Si Si5 0.049289 0.829798 0.863712
Si Si6 0.178333 0.854009 0.121828
Si Si7 0.098199 0.821648 0.676844
Si Si8 0.341174 0.254137 0.740891
O O1 0.157728 0.053701 0.310541
O O2 0.028052 0.821025 0.243614
O O3 0.253621 0.331857 0.706819
O O4 0.031853 0.217445 0.446075
O O5 0.663604 0.934469 0.472072
O O6 0.500000 0.000000 0.500000
O O7 0.669149 0.014298 0.702081
O O8 0.449448 0.532504 0.197245
O O9 0.788669 0.609847 0.042994
O O10 0.717488 0.871165 0.272869
O O11 0.780675 0.952984 0.178514
O O12 0.912118 0.462561 0.092151
O O13 0.000000 0.000000 0.500000
O O14 0.117997 0.934365 0.867936
O O15 0.932799 0.485510 0.554653
O O16 0.141251 0.850442 0.998892
O O17 0.000000 0.000000 0.000000
O O18 0.500000 0.500000 0.000000
#
# Coordination Sequence:
#
# PCOD9082296 Si02
#       8
#     2   2   2   2   2   2   2   2
#     4  10  19  33  53  89 115 147 188 234 297 355
#     4  10  20  36  55  86 123 153 186 231 291 362
#     4  10  19  37  55  85 122 150 191 231 296 351
#     4  11  19  30  53  85 118 148 184 237 297 355
#     4  11  23  42  59  86 114 155 205 245 294 334
#     4  11  21  35  58  83 117 154 193 240 292 349
#     4  10  23  40  63  84 116 155 196 255 286 341
#     4   9  19  31  52  81 121 151 179 221 282 360
#
# _framework density 18.392617999999999
#
# number of rings (size 3 to 8) (size 9 to 14) (size 15 to 20)
#    0.000    1.750    3.750    1.875    0.000    0.000 
#    2.250    0.625    0.000    0.750    0.000    0.000 
#    0.000    0.000    0.000    0.000    0.000    0.000 
#
# Total GULP energy -89167.344879 kJ/mol
# GULP energy per Si atom -5572.959055 kJ/mol
# Density = 1.835076 g / cm^3
# Si number density = 18.392618 Si / 1000 Ang^3
#
#
#
# Elastic Constant Matrix: (Units=GPa)
#
#
# Indices 1 2 3 4 5 6 
#
# 1 86.9759 44.3579 28.8834 -3.4142 0.7440 17.4151
# 2 44.3579 109.6992 35.2822 -14.8260 -1.2602 20.7992
# 3 28.8834 35.2822 69.3049 -10.5952 -1.4874 3.9976
# 4 -3.4142 -14.8260 -10.5952 33.7998 -4.2158 -3.8699
# 5 0.7440 -1.2602 -1.4874 -4.2158 28.1092 -4.3069
# 6 17.4151 20.7992 3.9976 -3.8699 -4.3069 36.5148
#
#
#
# Elastic Compliance Matrix: (Units=1/GPa)
#
#
# Indices 1 2 3 4 5 6 
#
# 1 0.016289 -0.004477 -0.004655 -0.002636 -0.002075 -0.005233
# 2 -0.004477 0.013709 -0.004262 0.003720 0.000334 -0.004773
# 3 -0.004655 -0.004262 0.019047 0.004264 0.002079 0.003259
# 4 -0.002636 0.003720 0.004264 0.033358 0.005910 0.002904
# 5 -0.002075 0.000334 0.002079 0.005910 0.037503 0.005622
# 6 -0.005233 -0.004773 0.003259 0.002904 0.005622 0.033214
#
#
# Mechanical properties :
#
#
# Convention : Reuss Voigt Hill
#
# Bulk Modulus (GPa) = 44.93041 53.66968 49.30005
# Shear Modulus (GPa) = 26.69151 30.18189 28.43670
#
# Velocity S-wave (km/s) = 3.81360 4.05529 3.93630
# Velocity P-wave (km/s) = 6.62367 7.15336 6.89360
#
# Compressibility (1/GPa) = 0.02225664
#
# Stress axis : x y z
#
# Youngs Moduli (GPa) = 61.39239 72.94734 52.50211
#
# Poissons Ratio (x) = 0.32661 0.24438
# Poissons Ratio (y) = 0.27487 0.22375
# Poissons Ratio (z) = 0.28577 0.31088
#
# Static dielectric constant tensor:
#      x y z
#    x 1.699710 -0.015900 -0.012990 
#    y -0.015900 1.651290 -0.024290 
#    z -0.012990 -0.024290 1.681200 
# 
# From -- ./inp_files/453506.got.cif
#   From: 2010.05.17/outbox.cif.g08.bks.cpg/sg2_227_cif.got.tgz:453506.got - 2010.06.03 11:33:40.
