data_PCOD9082595
_publ_section_title
;
Structure prediction by ZEFSAII (Michael W. Deem and Ramdas Pophale) SiO2 
 PCOD9082595
Probable space group: P -1
;
_chemical_formula_sum "Si O2"
_cell_formula_units_Z 16
_cell_length_a 11.444677
_cell_length_b 9.951836
_cell_length_c 13.022957
_cell_angle_alpha 92.095987
_cell_angle_beta 100.768046
_cell_angle_gamma 141.197669
_cell_volume 872.197024
_symmetry_space_group_name_H-M "P -1"
_symmetry_group_IT_number 2
_symmetry_cell_setting 'triclinic'
loop_
_space_group_symop_operation_xyz
x,y,z
-x,-y,-z
loop_
_atom_site_type_symbol
_atom_site_label
_atom_site_fract_x
_atom_site_fract_y
_atom_site_fract_z
Si Si1 0.727352 0.001687 0.209397
Si Si2 0.446387 0.669209 0.647116
Si Si3 0.236154 0.238612 0.671706
Si Si4 0.388390 0.905360 0.221075
Si Si5 0.716174 0.134891 0.019980
Si Si6 0.967465 0.608826 0.440626
Si Si7 0.000926 0.523830 0.753845
Si Si8 0.794307 0.929160 0.552867
O O1 0.550480 0.939301 0.218413
O O2 0.721912 0.851087 0.252722
O O3 0.721350 0.001847 0.083478
O O4 0.927259 0.268151 0.275213
O O5 0.388280 0.500505 0.714498
O O6 0.005625 0.074632 0.640249
O O7 0.618549 0.779382 0.601346
O O8 0.511443 0.870878 0.710459
O O9 0.231989 0.501885 0.555063
O O10 0.256470 0.210321 0.555558
O O11 0.229910 0.698962 0.267230
O O12 0.268055 0.845956 0.098414
O O13 0.875745 0.367028 0.116284
O O14 0.500000 0.000000 0.000000
O O15 0.938135 0.539228 0.314782
O O16 0.000000 0.500000 0.500000
O O17 0.152668 0.876661 0.480679
#
# Coordination Sequence:
#
# PCOD9082595 Si02
#       8
#     2   2   2   2   2   2   2   2
#     4   9  20  35  57  82 113 141 185 229 276 324
#     4  11  22  37  58  82 114 148 189 223 280 332
#     4  10  22  40  55  78 112 155 185 228 267 339
#     4  11  19  35  59  88 109 144 184 235 283 327
#     4   8  17  34  56  83 113 141 180 232 283 327
#     4  11  21  34  54  86 117 142 181 237 278 322
#     4  10  19  33  56  84 114 144 179 226 282 327
#     4  10  22  37  57  76 112 154 190 217 279 329
#
# _framework density 18.344477999999999
#
# number of rings (size 3 to 8) (size 9 to 14) (size 15 to 20)
#    0.750    1.250    2.500    1.500    0.000    2.500 
#    0.000    0.625    0.000    0.750    0.000    0.000 
#    0.000    0.000    0.000    0.000    0.000    0.000 
#
# Total GULP energy -89071.969168 kJ/mol
# GULP energy per Si atom -5566.998073 kJ/mol
# Density = 1.830273 g / cm^3
# Si number density = 18.344478 Si / 1000 Ang^3
#
#
#
# Elastic Constant Matrix: (Units=GPa)
#
#
# Indices 1 2 3 4 5 6 
#
# 1 78.7516 55.1849 17.6882 -30.4004 -2.4359 0.2305
# 2 55.1849 132.5747 9.2361 -15.8487 7.8705 0.8921
# 3 17.6882 9.2361 27.4445 -11.8487 4.7036 2.1388
# 4 -30.4004 -15.8487 -11.8487 24.1874 0.3759 0.8334
# 5 -2.4359 7.8705 4.7036 0.3759 17.6326 -10.5022
# 6 0.2305 0.8921 2.1388 0.8334 -10.5022 37.2973
#
#
#
# Elastic Compliance Matrix: (Units=1/GPa)
#
#
# Indices 1 2 3 4 5 6 
#
# 1 0.035233 -0.010983 -0.007129 0.033277 0.012964 0.003361
# 2 -0.010983 0.011971 0.003056 -0.004218 -0.009329 -0.002926
# 3 -0.007129 0.003056 0.053278 0.019842 -0.022931 -0.009984
# 4 0.033277 -0.004218 0.019842 0.090319 -0.003221 -0.004168
# 5 0.012964 -0.009329 -0.022931 -0.003221 0.083823 0.025133
# 6 0.003361 -0.002926 -0.009984 -0.004168 0.025133 0.034603
#
#
# Mechanical properties :
#
#
# Convention : Reuss Voigt Hill
#
# Bulk Modulus (GPa) = 14.21051 44.77658 29.49354
# Shear Modulus (GPa) = 13.78188 26.26759 20.02473
#
# Velocity S-wave (km/s) = 2.74393 3.78816 3.30751
# Velocity P-wave (km/s) = 4.21926 6.60267 5.54064
#
# Compressibility (1/GPa) = 0.07037046
#
# Stress axis : x y z
#
# Youngs Moduli (GPa) = 28.38262 83.53373 18.76955
#
# Poissons Ratio (x) = 0.91748 0.13380
# Poissons Ratio (y) = 0.31174 -0.05736
# Poissons Ratio (z) = 0.20233 -0.25529
#
# Static dielectric constant tensor:
#      x y z
#    x 1.629410 0.000550 0.004010 
#    y 0.000550 1.668840 -0.009690 
#    z 0.004010 -0.009690 1.679100 
# 
# From -- ./inp_files/417591.got.cif
#   From: 2010.05.17/outbox.cif.g08.bks.cpg/sg2_209_cif.got.tgz:417591.got - 2010.06.03 11:33:40.
