data_PCOD9082364
_publ_section_title
;
Structure prediction by ZEFSAII (Michael W. Deem and Ramdas Pophale) SiO2 
 PCOD9082364
Probable space group: P -1
;
_chemical_formula_sum "Si O2"
_cell_formula_units_Z 16
_cell_length_a 9.628428
_cell_length_b 8.064376
_cell_length_c 12.639650
_cell_angle_alpha 88.452290
_cell_angle_beta 124.063797
_cell_angle_gamma 90.028697
_cell_volume 812.610860
_symmetry_space_group_name_H-M "P -1"
_symmetry_group_IT_number 2
_symmetry_cell_setting 'triclinic'
loop_
_space_group_symop_operation_xyz
x,y,z
-x,-y,-z
loop_
_atom_site_type_symbol
_atom_site_label
_atom_site_fract_x
_atom_site_fract_y
_atom_site_fract_z
Si Si1 0.671841 0.809939 0.176164
Si Si2 0.089727 0.740513 0.830511
Si Si3 0.471277 0.677603 0.926415
Si Si4 0.885280 0.086706 0.359926
Si Si5 0.890024 0.341270 0.924864
Si Si6 0.510850 0.452049 0.759589
Si Si7 0.991444 0.367721 0.747029
Si Si8 0.172195 0.591124 0.534532
O O1 0.543657 0.707245 0.192938
O O2 0.835598 0.694261 0.229737
O O3 0.735456 0.969166 0.261360
O O4 0.587795 0.816717 0.024452
O O5 0.281565 0.721934 0.873400
O O6 0.019504 0.870533 0.710964
O O7 0.006442 0.563015 0.776323
O O8 0.098411 0.767449 0.960428
O O9 0.516565 0.620978 0.828972
O O10 0.500000 0.500000 0.000000
O O11 0.822030 0.254385 0.386284
O O12 0.000000 0.000000 0.500000
O O13 0.702078 0.406317 0.813578
O O14 0.962828 0.273485 0.846635
O O15 0.000000 0.500000 0.000000
O O16 0.345440 0.485124 0.616668
O O17 0.855343 0.349216 0.598038
O O18 0.000000 0.500000 0.500000
#
# Coordination Sequence:
#
# PCOD9082364 Si02
#       8
#     2   2   2   2   2   2   2   2
#     4  11  20  33  60  89 117 157 192 249 294 343
#     4  11  19  36  58  88 117 151 193 251 292 345
#     4  10  15  31  58  85 112 143 195 242 297 325
#     4  12  23  35  57  94 120 151 201 246 292 353
#     4  10  22  37  61  91 120 151 198 249 297 352
#     4  11  19  37  63  90 119 152 198 253 294 345
#     4  11  20  37  61  88 119 158 197 238 297 358
#     4  12  20  37  64  89 117 156 200 251 297 340
#
# _framework density 19.689620999999999
#
# number of rings (size 3 to 8) (size 9 to 14) (size 15 to 20)
#    0.000    1.000   10.000    0.750    0.000    1.000 
#    0.000    0.625    0.000    3.750    0.000    0.000 
#    0.000    0.000    0.000    0.000    0.000    0.000 
#
# Total GULP energy -89067.724986 kJ/mol
# GULP energy per Si atom -5566.732812 kJ/mol
# Density = 1.964481 g / cm^3
# Si number density = 19.689621 Si / 1000 Ang^3
#
#
#
# Elastic Constant Matrix: (Units=GPa)
#
#
# Indices 1 2 3 4 5 6 
#
# 1 53.3215 5.5244 15.8482 -2.6675 8.4159 7.2369
# 2 5.5244 58.3153 22.9484 18.7791 -0.0048 12.8454
# 3 15.8482 22.9484 122.0130 5.0892 -9.8661 12.3126
# 4 -2.6675 18.7791 5.0892 44.2082 4.0803 3.5803
# 5 8.4159 -0.0048 -9.8661 4.0803 34.6853 -2.3236
# 6 7.2369 12.8454 12.3126 3.5803 -2.3236 10.4868
#
#
#
# Elastic Compliance Matrix: (Units=1/GPa)
#
#
# Indices 1 2 3 4 5 6 
#
# 1 0.023108 0.001693 -0.002249 0.003130 -0.007833 -0.018184
# 2 0.001693 0.027050 -0.002154 -0.008587 -0.001971 -0.029277
# 3 -0.002249 -0.002154 0.009802 -0.000078 0.002897 -0.006649
# 4 0.003130 -0.008587 -0.000078 0.026976 -0.004067 -0.001661
# 5 -0.007833 -0.001971 0.002897 -0.004067 0.032911 0.013099
# 6 -0.018184 -0.029277 -0.006649 -0.001661 0.013099 0.155044
#
#
# Mechanical properties :
#
#
# Convention : Reuss Voigt Hill
#
# Bulk Modulus (GPa) = 18.33558 35.81020 27.07289
# Shear Modulus (GPa) = 16.75099 30.49799 23.62449
#
# Velocity S-wave (km/s) = 2.91993 3.93992 3.46764
# Velocity P-wave (km/s) = 4.54978 6.23892 5.46007
#
# Compressibility (1/GPa) = 0.05453876
#
# Stress axis : x y z
#
# Youngs Moduli (GPa) = 43.27523 36.96901 102.02439
#
# Poissons Ratio (x) = -0.06258 0.22943
# Poissons Ratio (y) = -0.07326 0.21978
# Poissons Ratio (z) = 0.09732 0.07964
#
# Static dielectric constant tensor:
#      x y z
#    x 1.692530 0.014910 -0.002650 
#    y 0.014910 1.749820 -0.041840 
#    z -0.002650 -0.041840 1.846870 
# 
# From -- ./inp_files/251668.got.cif
#   From: 2010.05.17/outbox.cif.g08.bks.cpg/sg2_126_cif.got.tgz:251668.got - 2010.06.03 11:33:40.
