data_PCOD9082674
_publ_section_title
;
Structure prediction by ZEFSAII (Michael W. Deem and Ramdas Pophale) SiO2 
 PCOD9082674
Probable space group: P -1
;
_chemical_formula_sum "Si O2"
_cell_formula_units_Z 16
_cell_length_a 11.368386
_cell_length_b 19.297225
_cell_length_c 8.884167
_cell_angle_alpha 93.123080
_cell_angle_beta 76.003764
_cell_angle_gamma 29.451524
_cell_volume 773.101587
_symmetry_space_group_name_H-M "P -1"
_symmetry_group_IT_number 2
_symmetry_cell_setting 'triclinic'
loop_
_space_group_symop_operation_xyz
x,y,z
-x,-y,-z
loop_
_atom_site_type_symbol
_atom_site_label
_atom_site_fract_x
_atom_site_fract_y
_atom_site_fract_z
Si Si1 0.780004 0.302458 0.864675
Si Si2 0.336460 0.417654 0.025864
Si Si3 0.125346 0.564959 0.804299
Si Si4 0.046730 0.673590 0.384707
Si Si5 0.428673 0.639823 0.600783
Si Si6 0.927398 0.825510 0.927079
Si Si7 0.650515 0.180403 0.160679
Si Si8 0.637077 0.810917 0.751043
O O1 0.627823 0.309765 0.875924
O O2 0.980000 0.237723 0.674480
O O3 0.500000 0.500000 0.000000
O O4 0.940240 0.213057 0.963459
O O5 0.163757 0.498742 0.932913
O O6 0.138168 0.570088 0.215300
O O7 0.467073 0.289894 0.076118
O O8 0.438567 0.418777 0.611471
O O9 0.986083 0.712995 0.903477
O O10 0.916697 0.643556 0.747835
O O11 0.324273 0.530182 0.397432
O O12 0.768629 0.790626 0.577055
O O13 0.408408 0.725196 0.697541
O O14 0.122555 0.758505 0.727485
O O15 0.591693 0.025948 0.057227
O O16 0.530775 0.169384 0.254136
O O17 0.000000 0.000000 0.000000
#
# Coordination Sequence:
#
# PCOD9082674 Si02
#       8
#     2   2   2   2   2   2   2   2
#     4  10  15  32  61  87 114 150 208 241 284 343
#     4  10  19  37  65  86 118 162 198 247 288 349
#     4  11  23  37  57  94 125 153 195 242 313 357
#     4   9  18  35  57  90 116 152 204 242 287 353
#     4  10  20  36  65  88 110 163 203 243 285 355
#     4  12  19  38  62  89 126 155 194 253 301 350
#     4  11  21  43  67  83 117 158 212 244 283 356
#     4  11  25  37  59  91 125 160 194 244 307 350
#
# _framework density 20.695857
#
# number of rings (size 3 to 8) (size 9 to 14) (size 15 to 20)
#    0.000    1.500    7.500    0.750    0.000    6.500 
#    0.000    0.625    2.750    0.000    0.000    0.000 
#    0.000    0.000    0.000    0.000    0.000    0.000 
#
# Total GULP energy -89318.800802 kJ/mol
# GULP energy per Si atom -5582.425050 kJ/mol
# Density = 2.064875 g / cm^3
# Si number density = 20.695857 Si / 1000 Ang^3
#
#
#
# Elastic Constant Matrix: (Units=GPa)
#
#
# Indices 1 2 3 4 5 6 
#
# 1 61.4630 -2.2201 18.1580 6.7708 -21.0631 8.6361
# 2 -2.2201 42.0143 27.4453 1.7001 -0.4264 -1.8252
# 3 18.1580 27.4453 110.4985 3.5102 -24.0918 0.9172
# 4 6.7708 1.7001 3.5102 26.2126 -5.8823 2.1889
# 5 -21.0631 -0.4264 -24.0918 -5.8823 34.3269 -2.5416
# 6 8.6361 -1.8252 0.9172 2.1889 -2.5416 26.1407
#
#
#
# Elastic Compliance Matrix: (Units=1/GPa)
#
#
# Indices 1 2 3 4 5 6 
#
# 1 0.021800 0.002076 -0.001458 -0.002509 0.011529 -0.005675
# 2 0.002076 0.029705 -0.008694 -0.002491 -0.004779 0.001437
# 3 -0.001458 -0.008694 0.013268 0.001059 0.008502 0.000147
# 4 -0.002509 -0.002491 0.001059 0.040329 0.005922 -0.002183
# 5 0.011529 -0.004779 0.008502 0.005922 0.043073 -0.000749
# 6 -0.005675 0.001437 0.000147 -0.002183 -0.000749 0.040335
#
#
# Mechanical properties :
#
#
# Convention : Reuss Voigt Hill
#
# Bulk Modulus (GPa) = 20.56675 33.41581 26.99128
# Shear Modulus (GPa) = 22.63797 28.70889 25.67343
#
# Velocity S-wave (km/s) = 3.31091 3.72853 3.52591
# Velocity P-wave (km/s) = 4.95736 5.89212 5.44484
#
# Compressibility (1/GPa) = 0.04862217
#
# Stress axis : x y z
#
# Youngs Moduli (GPa) = 45.87057 33.66413 75.37181
#
# Poissons Ratio (x) = -0.06989 0.10986
# Poissons Ratio (y) = -0.09523 0.65529
# Poissons Ratio (z) = 0.06686 0.29268
#
# Static dielectric constant tensor:
#      x y z
#    x 1.783650 -0.008090 -0.019880 
#    y -0.008090 1.756670 0.001820 
#    z -0.019880 0.001820 1.755050 
# 
# From -- ./inp_files/188684.got.cif
#   From: 2010.05.17/outbox.cif.g08.bks.cpg/sg2_95_cif.got.tgz:188684.got - 2010.06.03 11:33:40.
