data_PCOD9082623
_publ_section_title
;
Structure prediction by ZEFSAII (Michael W. Deem and Ramdas Pophale) SiO2 
 PCOD9082623
Probable space group: P -1
;
_chemical_formula_sum "Si O2"
_cell_formula_units_Z 14
_cell_length_a 18.863792
_cell_length_b 18.234955
_cell_length_c 12.073372
_cell_angle_alpha 152.144422
_cell_angle_beta 28.145787
_cell_angle_gamma 158.076431
_cell_volume 677.905446
_symmetry_space_group_name_H-M "P -1"
_symmetry_group_IT_number 2
_symmetry_cell_setting 'triclinic'
loop_
_space_group_symop_operation_xyz
x,y,z
-x,-y,-z
loop_
_atom_site_type_symbol
_atom_site_label
_atom_site_fract_x
_atom_site_fract_y
_atom_site_fract_z
Si Si1 0.711545 0.524778 0.146825
Si Si2 0.439803 0.610507 0.576461
Si Si3 0.134989 0.562756 0.789164
Si Si4 0.959497 0.419347 0.603186
Si Si5 0.262051 0.872584 0.671057
Si Si6 0.888253 0.977845 0.764747
Si Si7 0.797708 0.036076 0.740934
O O1 0.541462 0.510540 0.303459
O O2 0.669896 0.460757 0.247726
O O3 0.915260 0.771534 0.186942
O O4 0.767672 0.403031 0.848936
O O5 0.305827 0.563010 0.593808
O O6 0.617610 0.864799 0.679071
O O7 0.019209 0.426441 0.657007
O O8 0.213688 0.795785 0.974970
O O9 0.000000 0.500000 0.000000
O O10 0.147485 0.651149 0.601722
O O11 0.875532 0.223128 0.379029
O O12 0.500000 0.000000 0.500000
O O13 0.233045 0.019678 0.968939
O O14 0.771173 0.912136 0.722380
O O15 0.992570 0.879056 0.491042
#
# Coordination Sequence:
#
# PCOD9082623 Si02
#       7
#     2   2   2   2   2   2   2
#     4   9  17  35  53  83 115 151 191 232 287 352
#     4  10  20  30  56  87 119 150 189 234 299 360
#     4  12  21  36  53  89 123 152 182 246 313 340
#     4  10  21  38  59  85 121 150 199 245 287 348
#     4  10  21  38  61  87 111 160 204 241 280 346
#     4   9  18  35  57  83 115 145 197 247 285 337
#     4  10  19  33  56  86 117 148 188 247 294 348
#
# _framework density 20.651848000000001
#
# number of rings (size 3 to 8) (size 9 to 14) (size 15 to 20)
#    0.000    2.000    4.286    0.429    2.000    0.000 
#    2.571    0.000    0.000   14.571    0.000    0.000 
#    0.000    0.000    0.000    0.000    0.000    0.000 
#
# Total GULP energy -78073.639989 kJ/mol
# GULP energy per Si atom -5576.688571 kJ/mol
# Density = 2.060484 g / cm^3
# Si number density = 20.651848 Si / 1000 Ang^3
#
#
#
# Elastic Constant Matrix: (Units=GPa)
#
#
# Indices 1 2 3 4 5 6 
#
# 1 138.5114 23.9355 44.6770 -8.2589 4.4277 28.2109
# 2 23.9355 56.8763 21.6022 -8.2217 0.5855 10.0454
# 3 44.6770 21.6022 105.7313 -13.8704 7.9947 15.1675
# 4 -8.2589 -8.2217 -13.8704 30.7589 3.9223 2.5777
# 5 4.4277 0.5855 7.9947 3.9223 35.5540 2.6281
# 6 28.2109 10.0454 15.1675 2.5777 2.6281 21.0537
#
#
#
# Elastic Compliance Matrix: (Units=1/GPa)
#
#
# Indices 1 2 3 4 5 6 
#
# 1 0.010888 -0.001096 -0.002160 0.002758 -0.000209 -0.012822
# 2 -0.001096 0.020898 -0.002080 0.004959 0.000278 -0.007645
# 3 -0.002160 -0.002080 0.012467 0.005281 -0.002683 -0.005406
# 4 0.002758 0.004959 0.005281 0.038751 -0.004852 -0.014004
# 5 -0.000209 0.000278 -0.002683 -0.004852 0.029360 -0.000991
# 6 -0.012822 -0.007645 -0.005406 -0.014004 -0.000991 0.074060
#
#
# Mechanical properties :
#
#
# Convention : Reuss Voigt Hill
#
# Bulk Modulus (GPa) = 29.77975 53.50539 41.64257
# Shear Modulus (GPa) = 24.00507 31.53359 27.76933
#
# Velocity S-wave (km/s) = 3.41305 3.91181 3.67091
# Velocity P-wave (km/s) = 5.47568 6.80937 6.17862
#
# Compressibility (1/GPa) = 0.03357987
#
# Stress axis : x y z
#
# Youngs Moduli (GPa) = 91.84051 47.85216 80.21260
#
# Poissons Ratio (x) = 0.05247 0.17326
# Poissons Ratio (y) = 0.10069 0.16686
# Poissons Ratio (z) = 0.19837 0.09954
#
# Static dielectric constant tensor:
#      x y z
#    x 1.749740 -0.016510 -0.023220 
#    y -0.016510 1.884430 0.010220 
#    z -0.023220 0.010220 1.789510 
# 
# From -- ./inp_files/466466.got.cif
#   From: 2010.05.17/outbox.cif.g08.bks.cpg/sg2_234_cif.got.tgz:466466.got - 2010.06.03 11:33:40.
