data_PCOD9082112
_publ_section_title
;
Structure prediction by ZEFSAII (Michael W. Deem and Ramdas Pophale) SiO2 
 PCOD9082112
Probable space group: P -1
;
_chemical_formula_sum "Si O2"
_cell_formula_units_Z 16
_cell_length_a 12.618806
_cell_length_b 6.623848
_cell_length_c 18.107375
_cell_angle_alpha 90.770118
_cell_angle_beta 33.708974
_cell_angle_gamma 112.052927
_cell_volume 633.578758
_symmetry_space_group_name_H-M "P -1"
_symmetry_group_IT_number 2
_symmetry_cell_setting 'triclinic'
loop_
_space_group_symop_operation_xyz
x,y,z
-x,-y,-z
loop_
_atom_site_type_symbol
_atom_site_label
_atom_site_fract_x
_atom_site_fract_y
_atom_site_fract_z
Si Si1 0.617372 0.371079 0.914070
Si Si2 0.480227 0.942519 0.217466
Si Si3 0.719212 0.736572 0.112816
Si Si4 0.956198 0.410540 0.609788
Si Si5 0.832081 0.216169 0.895809
Si Si6 0.548648 0.253280 0.313507
Si Si7 0.695922 0.551832 0.469225
Si Si8 0.208065 0.964456 0.779475
O O1 0.840178 0.512024 0.724932
O O2 0.762455 0.379192 0.900032
O O3 0.500000 0.500000 0.000000
O O4 0.375519 0.073358 0.024651
O O5 0.291764 0.900435 0.264400
O O6 0.418577 0.004878 0.330951
O O7 0.483483 0.698841 0.217045
O O8 0.760516 0.174941 0.023058
O O9 0.667470 0.499123 0.188823
O O10 0.787775 0.949232 0.137690
O O11 0.919341 0.828303 0.932340
O O12 0.000000 0.500000 0.500000
O O13 0.158855 0.439261 0.543009
O O14 0.109383 0.339748 0.710198
O O15 0.378770 0.271774 0.465504
O O16 0.731138 0.230266 0.253459
O O17 0.436884 0.242679 0.609330
#
# Coordination Sequence:
#
# PCOD9082112 Si02
#       8
#     2   2   2   2   2   2   2   2
#     4   9  19  34  54  72  99 148 187 212 251 309
#     4  10  21  35  53  78 109 141 174 214 262 314
#     4   9  18  34  55  79 105 134 175 225 267 307
#     4  10  19  33  51  78 111 134 165 215 264 308
#     4   9  20  36  49  74 110 142 177 213 258 314
#     4  10  19  33  56  82 102 135 179 216 266 316
#     4  10  21  35  53  78 109 141 174 214 262 314
#     4   9  18  34  55  79 105 134 175 225 267 307
#
# _framework density 25.25337
#
# number of rings (size 3 to 8) (size 9 to 14) (size 15 to 20)
#    0.000    2.500    0.000    3.375    0.000    7.500 
#    0.000    1.875    0.000    1.500    0.000    0.000 
#    0.000    0.000    0.000    0.000    0.000    0.000 
#
# Total GULP energy -89236.287186 kJ/mol
# GULP energy per Si atom -5577.267949 kJ/mol
# Density = 2.519589 g / cm^3
# Si number density = 25.253370 Si / 1000 Ang^3
#
#
#
# Elastic Constant Matrix: (Units=GPa)
#
#
# Indices 1 2 3 4 5 6 
#
# 1 72.5760 26.3772 26.7546 13.5540 1.5057 -11.7331
# 2 26.3772 125.3510 43.5404 47.1691 -11.4517 -16.7209
# 3 26.7546 43.5404 171.8910 29.6604 6.3390 -16.4125
# 4 13.5540 47.1691 29.6604 44.3886 -7.9575 -9.3640
# 5 1.5057 -11.4517 6.3390 -7.9575 43.5598 1.7102
# 6 -11.7331 -16.7209 -16.4125 -9.3640 1.7102 25.2928
#
#
#
# Elastic Compliance Matrix: (Units=1/GPa)
#
#
# Indices 1 2 3 4 5 6 
#
# 1 0.016001 -0.001947 -0.001278 -0.001145 -0.001283 0.004969
# 2 -0.001947 0.014054 -0.000792 -0.012929 0.001398 0.002993
# 3 -0.001278 -0.000792 0.007091 -0.003347 -0.001901 0.002375
# 4 -0.001145 -0.012929 -0.003347 0.040352 0.004366 0.003394
# 5 -0.001283 0.001398 -0.001901 0.004366 0.024480 -0.000943
# 6 0.004969 0.002993 0.002375 0.003394 -0.000943 0.046682
#
#
# Mechanical properties :
#
#
# Convention : Reuss Voigt Hill
#
# Bulk Modulus (GPa) = 34.34761 62.57361 48.46061
# Shear Modulus (GPa) = 30.04831 40.85797 35.45314
#
# Velocity S-wave (km/s) = 3.45320 4.02670 3.75093
# Velocity P-wave (km/s) = 5.43416 6.81551 6.16366
#
# Compressibility (1/GPa) = 0.02911410
#
# Stress axis : x y z
#
# Youngs Moduli (GPa) = 62.49557 71.15169 141.01517
#
# Poissons Ratio (x) = 0.13850 0.18023
# Poissons Ratio (y) = 0.12165 0.11166
# Poissons Ratio (z) = 0.07987 0.05634
#
# Static dielectric constant tensor:
#      x y z
#    x 2.111720 0.007600 -0.107200 
#    y 0.007600 2.033030 -0.099240 
#    z -0.107200 -0.099240 2.280530 
# 
# From -- ./inp_files/81014.got.cif
#   From: 2010.05.17/outbox.cif.g08.bks.cpg/sg2_41_cif.got.tgz:81014.got - 2010.06.03 11:33:40.
