data_PCOD9082527
_publ_section_title
;
Structure prediction by ZEFSAII (Michael W. Deem and Ramdas Pophale) SiO2 
 PCOD9082527
Probable space group: P -1
;
_chemical_formula_sum "Si O2"
_cell_formula_units_Z 14
_cell_length_a 10.105185
_cell_length_b 9.338092
_cell_length_c 8.050760
_cell_angle_alpha 129.320231
_cell_angle_beta 99.906325
_cell_angle_gamma 61.115368
_cell_volume 504.420916
_symmetry_space_group_name_H-M "P -1"
_symmetry_group_IT_number 2
_symmetry_cell_setting 'triclinic'
loop_
_space_group_symop_operation_xyz
x,y,z
-x,-y,-z
loop_
_atom_site_type_symbol
_atom_site_label
_atom_site_fract_x
_atom_site_fract_y
_atom_site_fract_z
Si Si1 0.985889 0.252060 0.826685
Si Si2 0.385164 0.664824 0.431704
Si Si3 0.189066 0.183716 0.301392
Si Si4 0.246440 0.290933 0.763480
Si Si5 0.583082 0.755103 0.783278
Si Si6 0.425470 0.755685 0.162233
Si Si7 0.081879 0.795852 0.604368
O O1 0.936576 0.270184 0.635957
O O2 0.159750 0.215131 0.820589
O O3 0.859214 0.457442 0.043818
O O4 0.996360 0.048725 0.764103
O O5 0.512959 0.713407 0.570153
O O6 0.426786 0.419259 0.229617
O O7 0.334079 0.801106 0.353794
O O8 0.260384 0.724174 0.594967
O O9 0.224162 0.240726 0.533711
O O10 0.245258 0.292425 0.258542
O O11 0.008890 0.258851 0.319345
O O12 0.300201 0.926509 0.134581
O O13 0.426473 0.208009 0.770569
O O14 0.500000 0.000000 0.000000
O O15 0.500000 0.500000 0.000000
#
# Coordination Sequence:
#
# PCOD9082527 Si02
#       7
#     2   2   2   2   2   2   2
#     4   9  19  34  58  92 137 157 196 256 327 383
#     4  11  24  44  67  92 132 170 212 267 321 378
#     4  11  23  40  65  93 130 158 213 267 315 383
#     4  10  19  33  55  92 127 166 198 251 317 378
#     4  11  26  47  65  91 127 175 220 265 317 382
#     4  12  22  36  66  99 126 163 212 266 322 381
#     4  10  20  39  60  91 125 166 202 262 318 381
#
# _framework density 27.754598999999999
#
# number of rings (size 3 to 8) (size 9 to 14) (size 15 to 20)
#    0.000    1.429    1.429    5.571    2.000    0.571 
#    5.143    0.714    0.000    0.000    0.000    0.000 
#    0.000    0.000    0.000    0.000    0.000    0.000 
#
# Total GULP energy -78374.158375 kJ/mol
# GULP energy per Si atom -5598.154170 kJ/mol
# Density = 2.769143 g / cm^3
# Si number density = 27.754599 Si / 1000 Ang^3
#
#
#
# Elastic Constant Matrix: (Units=GPa)
#
#
# Indices 1 2 3 4 5 6 
#
# 1 165.2659 30.3492 23.2637 2.5568 -35.7500 29.8984
# 2 30.3492 89.9823 20.1996 11.8364 15.3355 30.3902
# 3 23.2637 20.1996 132.6359 36.3774 -1.7032 7.9818
# 4 2.5568 11.8364 36.3774 38.5318 -1.7137 -2.0387
# 5 -35.7500 15.3355 -1.7032 -1.7137 41.7838 1.2894
# 6 29.8984 30.3902 7.9818 -2.0387 1.2894 34.8168
#
#
#
# Elastic Compliance Matrix: (Units=1/GPa)
#
#
# Indices 1 2 3 4 5 6 
#
# 1 0.009928 -0.002921 -0.001228 0.001516 0.009763 -0.005967
# 2 -0.002921 0.019594 0.000298 -0.007309 -0.009523 -0.014738
# 3 -0.001228 0.000298 0.010628 -0.010208 -0.001077 -0.002200
# 4 0.001516 -0.007309 -0.010208 0.038452 0.004848 0.009490
# 5 0.009763 -0.009523 -0.001077 0.004848 0.035962 -0.000872
# 6 -0.005967 -0.014738 -0.002200 0.009490 -0.000872 0.047802
#
#
# Mechanical properties :
#
#
# Convention : Reuss Voigt Hill
#
# Bulk Modulus (GPa) = 30.81929 59.50103 45.16016
# Shear Modulus (GPa) = 27.64208 43.96458 35.80333
#
# Velocity S-wave (km/s) = 3.15928 3.98433 3.59555
# Velocity P-wave (km/s) = 4.94332 6.53079 5.79171
#
# Compressibility (1/GPa) = 0.03244721
#
# Stress axis : x y z
#
# Youngs Moduli (GPa) = 100.72540 51.03728 94.09467
#
# Poissons Ratio (x) = 0.14906 0.11553
# Poissons Ratio (y) = 0.29419 -0.02800
# Poissons Ratio (z) = 0.12368 -0.01519
#
# Static dielectric constant tensor:
#      x y z
#    x 2.204050 0.016040 0.005690 
#    y 0.016040 2.099530 0.059400 
#    z 0.005690 0.059400 2.306470 
# 
# From -- ./inp_files/391580.got.cif
#   From: 2010.05.17/outbox.cif.g08.bks.cpg/sg2_196_cif.got.tgz:391580.got - 2010.06.03 11:33:40.
