data_PCOD9082764
_publ_section_title
;
Structure prediction by ZEFSAII (Michael W. Deem and Ramdas Pophale) SiO2 
 PCOD9082764
Probable space group: P -1
;
_chemical_formula_sum "Si O2"
_cell_formula_units_Z 14
_cell_length_a 14.218433
_cell_length_b 10.920599
_cell_length_c 16.331683
_cell_angle_alpha 106.220307
_cell_angle_beta 18.302404
_cell_angle_gamma 96.522385
_cell_volume 660.967247
_symmetry_space_group_name_H-M "P -1"
_symmetry_group_IT_number 2
_symmetry_cell_setting 'triclinic'
loop_
_space_group_symop_operation_xyz
x,y,z
-x,-y,-z
loop_
_atom_site_type_symbol
_atom_site_label
_atom_site_fract_x
_atom_site_fract_y
_atom_site_fract_z
Si Si1 0.824361 0.901525 0.774154
Si Si2 0.379647 0.432239 0.515145
Si Si3 0.686943 0.431861 0.090846
Si Si4 0.891724 0.924252 0.324898
Si Si5 0.402684 0.448648 0.154628
Si Si6 0.302098 0.832385 0.234559
Si Si7 0.199841 0.923929 0.902940
O O1 0.141100 0.788246 0.434597
O O2 0.658066 0.830996 0.957312
O O3 0.955315 0.998645 0.729604
O O4 0.500000 0.000000 0.000000
O O5 0.500000 0.500000 0.500000
O O6 0.445155 0.477613 0.379327
O O7 0.606353 0.253783 0.298638
O O8 0.984016 0.474103 0.862154
O O9 0.507341 0.485106 0.161495
O O10 0.876507 0.253162 0.896750
O O11 0.503787 0.962640 0.674142
O O12 0.935260 0.968233 0.205211
O O13 0.000000 0.500000 0.500000
O O14 0.500000 0.500000 0.000000
O O15 0.622176 0.271125 0.925263
O O16 0.000000 0.000000 0.500000
O O17 0.000000 0.000000 0.000000
#
# Coordination Sequence:
#
# PCOD9082764 Si02
#       7
#     2   2   2   2   2   2   2
#     4  10  19  33  57  88 117 149 197 248 281 335
#     4  10  21  39  64  87 112 153 202 250 300 361
#     4  10  21  39  62  85 116 161 206 238 295 377
#     4  10  20  36  61  87 115 158 199 237 296 367
#     4  12  25  42  62  90 129 168 204 254 307 359
#     4  10  21  37  59  84 117 159 202 243 288 347
#     4  10  21  38  59  87 117 148 191 248 307 358
#
# _framework density 21.181079
#
# number of rings (size 3 to 8) (size 9 to 14) (size 15 to 20)
#    0.000    1.714    0.000    5.143    0.000    6.857 
#    0.000    8.571    0.000    0.000    0.000    0.000 
#    0.000    0.000    0.000    0.000    0.000    0.000 
#
# Total GULP energy -78170.682182 kJ/mol
# GULP energy per Si atom -5583.620156 kJ/mol
# Density = 2.113287 g / cm^3
# Si number density = 21.181079 Si / 1000 Ang^3
#
#
#
# Elastic Constant Matrix: (Units=GPa)
#
#
# Indices 1 2 3 4 5 6 
#
# 1 147.8574 59.9221 40.3375 -22.4382 -1.8615 -0.8408
# 2 59.9221 67.6766 46.6268 -31.1343 0.2389 4.3516
# 3 40.3375 46.6268 94.0426 -38.9967 19.2276 -6.7496
# 4 -22.4382 -31.1343 -38.9967 45.6692 -2.5993 -0.9744
# 5 -1.8615 0.2389 19.2276 -2.5993 38.1496 -7.2854
# 6 -0.8408 4.3516 -6.7496 -0.9744 -7.2854 47.9189
#
#
#
# Elastic Compliance Matrix: (Units=1/GPa)
#
#
# Indices 1 2 3 4 5 6 
#
# 1 0.010728 -0.010147 -0.000509 -0.002004 0.000925 0.001138
# 2 -0.010147 0.036089 -0.010089 0.011167 0.004363 -0.003986
# 3 -0.000509 -0.010089 0.023205 0.012162 -0.010282 0.002860
# 4 -0.002004 0.011167 0.012162 0.038731 -0.003483 0.000922
# 5 0.000925 0.004363 -0.010282 -0.003483 0.031734 0.002926
# 6 0.001138 -0.003986 0.002860 0.000922 0.002926 0.022117
#
#
# Mechanical properties :
#
#
# Convention : Reuss Voigt Hill
#
# Bulk Modulus (GPa) = 35.04760 67.03883 51.04321
# Shear Modulus (GPa) = 23.40780 37.19354 30.30067
#
# Velocity S-wave (km/s) = 3.32795 4.19499 3.78637
# Velocity P-wave (km/s) = 5.59907 7.42852 6.57771
#
# Compressibility (1/GPa) = 0.02853262
#
# Stress axis : x y z
#
# Youngs Moduli (GPa) = 93.21154 27.70945 43.09459
#
# Poissons Ratio (x) = 0.28115 0.02196
# Poissons Ratio (y) = 0.94577 0.43476
# Poissons Ratio (z) = 0.04749 0.27955
#
# Static dielectric constant tensor:
#      x y z
#    x 1.786650 -0.111930 0.033630 
#    y -0.111930 1.955190 -0.012250 
#    z 0.033630 -0.012250 1.756390 
# 
# From -- ./inp_files/76846.got.cif
#   From: 2010.05.17/outbox.cif.g08.bks.cpg/sg2_39_cif.got.tgz:76846.got - 2010.06.03 11:33:40.
