data_PCOD9082786
_publ_section_title
;
Structure prediction by ZEFSAII (Michael W. Deem and Ramdas Pophale) SiO2 
 PCOD9082786
Probable space group: P -1
;
_chemical_formula_sum "Si O2"
_cell_formula_units_Z 16
_cell_length_a 19.836618
_cell_length_b 14.949130
_cell_length_c 8.028025
_cell_angle_alpha 151.459108
_cell_angle_beta 34.011748
_cell_angle_gamma 148.721758
_cell_volume 560.494588
_symmetry_space_group_name_H-M "P -1"
_symmetry_group_IT_number 2
_symmetry_cell_setting 'triclinic'
loop_
_space_group_symop_operation_xyz
x,y,z
-x,-y,-z
loop_
_atom_site_type_symbol
_atom_site_label
_atom_site_fract_x
_atom_site_fract_y
_atom_site_fract_z
Si Si1 0.970619 0.258905 0.716303
Si Si2 0.805991 0.450480 0.071840
Si Si3 0.214602 0.926757 0.884803
Si Si4 0.018228 0.748417 0.692111
Si Si5 0.593179 0.289587 0.976937
Si Si6 0.610287 0.744690 0.173836
Si Si7 0.715347 0.564717 0.914820
Si Si8 0.615765 0.146074 0.202583
O O1 0.956763 0.159868 0.400266
O O2 0.117131 0.333042 0.627925
O O3 0.000000 0.500000 0.000000
O O4 0.853740 0.134594 0.891348
O O5 0.930641 0.431339 0.700362
O O6 0.678985 0.420145 0.173451
O O7 0.733470 0.228567 0.961100
O O8 0.095787 0.876206 0.906103
O O9 0.304008 0.803517 0.456192
O O10 0.323865 0.161846 0.985707
O O11 0.855406 0.645372 0.861097
O O12 0.594775 0.458633 0.120521
O O13 0.446152 0.085171 0.968369
O O14 0.523170 0.861903 0.595762
O O15 0.500000 0.500000 0.000000
O O16 0.711462 0.747628 0.113303
O O17 0.681751 0.358170 0.530527
#
# Coordination Sequence:
#
# PCOD9082786 Si02
#       8
#     2   2   2   2   2   2   2   2
#     4  10  19  33  57  92 121 148 188 241 296 348
#     4  10  19  34  55  87 124 146 182 250 309 336
#     4  10  21  39  63  86 122 156 193 244 301 345
#     4  10  21  35  59  93 119 149 192 247 299 350
#     4  10  20  33  58  89 109 153 202 240 291 348
#     4   9  22  42  62  79 116 166 196 236 293 353
#     4  11  20  37  59  83 116 152 200 242 289 349
#     4  10  20  36  58  80 118 156 194 241 293 347
#
# _framework density 28.546216999999999
#
# number of rings (size 3 to 8) (size 9 to 14) (size 15 to 20)
#    0.000    2.000    1.250    3.000    1.750    4.000 
#    0.000    1.250    5.500    0.000    0.000    0.000 
#    0.000    0.000    0.000    0.000    0.000    0.000 
#
# Total GULP energy -89380.383171 kJ/mol
# GULP energy per Si atom -5586.273948 kJ/mol
# Density = 2.848124 g / cm^3
# Si number density = 28.546217 Si / 1000 Ang^3
#
#
#
# Elastic Constant Matrix: (Units=GPa)
#
#
# Indices 1 2 3 4 5 6 
#
# 1 122.3100 67.6389 18.5532 -6.6292 6.7909 -2.0728
# 2 67.6389 222.7905 44.5523 -32.9236 12.1535 -29.0654
# 3 18.5532 44.5523 73.5409 -2.9088 0.0796 -5.6822
# 4 -6.6292 -32.9236 -2.9088 42.2717 -1.1736 8.0207
# 5 6.7909 12.1535 0.0796 -1.1736 31.0800 -9.5047
# 6 -2.0728 -29.0654 -5.6822 8.0207 -9.5047 66.3326
#
#
#
# Elastic Compliance Matrix: (Units=1/GPa)
#
#
# Indices 1 2 3 4 5 6 
#
# 1 0.010010 -0.003065 -0.000788 -0.000680 -0.001383 -0.001214
# 2 -0.003065 0.007025 -0.003155 0.004359 -0.001293 0.002000
# 3 -0.000788 -0.003155 0.015671 -0.001524 0.001406 0.000321
# 4 -0.000680 0.004359 -0.001524 0.027128 -0.001039 -0.001671
# 5 -0.001383 -0.001293 0.001406 -0.001039 0.034333 0.004556
# 6 -0.001214 0.002000 0.000321 -0.001671 0.004556 0.016796
#
#
# Mechanical properties :
#
#
# Convention : Reuss Voigt Hill
#
# Bulk Modulus (GPa) = 53.49980 75.57004 64.53492
# Shear Modulus (GPa) = 38.10735 47.12999 42.61867
#
# Velocity S-wave (km/s) = 3.65764 4.06767 3.86809
# Velocity P-wave (km/s) = 6.05144 6.97076 6.52731
#
# Compressibility (1/GPa) = 0.01869166
#
# Stress axis : x y z
#
# Youngs Moduli (GPa) = 99.90350 142.34113 63.81318
#
# Poissons Ratio (x) = 0.43623 0.05027
# Poissons Ratio (y) = 0.30617 0.20130
# Poissons Ratio (z) = 0.07871 0.44903
#
# Static dielectric constant tensor:
#      x y z
#    x 2.427160 -0.038470 0.057580 
#    y -0.038470 2.204410 -0.002120 
#    z 0.057580 -0.002120 2.299700 
# 
# From -- ./inp_files/347381.got.cif
#   From: 2010.05.17/outbox.cif.g08.bks.cpg/sg2_174_cif.got.tgz:347381.got - 2010.06.03 11:33:40.
