data_PCOD9082930
_publ_section_title
;
Structure prediction by ZEFSAII (Michael W. Deem and Ramdas Pophale) SiO2 
 PCOD9082930
Probable space group: P -1
;
_chemical_formula_sum "Si O2"
_cell_formula_units_Z 16
_cell_length_a 9.492782
_cell_length_b 19.967235
_cell_length_c 11.547302
_cell_angle_alpha 39.332758
_cell_angle_beta 101.266620
_cell_angle_gamma 133.154628
_cell_volume 700.620538
_symmetry_space_group_name_H-M "P -1"
_symmetry_group_IT_number 2
_symmetry_cell_setting 'triclinic'
loop_
_space_group_symop_operation_xyz
x,y,z
-x,-y,-z
loop_
_atom_site_type_symbol
_atom_site_label
_atom_site_fract_x
_atom_site_fract_y
_atom_site_fract_z
Si Si1 0.813477 0.738301 0.253126
Si Si2 0.202732 0.865595 0.490037
Si Si3 0.524269 0.363780 0.489342
Si Si4 0.290643 0.748316 0.072086
Si Si5 0.657962 0.616381 0.751046
Si Si6 0.696225 0.042528 0.346628
Si Si7 0.838231 0.958681 0.302216
Si Si8 0.991993 0.358640 0.616396
O O1 0.500000 0.500000 0.500000
O O2 0.755564 0.783746 0.285742
O O3 0.000734 0.752484 0.289987
O O4 0.922969 0.855532 0.994949
O O5 0.245275 0.924943 0.551907
O O6 0.874463 0.662959 0.686898
O O7 0.365744 0.856684 0.520159
O O8 0.390760 0.059174 0.178423
O O9 0.555649 0.484572 0.248706
O O10 0.771041 0.498314 0.435544
O O11 0.442826 0.216661 0.588660
O O12 0.108885 0.527418 0.331585
O O13 0.270377 0.775955 0.165346
O O14 0.178520 0.771098 0.939691
O O15 0.847181 0.841472 0.493375
O O16 0.500000 0.500000 0.000000
O O17 0.802352 0.010287 0.336345
#
# Coordination Sequence:
#
# PCOD9082930 Si02
#       8
#     2   2   2   2   2   2   2   2
#     4  10  19  33  59  87 112 154 195 238 288 350
#     4   9  20  37  61  84 113 153 199 243 281 341
#     4   9  23  36  58  81 126 152 187 243 302 344
#     4   9  19  35  60  86 114 148 199 246 283 339
#     4  10  24  39  57  84 120 157 195 236 296 350
#     4   9  19  38  61  83 112 156 196 242 287 335
#     4  10  21  39  58  87 119 159 189 239 306 346
#     4  10  19  36  60  88 117 149 197 245 285 349
#
# _framework density 22.836898999999999
#
# number of rings (size 3 to 8) (size 9 to 14) (size 15 to 20)
#    1.500    1.000    1.250    0.375    5.250    0.500 
#    2.250    3.750    0.000    0.000    0.000    0.000 
#    0.000    0.000    0.000    0.000    0.000    0.000 
#
# Total GULP energy -89134.089225 kJ/mol
# GULP energy per Si atom -5570.880577 kJ/mol
# Density = 2.278492 g / cm^3
# Si number density = 22.836899 Si / 1000 Ang^3
#
#
#
# Elastic Constant Matrix: (Units=GPa)
#
#
# Indices 1 2 3 4 5 6 
#
# 1 63.9742 4.9026 18.8207 5.1136 -3.6070 2.0380
# 2 4.9026 46.2369 18.0485 13.0135 -7.2473 -2.4359
# 3 18.8207 18.0485 103.2099 18.4837 -9.1905 -0.8773
# 4 5.1136 13.0135 18.4837 24.1126 -4.7104 -8.8294
# 5 -3.6070 -7.2473 -9.1905 -4.7104 28.9369 6.5085
# 6 2.0380 -2.4359 -0.8773 -8.8294 6.5085 32.5900
#
#
#
# Elastic Compliance Matrix: (Units=1/GPa)
#
#
# Indices 1 2 3 4 5 6 
#
# 1 0.016689 -0.000106 -0.002572 -0.001949 0.001351 -0.001919
# 2 -0.000106 0.026591 -0.001951 -0.012849 0.004483 -0.002435
# 3 -0.002572 -0.001951 0.012131 -0.008106 0.002242 -0.002302
# 4 -0.001949 -0.012849 -0.008106 0.060720 0.000404 0.015313
# 5 0.001351 0.004483 0.002242 0.000404 0.038251 -0.007218
# 6 -0.001919 -0.002435 -0.002302 0.015313 -0.007218 0.036151
#
#
# Mechanical properties :
#
#
# Convention : Reuss Voigt Hill
#
# Bulk Modulus (GPa) = 21.66704 32.99606 27.33155
# Shear Modulus (GPa) = 23.23693 28.57119 25.90406
#
# Velocity S-wave (km/s) = 3.19331 3.54092 3.37160
# Velocity P-wave (km/s) = 4.80673 5.58547 5.21067
#
# Compressibility (1/GPa) = 0.04615304
#
# Stress axis : x y z
#
# Youngs Moduli (GPa) = 59.91928 37.60614 82.43455
#
# Poissons Ratio (x) = 0.00400 0.21199
# Poissons Ratio (y) = 0.00638 0.16084
# Poissons Ratio (z) = 0.15409 0.07337
#
# Static dielectric constant tensor:
#      x y z
#    x 1.946050 -0.011620 -0.016470 
#    y -0.011620 1.870150 -0.017740 
#    z -0.016470 -0.017740 1.876050 
# 
# From -- ./inp_files/401794.got.cif
#   From: 2010.05.17/outbox.cif.g08.bks.cpg/sg2_201_cif.got.tgz:401794.got - 2010.06.03 11:33:40.
