data_PCOD9082987
_publ_section_title
;
Structure prediction by ZEFSAII (Michael W. Deem and Ramdas Pophale) SiO2 
 PCOD9082987
Probable space group: P -1
;
_chemical_formula_sum "Si O2"
_cell_formula_units_Z 16
_cell_length_a 11.051478
_cell_length_b 12.297031
_cell_length_c 11.183776
_cell_angle_alpha 134.074289
_cell_angle_beta 125.633741
_cell_angle_gamma 45.191832
_cell_volume 761.864898
_symmetry_space_group_name_H-M "P -1"
_symmetry_group_IT_number 2
_symmetry_cell_setting 'triclinic'
loop_
_space_group_symop_operation_xyz
x,y,z
-x,-y,-z
loop_
_atom_site_type_symbol
_atom_site_label
_atom_site_fract_x
_atom_site_fract_y
_atom_site_fract_z
Si Si1 0.560812 0.870247 0.050179
Si Si2 0.251019 0.973669 0.357937
Si Si3 0.249553 0.741138 0.479249
Si Si4 0.552027 0.656487 0.401389
Si Si5 0.355343 0.693075 0.763494
Si Si6 0.123961 0.140130 0.671508
Si Si7 0.034329 0.062690 0.941634
Si Si8 0.265005 0.157080 0.265628
O O1 0.756192 0.802625 0.148829
O O2 0.437325 0.994153 0.181082
O O3 0.520207 0.716661 0.884834
O O4 0.500000 0.000000 0.000000
O O5 0.180641 0.090173 0.526872
O O6 0.236372 0.092428 0.327762
O O7 0.131335 0.888397 0.197172
O O8 0.447515 0.814140 0.367968
O O9 0.398745 0.683211 0.423344
O O10 0.324916 0.650599 0.579552
O O11 0.081494 0.732593 0.340344
O O12 0.175508 0.950785 0.613369
O O13 0.635744 0.454779 0.256617
O O14 0.691412 0.690909 0.572469
O O15 0.194702 0.885416 0.845497
O O16 0.106651 0.191275 0.113637
O O17 0.000000 0.000000 0.000000
#
# Coordination Sequence:
#
# PCOD9082987 Si02
#       8
#     2   2   2   2   2   2   2   2
#     4  11  20  35  56  88 113 151 197 234 279 348
#     4  10  19  38  62  82 112 152 202 233 279 347
#     4  10  19  34  56  83 114 148 189 235 285 344
#     4  11  22  35  56  91 117 149 187 241 300 334
#     4  11  21  36  57  85 122 147 185 248 294 331
#     4  10  19  33  60  86 104 151 200 235 269 339
#     4   9  20  38  60  81 108 154 196 231 278 345
#     4  10  20  36  61  84 112 153 197 237 275 353
#
# _framework density 21.001097000000001
#
# number of rings (size 3 to 8) (size 9 to 14) (size 15 to 20)
#    0.000    1.750    5.000    0.750    0.000    0.000 
#    0.000   10.000    0.000    0.000    0.000    0.000 
#    0.000    0.000    0.000    0.000    0.000    0.000 
#
# Total GULP energy -89282.716605 kJ/mol
# GULP energy per Si atom -5580.169788 kJ/mol
# Density = 2.095330 g / cm^3
# Si number density = 21.001097 Si / 1000 Ang^3
#
#
#
# Elastic Constant Matrix: (Units=GPa)
#
#
# Indices 1 2 3 4 5 6 
#
# 1 72.4567 7.3659 37.5665 -14.3777 12.5329 7.6408
# 2 7.3659 31.9115 31.4291 0.8521 4.8855 8.9800
# 3 37.5665 31.4291 121.6191 -17.6405 47.8151 -3.1772
# 4 -14.3777 0.8521 -17.6405 24.9624 2.7790 7.0518
# 5 12.5329 4.8855 47.8151 2.7790 49.1948 -11.1945
# 6 7.6408 8.9800 -3.1772 7.0518 -11.1945 15.2882
#
#
#
# Elastic Compliance Matrix: (Units=1/GPa)
#
#
# Indices 1 2 3 4 5 6 
#
# 1 0.028779 0.009124 0.002276 0.035863 -0.024748 -0.053933
# 2 0.009124 0.061225 -0.019571 0.002167 0.000145 -0.045483
# 3 0.002276 -0.019571 0.032534 0.037372 -0.038873 -0.028583
# 4 0.035863 0.002167 0.037372 0.134538 -0.083993 -0.134989
# 5 -0.024748 0.000145 -0.038873 -0.083993 0.094697 0.112288
# 6 -0.053933 -0.045483 -0.028583 -0.134989 0.112288 0.257626
#
#
# Mechanical properties :
#
#
# Convention : Reuss Voigt Hill
#
# Bulk Modulus (GPa) = 9.41665 42.07893 25.74779
# Shear Modulus (GPa) = 7.56269 27.86414 17.71342
#
# Velocity S-wave (km/s) = 1.89971 3.64647 2.90738
# Velocity P-wave (km/s) = 3.05049 6.14891 4.85358
#
# Compressibility (1/GPa) = 0.10619483
#
# Stress axis : x y z
#
# Youngs Moduli (GPa) = 34.74810 16.33328 30.73664
#
# Poissons Ratio (x) = -0.14903 -0.06994
# Poissons Ratio (y) = -0.31705 0.60155
# Poissons Ratio (z) = -0.07907 0.31966
#
# Static dielectric constant tensor:
#      x y z
#    x 1.812700 -0.022410 0.008920 
#    y -0.022410 1.790920 0.010070 
#    z 0.008920 0.010070 1.812150 
# 
# From -- ./inp_files/379077.got.cif
#   From: 2010.05.17/outbox.cif.g08.bks.cpg/sg2_190_cif.got.tgz:379077.got - 2010.06.03 11:33:40.
