data_PCOD9082169
_publ_section_title
;
Structure prediction by ZEFSAII (Michael W. Deem and Ramdas Pophale) SiO2 
 PCOD9082169
Probable space group: P -1
;
_chemical_formula_sum "Si O2"
_cell_formula_units_Z 16
_cell_length_a 17.944842
_cell_length_b 9.428563
_cell_length_c 14.353428
_cell_angle_alpha 141.904359
_cell_angle_beta 138.017984
_cell_angle_gamma 36.116288
_cell_volume 843.604869
_symmetry_space_group_name_H-M "P -1"
_symmetry_group_IT_number 2
_symmetry_cell_setting 'triclinic'
loop_
_space_group_symop_operation_xyz
x,y,z
-x,-y,-z
loop_
_atom_site_type_symbol
_atom_site_label
_atom_site_fract_x
_atom_site_fract_y
_atom_site_fract_z
Si Si1 0.021921 0.985137 0.375292
Si Si2 0.094739 0.193613 0.197536
Si Si3 0.096996 0.406749 0.630526
Si Si4 0.543030 0.513595 0.402053
Si Si5 0.343837 0.930823 0.561015
Si Si6 0.967564 0.323699 0.945759
Si Si7 0.802168 0.420485 0.518167
Si Si8 0.737161 0.325137 0.798990
O O1 0.002674 0.927353 0.222295
O O2 0.117896 0.705433 0.375393
O O3 0.881552 0.168922 0.390767
O O4 0.086760 0.163031 0.539093
O O5 0.177986 0.336313 0.365579
O O6 0.966688 0.355779 0.229870
O O7 0.180586 0.883946 0.150748
O O8 0.051502 0.233042 0.071023
O O9 0.000000 0.500000 0.500000
O O10 0.250397 0.250885 0.661961
O O11 0.475069 0.790475 0.545882
O O12 0.611916 0.256895 0.403520
O O13 0.652809 0.504566 0.435051
O O14 0.419258 0.513168 0.242173
O O15 0.256107 0.857159 0.377404
O O16 0.000000 0.500000 0.000000
O O17 0.185847 0.533893 0.090145
#
# Coordination Sequence:
#
# PCOD9082169 Si02
#       8
#     2   2   2   2   2   2   2   2
#     4  10  19  33  52  80 111 135 181 228 267 318
#     4  11  23  32  57  85 114 139 182 230 273 324
#     4  11  17  33  55  82 108 135 180 234 274 307
#     4   9  17  32  55  79 109 143 177 223 271 330
#     4   9  17  29  56  77 105 140 173 223 272 316
#     4  12  22  35  55  79 113 150 181 223 272 330
#     4  10  19  33  56  84 102 141 181 227 273 312
#     4  10  20  37  52  82 109 146 179 226 272 320
#
# _framework density 18.966225999999999
#
# number of rings (size 3 to 8) (size 9 to 14) (size 15 to 20)
#    0.750    1.000    5.000    0.375    0.000    0.500 
#    0.000    0.000    0.000    5.250    0.000    0.000 
#    0.000    0.000    0.000    0.000    0.000    0.000 
#
# Total GULP energy -89074.737004 kJ/mol
# GULP energy per Si atom -5567.171063 kJ/mol
# Density = 1.892306 g / cm^3
# Si number density = 18.966226 Si / 1000 Ang^3
#
#
#
# Elastic Constant Matrix: (Units=GPa)
#
#
# Indices 1 2 3 4 5 6 
#
# 1 100.6524 44.6204 11.1544 -7.9592 14.1007 -20.4747
# 2 44.6204 83.8317 24.8111 -14.6596 -7.8467 -24.1878
# 3 11.1544 24.8111 74.0295 -16.7105 -9.9647 -3.7656
# 4 -7.9592 -14.6596 -16.7105 11.5963 2.3258 -3.9265
# 5 14.1007 -7.8467 -9.9647 2.3258 23.0849 -1.8492
# 6 -20.4747 -24.1878 -3.7656 -3.9265 -1.8492 38.9948
#
#
#
# Elastic Compliance Matrix: (Units=1/GPa)
#
#
# Indices 1 2 3 4 5 6 
#
# 1 0.016456 -0.008201 -0.000411 0.004093 -0.013164 0.003302
# 2 -0.008201 0.028684 0.003098 0.038556 0.013679 0.018316
# 3 -0.000411 0.003098 0.022330 0.036930 0.007859 0.007954
# 4 0.004093 0.038556 0.036930 0.206251 0.009841 0.050866
# 5 -0.013164 0.013679 0.007859 0.009841 0.058900 0.006116
# 6 0.003302 0.018316 0.007954 0.050866 0.006116 0.044919
#
#
# Mechanical properties :
#
#
# Convention : Reuss Voigt Hill
#
# Bulk Modulus (GPa) = 17.71709 46.63172 32.17440
# Shear Modulus (GPa) = 12.27346 26.59704 19.43525
#
# Velocity S-wave (km/s) = 2.54662 3.74884 3.20461
# Velocity P-wave (km/s) = 4.24367 6.58624 5.54018
#
# Compressibility (1/GPa) = 0.05644268
#
# Stress axis : x y z
#
# Youngs Moduli (GPa) = 60.76856 34.86240 44.78236
#
# Poissons Ratio (x) = 0.28591 0.01841
# Poissons Ratio (y) = 0.49836 -0.13874
# Poissons Ratio (z) = 0.02498 -0.10801
#
# Static dielectric constant tensor:
#      x y z
#    x 1.729030 -0.015560 -0.004400 
#    y -0.015560 1.701800 0.022560 
#    z -0.004400 0.022560 1.675110 
# 
# From -- ./inp_files/470863.got.cif
#   From: 2010.05.17/outbox.cif.g08.bks.cpg/sg2_236_cif.got.tgz:470863.got - 2010.06.03 11:33:40.
