data_PCOD9082215
_publ_section_title
;
Structure prediction by ZEFSAII (Michael W. Deem and Ramdas Pophale) SiO2 
 PCOD9082215
Probable space group: P -1
;
_chemical_formula_sum "Si O2"
_cell_formula_units_Z 16
_cell_length_a 14.159577
_cell_length_b 14.654948
_cell_length_c 15.116359
_cell_angle_alpha 19.573053
_cell_angle_beta 62.072609
_cell_angle_gamma 61.112049
_cell_volume 919.154076
_symmetry_space_group_name_H-M "P -1"
_symmetry_group_IT_number 2
_symmetry_cell_setting 'triclinic'
loop_
_space_group_symop_operation_xyz
x,y,z
-x,-y,-z
loop_
_atom_site_type_symbol
_atom_site_label
_atom_site_fract_x
_atom_site_fract_y
_atom_site_fract_z
Si Si1 0.925969 0.382436 0.213162
Si Si2 0.953274 0.768006 0.985957
Si Si3 0.292763 0.768005 0.985957
Si Si4 0.679704 0.037883 0.394126
Si Si5 0.950185 0.350379 0.528620
Si Si6 0.829184 0.649622 0.471380
Si Si7 0.521567 0.617564 0.786838
Si Si8 0.888286 0.037883 0.394126
O O1 0.853718 0.216839 0.333906
O O2 0.880955 0.627857 0.074350
O O3 0.008837 0.173908 0.425839
O O4 0.000000 0.500000 0.000000
O O5 0.062925 0.791622 0.861211
O O6 0.913651 0.075986 0.754795
O O7 0.968010 0.567184 0.246587
O O8 0.284241 0.791622 0.861212
O O9 0.255567 0.075985 0.754796
O O10 0.218219 0.567182 0.246588
O O11 0.416838 0.627856 0.074351
O O12 0.595537 0.216839 0.333906
O O13 0.787148 0.914977 0.510727
O O14 0.608585 0.826092 0.574160
O O15 0.868343 0.500000 0.500000
O O16 0.064319 0.264302 0.607060
O O17 0.500000 0.500000 0.000000
#
# Coordination Sequence:
#
# PCOD9082215 Si02
#       8
#     2   2   2   2   2   2   2   2
#     4   9  20  33  49  75 105 136 173 216 247 310
#     4  11  20  34  52  70 105 142 173 207 255 295
#     4  11  20  34  52  70 105 142 173 207 255 295
#     4  10  19  33  53  76 104 142 175 208 255 306
#     4  11  22  33  48  73 102 137 181 217 246 296
#     4  11  22  33  48  73 102 137 181 217 246 296
#     4   9  20  33  49  75 105 136 173 216 247 310
#     4  10  19  33  53  76 104 142 175 208 255 306
#
# _framework density 17.407309999999999
#
# number of rings (size 3 to 8) (size 9 to 14) (size 15 to 20)
#    0.000    1.750    2.500    3.000    0.000    7.000 
#    0.000    0.000    0.000    0.000    0.000    0.000 
#    0.000    6.000    0.000    0.000    0.000    0.000 
#
# Total GULP energy -89111.945441 kJ/mol
# GULP energy per Si atom -5569.496590 kJ/mol
# Density = 1.736769 g / cm^3
# Si number density = 17.407310 Si / 1000 Ang^3
#
#
#
# Elastic Constant Matrix: (Units=GPa)
#
#
# Indices 1 2 3 4 5 6 
#
# 1 38.1374 32.4859 14.5328 2.1992 0.0000 -0.0002
# 2 32.4859 130.5770 44.9486 -16.1077 0.0000 -0.0003
# 3 14.5328 44.9486 87.1621 -10.0928 0.0000 -0.0001
# 4 2.1992 -16.1077 -10.0928 29.0011 0.0000 0.0000
# 5 0.0000 0.0000 0.0000 0.0000 14.9755 -2.1150
# 6 -0.0002 -0.0003 -0.0001 0.0000 -2.1150 15.7118
#
#
#
# Elastic Compliance Matrix: (Units=1/GPa)
#
#
# Indices 1 2 3 4 5 6 
#
# 1 0.035265 -0.009066 -0.002185 -0.008470 0.000000 0.000000
# 2 -0.009066 0.012028 -0.003999 0.005976 0.000000 0.000000
# 3 -0.002185 -0.003999 0.014235 0.002899 0.000000 0.000000
# 4 -0.008470 0.005976 0.002899 0.039452 0.000000 0.000000
# 5 0.000000 0.000000 0.000000 0.000000 0.068070 0.009163
# 6 0.000000 0.000000 0.000000 0.000000 0.009163 0.064880
#
#
# Mechanical properties :
#
#
# Convention : Reuss Voigt Hill
#
# Bulk Modulus (GPa) = 32.23011 48.86790 40.54900
# Shear Modulus (GPa) = 18.19691 22.86495 20.53093
#
# Velocity S-wave (km/s) = 3.23671 3.62819 3.43803
# Velocity P-wave (km/s) = 5.70297 6.75913 6.25339
#
# Compressibility (1/GPa) = 0.03102689
#
# Stress axis : x y z
#
# Youngs Moduli (GPa) = 28.35693 83.14236 70.24900
#
# Poissons Ratio (x) = 0.75377 0.15352
# Poissons Ratio (y) = 0.25708 0.28092
# Poissons Ratio (z) = 0.06197 0.33248
#
# Static dielectric constant tensor:
#      x y z
#    x 1.621940 0.000000 0.000000 
#    y 0.000000 1.646510 -0.052330 
#    z 0.000000 -0.052330 1.680090 
# 
# From -- ./inp_files/533547.got.cif
#   From: 2010.05.17/outbox.cif.g08.bks.cpg/sg2_267_cif.got.tgz:533547.got - 2010.06.03 11:33:40.
