data_PCOD9082048
_publ_section_title
;
Structure prediction by ZEFSAII (Michael W. Deem and Ramdas Pophale) SiO2 
 PCOD9082048
Probable space group: P -1
;
_chemical_formula_sum "Si O2"
_cell_formula_units_Z 16
_cell_length_a 17.769121
_cell_length_b 18.574777
_cell_length_c 7.002245
_cell_angle_alpha 44.968714
_cell_angle_beta 60.223475
_cell_angle_gamma 25.313556
_cell_volume 615.287681
_symmetry_space_group_name_H-M "P -1"
_symmetry_group_IT_number 2
_symmetry_cell_setting 'triclinic'
loop_
_space_group_symop_operation_xyz
x,y,z
-x,-y,-z
loop_
_atom_site_type_symbol
_atom_site_label
_atom_site_fract_x
_atom_site_fract_y
_atom_site_fract_z
Si Si1 0.302927 0.301844 0.598965
Si Si2 0.034834 0.199223 0.081318
Si Si3 0.429101 0.902138 0.683726
Si Si4 0.345033 0.572617 0.180727
Si Si5 0.218186 0.611978 0.631231
Si Si6 0.268693 0.788362 0.364566
Si Si7 0.342449 0.794466 0.836514
Si Si8 0.657673 0.954776 0.072118
O O1 0.459308 0.145936 0.518396
O O2 0.431685 0.192064 0.829647
O O3 0.239194 0.251467 0.770933
O O4 0.126604 0.564267 0.274700
O O5 0.961464 0.252894 0.286187
O O6 0.080645 0.045520 0.206187
O O7 0.235678 0.052891 0.100586
O O8 0.327343 0.068000 0.674861
O O9 0.593751 0.657000 0.044174
O O10 0.297992 0.960810 0.619205
O O11 0.212447 0.642299 0.355468
O O12 0.255197 0.781678 0.872612
O O13 0.445596 0.422537 0.143304
O O14 0.235219 0.705188 0.530311
O O15 0.317675 0.782972 0.107113
O O16 0.459306 0.612384 0.585851
#
# Coordination Sequence:
#
# PCOD9082048 Si02
#       8
#     2   2   2   2   2   2   2   2
#     4  10  26  44  70  99 133 166 232 280 343 405
#     4  11  23  41  71 102 138 176 220 275 333 408
#     4  11  20  38  67 100 128 176 226 273 333 396
#     4  10  19  34  61  92 136 183 224 268 319 381
#     4  10  20  37  60  97 140 180 215 267 329 392
#     4  11  19  39  61  94 142 181 214 270 326 386
#     4  10  19  32  62  96 129 180 231 269 313 393
#     4  11  23  48  72  96 130 178 216 289 348 393
#
# _framework density 26.004097000000002
#
# number of rings (size 3 to 8) (size 9 to 14) (size 15 to 20)
#    0.000    1.500    3.750    1.875    3.500    0.000 
#    0.000    5.000    0.000   15.000    0.000    0.000 
#    0.000    0.000    0.000    0.000    0.000    0.000 
#
# Total GULP energy -89473.616672 kJ/mol
# GULP energy per Si atom -5592.101042 kJ/mol
# Density = 2.594491 g / cm^3
# Si number density = 26.004097 Si / 1000 Ang^3
#
#
#
# Elastic Constant Matrix: (Units=GPa)
#
#
# Indices 1 2 3 4 5 6 
#
# 1 96.5823 32.2949 16.2643 -5.9604 -0.3987 20.7228
# 2 32.2949 100.3668 19.4838 8.9816 12.4377 23.5803
# 3 16.2643 19.4838 77.5976 -5.1472 -0.6025 8.9866
# 4 -5.9604 8.9816 -5.1472 47.2596 3.4358 6.1984
# 5 -0.3987 12.4377 -0.6025 3.4358 43.6173 2.1336
# 6 20.7228 23.5803 8.9866 6.1984 2.1336 30.7476
#
#
#
# Elastic Compliance Matrix: (Units=1/GPa)
#
#
# Indices 1 2 3 4 5 6 
#
# 1 0.013160 -0.002747 -0.001042 0.002929 0.001007 -0.007119
# 2 -0.002747 0.013577 -0.002144 -0.001954 -0.003415 -0.007304
# 3 -0.001042 -0.002144 0.014042 0.002043 0.000743 -0.002221
# 4 0.002929 -0.001954 0.002043 0.022928 -0.000918 -0.005631
# 5 0.001007 -0.003415 0.000743 -0.000918 0.023980 0.000244
# 6 -0.007119 -0.007304 -0.002221 -0.005631 0.000244 0.044689
#
#
# Mechanical properties :
#
#
# Convention : Reuss Voigt Hill
#
# Bulk Modulus (GPa) = 34.58433 45.62586 40.10509
# Shear Modulus (GPa) = 32.49270 38.09181 35.29226
#
# Velocity S-wave (km/s) = 3.53869 3.83147 3.68799
# Velocity P-wave (km/s) = 5.47950 6.09568 5.79578
#
# Compressibility (1/GPa) = 0.02891483
#
# Stress axis : x y z
#
# Youngs Moduli (GPa) = 75.98764 73.65164 71.21399
#
# Poissons Ratio (x) = 0.20229 0.07422
# Poissons Ratio (y) = 0.20870 0.15266
# Poissons Ratio (z) = 0.07919 0.15789
#
# Static dielectric constant tensor:
#      x y z
#    x 2.185310 -0.094900 0.072910 
#    y -0.094900 2.090390 -0.055130 
#    z 0.072910 -0.055130 2.086960 
# 
# From -- ./inp_files/280798.got.cif
#   From: 2010.05.17/outbox.cif.g08.bks.cpg/sg2_141_cif.got.tgz:280798.got - 2010.06.03 11:33:40.
