data_PCOD9082264
_publ_section_title
;
Structure prediction by ZEFSAII (Michael W. Deem and Ramdas Pophale) SiO2 
 PCOD9082264
Probable space group: P -1
;
_chemical_formula_sum "Si O2"
_cell_formula_units_Z 14
_cell_length_a 18.757086
_cell_length_b 11.408356
_cell_length_c 8.001293
_cell_angle_alpha 52.524901
_cell_angle_beta 150.543676
_cell_angle_gamma 139.028548
_cell_volume 545.655453
_symmetry_space_group_name_H-M "P -1"
_symmetry_group_IT_number 2
_symmetry_cell_setting 'triclinic'
loop_
_space_group_symop_operation_xyz
x,y,z
-x,-y,-z
loop_
_atom_site_type_symbol
_atom_site_label
_atom_site_fract_x
_atom_site_fract_y
_atom_site_fract_z
Si Si1 0.446635 0.334395 0.336837
Si Si2 0.363639 0.048573 0.126995
Si Si3 0.881219 0.342404 0.522762
Si Si4 0.172978 0.014442 0.274669
Si Si5 0.588680 0.340281 0.107586
Si Si6 0.973319 0.142521 0.247671
Si Si7 0.791553 0.498754 0.718235
O O1 0.379916 0.189965 0.174456
O O2 0.658781 0.435521 0.658815
O O3 0.344128 0.218296 0.397010
O O4 0.417028 0.490498 0.100201
O O5 0.403332 0.151470 0.941607
O O6 0.500000 0.000000 0.500000
O O7 0.165567 0.864445 0.902478
O O8 0.828085 0.150602 0.506233
O O9 0.699782 0.316252 0.220997
O O10 0.000000 0.500000 0.500000
O O11 0.014148 0.429611 0.881186
O O12 0.120906 0.928029 0.059141
O O13 0.000000 0.000000 0.000000
O O14 0.692356 0.369314 0.470498
O O15 0.162284 0.319544 0.434905
O O16 0.000000 0.000000 0.500000
#
# Coordination Sequence:
#
# PCOD9082264 Si02
#       7
#     2   2   2   2   2   2   2
#     4  10  20  36  60  87 113 147 189 236 286 336
#     4  10  19  33  53  81 117 150 182 226 279 333
#     4  11  24  40  58  84 116 153 192 233 282 338
#     4  10  21  40  59  79 114 155 187 228 284 340
#     4  11  20  37  61  87 115 149 188 236 286 338
#     4  10  19  34  57  88 113 142 187 235 280 333
#     4  10  20  36  59  88 115 146 188 236 283 334
#
# _framework density 25.657215999999998
#
# number of rings (size 3 to 8) (size 9 to 14) (size 15 to 20)
#    0.000    1.714    0.000    8.143    0.000    1.143 
#    0.000    8.571    0.000    0.000    0.000    0.000 
#    0.000    0.000    0.000    0.000    0.000    0.000 
#
# Total GULP energy -78050.250115 kJ/mol
# GULP energy per Si atom -5575.017865 kJ/mol
# Density = 2.559882 g / cm^3
# Si number density = 25.657216 Si / 1000 Ang^3
#
#
#
# Elastic Constant Matrix: (Units=GPa)
#
#
# Indices 1 2 3 4 5 6 
#
# 1 115.4303 72.9999 22.3682 -2.2551 41.0654 36.9518
# 2 72.9999 192.6500 28.8263 -9.6596 23.0768 34.4199
# 3 22.3682 28.8263 65.7436 -1.3702 33.5682 -2.2725
# 4 -2.2551 -9.6596 -1.3702 44.1340 1.7981 7.5385
# 5 41.0654 23.0768 33.5682 1.7981 57.5678 13.3989
# 6 36.9518 34.4199 -2.2725 7.5385 13.3989 59.0043
#
#
#
# Elastic Compliance Matrix: (Units=1/GPa)
#
#
# Indices 1 2 3 4 5 6 
#
# 1 0.016204 -0.004045 0.000684 0.001337 -0.009008 -0.005887
# 2 -0.004045 0.007484 -0.003128 0.001700 0.002282 -0.002688
# 3 0.000684 -0.003128 0.023943 -0.000280 -0.014501 0.005647
# 4 0.001337 0.001700 -0.000280 0.023929 -0.001140 -0.004638
# 5 -0.009008 0.002282 -0.014501 -0.001140 0.032166 -0.003407
# 6 -0.005887 -0.002688 0.005647 -0.004638 -0.003407 0.023787
#
#
# Mechanical properties :
#
#
# Convention : Reuss Voigt Hill
#
# Bulk Modulus (GPa) = 28.85694 69.13476 48.99585
# Shear Modulus (GPa) = 32.88620 48.78318 40.83469
#
# Velocity S-wave (km/s) = 3.58404 4.36517 3.99375
# Velocity P-wave (km/s) = 5.32904 7.23950 6.35645
#
# Compressibility (1/GPa) = 0.03465370
#
# Stress axis : x y z
#
# Youngs Moduli (GPa) = 61.71340 133.62519 41.76654
#
# Poissons Ratio (x) = 0.54045 -0.02857
# Poissons Ratio (y) = 0.24960 0.13063
# Poissons Ratio (z) = -0.04221 0.41794
#
# Static dielectric constant tensor:
#      x y z
#    x 3.706130 -1.120270 0.958020 
#    y -1.120270 3.211870 -0.560840 
#    z 0.958020 -0.560840 2.685860 
# 
# From -- ./inp_files/175515.got.cif
#   From: 2010.05.17/outbox.cif.g08.bks.cpg/sg2_88_cif.got.tgz:175515.got - 2010.06.03 11:33:40.
