data_PCOD9082198
_publ_section_title
;
Structure prediction by ZEFSAII (Michael W. Deem and Ramdas Pophale) SiO2 
 PCOD9082198
Probable space group: P -1
;
_chemical_formula_sum "Si O2"
_cell_formula_units_Z 16
_cell_length_a 28.517190
_cell_length_b 8.857843
_cell_length_c 18.115973
_cell_angle_alpha 37.802361
_cell_angle_beta 162.530083
_cell_angle_gamma 148.877819
_cell_volume 699.660709
_symmetry_space_group_name_H-M "P -1"
_symmetry_group_IT_number 2
_symmetry_cell_setting 'triclinic'
loop_
_space_group_symop_operation_xyz
x,y,z
-x,-y,-z
loop_
_atom_site_type_symbol
_atom_site_label
_atom_site_fract_x
_atom_site_fract_y
_atom_site_fract_z
Si Si1 0.386917 0.265660 0.484369
Si Si2 0.878178 0.685452 0.648810
Si Si3 0.535575 0.596100 0.882319
Si Si4 0.961542 0.373421 0.790972
Si Si5 0.275892 0.793312 0.997403
Si Si6 0.703474 0.314123 0.297411
Si Si7 0.986685 0.282565 0.501762
Si Si8 0.344193 0.305925 0.564496
O O1 0.500000 0.500000 0.500000
O O2 0.375867 0.409922 0.487858
O O3 0.177497 0.977443 0.266808
O O4 0.528923 0.159770 0.751958
O O5 0.995749 0.557386 0.845927
O O6 0.837857 0.729409 0.656138
O O7 0.944524 0.987254 0.590137
O O8 0.665774 0.444249 0.396487
O O9 0.528105 0.344558 0.019812
O O10 0.685057 0.924198 0.007472
O O11 0.515443 0.512089 0.797541
O O12 0.834410 0.424046 0.523115
O O13 0.149941 0.509491 0.972394
O O14 0.161410 0.759462 0.765606
O O15 0.819740 0.554010 0.315216
O O16 0.678947 0.010999 0.352192
O O17 0.000000 0.500000 0.500000
#
# Coordination Sequence:
#
# PCOD9082198 Si02
#       8
#     2   2   2   2   2   2   2   2
#     4  11  24  45  69  87 112 155 209 268 314 354
#     4  10  20  34  59  89 129 168 192 244 293 363
#     4  10  20  34  55  90 123 165 197 227 301 362
#     4  10  22  41  60  87 127 158 206 244 301 364
#     4  11  24  40  63  89 125 167 200 245 301 366
#     4  10  19  33  52  86 129 168 197 237 280 363
#     4  11  21  32  54  93 129 166 201 231 285 361
#     4   9  21  35  58  90 118 160 203 254 294 353
#
# _framework density 22.868226
#
# number of rings (size 3 to 8) (size 9 to 14) (size 15 to 20)
#    0.750    1.000    2.500    1.875    5.250    3.500 
#    0.000    2.500    0.000    1.500    0.000    0.000 
#    0.000    0.000    0.000    0.000    0.000    0.000 
#
# Total GULP energy -89233.888893 kJ/mol
# GULP energy per Si atom -5577.118056 kJ/mol
# Density = 2.281618 g / cm^3
# Si number density = 22.868226 Si / 1000 Ang^3
#
#
#
# Elastic Constant Matrix: (Units=GPa)
#
#
# Indices 1 2 3 4 5 6 
#
# 1 154.0308 68.0582 14.9269 9.6638 15.5053 -5.2790
# 2 68.0582 78.3250 11.1868 26.4088 -10.1280 -1.5309
# 3 14.9269 11.1868 36.5076 6.7151 15.6289 -5.7741
# 4 9.6638 26.4088 6.7151 26.2676 2.1116 4.0837
# 5 15.5053 -10.1280 15.6289 2.1116 28.8107 4.7212
# 6 -5.2790 -1.5309 -5.7741 4.0837 4.7212 44.1367
#
#
#
# Elastic Compliance Matrix: (Units=1/GPa)
#
#
# Indices 1 2 3 4 5 6 
#
# 1 0.021160 -0.031515 0.010418 0.023075 -0.030452 0.003923
# 2 -0.031515 0.070682 -0.025139 -0.057008 0.060576 -0.005812
# 3 0.010418 -0.025139 0.049199 0.010742 -0.043638 0.010484
# 4 0.023075 -0.057008 0.010742 0.087912 -0.044535 -0.001182
# 5 -0.030452 0.060576 -0.043638 -0.044535 0.101623 -0.014000
# 6 0.003923 -0.005812 0.010484 -0.001182 -0.014000 0.025903
#
#
# Mechanical properties :
#
#
# Convention : Reuss Voigt Hill
#
# Bulk Modulus (GPa) = 20.58932 50.80078 35.69505
# Shear Modulus (GPa) = 10.74942 31.48910 21.11926
#
# Velocity S-wave (km/s) = 2.17044 3.71479 3.04224
# Velocity P-wave (km/s) = 3.91204 6.37671 5.28992
#
# Compressibility (1/GPa) = 0.04856888
#
# Stress axis : x y z
#
# Youngs Moduli (GPa) = 47.25980 14.14780 20.32561
#
# Poissons Ratio (x) = 0.44587 -0.21175
# Poissons Ratio (y) = 1.48939 0.51097
# Poissons Ratio (z) = -0.49235 0.35566
#
# Static dielectric constant tensor:
#      x y z
#    x 1.880990 0.024770 0.056390 
#    y 0.024770 1.881120 -0.080730 
#    z 0.056390 -0.080730 2.079880 
# 
# From -- ./inp_files/602516.got.cif
#   From: 2010.05.17/outbox.cif.g08.bks.cpg/sg2_302_cif.got.tgz:602516.got - 2010.06.03 11:33:40.
