data_PCOD9082593
_publ_section_title
;
Structure prediction by ZEFSAII (Michael W. Deem and Ramdas Pophale) SiO2 
 PCOD9082593
Probable space group: P -1
;
_chemical_formula_sum "Si O2"
_cell_formula_units_Z 16
_cell_length_a 17.436438
_cell_length_b 17.382896
_cell_length_c 11.677985
_cell_angle_alpha 144.805136
_cell_angle_beta 27.693121
_cell_angle_gamma 146.176636
_cell_volume 868.888222
_symmetry_space_group_name_H-M "P -1"
_symmetry_group_IT_number 2
_symmetry_cell_setting 'triclinic'
loop_
_space_group_symop_operation_xyz
x,y,z
-x,-y,-z
loop_
_atom_site_type_symbol
_atom_site_label
_atom_site_fract_x
_atom_site_fract_y
_atom_site_fract_z
Si Si1 0.451867 0.353962 0.817451
Si Si2 0.227018 0.893102 0.167103
Si Si3 0.816095 0.680326 0.491964
Si Si4 0.382599 0.649662 0.649447
Si Si5 0.132615 0.193279 0.173357
Si Si6 0.590163 0.920201 0.363051
Si Si7 0.283789 0.897941 0.362060
Si Si8 0.435982 0.215168 0.194569
O O1 0.517536 0.364296 0.614656
O O2 0.520643 0.251654 0.679706
O O3 0.500000 0.500000 0.000000
O O4 0.236325 0.270140 0.015021
O O5 0.290068 0.941595 0.273884
O O6 0.011593 0.799699 0.339630
O O7 0.307072 0.043287 0.173839
O O8 0.307709 0.775157 0.884283
O O9 0.774486 0.511055 0.317994
O O10 0.807625 0.705927 0.670363
O O11 0.663014 0.714856 0.672150
O O12 0.513422 0.701784 0.649808
O O13 0.922977 0.150133 0.389034
O O14 0.216036 0.071054 0.929404
O O15 0.500000 0.000000 0.500000
O O16 0.611401 0.982601 0.538572
O O17 0.375814 0.782290 0.100186
#
# Coordination Sequence:
#
# PCOD9082593 Si02
#       8
#     2   2   2   2   2   2   2   2
#     4  10  20  36  59  80 113 149 188 219 273 344
#     4  10  22  37  58  86 111 151 188 236 278 339
#     4  11  21  38  58  86 116 143 190 238 287 327
#     4  11  20  38  60  83 112 152 191 222 285 344
#     4   9  21  34  58  85 107 150 186 228 272 334
#     4  10  19  33  56  84 110 143 183 230 278 320
#     4  10  19  36  57  84 112 143 193 226 275 338
#     4  11  22  36  60  85 115 147 184 243 285 326
#
# _framework density 18.414335999999999
#
# number of rings (size 3 to 8) (size 9 to 14) (size 15 to 20)
#    0.750    1.000    1.250    5.250    0.000    0.000 
#    0.000    0.000    0.000    1.500    0.000    0.000 
#    0.000    0.000    0.000    0.000    0.000    0.000 
#
# Total GULP energy -89084.562190 kJ/mol
# GULP energy per Si atom -5567.785137 kJ/mol
# Density = 1.837242 g / cm^3
# Si number density = 18.414336 Si / 1000 Ang^3
#
#
#
# Elastic Constant Matrix: (Units=GPa)
#
#
# Indices 1 2 3 4 5 6 
#
# 1 62.0104 35.7894 38.7075 11.9953 -10.4415 12.3726
# 2 35.7894 79.5058 42.3829 11.4708 -1.4845 -0.0298
# 3 38.7075 42.3829 105.0640 0.8250 3.5140 10.4246
# 4 11.9953 11.4708 0.8250 40.7435 5.3485 -0.4870
# 5 -10.4415 -1.4845 3.5140 5.3485 25.1870 2.4678
# 6 12.3726 -0.0298 10.4246 -0.4870 2.4678 12.8237
#
#
#
# Elastic Compliance Matrix: (Units=1/GPa)
#
#
# Indices 1 2 3 4 5 6 
#
# 1 0.043021 -0.013305 -0.007147 -0.012509 0.024717 -0.040960
# 2 -0.013305 0.021533 -0.005414 -0.001158 -0.005030 0.018212
# 3 -0.007147 -0.005414 0.014890 0.004045 -0.005832 -0.003946
# 4 -0.012509 -0.001158 0.004045 0.030393 -0.013500 0.012530
# 5 0.024717 -0.005030 -0.005832 -0.013500 0.056319 -0.030469
# 6 -0.040960 0.018212 -0.003946 0.012530 -0.030469 0.127088
#
#
# Mechanical properties :
#
#
# Convention : Reuss Voigt Hill
#
# Bulk Modulus (GPa) = 36.08606 53.37109 44.72858
# Shear Modulus (GPa) = 14.11580 24.39755 19.25668
#
# Velocity S-wave (km/s) = 2.77170 3.64390 3.23730
# Velocity P-wave (km/s) = 5.46647 6.83742 6.19002
#
# Compressibility (1/GPa) = 0.02771153
#
# Stress axis : x y z
#
# Youngs Moduli (GPa) = 23.24470 46.44003 67.15927
#
# Poissons Ratio (x) = 0.61788 0.47997
# Poissons Ratio (y) = 0.30927 0.36363
# Poissons Ratio (z) = 0.16612 0.25145
#
# Static dielectric constant tensor:
#      x y z
#    x 1.606930 0.012000 -0.001980 
#    y 0.012000 1.736050 0.000250 
#    z -0.001980 0.000250 1.665250 
# 
# From -- ./inp_files/347123.got.cif
#   From: 2010.05.17/outbox.cif.g08.bks.cpg/sg2_174_cif.got.tgz:347123.got - 2010.06.03 11:33:40.
