data_PCOD9082871
_publ_section_title
;
Structure prediction by ZEFSAII (Michael W. Deem and Ramdas Pophale) SiO2 
 PCOD9082871
Probable space group: P -1
;
_chemical_formula_sum "Si O2"
_cell_formula_units_Z 16
_cell_length_a 9.682947
_cell_length_b 17.883101
_cell_length_c 10.101814
_cell_angle_alpha 26.003821
_cell_angle_beta 66.234255
_cell_angle_gamma 75.393942
_cell_volume 674.983231
_symmetry_space_group_name_H-M "P -1"
_symmetry_group_IT_number 2
_symmetry_cell_setting 'triclinic'
loop_
_space_group_symop_operation_xyz
x,y,z
-x,-y,-z
loop_
_atom_site_type_symbol
_atom_site_label
_atom_site_fract_x
_atom_site_fract_y
_atom_site_fract_z
Si Si1 0.094825 0.792262 0.258374
Si Si2 0.267720 0.555253 0.420941
Si Si3 0.545411 0.202435 0.594298
Si Si4 0.779904 0.831566 0.307310
Si Si5 0.853423 0.863944 0.638750
Si Si6 0.416491 0.443517 0.810103
Si Si7 0.115939 0.178660 0.006987
Si Si8 0.891544 0.309945 0.292854
O O1 0.182203 0.696281 0.278252
O O2 0.154935 0.776535 0.407731
O O3 0.905118 0.716058 0.457699
O O4 0.143635 0.003511 0.889497
O O5 0.339417 0.487629 0.632759
O O6 0.420744 0.605914 0.190076
O O7 0.144849 0.387800 0.670493
O O8 0.405233 0.213722 0.531521
O O9 0.553431 0.370864 0.420280
O O10 0.720114 0.264727 0.364957
O O11 0.500000 0.000000 0.000000
O O12 0.799761 0.865994 0.085091
O O13 0.818103 0.867295 0.804267
O O14 0.995350 0.772860 0.705930
O O15 0.936037 0.065884 0.248182
O O16 0.713280 0.736638 0.812221
O O17 0.000000 0.500000 0.000000
#
# Coordination Sequence:
#
# PCOD9082871 Si02
#       8
#     2   2   2   2   2   2   2   2
#     4  11  23  41  62  89 127 164 197 251 315 365
#     4  10  19  35  58  88 114 156 199 254 295 350
#     4  12  20  36  62  94 117 157 213 258 289 353
#     4  11  23  40  63  91 123 161 205 252 308 357
#     4  10  20  34  56  89 121 158 191 253 307 351
#     4  10  19  33  58  88 122 149 201 254 303 340
#     4  10  19  36  58  85 116 152 202 244 294 357
#     4  12  21  37  63  90 121 159 203 247 304 362
#
# _framework density 23.704291000000001
#
# number of rings (size 3 to 8) (size 9 to 14) (size 15 to 20)
#    0.000    1.250    6.250    0.750    0.000    0.500 
#    4.500    0.625    0.000    0.750    0.000    0.000 
#    0.000    0.000    0.000    0.000    0.000    0.000 
#
# Total GULP energy -89142.988772 kJ/mol
# GULP energy per Si atom -5571.436798 kJ/mol
# Density = 2.365034 g / cm^3
# Si number density = 23.704291 Si / 1000 Ang^3
#
#
#
# Elastic Constant Matrix: (Units=GPa)
#
#
# Indices 1 2 3 4 5 6 
#
# 1 116.8876 33.6825 39.0014 -8.3118 -31.8419 -21.1813
# 2 33.6825 115.7109 42.2842 -34.3775 -4.4283 -17.3100
# 3 39.0014 42.2842 108.3783 -27.5224 -44.8201 -10.7998
# 4 -8.3118 -34.3775 -27.5224 38.5287 6.8635 -4.0794
# 5 -31.8419 -4.4283 -44.8201 6.8635 35.1362 1.1401
# 6 -21.1813 -17.3100 -10.7998 -4.0794 1.1401 46.9096
#
#
#
# Elastic Compliance Matrix: (Units=1/GPa)
#
#
# Indices 1 2 3 4 5 6 
#
# 1 0.014113 -0.004318 0.004419 -0.000249 0.017757 0.005343
# 2 -0.004318 0.015607 -0.006680 0.010859 -0.012702 0.003525
# 3 0.004419 -0.006680 0.029094 0.009622 0.038197 0.006137
# 4 -0.000249 0.010859 0.009622 0.042640 0.004772 0.009702
# 5 0.017757 -0.012702 0.038197 0.004772 0.090409 0.010342
# 6 0.005343 0.003525 0.006137 0.009702 0.010342 0.027036
#
#
# Mechanical properties :
#
#
# Convention : Reuss Voigt Hill
#
# Bulk Modulus (GPa) = 21.90266 63.43479 42.66872
# Shear Modulus (GPa) = 20.22027 39.18215 29.70121
#
# Velocity S-wave (km/s) = 2.92382 4.07007 3.54360
# Velocity P-wave (km/s) = 4.54514 6.99330 5.89765
#
# Compressibility (1/GPa) = 0.04565655
#
# Stress axis : x y z
#
# Youngs Moduli (GPa) = 70.85636 64.07216 34.37099
#
# Poissons Ratio (x) = 0.27667 -0.15188
# Poissons Ratio (y) = 0.30597 0.22959
# Poissons Ratio (z) = -0.31309 0.42798
#
# Static dielectric constant tensor:
#      x y z
#    x 1.961660 -0.007850 0.011700 
#    y -0.007850 1.879900 0.047210 
#    z 0.011700 0.047210 2.028760 
# 
# From -- ./inp_files/401641.got.cif
#   From: 2010.05.17/outbox.cif.g08.bks.cpg/sg2_201_cif.got.tgz:401641.got - 2010.06.03 11:33:40.
