data_PCOD9082682
_publ_section_title
;
Structure prediction by ZEFSAII (Michael W. Deem and Ramdas Pophale) SiO2 
 PCOD9082682
Probable space group: P -1
;
_chemical_formula_sum "Si O2"
_cell_formula_units_Z 12
_cell_length_a 6.465303
_cell_length_b 10.104390
_cell_length_c 8.023435
_cell_angle_alpha 126.425718
_cell_angle_beta 86.546442
_cell_angle_gamma 85.412094
_cell_volume 416.587765
_symmetry_space_group_name_H-M "P -1"
_symmetry_group_IT_number 2
_symmetry_cell_setting 'triclinic'
loop_
_space_group_symop_operation_xyz
x,y,z
-x,-y,-z
loop_
_atom_site_type_symbol
_atom_site_label
_atom_site_fract_x
_atom_site_fract_y
_atom_site_fract_z
Si Si1 0.929968 0.543650 0.264168
Si Si2 0.748762 0.713498 0.066177
Si Si3 0.581137 0.173962 0.602251
Si Si4 0.087442 0.937589 0.726119
Si Si5 0.626858 0.335277 0.272268
Si Si6 0.290942 0.206188 0.320080
O O1 0.875916 0.659791 0.194030
O O2 0.763317 0.413660 0.187062
O O3 0.891199 0.645854 0.512855
O O4 0.161124 0.445070 0.166565
O O5 0.512509 0.726288 0.158440
O O6 0.829225 0.885262 0.135925
O O7 0.822410 0.140160 0.513930
O O8 0.454233 0.224391 0.475428
O O9 0.500000 0.000000 0.500000
O O10 0.203432 0.805289 0.753556
O O11 0.838309 0.946606 0.769493
O O12 0.500000 0.500000 0.500000
O O13 0.432793 0.230014 0.171415
#
# Coordination Sequence:
#
# PCOD9082682 Si02
#       6
#     2   2   2   2   2   2
#     4   9  18  33  52  74 107 139 165 208 264 309
#     4   9  18  33  52  76 105 137 168 209 262 308
#     4   8  16  30  50  75 103 130 164 209 253 297
#     4  10  19  33  57  80  99 132 179 218 252 302
#     4   9  19  35  54  76 104 136 172 215 259 305
#     4   9  18  33  55  78 100 134 176 214 253 304
#
# _framework density 28.805453
#
# number of rings (size 3 to 8) (size 9 to 14) (size 15 to 20)
#    0.000    3.000    0.000    1.000    0.000    9.333 
#    0.000    1.667    0.000   26.000    0.000    0.000 
#    0.000    0.000    0.000    0.000    0.000    0.000 
#
# Total GULP energy -67011.453012 kJ/mol
# GULP energy per Si atom -5584.287751 kJ/mol
# Density = 2.873989 g / cm^3
# Si number density = 28.805453 Si / 1000 Ang^3
#
#
#
# Elastic Constant Matrix: (Units=GPa)
#
#
# Indices 1 2 3 4 5 6 
#
# 1 121.0948 25.0458 31.2391 -1.0804 2.7197 36.2210
# 2 25.0458 174.4859 -2.0420 26.5911 11.2102 10.9780
# 3 31.2391 -2.0420 99.8069 -6.4736 -21.0356 13.0448
# 4 -1.0804 26.5911 -6.4736 30.7252 11.4660 -13.7469
# 5 2.7197 11.2102 -21.0356 11.4660 45.4759 1.6164
# 6 36.2210 10.9780 13.0448 -13.7469 1.6164 50.8248
#
#
#
# Elastic Compliance Matrix: (Units=1/GPa)
#
#
# Indices 1 2 3 4 5 6 
#
# 1 0.011581 -0.000684 -0.002950 -0.002931 -0.000861 -0.008113
# 2 -0.000684 0.007206 0.000401 -0.007866 0.000551 -0.003317
# 3 -0.002950 0.000401 0.012382 -0.000810 0.006065 -0.001574
# 4 -0.002931 -0.007866 -0.000810 0.051768 -0.011966 0.018378
# 5 -0.000861 0.000551 0.006065 -0.011966 0.027912 -0.005186
# 6 -0.008113 -0.003317 -0.001574 0.018378 -0.005186 0.031714
#
#
# Mechanical properties :
#
#
# Convention : Reuss Voigt Hill
#
# Bulk Modulus (GPa) = 40.48108 55.98595 48.23352
# Shear Modulus (GPa) = 31.79370 48.14816 39.97093
#
# Velocity S-wave (km/s) = 3.32586 4.09283 3.72911
# Velocity P-wave (km/s) = 5.36957 6.46630 5.94329
#
# Compressibility (1/GPa) = 0.02470290
#
# Stress axis : x y z
#
# Youngs Moduli (GPa) = 86.35184 138.77315 80.75947
#
# Poissons Ratio (x) = 0.09497 0.23822
# Poissons Ratio (y) = 0.05910 -0.03240
# Poissons Ratio (z) = 0.25472 -0.05567
#
# Static dielectric constant tensor:
#      x y z
#    x 2.310110 -0.043880 0.027740 
#    y -0.043880 2.496610 -0.149750 
#    z 0.027740 -0.149750 2.429080 
# 
# From -- ./inp_files/50621.got.cif
#   From: 2010.05.17/outbox.cif.g08.bks.cpg/sg2_26_cif.got.tgz:50621.got - 2010.06.03 11:33:40.
