data_PCOD9082743
_publ_section_title
;
Structure prediction by ZEFSAII (Michael W. Deem and Ramdas Pophale) SiO2 
 PCOD9082743
Probable space group: P -1
;
_chemical_formula_sum "Si O2"
_cell_formula_units_Z 16
_cell_length_a 9.076772
_cell_length_b 15.393596
_cell_length_c 12.918735
_cell_angle_alpha 41.341385
_cell_angle_beta 36.308981
_cell_angle_gamma 37.844078
_cell_volume 622.371724
_symmetry_space_group_name_H-M "P -1"
_symmetry_group_IT_number 2
_symmetry_cell_setting 'triclinic'
loop_
_space_group_symop_operation_xyz
x,y,z
-x,-y,-z
loop_
_atom_site_type_symbol
_atom_site_label
_atom_site_fract_x
_atom_site_fract_y
_atom_site_fract_z
Si Si1 0.861909 0.142083 0.323436
Si Si2 0.210420 0.557147 0.369750
Si Si3 0.412181 0.157191 0.962613
Si Si4 0.438579 0.871165 0.693727
Si Si5 0.742876 0.172309 0.959072
Si Si6 0.042198 0.597963 0.649660
Si Si7 0.726573 0.208116 0.561278
Si Si8 0.357622 0.489116 0.983525
O O1 0.726532 0.171809 0.260214
O O2 0.661726 0.193532 0.491587
O O3 0.027097 0.960325 0.401670
O O4 0.096452 0.200490 0.141288
O O5 0.000000 0.500000 0.500000
O O6 0.243421 0.540713 0.487933
O O7 0.093525 0.733394 0.247811
O O8 0.506512 0.460649 0.229198
O O9 0.496565 0.239981 0.751801
O O10 0.617016 0.133778 0.964717
O O11 0.500000 0.000000 0.000000
O O12 0.227694 0.928366 0.865159
O O13 0.753065 0.731922 0.646758
O O14 0.500000 0.000000 0.500000
O O15 0.477110 0.319573 0.026773
O O16 0.958247 0.474933 0.848343
O O17 0.153816 0.675553 0.597521
O O18 0.500000 0.500000 0.000000
#
# Coordination Sequence:
#
# PCOD9082743 Si02
#       8
#     2   2   2   2   2   2   2   2
#     4  10  21  34  50  75 111 150 191 220 260 332
#     4  10  19  33  57  87 109 137 184 247 296 320
#     4  10  20  35  53  77 109 148 189 235 266 319
#     4  11  22  35  53  80 119 164 181 218 285 336
#     4   9  20  35  54  83 115 138 190 230 276 334
#     4  11  18  34  55  80 115 139 185 232 278 333
#     4  10  19  34  55  74 104 152 190 230 261 313
#     4   9  17  29  52  82 108 133 175 236 291 324
#
# _framework density 25.708107999999999
#
# number of rings (size 3 to 8) (size 9 to 14) (size 15 to 20)
#    0.750    1.250    3.750    1.500    3.500    0.000 
#    2.250    3.125    0.000    0.000    0.000   33.250 
#    0.000    0.000    0.000    0.000    0.000    0.000 
#
# Total GULP energy -89245.262070 kJ/mol
# GULP energy per Si atom -5577.828879 kJ/mol
# Density = 2.564960 g / cm^3
# Si number density = 25.708108 Si / 1000 Ang^3
#
#
#
# Elastic Constant Matrix: (Units=GPa)
#
#
# Indices 1 2 3 4 5 6 
#
# 1 211.4644 100.4561 99.9450 29.5013 19.8887 18.9506
# 2 100.4561 77.6751 44.7781 13.7568 18.0267 7.6438
# 3 99.9450 44.7781 209.5313 20.2455 12.9805 19.6393
# 4 29.5013 13.7568 20.2455 56.0603 25.5100 -0.0114
# 5 19.8887 18.0267 12.9805 25.5100 56.2217 -0.9969
# 6 18.9506 7.6438 19.6393 -0.0114 -0.9969 53.7355
#
#
#
# Elastic Compliance Matrix: (Units=1/GPa)
#
#
# Indices 1 2 3 4 5 6 
#
# 1 0.014617 -0.016972 -0.003006 -0.003615 0.002577 -0.001595
# 2 -0.016972 0.035478 0.000581 0.003171 -0.006934 0.000599
# 3 -0.003006 0.000581 0.006292 -0.000706 -0.000279 -0.001327
# 4 -0.003615 0.003171 -0.000706 0.023965 -0.010433 0.000893
# 5 0.002577 -0.006934 -0.000279 -0.010433 0.023907 0.000621
# 6 -0.001595 0.000599 -0.001327 0.000893 0.000621 0.019584
#
#
# Mechanical properties :
#
#
# Convention : Reuss Voigt Hill
#
# Bulk Modulus (GPa) = 56.84286 109.89212 83.36749
# Shear Modulus (GPa) = 29.67325 50.10296 39.88810
#
# Velocity S-wave (km/s) = 3.40109 4.41944 3.94328
# Velocity P-wave (km/s) = 6.13042 8.29945 7.29599
#
# Compressibility (1/GPa) = 0.01759236
#
# Stress axis : x y z
#
# Youngs Moduli (GPa) = 68.41284 28.18676 158.92495
#
# Poissons Ratio (x) = 0.47839 0.47775
# Poissons Ratio (y) = 1.16111 -0.09231
# Poissons Ratio (z) = 0.20566 -0.01637
#
# Static dielectric constant tensor:
#      x y z
#    x 1.928220 -0.050640 0.018760 
#    y -0.050640 2.122870 -0.002810 
#    z 0.018760 -0.002810 2.226440 
# 
# From -- ./inp_files/396147.got.cif
#   From: 2010.05.17/outbox.cif.g08.bks.cpg/sg2_199_cif.got.tgz:396147.got - 2010.06.03 11:33:40.
