data_PCOD9082555
_publ_section_title
;
Structure prediction by ZEFSAII (Michael W. Deem and Ramdas Pophale) SiO2 
 PCOD9082555
Probable space group: P -1
;
_chemical_formula_sum "Si O2"
_cell_formula_units_Z 16
_cell_length_a 9.853201
_cell_length_b 18.708569
_cell_length_c 10.338271
_cell_angle_alpha 134.318655
_cell_angle_beta 135.556014
_cell_angle_gamma 84.264036
_cell_volume 577.729632
_symmetry_space_group_name_H-M "P -1"
_symmetry_group_IT_number 2
_symmetry_cell_setting 'triclinic'
loop_
_space_group_symop_operation_xyz
x,y,z
-x,-y,-z
loop_
_atom_site_type_symbol
_atom_site_label
_atom_site_fract_x
_atom_site_fract_y
_atom_site_fract_z
Si Si1 0.342920 0.113122 0.438265
Si Si2 0.631608 0.669612 0.677918
Si Si3 0.994667 0.275401 0.802376
Si Si4 0.680434 0.408254 0.884413
Si Si5 0.781038 0.763580 0.308491
Si Si6 0.748938 0.138496 0.032731
Si Si7 0.626863 0.235245 0.291857
Si Si8 0.149727 0.452447 0.560560
O O1 0.611626 0.273377 0.730835
O O2 0.309260 0.161825 0.611920
O O3 0.381080 0.012187 0.316372
O O4 0.000000 0.000000 0.000000
O O5 0.594566 0.676373 0.509661
O O6 0.610522 0.770920 0.855988
O O7 0.937819 0.735908 0.021905
O O8 0.300465 0.475313 0.242549
O O9 0.028727 0.188412 0.628686
O O10 0.700918 0.210877 0.449137
O O11 0.672000 0.472942 0.085809
O O12 0.029662 0.571456 0.268652
O O13 0.981127 0.794222 0.598916
O O14 0.441065 0.567461 0.806178
O O15 0.558421 0.131012 0.995895
O O16 0.883481 0.262920 0.166907
O O17 0.000000 0.500000 0.500000
#
# Coordination Sequence:
#
# PCOD9082555 Si02
#       8
#     2   2   2   2   2   2   2   2
#     4   9  18  34  57  77 107 149 181 222 276 337
#     4  10  19  33  56  81 116 142 182 237 279 323
#     4   9  18  30  53  86 105 144 182 221 285 328
#     4   9  18  33  52  79 109 139 180 225 274 322
#     4   9  18  33  53  79 112 134 181 230 269 332
#     4   9  18  33  55  79 104 148 180 217 285 330
#     4   9  18  34  56  82 116 139 183 239 273 325
#     4  10  20  32  53  82 107 138 178 233 276 327
#
# _framework density 27.694618999999999
#
# number of rings (size 3 to 8) (size 9 to 14) (size 15 to 20)
#    0.000    2.750    0.000    2.625    3.500    5.000 
#    0.000    3.125    0.000    6.750    0.000    0.000 
#    0.000    0.000    0.000    0.000    0.000    0.000 
#
# Total GULP energy -89444.270467 kJ/mol
# GULP energy per Si atom -5590.266904 kJ/mol
# Density = 2.763158 g / cm^3
# Si number density = 27.694619 Si / 1000 Ang^3
#
#
#
# Elastic Constant Matrix: (Units=GPa)
#
#
# Indices 1 2 3 4 5 6 
#
# 1 102.0004 43.4883 31.8370 7.6508 -23.0593 -27.6761
# 2 43.4883 172.4669 56.0742 1.5028 -20.9242 -17.1783
# 3 31.8370 56.0742 96.5629 13.9205 -27.2827 -8.8260
# 4 7.6508 1.5028 13.9205 49.0787 -11.7040 -9.8373
# 5 -23.0593 -20.9242 -27.2827 -11.7040 44.0285 7.7407
# 6 -27.6761 -17.1783 -8.8260 -9.8373 7.7407 37.5271
#
#
#
# Elastic Compliance Matrix: (Units=1/GPa)
#
#
# Indices 1 2 3 4 5 6 
#
# 1 0.014379 -0.001598 -0.001954 0.001160 0.004317 0.008827
# 2 -0.001598 0.007677 -0.003847 0.001582 0.000543 0.001734
# 3 -0.001954 -0.003847 0.015215 -0.002755 0.006128 -0.001609
# 4 0.001160 0.001582 -0.002755 0.023279 0.004778 0.006049
# 5 0.004317 0.000543 0.006128 0.004778 0.030322 -0.000128
# 6 0.008827 0.001734 -0.001609 0.006049 -0.000128 0.035185
#
#
# Mechanical properties :
#
#
# Convention : Reuss Voigt Hill
#
# Bulk Modulus (GPa) = 44.49570 70.42546 57.46058
# Shear Modulus (GPa) = 33.70519 42.10222 37.90371
#
# Velocity S-wave (km/s) = 3.49238 3.90324 3.70351
# Velocity P-wave (km/s) = 5.68891 6.76744 6.25148
#
# Compressibility (1/GPa) = 0.02247408
#
# Stress axis : x y z
#
# Youngs Moduli (GPa) = 69.54611 130.26361 65.72278
#
# Poissons Ratio (x) = 0.20811 0.12840
# Poissons Ratio (y) = 0.11111 0.25285
# Poissons Ratio (z) = 0.13587 0.50116
#
# Static dielectric constant tensor:
#      x y z
#    x 2.198120 0.032480 0.003600 
#    y 0.032480 2.157610 0.062420 
#    z 0.003600 0.062420 2.204470 
# 
# From -- ./inp_files/437035.got.cif
#   From: 2010.05.17/outbox.cif.g08.bks.cpg/sg2_219_cif.got.tgz:437035.got - 2010.06.03 11:33:40.
