data_PCOD9082700
_publ_section_title
;
Structure prediction by ZEFSAII (Michael W. Deem and Ramdas Pophale) SiO2 
 PCOD9082700
Probable space group: P -1
;
_chemical_formula_sum "Si O2"
_cell_formula_units_Z 16
_cell_length_a 11.465821
_cell_length_b 8.128339
_cell_length_c 21.605390
_cell_angle_alpha 41.224251
_cell_angle_beta 147.019112
_cell_angle_gamma 141.337996
_cell_volume 656.248463
_symmetry_space_group_name_H-M "P -1"
_symmetry_group_IT_number 2
_symmetry_cell_setting 'triclinic'
loop_
_space_group_symop_operation_xyz
x,y,z
-x,-y,-z
loop_
_atom_site_type_symbol
_atom_site_label
_atom_site_fract_x
_atom_site_fract_y
_atom_site_fract_z
Si Si1 0.772409 0.779081 0.043515
Si Si2 0.140330 0.131868 0.801052
Si Si3 0.882535 0.819922 0.582823
Si Si4 0.181457 0.720887 0.843080
Si Si5 0.578066 0.829580 0.633100
Si Si6 0.827688 0.350862 0.407730
Si Si7 0.470546 0.452926 0.589902
Si Si8 0.233082 0.833864 0.171977
O O1 0.685246 0.465608 0.067287
O O2 0.760407 0.826187 0.097386
O O3 0.060149 0.897716 0.123454
O O4 0.697088 0.962231 0.911997
O O5 0.170707 0.421703 0.703647
O O6 0.857592 0.955826 0.727016
O O7 0.252012 0.973603 0.850319
O O8 0.679356 0.706233 0.577293
O O9 0.763615 0.604782 0.536157
O O10 0.103578 0.812467 0.718093
O O11 0.909270 0.115731 0.490616
O O12 0.948213 0.478299 0.838829
O O13 0.436770 0.800132 0.640945
O O14 0.474279 0.528600 0.641010
O O15 0.500000 0.000000 0.500000
O O16 0.000000 0.500000 0.500000
O O17 0.547701 0.202286 0.690373
#
# Coordination Sequence:
#
# PCOD9082700 Si02
#       8
#     2   2   2   2   2   2   2   2
#     4   9  20  35  62  88 117 162 204 251 309 343
#     4  12  23  39  61  90 126 160 199 254 297 362
#     4  10  19  33  57  82 125 155 188 254 296 356
#     4   9  17  36  55  88 121 148 206 246 290 368
#     4  12  21  36  60  84 122 169 193 240 313 350
#     4  12  23  38  54  90 131 155 203 246 290 378
#     4  10  19  35  58  87 120 157 202 251 297 365
#     4   8  17  38  56  92 117 148 219 252 283 370
#
# _framework density 24.38101
#
# number of rings (size 3 to 8) (size 9 to 14) (size 15 to 20)
#    0.750    1.000    6.250    0.000    3.500    0.500 
#    2.250    1.250    0.000    1.500    0.000    0.000 
#    0.000    0.000    0.000    0.000    0.000    0.000 
#
# Total GULP energy -89380.880279 kJ/mol
# GULP energy per Si atom -5586.305017 kJ/mol
# Density = 2.432552 g / cm^3
# Si number density = 24.381010 Si / 1000 Ang^3
#
#
#
# Elastic Constant Matrix: (Units=GPa)
#
#
# Indices 1 2 3 4 5 6 
#
# 1 78.6539 23.7261 42.6589 -2.6169 2.0996 -5.3208
# 2 23.7261 77.3568 47.9936 -5.7212 -1.1919 -10.8948
# 3 42.6589 47.9936 100.3495 -11.4347 -5.9768 -18.1939
# 4 -2.6169 -5.7212 -11.4347 49.3438 -0.2266 -4.3282
# 5 2.0996 -1.1919 -5.9768 -0.2266 28.7205 -2.7421
# 6 -5.3208 -10.8948 -18.1939 -4.3282 -2.7421 32.7571
#
#
#
# Elastic Compliance Matrix: (Units=1/GPa)
#
#
# Indices 1 2 3 4 5 6 
#
# 1 0.016939 -0.001032 -0.007398 -0.001134 -0.003031 -0.002105
# 2 -0.001032 0.018526 -0.008166 0.000324 -0.000715 0.001441
# 3 -0.007398 -0.008166 0.019122 0.003783 0.004938 0.007616
# 4 -0.001134 0.000324 0.003783 0.021566 0.001531 0.005002
# 5 -0.003031 -0.000715 0.004938 0.001531 0.036554 0.005275
# 6 -0.002105 0.001441 0.007616 0.005002 0.005275 0.035998
#
#
# Mechanical properties :
#
#
# Convention : Reuss Voigt Hill
#
# Bulk Modulus (GPa) = 46.74316 53.90193 50.32255
# Shear Modulus (GPa) = 26.45120 31.62973 29.04047
#
# Velocity S-wave (km/s) = 3.29737 3.60573 3.45499
# Velocity P-wave (km/s) = 5.80607 6.28420 6.04986
#
# Compressibility (1/GPa) = 0.02139350
#
# Stress axis : x y z
#
# Youngs Moduli (GPa) = 59.03647 53.97865 52.29671
#
# Poissons Ratio (x) = 0.05572 0.38691
# Poissons Ratio (y) = 0.06094 0.42704
# Poissons Ratio (z) = 0.43678 0.44078
#
# Static dielectric constant tensor:
#      x y z
#    x 2.027850 0.003900 0.082990 
#    y 0.003900 2.002260 0.001360 
#    z 0.082990 0.001360 1.888540 
# 
# From -- ./inp_files/593981.got.cif
#   From: 2010.05.17/outbox.cif.g08.bks.cpg/sg2_297_cif.got.tgz:593981.got - 2010.06.03 11:33:40.
