data_PCOD9082867
_publ_section_title
;
Structure prediction by ZEFSAII (Michael W. Deem and Ramdas Pophale) SiO2 
 PCOD9082867
Probable space group: P -1
;
_chemical_formula_sum "Si O2"
_cell_formula_units_Z 16
_cell_length_a 11.649672
_cell_length_b 9.645955
_cell_length_c 15.667130
_cell_angle_alpha 121.823197
_cell_angle_beta 144.876525
_cell_angle_gamma 81.720403
_cell_volume 696.359345
_symmetry_space_group_name_H-M "P -1"
_symmetry_group_IT_number 2
_symmetry_cell_setting 'triclinic'
loop_
_space_group_symop_operation_xyz
x,y,z
-x,-y,-z
loop_
_atom_site_type_symbol
_atom_site_label
_atom_site_fract_x
_atom_site_fract_y
_atom_site_fract_z
Si Si1 0.789301 0.503545 0.493502
Si Si2 0.958943 0.183855 0.760081
Si Si3 0.248505 0.096451 0.781369
Si Si4 0.233816 0.316000 0.689074
Si Si5 0.464947 0.782955 0.278421
Si Si6 0.002349 0.441315 0.173964
Si Si7 0.277524 0.712298 0.783730
Si Si8 0.281748 0.452037 0.190628
O O1 0.904671 0.517519 0.659875
O O2 0.705667 0.323307 0.317391
O O3 0.548046 0.495592 0.360022
O O4 0.029571 0.690243 0.649884
O O5 0.006476 0.375877 0.802580
O O6 0.119326 0.125349 0.790577
O O7 0.674274 0.001664 0.513308
O O8 0.071397 0.254397 0.945775
O O9 0.320095 0.273671 0.815951
O O10 0.481535 0.113333 0.964614
O O11 0.048933 0.881294 0.549149
O O12 0.392069 0.297605 0.707279
O O13 0.247447 0.514126 0.743581
O O14 0.313624 0.637572 0.218879
O O15 0.270719 0.756227 0.081521
O O16 0.193513 0.440708 0.228594
#
# Coordination Sequence:
#
# PCOD9082867 Si02
#       8
#     2   2   2   2   2   2   2   2
#     4  11  23  39  59  86 116 160 190 228 291 338
#     4  10  20  38  62  88 114 146 195 241 287 338
#     4  10  19  33  58  88 115 145 185 237 288 337
#     4  10  19  33  58  88 115 145 185 237 288 337
#     4  10  20  38  62  88 114 146 195 241 287 338
#     4  11  23  38  60  85 118 152 192 239 281 341
#     4  11  20  38  60  79 119 151 188 231 278 351
#     4  11  22  41  59  82 118 153 195 238 284 335
#
# _framework density 22.976642999999999
#
# number of rings (size 3 to 8) (size 9 to 14) (size 15 to 20)
#    0.000    1.500    2.500    4.500    0.000    2.000 
#    0.000    6.250    0.000    3.000    0.000    0.000 
#    0.000    0.000    0.000    0.000    0.000    0.000 
#
# Total GULP energy -89441.959626 kJ/mol
# GULP energy per Si atom -5590.122477 kJ/mol
# Density = 2.292435 g / cm^3
# Si number density = 22.976643 Si / 1000 Ang^3
#
#
#
# Elastic Constant Matrix: (Units=GPa)
#
#
# Indices 1 2 3 4 5 6 
#
# 1 100.5799 15.0216 42.4118 -22.7333 -3.7860 2.1282
# 2 15.0216 59.7355 20.0009 -20.9437 -12.4973 3.9292
# 3 42.4118 20.0009 186.2084 -27.8587 1.1851 5.8646
# 4 -22.7333 -20.9437 -27.8587 37.9089 0.2759 0.4586
# 5 -3.7860 -12.4973 1.1851 0.2759 39.4181 -16.0212
# 6 2.1282 3.9292 5.8646 0.4586 -16.0212 31.3058
#
#
#
# Elastic Compliance Matrix: (Units=1/GPa)
#
#
# Indices 1 2 3 4 5 6 
#
# 1 0.012110 -0.000147 -0.001886 0.005786 0.001155 0.000055
# 2 -0.000147 0.022677 -0.000707 0.011855 0.007505 0.000964
# 3 -0.001886 -0.000707 0.006421 0.003227 -0.001314 -0.001706
# 4 0.005786 0.011855 0.003227 0.038761 0.003415 -0.001306
# 5 0.001155 0.007505 -0.001314 0.003415 0.034773 0.016971
# 6 0.000055 0.000964 -0.001706 -0.001306 0.016971 0.040842
#
#
# Mechanical properties :
#
#
# Convention : Reuss Voigt Hill
#
# Bulk Modulus (GPa) = 27.98945 55.71027 41.84986
# Shear Modulus (GPa) = 28.90641 39.66588 34.28614
#
# Velocity S-wave (km/s) = 3.55079 4.15945 3.86711
# Velocity P-wave (km/s) = 5.38692 6.88238 6.18005
#
# Compressibility (1/GPa) = 0.03572775
#
# Stress axis : x y z
#
# Youngs Moduli (GPa) = 82.57966 44.09696 155.74665
#
# Poissons Ratio (x) = 0.00649 0.29371
# Poissons Ratio (y) = 0.01216 0.11008
# Poissons Ratio (z) = 0.15573 0.03117
#
# Static dielectric constant tensor:
#      x y z
#    x 1.850840 0.013380 0.019850 
#    y 0.013380 1.902260 0.005320 
#    z 0.019850 0.005320 1.943090 
# 
# From -- ./inp_files/434304.got.cif
#   From: 2010.05.17/outbox.cif.g08.bks.cpg/sg2_218_cif.got.tgz:434304.got - 2010.06.03 11:33:40.
