data_PCOD9082854
_publ_section_title
;
Structure prediction by ZEFSAII (Michael W. Deem and Ramdas Pophale) SiO2 
 PCOD9082854
Probable space group: P -1
;
_chemical_formula_sum "Si O2"
_cell_formula_units_Z 16
_cell_length_a 15.255813
_cell_length_b 9.025948
_cell_length_c 9.825504
_cell_angle_alpha 76.519641
_cell_angle_beta 135.038268
_cell_angle_gamma 131.007391
_cell_volume 650.135295
_symmetry_space_group_name_H-M "P -1"
_symmetry_group_IT_number 2
_symmetry_cell_setting 'triclinic'
loop_
_space_group_symop_operation_xyz
x,y,z
-x,-y,-z
loop_
_atom_site_type_symbol
_atom_site_label
_atom_site_fract_x
_atom_site_fract_y
_atom_site_fract_z
Si Si1 0.370858 0.524304 0.204844
Si Si2 0.280370 0.864098 0.690085
Si Si3 0.930610 0.535739 0.247047
Si Si4 0.453344 0.154536 0.070806
Si Si5 0.387259 0.760375 0.384513
Si Si6 0.876052 0.249360 0.032179
Si Si7 0.641133 0.538620 0.369984
Si Si8 0.892575 0.816622 0.804140
O O1 0.468290 0.744716 0.346083
O O2 0.486256 0.520172 0.239054
O O3 0.291267 0.359619 0.278349
O O4 0.203740 0.458824 0.963676
O O5 0.181848 0.646227 0.719304
O O6 0.432849 0.900361 0.778533
O O7 0.116051 0.775820 0.439063
O O8 0.369080 0.064406 0.846105
O O9 0.973233 0.428203 0.220257
O O10 0.582762 0.410841 0.189340
O O11 0.285665 0.988938 0.024188
O O12 0.207069 0.685822 0.158824
O O13 0.368868 0.623142 0.513574
O O14 0.500000 0.000000 0.500000
O O15 0.991007 0.232954 0.077607
O O16 0.822035 0.777136 0.577214
O O17 0.000000 0.000000 0.000000
#
# Coordination Sequence:
#
# PCOD9082854 Si02
#       8
#     2   2   2   2   2   2   2   2
#     4  10  23  39  57  84 121 160 191 230 291 350
#     4   9  19  36  62  87 111 140 196 254 295 332
#     4   9  19  39  59  85 115 147 189 251 292 338
#     4  10  19  35  59  88 111 149 192 240 295 346
#     4  10  19  33  58  87 112 153 192 232 270 341
#     4  10  20  33  56  87 120 148 195 230 282 344
#     4  11  22  38  58  82 122 160 190 235 290 346
#     4  11  23  36  55  85 125 160 188 230 283 349
#
# _framework density 24.610263
#
# number of rings (size 3 to 8) (size 9 to 14) (size 15 to 20)
#    0.000    2.000    1.250    3.000    1.750    5.500 
#    0.000    3.750    0.000    0.000    0.000    0.000 
#    0.000    0.000    0.000    0.000    0.000    0.000 
#
# Total GULP energy -89252.112314 kJ/mol
# GULP energy per Si atom -5578.257020 kJ/mol
# Density = 2.455425 g / cm^3
# Si number density = 24.610263 Si / 1000 Ang^3
#
#
#
# Elastic Constant Matrix: (Units=GPa)
#
#
# Indices 1 2 3 4 5 6 
#
# 1 104.0979 37.1127 33.0633 7.9530 9.8764 -43.7405
# 2 37.1127 60.7431 39.9228 28.8429 -2.7549 -25.2110
# 3 33.0633 39.9228 129.9191 29.9695 -12.5040 -40.2686
# 4 7.9530 28.8429 29.9695 51.3837 -18.2109 -11.7885
# 5 9.8764 -2.7549 -12.5040 -18.2109 29.6895 2.6177
# 6 -43.7405 -25.2110 -40.2686 -11.7885 2.6177 44.4554
#
#
#
# Elastic Compliance Matrix: (Units=1/GPa)
#
#
# Indices 1 2 3 4 5 6 
#
# 1 0.019387 -0.006468 0.001511 0.001212 -0.007214 0.017521
# 2 -0.006468 0.032176 -0.003721 -0.016243 -0.006799 0.004605
# 3 0.001511 -0.003721 0.012185 -0.002319 0.002008 0.009680
# 4 0.001212 -0.016243 -0.002319 0.036281 0.019512 -0.001648
# 5 -0.007214 -0.006799 0.002008 0.019512 0.048868 -0.006839
# 6 0.017521 0.004605 0.009680 -0.001648 -0.006839 0.051080
#
#
# Mechanical properties :
#
#
# Convention : Reuss Voigt Hill
#
# Bulk Modulus (GPa) = 21.55651 57.21752 39.38701
# Shear Modulus (GPa) = 21.47782 37.41646 29.44714
#
# Velocity S-wave (km/s) = 2.95739 3.90341 3.46286
# Velocity P-wave (km/s) = 4.52103 6.60420 5.65929
#
# Compressibility (1/GPa) = 0.04638970
#
# Stress axis : x y z
#
# Youngs Moduli (GPa) = 51.58173 31.07870 82.06994
#
# Poissons Ratio (x) = 0.20103 -0.12399
# Poissons Ratio (y) = 0.33365 0.30542
# Poissons Ratio (z) = -0.07793 0.11566
#
# Static dielectric constant tensor:
#      x y z
#    x 0.000000 0.000000 0.000000 
#    y 0.000000 0.000000 0.000000 
#    z 0.000000 0.000000 0.000000 
# 
# From -- ./inp_files/447548.got.cif
#   From: 2010.05.17/outbox.cif.g08.bks.cpg/sg2_224_cif.got.tgz:447548.got - 2010.06.03 11:33:40.
