data_PCOD9082808
_publ_section_title
;
Structure prediction by ZEFSAII (Michael W. Deem and Ramdas Pophale) SiO2 
 PCOD9082808
Probable space group: P -1
;
_chemical_formula_sum "Si O2"
_cell_formula_units_Z 14
_cell_length_a 12.049097
_cell_length_b 8.077264
_cell_length_c 11.908039
_cell_angle_alpha 33.389795
_cell_angle_beta 61.862309
_cell_angle_gamma 50.969521
_cell_volume 491.451088
_symmetry_space_group_name_H-M "P -1"
_symmetry_group_IT_number 2
_symmetry_cell_setting 'triclinic'
loop_
_space_group_symop_operation_xyz
x,y,z
-x,-y,-z
loop_
_atom_site_type_symbol
_atom_site_label
_atom_site_fract_x
_atom_site_fract_y
_atom_site_fract_z
Si Si1 0.725582 0.157319 0.129190
Si Si2 0.528640 0.855644 0.412289
Si Si3 0.104991 0.196366 0.382803
Si Si4 0.879882 0.474268 0.151321
Si Si5 0.336175 0.566715 0.232647
Si Si6 0.043840 0.729756 0.276569
Si Si7 0.345203 0.122948 0.145398
O O1 0.671217 0.895059 0.342786
O O2 0.675334 0.207036 0.996611
O O3 0.654863 0.520139 0.020685
O O4 0.893517 0.027827 0.139332
O O5 0.408812 0.190072 0.347273
O O6 0.485840 0.862798 0.299310
O O7 0.562561 0.515753 0.659765
O O8 0.128047 0.473985 0.280613
O O9 0.224172 0.063874 0.303780
O O10 0.946490 0.430430 0.270313
O O11 0.115858 0.900642 0.630400
O O12 0.725100 0.755197 0.015480
O O13 0.000000 0.500000 0.000000
O O14 0.171439 0.773593 0.240608
O O15 0.000000 0.500000 0.500000
#
# Coordination Sequence:
#
# PCOD9082808 Si02
#       7
#     2   2   2   2   2   2   2
#     4  11  21  33  53  84 120 146 178 213 278 337
#     4  10  20  34  50  80 115 148 186 217 264 327
#     4  10  20  36  53  81 112 139 183 233 273 318
#     4   9  20  36  56  80 102 140 189 237 275 309
#     4  10  20  33  49  74 115 150 180 216 262 321
#     4  12  21  34  54  83 118 151 175 220 279 332
#     4  10  19  33  58  80 111 145 183 226 269 320
#
# _framework density 28.487068000000001
#
# number of rings (size 3 to 8) (size 9 to 14) (size 15 to 20)
#    0.000    1.714    4.286    3.000    0.000    1.143 
#    0.000    0.000    0.000    0.857    0.000   10.000 
#    0.000    0.000    0.000    0.000    0.000    0.000 
#
# Total GULP energy -78050.380117 kJ/mol
# GULP energy per Si atom -5575.027151 kJ/mol
# Density = 2.842223 g / cm^3
# Si number density = 28.487068 Si / 1000 Ang^3
#
#
#
# Elastic Constant Matrix: (Units=GPa)
#
#
# Indices 1 2 3 4 5 6 
#
# 1 135.3282 24.3924 38.9557 -4.5489 32.6648 -12.6241
# 2 24.3924 45.6443 16.2454 -1.2224 5.7361 -21.5334
# 3 38.9557 16.2454 184.4088 -0.8103 21.8007 -7.4078
# 4 -4.5489 -1.2224 -0.8103 37.8414 -9.8842 6.0802
# 5 32.6648 5.7361 21.8007 -9.8842 55.5943 -0.9386
# 6 -12.6241 -21.5334 -7.4078 6.0802 -0.9386 41.7023
#
#
#
# Elastic Compliance Matrix: (Units=1/GPa)
#
#
# Indices 1 2 3 4 5 6 
#
# 1 0.009625 -0.003825 -0.001092 -0.000377 -0.004887 0.000689
# 2 -0.003825 0.031622 -0.001302 -0.002074 -0.000616 0.015228
# 3 -0.001092 -0.001302 0.005965 -0.000491 -0.001648 0.000091
# 4 -0.000377 -0.002074 -0.000491 0.028628 0.005628 -0.005320
# 5 -0.004887 -0.000616 -0.001648 0.005628 0.022529 -0.002404
# 6 0.000689 0.015228 0.000091 -0.005320 -0.002404 0.032789
#
#
# Mechanical properties :
#
#
# Convention : Reuss Voigt Hill
#
# Bulk Modulus (GPa) = 28.75930 58.28536 43.52233
# Shear Modulus (GPa) = 32.21905 46.08011 39.14958
#
# Velocity S-wave (km/s) = 3.36669 4.02628 3.71117
# Velocity P-wave (km/s) = 5.02298 6.48994 5.80300
#
# Compressibility (1/GPa) = 0.03477136
#
# Stress axis : x y z
#
# Youngs Moduli (GPa) = 103.89896 31.62355 167.65615
#
# Poissons Ratio (x) = 0.12097 0.18314
# Poissons Ratio (y) = 0.39746 0.21832
# Poissons Ratio (z) = 0.11350 0.04118
#
# Static dielectric constant tensor:
#      x y z
#    x 2.373660 0.057590 0.029650 
#    y 0.057590 2.342030 0.037370 
#    z 0.029650 0.037370 2.237640 
# 
# From -- ./inp_files/396783.got.cif
#   From: 2010.05.17/outbox.cif.g08.bks.cpg/sg2_199_cif.got.tgz:396783.got - 2010.06.03 11:33:40.
