data_PCOD9082086
_publ_section_title
;
Structure prediction by ZEFSAII (Michael W. Deem and Ramdas Pophale) SiO2 
 PCOD9082086
Probable space group: P -1
;
_chemical_formula_sum "Si O2"
_cell_formula_units_Z 12
_cell_length_a 5.693489
_cell_length_b 7.855443
_cell_length_c 21.033279
_cell_angle_alpha 141.588582
_cell_angle_beta 112.790583
_cell_angle_gamma 57.986457
_cell_volume 494.881654
_symmetry_space_group_name_H-M "P -1"
_symmetry_group_IT_number 2
_symmetry_cell_setting 'triclinic'
loop_
_space_group_symop_operation_xyz
x,y,z
-x,-y,-z
loop_
_atom_site_type_symbol
_atom_site_label
_atom_site_fract_x
_atom_site_fract_y
_atom_site_fract_z
Si Si1 0.265418 0.780476 0.388430
Si Si2 0.933261 0.812375 0.031539
Si Si3 0.258113 0.947769 0.660863
Si Si4 0.653302 0.130439 0.208791
Si Si5 0.410580 0.780522 0.999451
Si Si6 0.596066 0.725347 0.518616
O O1 0.522413 0.486207 0.305393
O O2 0.306053 0.758267 0.462398
O O3 0.296353 0.077545 0.455411
O O4 0.987985 0.802715 0.330436
O O5 0.910698 0.993221 0.147409
O O6 0.735553 0.630222 0.969533
O O7 0.759312 0.067811 0.036938
O O8 0.229385 0.642128 0.979883
O O9 0.283111 0.006007 0.754122
O O10 0.531496 0.868675 0.623417
O O11 0.231279 0.626070 0.563975
O O12 0.425073 0.037551 0.122833
#
# Coordination Sequence:
#
# PCOD9082086 Si02
#       6
#     2   2   2   2   2   2
#     4  10  19  33  50  72 101 137 172 219 262 312
#     4   8  15  30  52  77 106 140 174 210 261 320
#     4  10  19  33  50  72 101 137 172 219 262 312
#     4   9  19  30  49  80 104 132 177 220 261 311
#     4   8  15  30  52  77 106 140 174 210 261 320
#     4   9  20  34  49  70 100 136 181 208 264 319
#
# _framework density 24.248224
#
# number of rings (size 3 to 8) (size 9 to 14) (size 15 to 20)
#    1.000    2.000    0.000    1.000    0.000    2.667 
#    0.000    3.333    0.000    4.000    0.000    9.333 
#    0.000    0.000    0.000    0.000    0.000    0.000 
#
# Total GULP energy -66848.623455 kJ/mol
# GULP energy per Si atom -5570.718621 kJ/mol
# Density = 2.419303 g / cm^3
# Si number density = 24.248224 Si / 1000 Ang^3
#
#
#
# Elastic Constant Matrix: (Units=GPa)
#
#
# Indices 1 2 3 4 5 6 
#
# 1 96.5197 21.1217 21.0336 1.5717 -25.9172 6.3174
# 2 21.1217 107.0861 40.1672 -13.9858 -16.6753 -8.7251
# 3 21.0336 40.1672 95.0437 -31.6238 -27.5864 0.8372
# 4 1.5717 -13.9858 -31.6238 46.6409 10.5911 -5.4675
# 5 -25.9172 -16.6753 -27.5864 10.5911 27.2258 -5.3931
# 6 6.3174 -8.7251 0.8372 -5.4675 -5.3931 36.7356
#
#
#
# Elastic Compliance Matrix: (Units=1/GPa)
#
#
# Indices 1 2 3 4 5 6 
#
# 1 0.014748 -0.001340 0.000186 -0.004292 0.014814 -0.001323
# 2 -0.001340 0.011797 -0.003652 0.000942 0.002604 0.003638
# 3 0.000186 -0.003652 0.019084 0.008846 0.014247 0.002074
# 4 -0.004292 0.000942 0.008846 0.029555 -0.005171 0.004400
# 5 0.014814 0.002604 0.014247 -0.005171 0.070320 0.007300
# 6 -0.001323 0.003638 0.002074 0.004400 0.007300 0.029992
#
#
# Mechanical properties :
#
#
# Convention : Reuss Voigt Hill
#
# Bulk Modulus (GPa) = 27.76506 51.47717 39.62111
# Shear Modulus (GPa) = 25.36604 36.54223 30.95414
#
# Velocity S-wave (km/s) = 3.23785 3.88623 3.57676
# Velocity P-wave (km/s) = 5.04514 6.43525 5.78212
#
# Compressibility (1/GPa) = 0.03601650
#
# Stress axis : x y z
#
# Youngs Moduli (GPa) = 67.80798 84.76468 52.40024
#
# Poissons Ratio (x) = 0.11359 -0.00975
# Poissons Ratio (y) = 0.09087 0.19138
# Poissons Ratio (z) = -0.01262 0.30958
#
# Static dielectric constant tensor:
#      x y z
#    x 2.086440 -0.072000 0.026990 
#    y -0.072000 1.933030 -0.053270 
#    z 0.026990 -0.053270 1.908990 
# 
# From -- ./inp_files/48754.got.cif
#   From: 2010.05.17/outbox.cif.g08.bks.cpg/sg2_25_cif.got.tgz:48754.got - 2010.06.03 11:33:40.
