data_PCOD9082759
_publ_section_title
;
Structure prediction by ZEFSAII (Michael W. Deem and Ramdas Pophale) SiO2 
 PCOD9082759
Probable space group: P -1
;
_chemical_formula_sum "Si O2"
_cell_formula_units_Z 14
_cell_length_a 8.340974
_cell_length_b 11.463402
_cell_length_c 11.829485
_cell_angle_alpha 138.572483
_cell_angle_beta 103.822646
_cell_angle_gamma 61.127981
_cell_volume 640.414733
_symmetry_space_group_name_H-M "P -1"
_symmetry_group_IT_number 2
_symmetry_cell_setting 'triclinic'
loop_
_space_group_symop_operation_xyz
x,y,z
-x,-y,-z
loop_
_atom_site_type_symbol
_atom_site_label
_atom_site_fract_x
_atom_site_fract_y
_atom_site_fract_z
Si Si1 0.165356 0.524099 0.941857
Si Si2 0.012403 0.164780 0.206718
Si Si3 0.263247 0.705963 0.301888
Si Si4 0.338966 0.586957 0.791615
Si Si5 0.992339 0.085755 0.409177
Si Si6 0.419826 0.964358 0.076283
Si Si7 0.775138 0.832234 0.189080
O O1 0.241543 0.590251 0.896326
O O2 0.220756 0.291958 0.789487
O O3 0.258915 0.563071 0.097886
O O4 0.941834 0.662549 0.016657
O O5 0.822771 0.365993 0.293254
O O6 0.014723 0.117366 0.305120
O O7 0.213294 0.145059 0.196845
O O8 0.000000 0.000000 0.000000
O O9 0.467943 0.617420 0.324864
O O10 0.115232 0.727128 0.390023
O O11 0.182136 0.917632 0.375937
O O12 0.396316 0.763823 0.921399
O O13 0.850797 0.990675 0.326493
O O14 0.572627 0.929417 0.171130
O O15 0.500000 0.000000 0.000000
#
# Coordination Sequence:
#
# PCOD9082759 Si02
#       7
#     2   2   2   2   2   2   2
#     4  10  20  35  60  90 115 145 199 237 281 338
#     4  10  21  37  58  86 115 153 196 236 281 349
#     4  10  20  37  62  85 116 157 191 231 288 351
#     4  11  21  36  62  87 112 159 196 235 280 352
#     4  10  22  39  59  87 119 154 191 232 294 344
#     4  11  20  33  58  87 115 146 193 243 291 327
#     4  10  19  33  57  88 114 147 188 246 280 328
#
# _framework density 21.860831999999998
#
# number of rings (size 3 to 8) (size 9 to 14) (size 15 to 20)
#    0.000    1.714    1.429    6.429    2.000    0.571 
#    0.000    0.714    6.286    1.714    0.000    0.000 
#    0.000    0.000    0.000    0.000    0.000    0.000 
#
# Total GULP energy -78139.490824 kJ/mol
# GULP energy per Si atom -5581.392202 kJ/mol
# Density = 2.181108 g / cm^3
# Si number density = 21.860832 Si / 1000 Ang^3
#
#
#
# Elastic Constant Matrix: (Units=GPa)
#
#
# Indices 1 2 3 4 5 6 
#
# 1 123.8231 88.9723 16.4639 -4.8736 -11.9015 -9.0745
# 2 88.9723 149.2219 37.8694 -20.1448 -24.2113 -24.9461
# 3 16.4639 37.8694 38.2405 -16.0964 -13.0606 5.7381
# 4 -4.8736 -20.1448 -16.0964 25.2970 6.7440 -14.0373
# 5 -11.9015 -24.2113 -13.0606 6.7440 26.1989 -1.0424
# 6 -9.0745 -24.9461 5.7381 -14.0373 -1.0424 71.3848
#
#
#
# Elastic Compliance Matrix: (Units=1/GPa)
#
#
# Indices 1 2 3 4 5 6 
#
# 1 0.015250 -0.011173 0.002054 -0.006292 -0.000888 -0.003381
# 2 -0.011173 0.019480 -0.009295 0.010457 0.005930 0.008277
# 3 0.002054 -0.009295 0.046024 0.017769 0.010592 -0.003038
# 4 -0.006292 0.010457 0.017769 0.066169 -0.000795 0.014427
# 5 -0.000888 0.005930 0.010592 -0.000795 0.048797 0.001664
# 6 -0.003381 0.008277 -0.003038 0.014427 0.001664 0.019577
#
#
# Mechanical properties :
#
#
# Convention : Reuss Voigt Hill
#
# Bulk Modulus (GPa) = 22.76552 66.43295 44.59924
# Shear Modulus (GPa) = 18.74297 35.77480 27.25889
#
# Velocity S-wave (km/s) = 2.93128 4.04973 3.53502
# Velocity P-wave (km/s) = 4.67899 7.23340 6.09159
#
# Compressibility (1/GPa) = 0.04392607
#
# Stress axis : x y z
#
# Youngs Moduli (GPa) = 65.57232 51.33531 21.72796
#
# Poissons Ratio (x) = 0.57357 -0.04464
# Poissons Ratio (y) = 0.73264 0.20197
# Poissons Ratio (z) = -0.13471 0.47718
#
# Static dielectric constant tensor:
#      x y z
#    x 1.801410 -0.015970 0.017200 
#    y -0.015970 1.823940 0.044720 
#    z 0.017200 0.044720 1.906400 
# 
# From -- ./inp_files/266900.got.cif
#   From: 2010.05.17/outbox.cif.g08.bks.cpg/sg2_134_cif.got.tgz:266900.got - 2010.06.03 11:33:40.
