data_PCOD9082000
_publ_section_title
;
Structure prediction by ZEFSAII (Michael W. Deem and Ramdas Pophale) SiO2 
 PCOD9082000
Probable space group: P -1
;
_chemical_formula_sum "Si O2"
_cell_formula_units_Z 16
_cell_length_a 14.443327
_cell_length_b 12.640866
_cell_length_c 10.073418
_cell_angle_alpha 34.647331
_cell_angle_beta 40.730878
_cell_angle_gamma 52.370711
_cell_volume 681.857540
_symmetry_space_group_name_H-M "P -1"
_symmetry_group_IT_number 2
_symmetry_cell_setting 'triclinic'
loop_
_space_group_symop_operation_xyz
x,y,z
-x,-y,-z
loop_
_atom_site_type_symbol
_atom_site_label
_atom_site_fract_x
_atom_site_fract_y
_atom_site_fract_z
Si Si1 0.811796 0.552372 0.785578
Si Si2 0.498165 0.808696 0.617562
Si Si3 0.292885 0.334585 0.811712
Si Si4 0.061451 0.437460 0.783871
Si Si5 0.177366 0.162783 0.734775
Si Si6 0.784987 0.279761 0.865410
Si Si7 0.532748 0.623619 0.151083
Si Si8 0.547325 0.979750 0.122955
O O1 0.858339 0.746715 0.462769
O O2 0.847899 0.391008 0.809103
O O3 0.902062 0.501684 0.869426
O O4 0.644192 0.565625 0.980017
O O5 0.661633 0.757367 0.493349
O O6 0.458068 0.859576 0.455139
O O7 0.500000 0.000000 0.500000
O O8 0.381243 0.696024 0.945190
O O9 0.136519 0.398559 0.882043
O O10 0.413163 0.467939 0.472942
O O11 0.356217 0.338000 0.886979
O O12 0.309684 0.130362 0.939731
O O13 0.084823 0.254712 0.855093
O O14 0.155971 0.605440 0.441411
O O15 0.181750 0.938977 0.953722
O O16 0.451874 0.815692 0.028170
O O17 0.500000 0.000000 0.000000
#
# Coordination Sequence:
#
# PCOD9082000 Si02
#       8
#     2   2   2   2   2   2   2   2
#     4  11  24  38  57  89 121 159 196 239 299 360
#     4  10  19  32  59  93 112 147 199 248 301 350
#     4  10  22  39  62  89 112 155 204 243 297 354
#     4  11  24  37  58  89 122 157 199 235 298 364
#     4  10  21  37  58  87 119 152 201 239 296 357
#     4  10  22  37  60  83 123 157 189 250 299 348
#     4  10  22  39  63  85 117 153 198 252 294 347
#     4  10  20  38  60  86 119 152 194 250 301 350
#
# _framework density 23.465309999999999
#
# number of rings (size 3 to 8) (size 9 to 14) (size 15 to 20)
#    0.000    1.750    1.250    3.750    5.250    3.500 
#    0.000    0.000    0.000    0.000    0.000   12.250 
#    0.000    0.000    0.000    0.000    0.000    0.000 
#
# Total GULP energy -89215.066607 kJ/mol
# GULP energy per Si atom -5575.941663 kJ/mol
# Density = 2.341190 g / cm^3
# Si number density = 23.465310 Si / 1000 Ang^3
#
#
#
# Elastic Constant Matrix: (Units=GPa)
#
#
# Indices 1 2 3 4 5 6 
#
# 1 103.1623 22.5365 -13.2977 -9.8805 11.4041 -11.1058
# 2 22.5365 122.4134 33.3385 -28.8163 -3.2781 -5.6897
# 3 -13.2977 33.3385 37.0057 -21.6743 -0.0703 6.7877
# 4 -9.8805 -28.8163 -21.6743 39.5200 -4.3129 -3.0837
# 5 11.4041 -3.2781 -0.0703 -4.3129 27.9041 6.6342
# 6 -11.1058 -5.6897 6.7877 -3.0837 6.6342 37.1733
#
#
#
# Elastic Compliance Matrix: (Units=1/GPa)
#
#
# Indices 1 2 3 4 5 6 
#
# 1 0.013772 -0.004330 0.012157 0.006543 -0.005761 0.002803
# 2 -0.004330 0.013094 -0.012619 0.002076 0.002965 0.002658
# 3 0.012157 -0.012619 0.058991 0.025580 -0.000727 -0.006819
# 4 0.006543 0.002076 0.025580 0.042970 0.004176 0.000421
# 5 -0.005761 0.002965 -0.000727 0.004176 0.041115 -0.008126
# 6 0.002803 0.002658 -0.006819 0.000421 -0.008126 0.030875
#
#
# Mechanical properties :
#
#
# Convention : Reuss Voigt Hill
#
# Bulk Modulus (GPa) = 13.11070 38.63732 25.87401
# Shear Modulus (GPa) = 21.20195 35.58644 28.39419
#
# Velocity S-wave (km/s) = 3.00916 3.89852 3.48235
# Velocity P-wave (km/s) = 4.20390 6.06351 5.21723
#
# Compressibility (1/GPa) = 0.07627356
#
# Stress axis : x y z
#
# Youngs Moduli (GPa) = 72.61246 76.36847 16.95163
#
# Poissons Ratio (x) = 0.33068 -0.20608
# Poissons Ratio (y) = 0.31441 0.21391
# Poissons Ratio (z) = -0.88275 0.96369
#
# Static dielectric constant tensor:
#      x y z
#    x 2.024220 -0.006620 0.009220 
#    y -0.006620 1.878920 -0.010630 
#    z 0.009220 -0.010630 1.880930 
# 
# From -- ./inp_files/455363.got.cif
#   From: 2010.05.17/outbox.cif.g08.bks.cpg/sg2_228_cif.got.tgz:455363.got - 2010.06.03 11:33:40.
