data_PCOD9082947
_publ_section_title
;
Structure prediction by ZEFSAII (Michael W. Deem and Ramdas Pophale) SiO2 
 PCOD9082947
Probable space group: P -1
;
_chemical_formula_sum "Si O2"
_cell_formula_units_Z 14
_cell_length_a 10.463143
_cell_length_b 13.624474
_cell_length_c 19.841933
_cell_angle_alpha 28.582490
_cell_angle_beta 32.320226
_cell_angle_gamma 32.469790
_cell_volume 664.004719
_symmetry_space_group_name_H-M "P -1"
_symmetry_group_IT_number 2
_symmetry_cell_setting 'triclinic'
loop_
_space_group_symop_operation_xyz
x,y,z
-x,-y,-z
loop_
_atom_site_type_symbol
_atom_site_label
_atom_site_fract_x
_atom_site_fract_y
_atom_site_fract_z
Si Si1 0.751284 0.633817 0.983789
Si Si2 0.197920 0.323982 0.595782
Si Si3 0.740284 0.309607 0.744329
Si Si4 0.065653 0.489154 0.809224
Si Si5 0.768982 0.122469 0.475086
Si Si6 0.030036 0.683948 0.561074
Si Si7 0.399065 0.859032 0.228172
O O1 0.822059 0.528311 0.941650
O O2 0.710753 0.892605 0.845042
O O3 0.492048 0.637876 0.131409
O O4 0.000000 0.500000 0.000000
O O5 0.271873 0.457933 0.422640
O O6 0.473430 0.177524 0.595931
O O7 0.018217 0.519073 0.608094
O O8 0.022800 0.202653 0.717785
O O9 0.708231 0.163948 0.784080
O O10 0.202254 0.644128 0.689216
O O11 0.005230 0.578502 0.706666
O O12 0.289886 0.243526 0.854785
O O13 0.000000 0.000000 0.500000
O O14 0.831175 0.943440 0.494916
O O15 0.305382 0.706399 0.410920
#
# Coordination Sequence:
#
# PCOD9082947 Si02
#       7
#     2   2   2   2   2   2   2
#     4  12  23  38  58  90 124 152 202 244 292 360
#     4  10  21  42  57  84 126 152 199 246 291 359
#     4  10  22  40  58  84 122 163 191 240 300 357
#     4  11  21  35  60  93 119 146 203 252 289 349
#     4  10  19  33  59  91 115 145 198 249 289 337
#     4  10  21  35  62  93 113 153 199 249 299 336
#     4  11  21  37  62  89 116 158 196 248 301 337
#
# _framework density 21.084188000000001
#
# number of rings (size 3 to 8) (size 9 to 14) (size 15 to 20)
#    0.000    1.429    5.714    0.857    2.000    0.000 
#    2.571    2.857    0.000    6.000    0.000    0.000 
#    0.000    0.000    0.000    0.000    0.000    0.000 
#
# Total GULP energy -78116.560975 kJ/mol
# GULP energy per Si atom -5579.754355 kJ/mol
# Density = 2.103620 g / cm^3
# Si number density = 21.084188 Si / 1000 Ang^3
#
#
#
# Elastic Constant Matrix: (Units=GPa)
#
#
# Indices 1 2 3 4 5 6 
#
# 1 47.5702 4.2586 21.1292 11.9899 10.3939 -4.5528
# 2 4.2586 84.7960 -3.1275 5.5625 10.5734 6.5093
# 3 21.1292 -3.1275 66.0340 26.0924 22.6586 4.1451
# 4 11.9899 5.5625 26.0924 34.5576 5.5585 6.8233
# 5 10.3939 10.5734 22.6586 5.5585 24.0951 11.1596
# 6 -4.5528 6.5093 4.1451 6.8233 11.1596 30.1736
#
#
#
# Elastic Compliance Matrix: (Units=1/GPa)
#
#
# Indices 1 2 3 4 5 6 
#
# 1 0.028041 -0.000024 -0.001436 -0.008663 -0.014115 0.011613
# 2 -0.000024 0.013832 0.007123 -0.006004 -0.012265 0.001928
# 3 -0.001436 0.007123 0.039049 -0.026453 -0.039337 0.013413
# 4 -0.008663 -0.006004 -0.026453 0.052052 0.027771 -0.018420
# 5 -0.014115 -0.012265 -0.039337 0.027771 0.101031 -0.037726
# 6 0.011613 0.001928 0.013413 -0.018420 -0.037726 0.050753
#
#
# Mechanical properties :
#
#
# Convention : Reuss Voigt Hill
#
# Bulk Modulus (GPa) = 10.84048 26.99120 18.91584
# Shear Modulus (GPa) = 16.43750 29.50792 22.97271
#
# Velocity S-wave (km/s) = 2.79518 3.74509 3.30445
# Velocity P-wave (km/s) = 3.94589 5.61519 4.85285
#
# Compressibility (1/GPa) = 0.09224687
#
# Stress axis : x y z
#
# Youngs Moduli (GPa) = 35.66268 72.29507 25.60887
#
# Poissons Ratio (x) = 0.00176 0.03677
# Poissons Ratio (y) = 0.00087 -0.18241
# Poissons Ratio (z) = 0.05121 -0.51496
#
# Static dielectric constant tensor:
#      x y z
#    x 1.800480 -0.010890 0.026670 
#    y -0.010890 1.794840 0.008070 
#    z 0.026670 0.008070 1.796850 
# 
# From -- ./inp_files/518546.got.cif
#   From: 2010.05.17/outbox.cif.g08.bks.cpg/sg2_260_cif.got.tgz:518546.got - 2010.06.03 11:33:40.
