data_PCOD9082705
_publ_section_title
;
Structure prediction by ZEFSAII (Michael W. Deem and Ramdas Pophale) SiO2 
 PCOD9082705
Probable space group: P -1
;
_chemical_formula_sum "Si O2"
_cell_formula_units_Z 16
_cell_length_a 7.551059
_cell_length_b 15.060230
_cell_length_c 9.375438
_cell_angle_alpha 47.852460
_cell_angle_beta 122.030814
_cell_angle_gamma 111.470198
_cell_volume 670.059170
_symmetry_space_group_name_H-M "P -1"
_symmetry_group_IT_number 2
_symmetry_cell_setting 'triclinic'
loop_
_space_group_symop_operation_xyz
x,y,z
-x,-y,-z
loop_
_atom_site_type_symbol
_atom_site_label
_atom_site_fract_x
_atom_site_fract_y
_atom_site_fract_z
Si Si1 0.725642 0.610428 0.077896
Si Si2 0.950698 0.833547 0.029867
Si Si3 0.647132 0.343026 0.319422
Si Si4 0.020881 0.633281 0.911571
Si Si5 0.318889 0.256640 0.513662
Si Si6 0.437582 0.005581 0.801157
Si Si7 0.170776 0.914514 0.307320
Si Si8 0.655790 0.244313 0.905070
O O1 0.792035 0.720097 0.090383
O O2 0.765763 0.468982 0.276989
O O3 0.487210 0.621762 0.914512
O O4 0.863620 0.650528 0.957436
O O5 0.987406 0.877056 0.160020
O O6 0.170088 0.786675 0.109164
O O7 0.891934 0.957179 0.786743
O O8 0.486691 0.314724 0.411621
O O9 0.754762 0.216131 0.466853
O O10 0.910651 0.696097 0.663025
O O11 0.244123 0.658946 0.050969
O O12 0.000000 0.500000 0.000000
O O13 0.289259 0.117247 0.611227
O O14 0.440775 0.269165 0.703008
O O15 0.631223 0.039842 0.749432
O O16 0.357043 0.874307 0.875765
O O17 0.500000 0.000000 0.000000
#
# Coordination Sequence:
#
# PCOD9082705 Si02
#       8
#     2   2   2   2   2   2   2   2
#     4   9  20  36  58  75 110 152 185 228 287 340
#     4  10  19  34  53  86 111 140 185 237 278 329
#     4   9  17  37  56  77 107 152 186 225 284 339
#     4  10  22  39  54  82 117 144 194 241 267 333
#     4   9  18  36  61  78 113 152 180 231 288 332
#     4   9  16  34  57  81 109 149 187 221 285 350
#     4  10  19  33  57  83 115 142 183 242 277 326
#     4  10  19  38  62  81 112 156 184 225 295 343
#
# _framework density 23.878489999999999
#
# number of rings (size 3 to 8) (size 9 to 14) (size 15 to 20)
#    0.000    2.500    3.750    0.000    0.000    2.000 
#    9.000    0.000    0.000    0.000    0.000    0.000 
#    0.000    0.000    0.000    0.000    0.000    0.000 
#
# Total GULP energy -89106.779373 kJ/mol
# GULP energy per Si atom -5569.173711 kJ/mol
# Density = 2.382414 g / cm^3
# Si number density = 23.878490 Si / 1000 Ang^3
#
#
#
# Elastic Constant Matrix: (Units=GPa)
#
#
# Indices 1 2 3 4 5 6 
#
# 1 78.5466 121.2359 89.6813 -16.6031 43.6444 27.3425
# 2 121.2359 650.7860 356.4804 -90.5140 247.0016 124.2898
# 3 89.6813 356.4804 317.1338 -66.6171 179.5165 76.4103
# 4 -16.6031 -90.5140 -66.6171 43.4986 -35.2787 -22.3962
# 5 43.6444 247.0016 179.5165 -35.2787 146.9773 42.8240
# 6 27.3425 124.2898 76.4103 -22.3962 42.8240 48.9865
#
#
#
# Elastic Compliance Matrix: (Units=1/GPa)
#
#
# Indices 1 2 3 4 5 6 
#
# 1 0.021090 -0.003006 -0.006875 -0.003921 0.006508 -0.000903
# 2 -0.003006 0.007002 -0.000199 0.002907 -0.007680 -0.007734
# 3 -0.006875 -0.000199 0.015933 0.007607 -0.013814 -0.004955
# 4 -0.003921 0.002907 0.007607 0.037196 -0.005461 0.004728
# 5 0.006508 -0.007680 -0.013814 -0.005461 0.031088 0.007727
# 6 -0.000903 -0.007734 -0.004955 0.004728 0.007727 0.043677
#
#
# Mechanical properties :
#
#
# Convention : Reuss Voigt Hill
#
# Bulk Modulus (GPa) = 41.90390 242.36242 142.13316
# Shear Modulus (GPa) = 27.15885 79.83041 53.49463
#
# Velocity S-wave (km/s) = 3.37616 5.78831 4.73830
# Velocity P-wave (km/s) = 5.72581 12.09922 9.46510
#
# Compressibility (1/GPa) = 0.02386413
#
# Stress axis : x y z
#
# Youngs Moduli (GPa) = 47.41602 142.81443 62.76267
#
# Poissons Ratio (x) = 0.42928 0.43151
# Poissons Ratio (y) = 0.14252 0.01252
# Poissons Ratio (z) = 0.32600 0.02848
#
# Static dielectric constant tensor:
#      x y z
#    x 2.251130 -0.210220 0.108360 
#    y -0.210220 2.164540 -0.131890 
#    z 0.108360 -0.131890 2.015990 
# 
# From -- ./inp_files/401885.got.cif
#   From: 2010.05.17/outbox.cif.g08.bks.cpg/sg2_201_cif.got.tgz:401885.got - 2010.06.03 11:33:40.
