data_PCOD9082856
_publ_section_title
;
Structure prediction by ZEFSAII (Michael W. Deem and Ramdas Pophale) SiO2 
 PCOD9082856
Probable space group: P -1
;
_chemical_formula_sum "Si O2"
_cell_formula_units_Z 14
_cell_length_a 9.241684
_cell_length_b 8.839206
_cell_length_c 14.177214
_cell_angle_alpha 39.278621
_cell_angle_beta 77.415095
_cell_angle_gamma 78.402557
_cell_volume 714.600889
_symmetry_space_group_name_H-M "P -1"
_symmetry_group_IT_number 2
_symmetry_cell_setting 'triclinic'
loop_
_space_group_symop_operation_xyz
x,y,z
-x,-y,-z
loop_
_atom_site_type_symbol
_atom_site_label
_atom_site_fract_x
_atom_site_fract_y
_atom_site_fract_z
Si Si1 0.866214 0.965526 0.607501
Si Si2 0.374430 0.795983 0.803105
Si Si3 0.149653 0.611076 0.459163
Si Si4 0.599937 0.348210 0.753746
Si Si5 0.617740 0.197171 0.403237
Si Si6 0.398951 0.294105 0.655634
Si Si7 0.690510 0.501497 0.869308
O O1 0.819536 0.691019 0.753916
O O2 0.885285 0.122762 0.622795
O O3 0.726036 0.103573 0.512568
O O4 0.000000 0.000000 0.500000
O O5 0.300335 0.772179 0.722878
O O6 0.537223 0.662219 0.831796
O O7 0.389993 0.071357 0.694192
O O8 0.292232 0.670221 0.960350
O O9 0.260825 0.624209 0.348052
O O10 0.236296 0.432978 0.609137
O O11 0.000000 0.500000 0.500000
O O12 0.480739 0.571212 0.668133
O O13 0.488172 0.184036 0.788687
O O14 0.664131 0.348364 0.851312
O O15 0.500000 0.000000 0.500000
O O16 0.500000 0.500000 0.500000
#
# Coordination Sequence:
#
# PCOD9082856 Si02
#       7
#     2   2   2   2   2   2   2
#     4  12  24  38  63  89 119 156 204 248 297 355
#     4  10  21  35  62  88 127 151 198 246 297 347
#     4  11  23  35  58  88 117 152 197 252 296 343
#     4  10  19  34  59  84 119 149 194 245 291 350
#     4  11  19  36  63  89 112 155 202 244 288 353
#     4  10  19  33  58  87 114 151 195 241 290 344
#     4  10  21  38  57  93 122 157 193 247 300 351
#
# _framework density 19.591356999999999
#
# number of rings (size 3 to 8) (size 9 to 14) (size 15 to 20)
#    0.000    1.429    4.286    4.286    2.000    0.571 
#    0.000    2.143    0.000    1.714    0.000    0.000 
#    0.000    0.000    0.000    0.000    0.000    0.000 
#
# Total GULP energy -77945.690334 kJ/mol
# GULP energy per Si atom -5567.549310 kJ/mol
# Density = 1.954677 g / cm^3
# Si number density = 19.591357 Si / 1000 Ang^3
#
#
#
# Elastic Constant Matrix: (Units=GPa)
#
#
# Indices 1 2 3 4 5 6 
#
# 1 81.4849 13.0868 11.2284 6.2684 -17.1740 11.7521
# 2 13.0868 106.9302 28.3452 15.9184 -9.9210 12.4554
# 3 11.2284 28.3452 84.9269 18.6080 -11.8044 10.7173
# 4 6.2684 15.9184 18.6080 28.7195 0.0363 2.9181
# 5 -17.1740 -9.9210 -11.8044 0.0363 18.9650 3.6890
# 6 11.7521 12.4554 10.7173 2.9181 3.6890 28.7748
#
#
#
# Elastic Compliance Matrix: (Units=1/GPa)
#
#
# Indices 1 2 3 4 5 6 
#
# 1 0.018082 0.001051 0.002652 -0.005160 0.020716 -0.010960
# 2 0.001051 0.011651 -0.001121 -0.005416 0.007421 -0.005457
# 3 0.002652 -0.001121 0.016913 -0.010157 0.013848 -0.007643
# 4 -0.005160 -0.005416 -0.010157 0.044979 -0.015002 0.005596
# 5 0.020716 0.007421 0.013848 -0.015002 0.089222 -0.026748
# 6 -0.010960 -0.005457 -0.007643 0.005596 -0.026748 0.047299
#
#
# Mechanical properties :
#
#
# Convention : Reuss Voigt Hill
#
# Bulk Modulus (GPa) = 19.30153 42.07363 30.68758
# Shear Modulus (GPa) = 20.81155 30.00398 25.40776
#
# Velocity S-wave (km/s) = 3.26280 3.91767 3.60514
# Velocity P-wave (km/s) = 4.90591 6.47969 5.74693
#
# Compressibility (1/GPa) = 0.05180935
#
# Stress axis : x y z
#
# Youngs Moduli (GPa) = 55.30387 85.83142 59.12619
#
# Poissons Ratio (x) = -0.09021 -0.15678
# Poissons Ratio (y) = -0.05812 0.06627
# Poissons Ratio (z) = -0.14665 0.09620
#
# Static dielectric constant tensor:
#      x y z
#    x 1.712540 0.018930 0.031940 
#    y 0.018930 1.695580 0.030910 
#    z 0.031940 0.030910 1.730260 
# 
# From -- ./inp_files/173098.got.cif
#   From: 2010.05.17/outbox.cif.g08.bks.cpg/sg2_87_cif.got.tgz:173098.got - 2010.06.03 11:33:40.
