data_PCOD9082115
_publ_section_title
;
Structure prediction by ZEFSAII (Michael W. Deem and Ramdas Pophale) SiO2 
 PCOD9082115
Probable space group: P -1
;
_chemical_formula_sum "Si O2"
_cell_formula_units_Z 16
_cell_length_a 10.744222
_cell_length_b 20.277733
_cell_length_c 13.787827
_cell_angle_alpha 29.305671
_cell_angle_beta 146.462516
_cell_angle_gamma 137.453843
_cell_volume 811.789571
_symmetry_space_group_name_H-M "P -1"
_symmetry_group_IT_number 2
_symmetry_cell_setting 'triclinic'
loop_
_space_group_symop_operation_xyz
x,y,z
-x,-y,-z
loop_
_atom_site_type_symbol
_atom_site_label
_atom_site_fract_x
_atom_site_fract_y
_atom_site_fract_z
Si Si1 0.164816 0.010557 0.186686
Si Si2 0.035994 0.082707 0.515853
Si Si3 0.553419 0.741762 0.469288
Si Si4 0.529521 0.727318 0.245081
Si Si5 0.187430 0.522843 0.221788
Si Si6 0.640044 0.165718 0.298650
Si Si7 0.252651 0.981638 0.974454
Si Si8 0.693828 0.478867 0.925348
O O1 0.256537 0.880618 0.471065
O O2 0.989705 0.064648 0.081961
O O3 0.394502 0.097100 0.208089
O O4 0.000000 0.000000 0.000000
O O5 0.818162 0.119768 0.390666
O O6 0.181414 0.217374 0.411445
O O7 0.203136 0.004612 0.798427
O O8 0.000000 0.000000 0.500000
O O9 0.486943 0.731235 0.327207
O O10 0.524055 0.596972 0.685684
O O11 0.422372 0.868207 0.260263
O O12 0.294413 0.671206 0.121445
O O13 0.690097 0.602271 0.487230
O O14 0.649241 0.871497 0.113153
O O15 0.238430 0.500848 0.169689
O O16 0.926791 0.504248 0.100439
O O17 0.615686 0.325157 0.080701
#
# Coordination Sequence:
#
# PCOD9082115 Si02
#       8
#     2   2   2   2   2   2   2   2
#     4  10  23  41  65  84 108 156 205 251 286 329
#     4  10  20  34  61  90 120 152 178 242 308 346
#     4  10  21  33  50  85 124 152 181 230 293 365
#     4   9  17  31  52  83 114 149 186 238 286 352
#     4   9  17  29  52  80 117 149 186 225 294 357
#     4  10  22  41  61  90 117 148 203 246 284 350
#     4  10  21  37  55  86 121 150 202 237 283 353
#     4  10  19  33  51  79 118 150 185 233 287 349
#
# _framework density 19.709541999999999
#
# number of rings (size 3 to 8) (size 9 to 14) (size 15 to 20)
#    0.000    2.250    0.000    5.250    3.500    3.000 
#    2.250    0.625    0.000    0.750    0.000    0.000 
#    0.000    0.000    0.000    0.000    0.000    0.000 
#
# Total GULP energy -89116.990012 kJ/mol
# GULP energy per Si atom -5569.811876 kJ/mol
# Density = 1.966468 g / cm^3
# Si number density = 19.709542 Si / 1000 Ang^3
#
#
#
# Elastic Constant Matrix: (Units=GPa)
#
#
# Indices 1 2 3 4 5 6 
#
# 1 34.3508 31.2654 36.3425 -5.8931 0.9992 12.4437
# 2 31.2654 122.5119 65.5427 -6.9131 5.8313 2.1800
# 3 36.3425 65.5427 129.1372 -23.1368 4.1565 17.2819
# 4 -5.8931 -6.9131 -23.1368 35.4716 -1.8501 -6.2915
# 5 0.9992 5.8313 4.1565 -1.8501 20.8072 11.7036
# 6 12.4437 2.1800 17.2819 -6.2915 11.7036 26.0068
#
#
#
# Elastic Compliance Matrix: (Units=1/GPa)
#
#
# Indices 1 2 3 4 5 6 
#
# 1 0.057133 -0.011142 -0.007283 -0.001855 0.018812 -0.030478
# 2 -0.011142 0.014087 -0.005465 -0.001091 -0.008900 0.011523
# 3 -0.007283 -0.005465 0.014301 0.006267 0.002486 -0.005163
# 4 -0.001855 -0.001091 0.006267 0.032615 -0.000808 0.005068
# 5 0.018812 -0.008900 0.002486 -0.000808 0.073326 -0.043101
# 6 -0.030478 0.011523 -0.005163 0.005068 -0.043101 0.076122
#
#
# Mechanical properties :
#
#
# Convention : Reuss Voigt Hill
#
# Bulk Modulus (GPa) = 26.49637 61.36678 43.93157
# Shear Modulus (GPa) = 15.24654 26.64708 20.94681
#
# Velocity S-wave (km/s) = 2.78431 3.68093 3.26356
# Velocity P-wave (km/s) = 4.87946 7.01917 6.04475
#
# Compressibility (1/GPa) = 0.03774102
#
# Stress axis : x y z
#
# Youngs Moduli (GPa) = 17.50299 70.98894 69.92700
#
# Poissons Ratio (x) = 0.79097 0.50925
# Poissons Ratio (y) = 0.19502 0.38215
# Poissons Ratio (z) = 0.12747 0.38795
#
# Static dielectric constant tensor:
#      x y z
#    x 1.709660 -0.010650 -0.009670 
#    y -0.010650 1.739100 0.011500 
#    z -0.009670 0.011500 1.806620 
# 
# From -- ./inp_files/523760.got.cif
#   From: 2010.05.17/outbox.cif.g08.bks.cpg/sg2_262_cif.got.tgz:523760.got - 2010.06.03 11:33:40.
