data_PCOD9082350
_publ_section_title
;
Structure prediction by ZEFSAII (Michael W. Deem and Ramdas Pophale) SiO2 
 PCOD9082350
Probable space group: P -1
;
_chemical_formula_sum "Si O2"
_cell_formula_units_Z 16
_cell_length_a 8.238015
_cell_length_b 22.732412
_cell_length_c 9.781281
_cell_angle_alpha 46.086350
_cell_angle_beta 69.881157
_cell_angle_gamma 40.631580
_cell_volume 791.678241
_symmetry_space_group_name_H-M "P -1"
_symmetry_group_IT_number 2
_symmetry_cell_setting 'triclinic'
loop_
_space_group_symop_operation_xyz
x,y,z
-x,-y,-z
loop_
_atom_site_type_symbol
_atom_site_label
_atom_site_fract_x
_atom_site_fract_y
_atom_site_fract_z
Si Si1 0.790186 0.063948 0.834340
Si Si2 0.567597 0.389458 0.962865
Si Si3 0.070228 0.665146 0.585926
Si Si4 0.067772 0.586730 0.225214
Si Si5 0.869471 0.177699 0.014542
Si Si6 0.408549 0.700740 0.391638
Si Si7 0.933865 0.448097 0.007293
Si Si8 0.241546 0.200127 0.814302
O O1 0.631673 0.206919 0.647340
O O2 0.564074 0.079171 0.915013
O O3 0.000000 0.000000 0.000000
O O4 0.958716 0.967775 0.813199
O O5 0.780820 0.385394 0.916250
O O6 0.701183 0.261896 0.062164
O O7 0.395523 0.438544 0.071435
O O8 0.331727 0.511003 0.734451
O O9 0.862787 0.737407 0.406314
O O10 0.195866 0.708969 0.488208
O O11 0.960771 0.669994 0.752531
O O12 0.295613 0.446195 0.450365
O O13 0.851389 0.696591 0.218599
O O14 0.960909 0.583716 0.123969
O O15 0.676923 0.249519 0.820362
O O16 0.079939 0.176839 0.937245
O O17 0.000000 0.500000 0.000000
#
# Coordination Sequence:
#
# PCOD9082350 Si02
#       8
#     2   2   2   2   2   2   2   2
#     4  10  21  32  48  79 105 139 173 215 255 294
#     4   8  17  32  54  74 105 137 167 203 251 315
#     4   8  18  34  51  79 107 134 162 210 268 301
#     4  10  19  33  54  81 104 137 167 205 268 306
#     4   9  17  34  52  78 104 140 171 212 252 297
#     4   9  18  30  52  76 109 133 168 210 256 309
#     4  10  21  32  49  81 110 136 163 206 265 315
#     4  10  19  33  55  81 103 131 174 219 251 305
#
# _framework density 20.210231
#
# number of rings (size 3 to 8) (size 9 to 14) (size 15 to 20)
#    0.750    2.000    0.000    1.500    1.750    5.500 
#    0.000    0.000    0.000    0.750    6.500    7.000 
#    0.000    0.000    0.000    0.000    0.000    0.000 
#
# Total GULP energy -89147.144448 kJ/mol
# GULP energy per Si atom -5571.696528 kJ/mol
# Density = 2.016423 g / cm^3
# Si number density = 20.210231 Si / 1000 Ang^3
#
#
#
# Elastic Constant Matrix: (Units=GPa)
#
#
# Indices 1 2 3 4 5 6 
#
# 1 52.3245 17.0974 7.4166 2.6350 9.8299 5.3435
# 2 17.0974 105.6713 17.5068 -13.3270 -3.0458 28.6957
# 3 7.4166 17.5068 22.1475 7.9260 5.8757 -0.0194
# 4 2.6350 -13.3270 7.9260 18.3292 4.2918 -2.7283
# 5 9.8299 -3.0458 5.8757 4.2918 23.1226 -4.3086
# 6 5.3435 28.6957 -0.0194 -2.7283 -4.3086 31.6218
#
#
#
# Elastic Compliance Matrix: (Units=1/GPa)
#
#
# Indices 1 2 3 4 5 6 
#
# 1 0.022639 -0.003702 -0.000794 -0.003662 -0.009621 -0.002093
# 2 -0.003702 0.022154 -0.025974 0.024563 0.003382 -0.016914
# 3 -0.000794 -0.025974 0.087578 -0.051073 -0.012572 0.017639
# 4 -0.003662 0.024563 -0.051073 0.093463 -0.002174 -0.013935
# 5 -0.009621 0.003382 -0.012572 -0.002174 0.052407 0.005502
# 6 -0.002093 -0.016914 0.017639 -0.013935 0.005502 0.046885
#
#
# Mechanical properties :
#
#
# Convention : Reuss Voigt Hill
#
# Bulk Modulus (GPa) = 13.99966 29.35388 21.67677
# Shear Modulus (GPa) = 12.19881 23.82290 18.01085
#
# Velocity S-wave (km/s) = 2.45948 3.43702 2.98849
# Velocity P-wave (km/s) = 3.87395 5.50515 4.75994
#
# Compressibility (1/GPa) = 0.07143032
#
# Stress axis : x y z
#
# Youngs Moduli (GPa) = 44.17091 45.13861 11.41845
#
# Poissons Ratio (x) = 0.16711 0.00906
# Poissons Ratio (y) = 0.16353 0.29659
# Poissons Ratio (z) = 0.03506 1.17245
#
# Static dielectric constant tensor:
#      x y z
#    x 1.783890 -0.000220 -0.023120 
#    y -0.000220 1.727330 -0.008730 
#    z -0.023120 -0.008730 1.721520 
# 
# From -- ./inp_files/223403.got.cif
#   From: 2010.05.17/outbox.cif.g08.bks.cpg/sg2_112_cif.got.tgz:223403.got - 2010.06.03 11:33:40.
