data_PCOD9082395
_publ_section_title
;
Structure prediction by ZEFSAII (Michael W. Deem and Ramdas Pophale) SiO2 
 PCOD9082395
Probable space group: P -1
;
_chemical_formula_sum "Si O2"
_cell_formula_units_Z 14
_cell_length_a 11.095801
_cell_length_b 8.080377
_cell_length_c 17.411601
_cell_angle_alpha 101.175578
_cell_angle_beta 29.671141
_cell_angle_gamma 80.938529
_cell_volume 562.062660
_symmetry_space_group_name_H-M "P -1"
_symmetry_group_IT_number 2
_symmetry_cell_setting 'triclinic'
loop_
_space_group_symop_operation_xyz
x,y,z
-x,-y,-z
loop_
_atom_site_type_symbol
_atom_site_label
_atom_site_fract_x
_atom_site_fract_y
_atom_site_fract_z
Si Si1 0.058939 0.178028 0.204781
Si Si2 0.752676 0.000169 0.755023
Si Si3 0.654691 0.561047 0.191680
Si Si4 0.928011 0.186126 0.114011
Si Si5 0.996946 0.413956 0.693701
Si Si6 0.424211 0.513139 0.938847
Si Si7 0.633155 0.980061 0.661184
O O1 0.891823 0.168296 0.222751
O O2 0.934502 0.427714 0.306627
O O3 0.043821 0.094946 0.287587
O O4 0.439751 0.031767 0.957191
O O5 0.622964 0.246976 0.825550
O O6 0.860249 0.870514 0.601634
O O7 0.651812 0.453347 0.105408
O O8 0.651493 0.435836 0.253626
O O9 0.382845 0.832908 0.355967
O O10 0.000000 0.500000 0.000000
O O11 0.270844 0.127766 0.909350
O O12 0.000000 0.000000 0.000000
O O13 0.662015 0.550066 0.840171
O O14 0.271878 0.204001 0.469403
O O15 0.901781 0.353090 0.817136
#
# Coordination Sequence:
#
# PCOD9082395 Si02
#       7
#     2   2   2   2   2   2   2
#     4   9  18  34  53  75 110 143 173 220 276 317
#     4   8  16  32  52  76 107 142 176 217 266 312
#     4   9  18  36  55  77 110 146 182 219 264 320
#     4  10  21  38  59  77 103 148 187 215 264 335
#     4  10  19  33  54  84 112 137 178 229 275 316
#     4   9  19  33  55  81 106 144 184 219 270 321
#     4   9  19  35  56  82 109 140 179 225 272 312
#
# _framework density 24.908253999999999
#
# number of rings (size 3 to 8) (size 9 to 14) (size 15 to 20)
#    0.000    2.857    0.000    2.571    0.000    8.571 
#    0.000    8.571    0.000    1.714    0.000    0.000 
#    0.000    0.000    0.000    0.000    0.000    0.000 
#
# Total GULP energy -78217.049872 kJ/mol
# GULP energy per Si atom -5586.932134 kJ/mol
# Density = 2.485156 g / cm^3
# Si number density = 24.908254 Si / 1000 Ang^3
#
#
#
# Elastic Constant Matrix: (Units=GPa)
#
#
# Indices 1 2 3 4 5 6 
#
# 1 167.1090 47.6871 15.9862 4.1266 28.1006 -37.1978
# 2 47.6871 84.8445 15.1021 2.8911 8.7724 -27.6969
# 3 15.9862 15.1021 71.9508 -5.8700 19.5092 -17.7090
# 4 4.1266 2.8911 -5.8700 30.3870 9.7924 5.6052
# 5 28.1006 8.7724 19.5092 9.7924 39.6599 -6.2878
# 6 -37.1978 -27.6969 -17.7090 5.6052 -6.2878 49.5099
#
#
#
# Elastic Compliance Matrix: (Units=1/GPa)
#
#
# Indices 1 2 3 4 5 6 
#
# 1 0.008653 -0.003066 0.001346 0.000302 -0.005470 0.004538
# 2 -0.003066 0.015898 -0.001635 -0.003010 0.001234 0.006503
# 3 0.001346 -0.001635 0.018401 0.006011 -0.010386 0.004678
# 4 0.000302 -0.003010 0.006011 0.039554 -0.013136 -0.005453
# 5 -0.005470 0.001234 -0.010386 -0.013136 0.037019 -0.000945
# 6 0.004538 0.006503 0.004678 -0.005453 -0.000945 0.029416
#
#
# Mechanical properties :
#
#
# Convention : Reuss Voigt Hill
#
# Bulk Modulus (GPa) = 27.59368 53.49500 40.54434
# Shear Modulus (GPa) = 29.80918 40.25330 35.03124
#
# Velocity S-wave (km/s) = 3.46317 4.02439 3.75428
# Velocity P-wave (km/s) = 5.20515 6.56641 5.92500
#
# Compressibility (1/GPa) = 0.03624018
#
# Stress axis : x y z
#
# Youngs Moduli (GPa) = 115.56835 62.89931 54.34613
#
# Poissons Ratio (x) = 0.19286 -0.07314
# Poissons Ratio (y) = 0.35435 0.08888
# Poissons Ratio (z) = -0.15553 0.10287
#
# Static dielectric constant tensor:
#      x y z
#    x 2.060220 0.011140 -0.101350 
#    y 0.011140 1.963790 -0.001140 
#    z -0.101350 -0.001140 2.080340 
# 
# From -- ./inp_files/172828.got.cif
#   From: 2010.05.17/outbox.cif.g08.bks.cpg/sg2_87_cif.got.tgz:172828.got - 2010.06.03 11:33:40.
