data_PCOD9082794
_publ_section_title
;
Structure prediction by ZEFSAII (Michael W. Deem and Ramdas Pophale) SiO2 
 PCOD9082794
Probable space group: P -1
;
_chemical_formula_sum "Si O2"
_cell_formula_units_Z 16
_cell_length_a 10.600549
_cell_length_b 14.164009
_cell_length_c 21.126386
_cell_angle_alpha 148.438551
_cell_angle_beta 32.364116
_cell_angle_gamma 127.964580
_cell_volume 824.561334
_symmetry_space_group_name_H-M "P -1"
_symmetry_group_IT_number 2
_symmetry_cell_setting 'triclinic'
loop_
_space_group_symop_operation_xyz
x,y,z
-x,-y,-z
loop_
_atom_site_type_symbol
_atom_site_label
_atom_site_fract_x
_atom_site_fract_y
_atom_site_fract_z
Si Si1 0.746162 0.166101 0.440247
Si Si2 0.105479 0.234733 0.435555
Si Si3 0.281741 0.428950 0.982360
Si Si4 0.902636 0.232875 0.989585
Si Si5 0.708057 0.529891 0.140969
Si Si6 0.397299 0.012055 0.977987
Si Si7 0.053570 0.601041 0.598167
Si Si8 0.164662 0.783762 0.330458
O O1 0.913672 0.208531 0.449157
O O2 0.462017 0.260548 0.639558
O O3 0.769862 0.287330 0.437585
O O4 0.877214 0.941740 0.239722
O O5 0.980352 0.244279 0.561643
O O6 0.371418 0.060039 0.209679
O O7 0.148902 0.431807 0.512102
O O8 0.356174 0.484791 0.913134
O O9 0.539428 0.262168 0.803715
O O10 0.190005 0.617815 0.173303
O O11 0.051182 0.353377 0.028779
O O12 0.701904 0.365598 0.098646
O O13 0.758982 0.131188 0.036650
O O14 0.000000 0.500000 0.000000
O O15 0.500000 0.000000 0.000000
O O16 0.204183 0.230017 0.173691
O O17 0.000000 0.500000 0.500000
O O18 0.000000 0.000000 0.500000
#
# Coordination Sequence:
#
# PCOD9082794 Si02
#       8
#     2   2   2   2   2   2   2   2
#     4  10  19  33  57  93 124 155 184 245 314 365
#     4  11  21  36  59  88 120 156 203 245 297 355
#     4  10  24  43  59  85 119 164 215 249 297 352
#     4  10  22  37  62  93 130 154 189 253 314 371
#     4  10  21  34  57  90 123 158 192 248 312 361
#     4  11  19  32  58  96 123 154 189 236 309 372
#     4   9  18  31  54  84 124 147 182 239 297 360
#     4  11  26  44  64  81 114 170 217 256 283 351
#
# _framework density 19.404257000000001
#
# number of rings (size 3 to 8) (size 9 to 14) (size 15 to 20)
#    0.000    1.750    5.000    0.750    3.500    6.000 
#    0.000    0.625    0.000    3.750    0.000    0.000 
#    0.000    0.000    0.000    0.000    0.000    0.000 
#
# Total GULP energy -89264.275752 kJ/mol
# GULP energy per Si atom -5579.017234 kJ/mol
# Density = 1.936009 g / cm^3
# Si number density = 19.404257 Si / 1000 Ang^3
#
#
#
# Elastic Constant Matrix: (Units=GPa)
#
#
# Indices 1 2 3 4 5 6 
#
# 1 66.4461 26.9947 29.9625 4.8894 -0.8347 -0.0202
# 2 26.9947 49.4912 16.1435 4.6092 0.3203 -4.9592
# 3 29.9625 16.1435 133.6119 -5.7305 -16.5914 -8.4027
# 4 4.8894 4.6092 -5.7305 30.8951 -1.4275 -4.2907
# 5 -0.8347 0.3203 -16.5914 -1.4275 26.2539 -2.5306
# 6 -0.0202 -4.9592 -8.4027 -4.2907 -2.5306 26.3505
#
#
#
# Elastic Compliance Matrix: (Units=1/GPa)
#
#
# Indices 1 2 3 4 5 6 
#
# 1 0.021385 -0.010363 -0.004244 -0.003302 -0.002447 -0.004060
# 2 -0.010363 0.026750 -0.000823 -0.001937 -0.000861 0.004366
# 3 -0.004244 -0.000823 0.009772 0.003492 0.006642 0.004164
# 4 -0.003302 -0.001937 0.003492 0.035002 0.004694 0.006897
# 5 -0.002447 -0.000861 0.006642 0.004694 0.043136 0.006861
# 6 -0.004060 0.004366 0.004164 0.006897 0.006861 0.041878
#
#
# Mechanical properties :
#
#
# Convention : Reuss Voigt Hill
#
# Bulk Modulus (GPa) = 36.97514 43.97228 40.47371
# Shear Modulus (GPa) = 22.95673 28.46311 25.70992
#
# Velocity S-wave (km/s) = 3.44332 3.83410 3.64395
# Velocity P-wave (km/s) = 5.90806 6.50467 6.21353
#
# Compressibility (1/GPa) = 0.02704520
#
# Stress axis : x y z
#
# Youngs Moduli (GPa) = 46.76184 37.38273 102.33228
#
# Poissons Ratio (x) = 0.38741 0.43432
# Poissons Ratio (y) = 0.48461 0.08427
# Poissons Ratio (z) = 0.19847 0.03078
#
# Static dielectric constant tensor:
#      x y z
#    x 1.689050 -0.013290 -0.029620 
#    y -0.013290 1.737550 0.001020 
#    z -0.029620 0.001020 1.680640 
# 
# From -- ./inp_files/595644.got.cif
#   From: 2010.05.17/outbox.cif.g08.bks.cpg/sg2_298_cif.got.tgz:595644.got - 2010.06.03 11:33:40.
