data_PCOD9082279
_publ_section_title
;
Structure prediction by ZEFSAII (Michael W. Deem and Ramdas Pophale) SiO2 
 PCOD9082279
Probable space group: P -1
;
_chemical_formula_sum "Si O2"
_cell_formula_units_Z 14
_cell_length_a 8.044242
_cell_length_b 13.574900
_cell_length_c 9.658382
_cell_angle_alpha 92.326286
_cell_angle_beta 44.120542
_cell_angle_gamma 117.921979
_cell_volume 568.966936
_symmetry_space_group_name_H-M "P -1"
_symmetry_group_IT_number 2
_symmetry_cell_setting 'triclinic'
loop_
_space_group_symop_operation_xyz
x,y,z
-x,-y,-z
loop_
_atom_site_type_symbol
_atom_site_label
_atom_site_fract_x
_atom_site_fract_y
_atom_site_fract_z
Si Si1 0.664302 0.100004 0.735313
Si Si2 0.300044 0.022337 0.527083
Si Si3 0.687844 0.836728 0.244321
Si Si4 0.812446 0.551007 0.106357
Si Si5 0.971387 0.416458 0.318036
Si Si6 0.192726 0.821856 0.959153
Si Si7 0.103276 0.380200 0.546829
O O1 0.457624 0.126224 0.776597
O O2 0.895805 0.228887 0.688889
O O3 0.856766 0.086545 0.502075
O O4 0.418861 0.951780 0.919123
O O5 0.150645 0.058931 0.723065
O O6 0.553312 0.150709 0.298901
O O7 0.500000 0.000000 0.500000
O O8 0.396231 0.700869 0.470518
O O9 0.945100 0.830243 0.035422
O O10 0.462284 0.453025 0.357082
O O11 0.000000 0.500000 0.000000
O O12 0.855209 0.584732 0.918007
O O13 0.981305 0.674689 0.109191
O O14 0.008618 0.544680 0.317474
O O15 0.078736 0.395344 0.396110
#
# Coordination Sequence:
#
# PCOD9082279 Si02
#       7
#     2   2   2   2   2   2   2
#     4   8  18  32  53  84 117 138 183 237 294 340
#     4   8  16  28  49  81 114 143 181 225 289 339
#     4  10  15  31  55  85 113 145 185 237 291 338
#     4  12  25  40  59  84 116 162 203 231 280 350
#     4  10  20  38  62  87 118 151 188 246 299 337
#     4  10  19  33  53  81 114 150 192 235 275 345
#     4  10  21  40  58  90 120 145 188 247 299 342
#
# _framework density 24.606000999999999
#
# number of rings (size 3 to 8) (size 9 to 14) (size 15 to 20)
#    0.857    1.429    2.857    0.857    0.000    0.571 
#    2.571    0.714    0.000    0.857    0.000    0.000 
#    0.000    0.000    0.000    0.000    0.000    0.000 
#
# Total GULP energy -78025.598062 kJ/mol
# GULP energy per Si atom -5573.257004 kJ/mol
# Density = 2.455000 g / cm^3
# Si number density = 24.606001 Si / 1000 Ang^3
#
#
#
# Elastic Constant Matrix: (Units=GPa)
#
#
# Indices 1 2 3 4 5 6 
#
# 1 36.4433 43.6330 17.2145 -3.0257 3.6266 8.4671
# 2 43.6330 224.5710 56.0976 -32.2091 -2.3296 23.0636
# 3 17.2145 56.0976 87.9881 -17.1344 -1.8243 10.8073
# 4 -3.0257 -32.2091 -17.1344 48.0636 -4.7937 8.2501
# 5 3.6266 -2.3296 -1.8243 -4.7937 18.7273 0.1017
# 6 8.4671 23.0636 10.8073 8.2501 0.1017 39.6086
#
#
#
# Elastic Compliance Matrix: (Units=1/GPa)
#
#
# Indices 1 2 3 4 5 6 
#
# 1 0.038879 -0.007077 -0.003858 -0.004273 -0.009867 -0.002222
# 2 -0.007077 0.007344 -0.001923 0.004673 0.003310 -0.003220
# 3 -0.003858 -0.001923 0.014660 0.004520 0.003109 -0.003005
# 4 -0.004273 0.004673 0.004520 0.027692 0.008986 -0.008832
# 5 -0.009867 0.003310 0.003109 0.008986 0.058338 -0.002688
# 6 -0.002222 -0.003220 -0.003005 -0.008832 -0.002688 0.030264
#
#
# Mechanical properties :
#
#
# Convention : Reuss Voigt Hill
#
# Bulk Modulus (GPa) = 28.43687 64.76584 46.60136
# Shear Modulus (GPa) = 23.29738 36.75039 30.02389
#
# Velocity S-wave (km/s) = 3.08038 3.86885 3.49691
# Velocity P-wave (km/s) = 4.92276 6.80702 5.94008
#
# Compressibility (1/GPa) = 0.03516561
#
# Stress axis : x y z
#
# Youngs Moduli (GPa) = 25.72058 136.16992 68.21268
#
# Poissons Ratio (x) = 0.96372 0.26318
# Poissons Ratio (y) = 0.18203 0.13119
# Poissons Ratio (z) = 0.09923 0.26189
#
# Static dielectric constant tensor:
#      x y z
#    x 2.012480 0.019370 0.118680 
#    y 0.019370 1.965340 -0.020090 
#    z 0.118680 -0.020090 1.929220 
# 
# From -- ./inp_files/397443.got.cif
#   From: 2010.05.17/outbox.cif.g08.bks.cpg/sg2_199_cif.got.tgz:397443.got - 2010.06.03 11:33:40.
