data_PCOD9082479
_publ_section_title
;
Structure prediction by ZEFSAII (Michael W. Deem and Ramdas Pophale) SiO2 
 PCOD9082479
Probable space group: P -1
;
_chemical_formula_sum "Si O2"
_cell_formula_units_Z 16
_cell_length_a 8.175898
_cell_length_b 16.375514
_cell_length_c 8.299380
_cell_angle_alpha 132.185797
_cell_angle_beta 75.587515
_cell_angle_gamma 76.911305
_cell_volume 666.786998
_symmetry_space_group_name_H-M "P -1"
_symmetry_group_IT_number 2
_symmetry_cell_setting 'triclinic'
loop_
_space_group_symop_operation_xyz
x,y,z
-x,-y,-z
loop_
_atom_site_type_symbol
_atom_site_label
_atom_site_fract_x
_atom_site_fract_y
_atom_site_fract_z
Si Si1 0.154546 0.820106 0.147039
Si Si2 0.893425 0.921890 0.899234
Si Si3 0.289309 0.101231 0.598543
Si Si4 0.595448 0.079636 0.943449
Si Si5 0.250967 0.713785 0.321674
Si Si6 0.560423 0.541017 0.266870
Si Si7 0.757549 0.445162 0.401950
Si Si8 0.181440 0.255154 0.110933
O O1 0.245893 0.884682 0.106913
O O2 0.248238 0.790919 0.265964
O O3 0.913363 0.899956 0.332154
O O4 0.216968 0.683514 0.862710
O O5 0.875917 0.849142 0.959293
O O6 0.036993 0.804880 0.583123
O O7 0.668147 0.028268 0.035799
O O8 0.000000 0.000000 0.000000
O O9 0.500000 0.000000 0.500000
O O10 0.348199 0.053162 0.339870
O O11 0.232067 0.234732 0.880407
O O12 0.378554 0.202216 0.101468
O O13 0.422353 0.668040 0.356129
O O14 0.296550 0.578295 0.048703
O O15 0.679608 0.543777 0.398274
O O16 0.400626 0.515672 0.362715
O O17 0.973056 0.394196 0.358924
#
# Coordination Sequence:
#
# PCOD9082479 Si02
#       8
#     2   2   2   2   2   2   2   2
#     4  10  19  33  55  83 115 146 188 232 278 340
#     4  12  23  35  56  87 120 148 184 236 282 344
#     4   9  18  32  51  77 111 149 187 224 271 333
#     4  11  22  35  54  79 120 158 185 226 283 346
#     4  10  20  33  56  87 110 142 191 236 288 334
#     4   9  18  34  58  86 106 140 187 253 282 329
#     4   9  17  34  60  85 105 136 192 243 288 331
#     4  10  21  36  54  84 114 150 190 230 288 344
#
# _framework density 23.99567
#
# number of rings (size 3 to 8) (size 9 to 14) (size 15 to 20)
#    0.000    2.000    2.500    2.250    1.750    0.000 
#    0.000    0.000    0.000    7.500    0.000    0.000 
#    0.000    0.000    0.000    0.000    0.000    0.000 
#
# Total GULP energy -89129.256326 kJ/mol
# GULP energy per Si atom -5570.578520 kJ/mol
# Density = 2.394105 g / cm^3
# Si number density = 23.995670 Si / 1000 Ang^3
#
#
#
# Elastic Constant Matrix: (Units=GPa)
#
#
# Indices 1 2 3 4 5 6 
#
# 1 108.1410 53.1259 52.6497 11.8547 -30.4587 -35.6048
# 2 53.1259 128.0487 16.2252 -10.7888 1.5230 -36.2607
# 3 52.6497 16.2252 99.7314 -0.8549 -15.9200 6.1589
# 4 11.8547 -10.7888 -0.8549 25.7373 -5.0255 -9.0752
# 5 -30.4587 1.5230 -15.9200 -5.0255 38.4786 9.5771
# 6 -35.6048 -36.2607 6.1589 -9.0752 9.5771 46.5257
#
#
#
# Elastic Compliance Matrix: (Units=1/GPa)
#
#
# Indices 1 2 3 4 5 6 
#
# 1 0.027367 -0.007172 -0.012123 -0.009115 0.012608 0.012585
# 2 -0.007172 0.014589 -0.000244 0.011389 -0.007266 0.009631
# 3 -0.012123 -0.000244 0.017308 0.002145 0.000714 -0.011488
# 4 -0.009115 0.011389 0.002145 0.051639 -0.003102 0.012328
# 5 0.012608 -0.007266 0.000714 -0.003102 0.037236 -0.004378
# 6 0.012585 0.009631 -0.011488 0.012328 -0.004378 0.043457
#
#
# Mechanical properties :
#
#
# Convention : Reuss Voigt Hill
#
# Bulk Modulus (GPa) = 49.54043 64.43585 56.98814
# Shear Modulus (GPa) = 21.06107 36.40967 28.73537
#
# Velocity S-wave (km/s) = 2.96582 3.89953 3.46428
# Velocity P-wave (km/s) = 5.69372 6.86925 6.30893
#
# Compressibility (1/GPa) = 0.02018553
#
# Stress axis : x y z
#
# Youngs Moduli (GPa) = 36.54060 68.54245 57.77540
#
# Poissons Ratio (x) = 0.49160 0.70042
# Poissons Ratio (y) = 0.26208 0.01411
# Poissons Ratio (z) = 0.44299 0.01674
#
# Static dielectric constant tensor:
#      x y z
#    x 1.971110 -0.039950 -0.000620 
#    y -0.039950 1.957030 -0.016010 
#    z -0.000620 -0.016010 1.975760 
# 
# From -- ./inp_files/218605.got.cif
#   From: 2010.05.17/outbox.cif.g08.bks.cpg/sg2_110_cif.got.tgz:218605.got - 2010.06.03 11:33:40.
