data_PCOD9082200
_publ_section_title
;
Structure prediction by ZEFSAII (Michael W. Deem and Ramdas Pophale) SiO2 
 PCOD9082200
Probable space group: P -1
;
_chemical_formula_sum "Si O2"
_cell_formula_units_Z 14
_cell_length_a 7.967074
_cell_length_b 6.440072
_cell_length_c 11.574709
_cell_angle_alpha 109.164462
_cell_angle_beta 74.310082
_cell_angle_gamma 94.033815
_cell_volume 539.955505
_symmetry_space_group_name_H-M "P -1"
_symmetry_group_IT_number 2
_symmetry_cell_setting 'triclinic'
loop_
_space_group_symop_operation_xyz
x,y,z
-x,-y,-z
loop_
_atom_site_type_symbol
_atom_site_label
_atom_site_fract_x
_atom_site_fract_y
_atom_site_fract_z
Si Si1 0.722594 0.125041 0.902237
Si Si2 0.614535 0.034742 0.666554
Si Si3 0.137636 0.338320 0.502609
Si Si4 0.092422 0.223391 0.064344
Si Si5 0.912916 0.846756 0.283471
Si Si6 0.318602 0.760167 0.557133
Si Si7 0.766855 0.497817 0.124678
O O1 0.917035 0.190907 0.833429
O O2 0.601036 0.143638 0.815284
O O3 0.760324 0.876547 0.895925
O O4 0.669658 0.291407 0.047309
O O5 0.780604 0.866693 0.618062
O O6 0.463747 0.871456 0.628271
O O7 0.647199 0.185707 0.575156
O O8 0.049342 0.237703 0.612147
O O9 0.291624 0.505215 0.535495
O O10 0.000000 0.500000 0.500000
O O11 0.922952 0.377798 0.148500
O O12 0.180646 0.364696 0.974001
O O13 0.000000 0.000000 0.000000
O O14 0.740551 0.709510 0.250891
O O15 0.853407 0.098966 0.347399
#
# Coordination Sequence:
#
# PCOD9082200 Si02
#       7
#     2   2   2   2   2   2   2
#     4  11  20  33  60  87 115 143 191 239 277 330
#     4  10  23  41  57  83 113 155 192 226 285 344
#     4  11  23  37  61  88 110 143 192 245 284 328
#     4   9  16  30  50  80 114 147 176 229 284 322
#     4  11  21  34  58  89 113 146 190 231 287 333
#     4  10  23  41  58  77 120 156 185 231 284 341
#     4  10  19  33  52  88 117 148 181 229 294 330
#
# _framework density 25.928059000000001
#
# number of rings (size 3 to 8) (size 9 to 14) (size 15 to 20)
#    0.000    1.714    4.286    2.143    4.000    3.429 
#    0.000    0.714    0.000    1.714    0.000    0.000 
#    0.000    0.000    0.000    0.000    0.000    0.000 
#
# Total GULP energy -78113.713557 kJ/mol
# GULP energy per Si atom -5579.550968 kJ/mol
# Density = 2.586905 g / cm^3
# Si number density = 25.928059 Si / 1000 Ang^3
#
#
#
# Elastic Constant Matrix: (Units=GPa)
#
#
# Indices 1 2 3 4 5 6 
#
# 1 75.9668 11.3687 13.2969 -4.2197 18.5096 9.3093
# 2 11.3687 131.0166 25.7978 1.7528 1.7633 0.1059
# 3 13.2969 25.7978 70.6978 5.5902 30.4992 -3.7249
# 4 -4.2197 1.7528 5.5902 46.2466 -6.0252 4.0696
# 5 18.5096 1.7633 30.4992 -6.0252 39.7468 3.3111
# 6 9.3093 0.1059 -3.7249 4.0696 3.3111 26.5019
#
#
#
# Elastic Compliance Matrix: (Units=1/GPa)
#
#
# Indices 1 2 3 4 5 6 
#
# 1 0.015625 -0.001298 0.000122 0.000999 -0.006763 -0.004775
# 2 -0.001298 0.008617 -0.004752 0.000733 0.004052 -0.000865
# 3 0.000122 -0.004752 0.025938 -0.006361 -0.021318 0.007262
# 4 0.000999 0.000733 -0.006361 0.024097 0.008537 -0.006015
# 5 -0.006763 0.004052 -0.021318 0.008537 0.046427 -0.007748
# 6 -0.004775 -0.000865 0.007262 -0.006015 -0.007748 0.042326
#
#
# Mechanical properties :
#
#
# Convention : Reuss Voigt Hill
#
# Bulk Modulus (GPa) = 26.09302 42.06757 34.08029
# Shear Modulus (GPa) = 26.64374 37.64691 32.14532
#
# Velocity S-wave (km/s) = 3.20910 3.81461 3.52488
# Velocity P-wave (km/s) = 4.88022 5.97174 5.45336
#
# Compressibility (1/GPa) = 0.03832443
#
# Stress axis : x y z
#
# Youngs Moduli (GPa) = 63.99960 116.04578 38.55338
#
# Poissons Ratio (x) = 0.15067 -0.00471
# Poissons Ratio (y) = 0.08309 0.18320
# Poissons Ratio (z) = -0.00782 0.55142
#
# Static dielectric constant tensor:
#      x y z
#    x 2.200940 -0.003860 0.027930 
#    y -0.003860 2.022800 0.031080 
#    z 0.027930 0.031080 2.083210 
# 
# From -- ./inp_files/66088.got.cif
#   From: 2010.05.17/outbox.cif.g08.bks.cpg/sg2_34_cif.got.tgz:66088.got - 2010.06.03 11:33:40.
