data_PCOD9082898
_publ_section_title
;
Structure prediction by ZEFSAII (Michael W. Deem and Ramdas Pophale) SiO2 
 PCOD9082898
Probable space group: P -1
;
_chemical_formula_sum "Si O2"
_cell_formula_units_Z 16
_cell_length_a 9.487582
_cell_length_b 14.869246
_cell_length_c 7.663719
_cell_angle_alpha 56.293691
_cell_angle_beta 114.301058
_cell_angle_gamma 112.841737
_cell_volume 801.289989
_symmetry_space_group_name_H-M "P -1"
_symmetry_group_IT_number 2
_symmetry_cell_setting 'triclinic'
loop_
_space_group_symop_operation_xyz
x,y,z
-x,-y,-z
loop_
_atom_site_type_symbol
_atom_site_label
_atom_site_fract_x
_atom_site_fract_y
_atom_site_fract_z
Si Si1 0.561939 0.064244 0.635705
Si Si2 0.763730 0.299214 0.397441
Si Si3 0.169426 0.050859 0.955120
Si Si4 0.182557 0.520873 0.504002
Si Si5 0.964106 0.806134 0.689248
Si Si6 0.785557 0.979063 0.393222
Si Si7 0.877700 0.720348 0.359854
Si Si8 0.886927 0.387160 0.991003
O O1 0.634866 0.190207 0.489262
O O2 0.500000 0.000000 0.500000
O O3 0.402223 0.046003 0.685319
O O4 0.696240 0.007644 0.843226
O O5 0.728308 0.399834 0.386798
O O6 0.788371 0.334247 0.168587
O O7 0.933687 0.274501 0.575887
O O8 0.191981 0.181206 0.862123
O O9 0.158095 0.029235 0.766413
O O10 0.000000 0.000000 0.000000
O O11 0.213032 0.399117 0.620064
O O12 0.000000 0.500000 0.500000
O O13 0.197698 0.579582 0.259419
O O14 0.878325 0.742945 0.544032
O O15 0.123310 0.900248 0.623196
O O16 0.019403 0.706992 0.923666
O O17 0.849035 0.880696 0.629494
O O18 0.000000 0.500000 0.000000
#
# Coordination Sequence:
#
# PCOD9082898 Si02
#       8
#     2   2   2   2   2   2   2   2
#     4  12  25  43  61  91 134 167 206 262 330 380
#     4  10  21  37  58  90 126 163 210 259 306 381
#     4  11  23  39  65  93 126 164 210 265 317 379
#     4  10  19  33  58  93 120 160 209 263 307 368
#     4   9  19  35  63  90 122 159 213 257 310 376
#     4  10  23  40  62  90 127 169 210 259 321 382
#     4   9  17  36  57  91 121 157 207 260 308 365
#     4  11  18  33  60  93 125 159 206 265 314 363
#
# _framework density 19.967801999999999
#
# number of rings (size 3 to 8) (size 9 to 14) (size 15 to 20)
#    0.000    1.750    5.000    1.875    5.250    0.000 
#    2.250    0.000    0.000    7.500    0.000    0.000 
#    0.000    0.000    0.000    0.000    0.000    0.000 
#
# Total GULP energy -89186.849219 kJ/mol
# GULP energy per Si atom -5574.178076 kJ/mol
# Density = 1.992235 g / cm^3
# Si number density = 19.967802 Si / 1000 Ang^3
#
#
#
# Elastic Constant Matrix: (Units=GPa)
#
#
# Indices 1 2 3 4 5 6 
#
# 1 91.0319 22.0572 41.4470 -8.2674 -0.3717 3.0112
# 2 22.0572 126.3782 46.3661 -28.2714 1.2109 -13.1255
# 3 41.4470 46.3661 98.5783 -20.3682 -3.5247 -4.7779
# 4 -8.2674 -28.2714 -20.3682 39.3708 -8.7587 0.6991
# 5 -0.3717 1.2109 -3.5247 -8.7587 21.6965 2.6762
# 6 3.0112 -13.1255 -4.7779 0.6991 2.6762 24.2362
#
#
#
# Elastic Compliance Matrix: (Units=1/GPa)
#
#
# Indices 1 2 3 4 5 6 
#
# 1 0.013843 -0.000784 -0.005772 -0.000707 -0.000547 -0.003201
# 2 -0.000784 0.011217 -0.003389 0.006191 0.000661 0.005252
# 3 -0.005772 -0.003389 0.015504 0.005381 0.004624 0.001272
# 4 -0.000707 0.006191 0.005381 0.035720 0.014709 0.001847
# 5 -0.000547 0.000661 0.004624 0.014709 0.053347 -0.004977
# 6 -0.003201 0.005252 0.001272 0.001847 -0.004977 0.045250
#
#
# Mechanical properties :
#
#
# Convention : Reuss Voigt Hill
#
# Bulk Modulus (GPa) = 48.37089 59.52543 53.94816
# Shear Modulus (GPa) = 24.79393 30.80189 27.79791
#
# Velocity S-wave (km/s) = 3.52759 3.93183 3.73518
# Velocity P-wave (km/s) = 6.39288 7.10548 6.75858
#
# Compressibility (1/GPa) = 0.02067359
#
# Stress axis : x y z
#
# Youngs Moduli (GPa) = 72.24052 89.15057 64.49882
#
# Poissons Ratio (x) = 0.06986 0.37231
# Poissons Ratio (y) = 0.05661 0.21859
# Poissons Ratio (z) = 0.41700 0.30214
#
# Static dielectric constant tensor:
#      x y z
#    x 1.700160 -0.021860 -0.121870 
#    y -0.021860 1.726860 -0.019750 
#    z -0.121870 -0.019750 1.840560 
# 
# From -- ./inp_files/199788.got.cif
#   From: 2010.05.17/outbox.cif.g08.bks.cpg/sg2_100_cif.got.tgz:199788.got - 2010.06.03 11:33:40.
