data_PCOD9082540
_publ_section_title
;
Structure prediction by ZEFSAII (Michael W. Deem and Ramdas Pophale) SiO2 
 PCOD9082540
Probable space group: P -1
;
_chemical_formula_sum "Si O2"
_cell_formula_units_Z 14
_cell_length_a 12.140335
_cell_length_b 15.216897
_cell_length_c 5.413641
_cell_angle_alpha 89.649144
_cell_angle_beta 105.934840
_cell_angle_gamma 39.225483
_cell_volume 567.405222
_symmetry_space_group_name_H-M "P -1"
_symmetry_group_IT_number 2
_symmetry_cell_setting 'triclinic'
loop_
_space_group_symop_operation_xyz
x,y,z
-x,-y,-z
loop_
_atom_site_type_symbol
_atom_site_label
_atom_site_fract_x
_atom_site_fract_y
_atom_site_fract_z
Si Si1 0.056976 0.867781 0.950833
Si Si2 0.186128 0.326237 0.042224
Si Si3 0.345647 0.399657 0.195875
Si Si4 0.256785 0.141809 0.734364
Si Si5 0.194602 0.574403 0.599351
Si Si6 0.259291 0.089529 0.243253
Si Si7 0.287283 0.702518 0.593290
O O1 0.149688 0.814922 0.736262
O O2 0.882468 0.905606 0.835090
O O3 0.196387 0.750706 0.262171
O O4 0.000000 0.000000 0.000000
O O5 0.223411 0.264608 0.789537
O O6 0.357774 0.287070 0.213770
O O7 0.164482 0.246783 0.169972
O O8 0.000000 0.500000 0.000000
O O9 0.235721 0.497766 0.374131
O O10 0.544231 0.330616 0.316073
O O11 0.239164 0.491468 0.872560
O O12 0.365325 0.036679 0.566600
O O13 0.029192 0.254589 0.556678
O O14 0.348979 0.034675 0.027675
O O15 0.335436 0.571792 0.691550
#
# Coordination Sequence:
#
# PCOD9082540 Si02
#       7
#     2   2   2   2   2   2   2
#     4  12  24  44  70  87 108 153 209 266 310 340
#     4  10  21  34  56  86 124 163 200 226 276 359
#     4  12  25  34  58  89 130 172 189 225 298 364
#     4  10  19  33  56  78 123 151 200 234 272 329
#     4  12  20  37  56  86 129 170 193 226 290 365
#     4  10  20  37  56  86 111 151 193 260 286 335
#     4  12  24  42  58  91 126 150 200 255 297 366
#
# _framework density 24.673724
#
# number of rings (size 3 to 8) (size 9 to 14) (size 15 to 20)
#    0.857    0.000    4.286    4.714    2.000    1.143 
#    0.000    0.000    0.000    1.714    0.000    0.000 
#    0.000    0.000    0.000    0.000    0.000    0.000 
#
# Total GULP energy -78155.261177 kJ/mol
# GULP energy per Si atom -5582.518655 kJ/mol
# Density = 2.461757 g / cm^3
# Si number density = 24.673724 Si / 1000 Ang^3
#
#
#
# Elastic Constant Matrix: (Units=GPa)
#
#
# Indices 1 2 3 4 5 6 
#
# 1 146.1294 44.4296 36.8317 24.8534 20.8921 16.4540
# 2 44.4296 106.5877 33.5369 29.2561 -2.2265 18.4871
# 3 36.8317 33.5369 149.5386 46.7569 -1.4414 -13.6845
# 4 24.8534 29.2561 46.7569 42.1889 1.4924 2.5835
# 5 20.8921 -2.2265 -1.4414 1.4924 44.3708 13.8069
# 6 16.4540 18.4871 -13.6845 2.5835 13.8069 43.7910
#
#
#
# Elastic Compliance Matrix: (Units=1/GPa)
#
#
# Indices 1 2 3 4 5 6 
#
# 1 0.008995 -0.002732 -0.001157 -0.001907 -0.003964 -0.001225
# 2 -0.002732 0.013747 -0.000765 -0.006857 0.004010 -0.005876
# 3 -0.001157 -0.000765 0.011194 -0.011492 -0.000309 0.005031
# 4 -0.001907 -0.006857 -0.011492 0.042478 -0.000527 -0.002320
# 5 -0.003964 0.004010 -0.000309 -0.000527 0.027383 -0.008903
# 6 -0.001225 -0.005876 0.005031 -0.002320 -0.008903 0.030293
#
#
# Mechanical properties :
#
#
# Convention : Reuss Voigt Hill
#
# Bulk Modulus (GPa) = 40.60477 70.20577 55.40527
# Shear Modulus (GPa) = 32.98020 45.23399 39.10709
#
# Velocity S-wave (km/s) = 3.65999 4.28633 3.98549
# Velocity P-wave (km/s) = 5.86115 7.28096 6.60929
#
# Compressibility (1/GPa) = 0.02462765
#
# Stress axis : x y z
#
# Youngs Moduli (GPa) = 111.17814 72.74527 89.33156
#
# Poissons Ratio (x) = 0.19876 0.10334
# Poissons Ratio (y) = 0.30377 0.06833
# Poissons Ratio (z) = 0.12861 0.05564
#
# Static dielectric constant tensor:
#      x y z
#    x 2.011480 -0.037460 -0.068720 
#    y -0.037460 1.972540 -0.029900 
#    z -0.068720 -0.029900 2.131900 
# 
# From -- ./inp_files/77901.got.cif
#   From: 2010.05.17/outbox.cif.g08.bks.cpg/sg2_39_cif.got.tgz:77901.got - 2010.06.03 11:33:40.
