data_PCOD9082575
_publ_section_title
;
Structure prediction by ZEFSAII (Michael W. Deem and Ramdas Pophale) SiO2 
 PCOD9082575
Probable space group: P -1
;
_chemical_formula_sum "Si O2"
_cell_formula_units_Z 12
_cell_length_a 7.615355
_cell_length_b 14.705839
_cell_length_c 10.903590
_cell_angle_alpha 24.370288
_cell_angle_beta 65.366512
_cell_angle_gamma 57.542650
_cell_volume 415.954843
_symmetry_space_group_name_H-M "P -1"
_symmetry_group_IT_number 2
_symmetry_cell_setting 'triclinic'
loop_
_space_group_symop_operation_xyz
x,y,z
-x,-y,-z
loop_
_atom_site_type_symbol
_atom_site_label
_atom_site_fract_x
_atom_site_fract_y
_atom_site_fract_z
Si Si1 0.115107 0.967745 0.796475
Si Si2 0.199415 0.342587 0.716227
Si Si3 0.107401 0.494106 0.837951
Si Si4 0.523169 0.024468 0.629325
Si Si5 0.181655 0.743861 0.805914
Si Si6 0.349162 0.894349 0.067303
O O1 0.922102 0.228067 0.497068
O O2 0.306142 0.048005 0.605280
O O3 0.157883 0.756530 0.944794
O O4 0.194161 0.874980 0.028214
O O5 0.128326 0.443769 0.747032
O O6 0.556173 0.680512 0.330013
O O7 0.000000 0.500000 0.500000
O O8 0.221108 0.078565 0.985126
O O9 0.899931 0.445444 0.995624
O O10 0.312421 0.250304 0.113173
O O11 0.605872 0.229573 0.327564
O O12 0.468617 0.024600 0.789605
O O13 0.000000 0.000000 0.500000
#
# Coordination Sequence:
#
# PCOD9082575 Si02
#       6
#     2   2   2   2   2   2
#     4  10  19  36  55  80 110 143 178 216 271 316
#     4  10  15  32  56  79 104 139 180 215 264 318
#     4  10  20  34  57  82 106 143 178 220 271 313
#     4   8  18  35  53  78 109 142 177 219 262 318
#     4  10  21  36  55  82 111 139 181 225 262 319
#     4   8  18  28  55  80 102 142 178 214 262 318
#
# _framework density 28.849285999999999
#
# number of rings (size 3 to 8) (size 9 to 14) (size 15 to 20)
#    1.000    1.667    1.667    0.500    0.000    3.333 
#    0.000    4.167    0.000    1.000    0.000    0.000 
#    0.000    0.000    0.000    0.000    0.000    0.000 
#
# Total GULP energy -66878.159685 kJ/mol
# GULP energy per Si atom -5573.179974 kJ/mol
# Density = 2.878362 g / cm^3
# Si number density = 28.849286 Si / 1000 Ang^3
#
#
#
# Elastic Constant Matrix: (Units=GPa)
#
#
# Indices 1 2 3 4 5 6 
#
# 1 27.0822 -74.5355 20.4071 -13.4292 -11.2190 20.1854
# 2 -74.5355 -17.8725 17.2523 16.9260 -25.1365 3.6182
# 3 20.4071 17.2523 135.1148 -25.3488 7.9085 -6.9564
# 4 -13.4292 16.9260 -25.3488 31.5127 19.2449 8.0395
# 5 -11.2190 -25.1365 7.9085 19.2449 53.5110 6.7893
# 6 20.1854 3.6182 -6.9564 8.0395 6.7893 43.4606
#
#
#
# Elastic Compliance Matrix: (Units=1/GPa)
#
#
# Indices 1 2 3 4 5 6 
#
# 1 0.012995 -0.012048 0.004464 0.024407 -0.011480 -0.007039
# 2 -0.012048 -0.000950 0.001920 -0.002995 -0.003069 0.007016
# 3 0.004464 0.001920 0.008351 0.009774 -0.002620 -0.002295
# 4 0.024407 -0.002995 0.009774 0.068705 -0.020020 -0.019104
# 5 -0.011480 -0.003069 -0.002620 -0.020020 0.021732 0.005476
# 6 -0.007039 0.007016 -0.002295 -0.019104 0.005476 0.028006
#
#
# Mechanical properties :
#
#
# Convention : Reuss Voigt Hill
#
# Bulk Modulus (GPa) = 110.29757 7.84135 59.06946
# Shear Modulus (GPa) = 32.63971 37.77689 35.20830
#
# Velocity S-wave (km/s) = 3.36726 3.62257 3.49724
# Velocity P-wave (km/s) = 7.30981 4.49681 6.06855
#
# Compressibility (1/GPa) = 0.00906638
#
# Stress axis : x y z
#
# Youngs Moduli (GPa) = 76.95541 -1052.14181 119.75205
#
# Poissons Ratio (x) = -12.67672 -0.53460
# Poissons Ratio (y) = 0.92720 -0.22994
# Poissons Ratio (z) = -0.34355 2.02022
#
# Static dielectric constant tensor:
#      x y z
#    x 2.552880 -0.095880 -0.110460 
#    y -0.095880 2.333320 0.103820 
#    z -0.110460 0.103820 2.374850 
# 
# From -- ./inp_files/60513.got.cif
#   From: 2010.05.17/outbox.cif.g08.bks.cpg/sg2_31_cif.got.tgz:60513.got - 2010.06.03 11:33:40.
