data_PCOD9082813
_publ_section_title
;
Structure prediction by ZEFSAII (Michael W. Deem and Ramdas Pophale) SiO2 
 PCOD9082813
Probable space group: P -1
;
_chemical_formula_sum "Si O2"
_cell_formula_units_Z 14
_cell_length_a 21.316569
_cell_length_b 16.324637
_cell_length_c 10.142163
_cell_angle_alpha 32.804726
_cell_angle_beta 33.203306
_cell_angle_gamma 23.901972
_cell_volume 736.286372
_symmetry_space_group_name_H-M "P -1"
_symmetry_group_IT_number 2
_symmetry_cell_setting 'triclinic'
loop_
_space_group_symop_operation_xyz
x,y,z
-x,-y,-z
loop_
_atom_site_type_symbol
_atom_site_label
_atom_site_fract_x
_atom_site_fract_y
_atom_site_fract_z
Si Si1 0.050739 0.626194 0.096186
Si Si2 0.313130 0.003588 0.714174
Si Si3 0.832283 0.553181 0.590411
Si Si4 0.126086 0.756742 0.553566
Si Si5 0.240166 0.885660 0.757237
Si Si6 0.532539 0.423461 0.892768
Si Si7 0.943338 0.216511 0.653176
O O1 0.141241 0.559597 0.166421
O O2 0.870540 0.868585 0.090602
O O3 0.998084 0.499135 0.352782
O O4 0.140407 0.613681 0.832351
O O5 0.307175 0.188974 0.495673
O O6 0.314339 0.948131 0.634601
O O7 0.439589 0.782766 0.870732
O O8 0.828999 0.444132 0.621649
O O9 0.301139 0.661735 0.338285
O O10 0.056581 0.759715 0.534001
O O11 0.000000 0.000000 0.500000
O O12 0.382853 0.641424 0.786449
O O13 0.130097 0.879050 0.052319
O O14 0.120716 0.056864 0.623425
O O15 0.500000 0.500000 0.000000
#
# Coordination Sequence:
#
# PCOD9082813 Si02
#       7
#     2   2   2   2   2   2   2
#     4   9  17  32  56  80 111 146 185 220 277 335
#     4   9  15  35  57  79 106 151 182 218 274 339
#     4   9  18  34  57  83 109 150 190 225 272 340
#     4  12  21  34  58  88 114 144 189 235 279 327
#     4  10  19  33  58  81 113 144 193 224 272 333
#     4  10  19  36  57  84 113 152 181 228 283 340
#     4  11  20  33  58  90 107 145 195 233 266 335
#
# _framework density 19.014341000000002
#
# number of rings (size 3 to 8) (size 9 to 14) (size 15 to 20)
#    0.857    1.143    5.714    0.000    2.000    0.571 
#    0.000    1.429    0.000    7.714    0.000    0.000 
#    0.000    0.000    0.000    0.000    0.000    0.000 
#
# Total GULP energy -77938.858689 kJ/mol
# GULP energy per Si atom -5567.061335 kJ/mol
# Density = 1.897106 g / cm^3
# Si number density = 19.014341 Si / 1000 Ang^3
#
#
#
# Elastic Constant Matrix: (Units=GPa)
#
#
# Indices 1 2 3 4 5 6 
#
# 1 76.2390 31.2986 33.6006 -8.1475 11.5287 25.4987
# 2 31.2986 126.8921 29.1773 -17.7796 7.2030 2.1706
# 3 33.6006 29.1773 109.4024 1.2563 23.6872 5.2587
# 4 -8.1475 -17.7796 1.2563 29.3993 -1.0851 -4.7384
# 5 11.5287 7.2030 23.6872 -1.0851 21.9436 2.4995
# 6 25.4987 2.1706 5.2587 -4.7384 2.4995 29.4245
#
#
#
# Elastic Compliance Matrix: (Units=1/GPa)
#
#
# Indices 1 2 3 4 5 6 
#
# 1 0.023909 -0.004168 -0.004417 0.001062 -0.004198 -0.019095
# 2 -0.004168 0.010005 -0.001790 0.005649 0.000656 0.004048
# 3 -0.004417 -0.001790 0.013523 -0.002994 -0.012075 0.002087
# 4 0.001062 0.005649 -0.002994 0.038780 0.002138 0.005262
# 5 -0.004198 0.000656 -0.012075 0.002138 0.060594 0.000944
# 6 -0.019095 0.004048 0.002087 0.005262 0.000944 0.050628
#
#
# Mechanical properties :
#
#
# Convention : Reuss Voigt Hill
#
# Bulk Modulus (GPa) = 37.47013 55.63181 46.55097
# Shear Modulus (GPa) = 22.01818 30.71727 26.36773
#
# Velocity S-wave (km/s) = 3.40660 4.02366 3.72792
# Velocity P-wave (km/s) = 5.93483 7.13497 6.56240
#
# Compressibility (1/GPa) = 0.02668792
#
# Stress axis : x y z
#
# Youngs Moduli (GPa) = 41.82513 99.94689 73.94807
#
# Poissons Ratio (x) = 0.41658 0.32663
# Poissons Ratio (y) = 0.17433 0.13234
# Poissons Ratio (z) = 0.18474 0.17887
#
# Static dielectric constant tensor:
#      x y z
#    x 1.708030 -0.009390 -0.020860 
#    y -0.009390 1.713490 -0.029020 
#    z -0.020860 -0.029020 1.651150 
# 
# From -- ./inp_files/354933.got.cif
#   From: 2010.05.17/outbox.cif.g08.bks.cpg/sg2_178_cif.got.tgz:354933.got - 2010.06.03 11:33:40.
