data_PCOD9082010
_publ_section_title
;
Structure prediction by ZEFSAII (Michael W. Deem and Ramdas Pophale) SiO2 
 PCOD9082010
Probable space group: P -1
;
_chemical_formula_sum "Si O2"
_cell_formula_units_Z 15
_cell_length_a 17.491461
_cell_length_b 14.386303
_cell_length_c 8.712845
_cell_angle_alpha 137.261552
_cell_angle_beta 42.367854
_cell_angle_gamma 148.971763
_cell_volume 728.451873
_symmetry_space_group_name_H-M "P -1"
_symmetry_group_IT_number 2
_symmetry_cell_setting 'triclinic'
loop_
_space_group_symop_operation_xyz
x,y,z
-x,-y,-z
loop_
_atom_site_type_symbol
_atom_site_label
_atom_site_fract_x
_atom_site_fract_y
_atom_site_fract_z
Si Si1 0.480540 0.508411 0.353974
Si Si2 0.179994 0.154294 0.702620
Si Si3 0.051619 0.773277 0.520775
Si Si4 0.715797 0.899978 0.836901
Si Si5 0.012926 0.276778 0.985695
Si Si6 0.000000 0.500000 0.500000
Si Si7 0.334497 0.891877 0.036206
Si Si8 0.791734 0.507302 0.344653
O O1 0.500000 0.500000 0.500000
O O2 0.652871 0.696875 0.281977
O O3 0.409873 0.306920 0.155840
O O4 0.356936 0.520570 0.503975
O O5 0.203327 0.115203 0.444803
O O6 0.117645 0.255605 0.897859
O O7 0.075766 0.956862 0.705020
O O8 0.050506 0.690687 0.580202
O O9 0.200990 0.840744 0.284773
O O10 0.886218 0.608702 0.483417
O O11 0.636561 0.966217 0.959326
O O12 0.846039 0.065896 0.957791
O O13 0.084949 0.350547 0.797866
O O14 0.016770 0.434385 0.231962
O O15 0.264503 0.695307 0.831594
O O16 0.500000 0.000000 0.000000
#
# Coordination Sequence:
#
# PCOD9082010 Si02
#       8
#     2   2   2   2   2   1   2   2
#     4  10  19  32  60 104 122 142 194 268 320 349
#     4  10  20  36  64  95 121 151 200 259 311 353
#     4  11  23  40  61  91 122 160 211 250 304 357
#     4  10  19  33  57  93 119 149 197 261 304 354
#     4  12  21  38  63  89 124 159 204 252 302 364
#     4  12  28  40  58  88 128 172 206 246 296 370
#     4  11  21  32  57  90 122 156 197 256 307 352
#     4  12  19  36  64  93 121 155 204 263 302 354
#
# _framework density 20.591615999999998
#
# number of rings (size 3 to 8) (size 9 to 14) (size 15 to 20)
#    0.000    1.067    6.667    4.800    0.000    0.533 
#    0.000    0.000    0.000   14.400    0.000    0.000 
#    0.000    0.000    0.000    0.000    0.000    0.000 
#
# Total GULP energy -83512.166772 kJ/mol
# GULP energy per Si atom -5567.477785 kJ/mol
# Density = 2.054475 g / cm^3
# Si number density = 20.591616 Si / 1000 Ang^3
#
#
#
# Elastic Constant Matrix: (Units=GPa)
#
#
# Indices 1 2 3 4 5 6 
#
# 1 35.1369 -15.6540 18.8593 -12.4555 -17.4805 8.8305
# 2 -15.6540 47.5083 33.5300 28.5195 1.6316 7.1405
# 3 18.8593 33.5300 38.5259 23.5317 -22.0858 6.7094
# 4 -12.4555 28.5195 23.5317 23.8894 -7.5865 -7.5654
# 5 -17.4805 1.6316 -22.0858 -7.5865 16.3430 -0.1386
# 6 8.8305 7.1405 6.7094 -7.5654 -0.1386 48.6351
#
#
#
# Elastic Compliance Matrix: (Units=1/GPa)
#
#
# Indices 1 2 3 4 5 6 
#
# 1 -0.031149 0.032160 0.044412 -0.115340 -0.030248 -0.023221
# 2 0.032160 -0.012855 0.040036 0.022737 0.100293 -0.005652
# 3 0.044412 0.040036 -0.049748 0.018128 -0.015345 -0.004302
# 4 -0.115340 0.022737 0.018128 -0.112982 -0.153611 -0.002910
# 5 -0.030248 0.100293 -0.015345 -0.153611 -0.073487 -0.031220
# 6 -0.023221 -0.005652 -0.004302 -0.002910 -0.031220 0.025659
#
#
# Mechanical properties :
#
#
# Convention : Reuss Voigt Hill
#
# Bulk Modulus (GPa) = 7.17032 21.62686 14.39859
# Shear Modulus (GPa) = -11.33046 23.40256 6.03605
#
# Velocity S-wave (km/s) = -2.34828 3.37487 1.71396
# Velocity P-wave (km/s) = 1.96541 5.07069 3.30523
#
# Compressibility (1/GPa) = 0.13946379
#
# Stress axis : x y z
#
# Youngs Moduli (GPa) = -32.10419 -77.79269 -20.10120
#
# Poissons Ratio (x) = 2.50182 0.89273
# Poissons Ratio (y) = 1.03247 0.80477
# Poissons Ratio (z) = 1.42581 3.11449
#
# Static dielectric constant tensor:
#      x y z
#    x 1.782920 0.017930 -0.026790 
#    y 0.017930 1.739720 -0.016490 
#    z -0.026790 -0.016490 1.743650 
# 
# From -- ./inp_files/218340.got.cif
#   From: 2010.05.17/outbox.cif.g08.bks.cpg/sg2_110_cif.got.tgz:218340.got - 2010.06.03 11:33:40.
