data_PCOD9082494
_publ_section_title
;
Structure prediction by ZEFSAII (Michael W. Deem and Ramdas Pophale) SiO2 
 PCOD9082494
Probable space group: P -1
;
_chemical_formula_sum "Si O2"
_cell_formula_units_Z 16
_cell_length_a 7.679374
_cell_length_b 20.444280
_cell_length_c 16.485261
_cell_angle_alpha 31.228302
_cell_angle_beta 48.376960
_cell_angle_gamma 30.494966
_cell_volume 654.495538
_symmetry_space_group_name_H-M "P -1"
_symmetry_group_IT_number 2
_symmetry_cell_setting 'triclinic'
loop_
_space_group_symop_operation_xyz
x,y,z
-x,-y,-z
loop_
_atom_site_type_symbol
_atom_site_label
_atom_site_fract_x
_atom_site_fract_y
_atom_site_fract_z
Si Si1 0.845112 0.557330 0.242090
Si Si2 0.048523 0.955758 0.894894
Si Si3 0.209658 0.348239 0.522926
Si Si4 0.436460 0.731563 0.766064
Si Si5 0.037534 0.737804 0.011774
Si Si6 0.703338 0.294281 0.334544
Si Si7 0.133900 0.765220 0.233565
Si Si8 0.275989 0.269421 0.173084
O O1 0.556824 0.569271 0.297735
O O2 0.014350 0.450119 0.389210
O O3 0.143530 0.449951 0.194413
O O4 0.746062 0.747082 0.082393
O O5 0.447310 0.834784 0.875535
O O6 0.917329 0.910112 0.916320
O O7 0.059135 0.875917 0.059682
O O8 0.853539 0.163860 0.760397
O O9 0.595582 0.251368 0.489382
O O10 0.000000 0.500000 0.500000
O O11 0.159916 0.221528 0.686859
O O12 0.283272 0.796789 0.654115
O O13 0.467906 0.821445 0.731171
O O14 0.220892 0.709099 0.902242
O O15 0.372625 0.531224 0.173710
O O16 0.052305 0.235185 0.289790
O O17 0.000000 0.500000 0.000000
#
# Coordination Sequence:
#
# PCOD9082494 Si02
#       8
#     2   2   2   2   2   2   2   2
#     4  10  20  32  59  83 106 149 186 234 282 333
#     4  10  22  35  55  83 118 147 183 234 282 345
#     4  10  22  38  57  79 115 147 191 236 270 342
#     4   9  18  29  51  86 113 126 181 245 276 325
#     4   9  17  32  51  84 111 136 181 239 286 322
#     4  10  19  33  55  85 107 142 186 241 282 321
#     4  11  22  37  53  81 119 152 184 228 284 341
#     4  11  19  31  60  85 108 146 189 237 289 328
#
# _framework density 24.446308999999999
#
# number of rings (size 3 to 8) (size 9 to 14) (size 15 to 20)
#    0.000    2.250    2.500    4.125    3.500    0.500 
#    0.000    0.625    0.000   12.000    0.000    0.000 
#    0.000    0.000    0.000    0.000    0.000    0.000 
#
# Total GULP energy -89198.403079 kJ/mol
# GULP energy per Si atom -5574.900192 kJ/mol
# Density = 2.439067 g / cm^3
# Si number density = 24.446309 Si / 1000 Ang^3
#
#
#
# Elastic Constant Matrix: (Units=GPa)
#
#
# Indices 1 2 3 4 5 6 
#
# 1 72.0744 30.5446 37.7778 17.9009 -20.4711 -2.4736
# 2 30.5446 92.2530 53.8309 39.8378 -13.8299 7.2119
# 3 37.7778 53.8309 80.7179 43.4530 -31.3213 -5.2449
# 4 17.9009 39.8378 43.4530 42.8118 -13.5914 -7.2402
# 5 -20.4711 -13.8299 -31.3213 -13.5914 23.6106 11.9266
# 6 -2.4736 7.2119 -5.2449 -7.2402 11.9266 43.9549
#
#
#
# Elastic Compliance Matrix: (Units=1/GPa)
#
#
# Indices 1 2 3 4 5 6 
#
# 1 0.020290 -0.003604 -0.002834 0.001774 0.013778 -0.002051
# 2 -0.003604 0.022499 -0.009640 -0.012918 -0.007588 -0.005114
# 3 -0.002834 -0.009640 0.061948 -0.035879 0.060207 -0.013432
# 4 0.001774 -0.012918 -0.035879 0.066273 -0.023116 0.015127
# 5 0.013778 -0.007588 0.060207 -0.023116 0.131750 -0.030352
# 6 -0.002051 -0.005114 -0.013432 0.015127 -0.030352 0.032599
#
#
# Mechanical properties :
#
#
# Convention : Reuss Voigt Hill
#
# Bulk Modulus (GPa) = 13.77784 54.37242 34.07513
# Shear Modulus (GPa) = 12.76455 30.26825 21.51640
#
# Velocity S-wave (km/s) = 2.28753 3.52256 2.96995
# Velocity P-wave (km/s) = 3.55320 6.23172 5.07246
#
# Compressibility (1/GPa) = 0.07258030
#
# Stress axis : x y z
#
# Youngs Moduli (GPa) = 49.28518 44.44645 16.14246
#
# Poissons Ratio (x) = 0.16020 0.04575
# Poissons Ratio (y) = 0.17764 0.15561
# Poissons Ratio (z) = 0.13970 0.42846
#
# Static dielectric constant tensor:
#      x y z
#    x 2.002630 -0.025100 -0.010870 
#    y -0.025100 2.023970 -0.079780 
#    z -0.010870 -0.079780 1.996600 
# 
# From -- ./inp_files/305026.got.cif
#   From: 2010.05.17/outbox.cif.g08.bks.cpg/sg2_153_cif.got.tgz:305026.got - 2010.06.03 11:33:40.
