data_PCOD9082113
_publ_section_title
;
Structure prediction by ZEFSAII (Michael W. Deem and Ramdas Pophale) SiO2 
 PCOD9082113
Probable space group: P -1
;
_chemical_formula_sum "Si O2"
_cell_formula_units_Z 14
_cell_length_a 9.097745
_cell_length_b 9.122252
_cell_length_c 10.515705
_cell_angle_alpha 78.421802
_cell_angle_beta 110.976523
_cell_angle_gamma 123.791293
_cell_volume 677.220939
_symmetry_space_group_name_H-M "P -1"
_symmetry_group_IT_number 2
_symmetry_cell_setting 'triclinic'
loop_
_space_group_symop_operation_xyz
x,y,z
-x,-y,-z
loop_
_atom_site_type_symbol
_atom_site_label
_atom_site_fract_x
_atom_site_fract_y
_atom_site_fract_z
Si Si1 0.157241 0.702725 0.992574
Si Si2 0.419300 0.585910 0.367495
Si Si3 0.944355 0.707763 0.590895
Si Si4 0.517562 0.084574 0.749264
Si Si5 0.302672 0.704734 0.761707
Si Si6 0.278282 0.355972 0.727909
Si Si7 0.142274 0.986875 0.798052
O O1 0.271016 0.706630 0.902514
O O2 0.089780 0.836925 0.912261
O O3 0.295007 0.791848 0.137418
O O4 0.000000 0.500000 0.000000
O O5 0.500000 0.500000 0.500000
O O6 0.201199 0.455508 0.337732
O O7 0.479590 0.786662 0.380988
O O8 0.518709 0.598625 0.262894
O O9 0.847830 0.692188 0.430192
O O10 0.127105 0.697270 0.640579
O O11 0.001887 0.885445 0.655280
O O12 0.341830 0.036327 0.793255
O O13 0.479847 0.892474 0.740865
O O14 0.302929 0.531353 0.761361
O O15 0.175952 0.176105 0.809283
#
# Coordination Sequence:
#
# PCOD9082113 Si02
#       7
#     2   2   2   2   2   2   2
#     4  10  19  35  55  73  97 137 176 207 250 314
#     4   9  18  33  53  75 102 135 169 204 249 304
#     4   9  17  33  53  75 104 141 171 199 248 310
#     4   9  17  34  53  72 101 139 172 200 249 318
#     4  10  20  33  53  78 101 135 173 212 252 296
#     4  10  19  33  51  79 108 130 168 218 253 288
#     4   9  18  31  53  76  98 137 174 204 249 306
#
# _framework density 20.672723000000001
#
# number of rings (size 3 to 8) (size 9 to 14) (size 15 to 20)
#    0.000    2.857    0.000    4.286    0.000    1.143 
#    0.000   12.857    0.000    0.000    0.000    1.000 
#    0.000    0.000    0.000    0.000    0.000    0.000 
#
# Total GULP energy -77952.013153 kJ/mol
# GULP energy per Si atom -5568.000939 kJ/mol
# Density = 2.062567 g / cm^3
# Si number density = 20.672723 Si / 1000 Ang^3
#
#
#
# Elastic Constant Matrix: (Units=GPa)
#
#
# Indices 1 2 3 4 5 6 
#
# 1 17.9782 39.6005 -0.2105 4.0348 2.5496 -6.2953
# 2 39.6005 252.1426 41.3427 -16.5980 5.0120 -20.0027
# 3 -0.2105 41.3427 51.2717 -7.5288 9.9908 -2.3451
# 4 4.0348 -16.5980 -7.5288 31.5648 1.6160 4.0776
# 5 2.5496 5.0120 9.9908 1.6160 8.9586 3.1511
# 6 -6.2953 -20.0027 -2.3451 4.0776 3.1511 38.4568
#
#
#
# Elastic Compliance Matrix: (Units=1/GPa)
#
#
# Indices 1 2 3 4 5 6 
#
# 1 0.125754 -0.023238 0.027882 -0.020970 -0.056086 0.017018
# 2 -0.023238 0.009110 -0.008818 0.005240 0.010772 -0.001042
# 3 0.027882 -0.008818 0.036207 0.002039 -0.045759 0.005719
# 4 -0.020970 0.005240 0.002039 0.038394 -0.004661 -0.004272
# 5 -0.056086 0.010772 -0.045759 -0.004661 0.180706 -0.020681
# 6 0.017018 -0.001042 0.005719 -0.004272 -0.020681 0.030743
#
#
# Mechanical properties :
#
#
# Convention : Reuss Voigt Hill
#
# Bulk Modulus (GPa) = 6.14543 53.65089 29.89816
# Shear Modulus (GPa) = 10.34123 31.84004 21.09064
#
# Velocity S-wave (km/s) = 2.23902 3.92879 3.19755
# Velocity P-wave (km/s) = 3.10861 6.82564 5.30343
#
# Compressibility (1/GPa) = 0.16272248
#
# Stress axis : x y z
#
# Youngs Moduli (GPa) = 7.95204 109.77314 27.61934
#
# Poissons Ratio (x) = 2.55087 -0.77008
# Poissons Ratio (y) = 0.18479 0.24355
# Poissons Ratio (z) = -0.22172 0.96800
#
# Static dielectric constant tensor:
#      x y z
#    x 1.768460 -0.019670 0.023230 
#    y -0.019670 1.812950 -0.031140 
#    z 0.023230 -0.031140 1.789730 
# 
# From -- ./inp_files/238945.got.cif
#   From: 2010.05.17/outbox.cif.g08.bks.cpg/sg2_120_cif.got.tgz:238945.got - 2010.06.03 11:33:40.
