data_PCOD9082990
_publ_section_title
;
Structure prediction by ZEFSAII (Michael W. Deem and Ramdas Pophale) SiO2 
 PCOD9082990
Probable space group: P -1
;
_chemical_formula_sum "Si O2"
_cell_formula_units_Z 16
_cell_length_a 9.170668
_cell_length_b 8.605056
_cell_length_c 18.033447
_cell_angle_alpha 99.406098
_cell_angle_beta 140.879203
_cell_angle_gamma 57.586667
_cell_volume 667.496438
_symmetry_space_group_name_H-M "P -1"
_symmetry_group_IT_number 2
_symmetry_cell_setting 'triclinic'
loop_
_space_group_symop_operation_xyz
x,y,z
-x,-y,-z
loop_
_atom_site_type_symbol
_atom_site_label
_atom_site_fract_x
_atom_site_fract_y
_atom_site_fract_z
Si Si1 0.159501 0.399360 0.974676
Si Si2 0.102322 0.409904 0.264593
Si Si3 0.530025 0.054443 0.192068
Si Si4 0.257096 0.762595 0.610702
Si Si5 0.667561 0.594689 0.320519
Si Si6 0.424477 0.623438 0.072729
Si Si7 0.135453 0.606389 0.424044
Si Si8 0.223492 0.035014 0.211001
O O1 0.367614 0.157116 0.058120
O O2 0.353564 0.468925 0.036641
O O3 0.946257 0.477406 0.824239
O O4 0.000000 0.500000 0.000000
O O5 0.757203 0.519158 0.164427
O O6 0.252710 0.437889 0.393721
O O7 0.264065 0.172228 0.288769
O O8 0.562749 0.204845 0.260167
O O9 0.338884 0.038083 0.174719
O O10 0.864590 0.830607 0.297194
O O11 0.195601 0.637059 0.626374
O O12 0.337186 0.632581 0.555905
O O13 0.000000 0.000000 0.500000
O O14 0.439985 0.668878 0.167185
O O15 0.944207 0.582561 0.403899
O O16 0.441729 0.793169 0.301617
O O17 0.140342 0.827660 0.932114
#
# Coordination Sequence:
#
# PCOD9082990 Si02
#       8
#     2   2   2   2   2   2   2   2
#     4  11  18  32  59  83 118 153 187 229 296 348
#     4  10  21  36  56  85 123 152 188 237 288 341
#     4  10  19  34  58  85 109 152 192 237 284 340
#     4  10  20  37  60  83 111 148 201 244 280 332
#     4  10  19  33  60  86 108 153 199 233 281 346
#     4  10  19  34  57  87 120 149 190 237 283 344
#     4   9  21  37  55  81 115 148 196 243 282 333
#     4  10  19  34  56  85 120 148 187 230 286 349
#
# _framework density 23.970161999999998
#
# number of rings (size 3 to 8) (size 9 to 14) (size 15 to 20)
#    0.000    2.000    3.750    2.250    0.000    0.500 
#    0.000    1.250    8.250    0.000    0.000    0.000 
#    0.000    0.000    0.000    0.000    0.000    0.000 
#
# Total GULP energy -89201.205872 kJ/mol
# GULP energy per Si atom -5575.075367 kJ/mol
# Density = 2.391561 g / cm^3
# Si number density = 23.970162 Si / 1000 Ang^3
#
#
#
# Elastic Constant Matrix: (Units=GPa)
#
#
# Indices 1 2 3 4 5 6 
#
# 1 47.2200 20.5144 -0.8008 -6.6395 -2.6666 3.7159
# 2 20.5144 130.8455 45.0101 9.9125 -14.7610 11.9281
# 3 -0.8008 45.0101 67.8784 7.5900 -12.5194 8.8423
# 4 -6.6395 9.9125 7.5900 46.2231 -3.7567 -12.2209
# 5 -2.6666 -14.7610 -12.5194 -3.7567 24.0149 0.3247
# 6 3.7159 11.9281 8.8423 -12.2209 0.3247 29.9369
#
#
#
# Elastic Compliance Matrix: (Units=1/GPa)
#
#
# Indices 1 2 3 4 5 6 
#
# 1 0.024158 -0.005067 0.003641 0.004013 0.002100 -0.000439
# 2 -0.005067 0.011457 -0.006428 -0.002750 0.002741 -0.003189
# 3 0.003641 -0.006428 0.021330 -0.002398 0.007269 -0.005249
# 4 0.004013 -0.002750 -0.002398 0.026518 0.001490 0.012115
# 5 0.002100 0.002741 0.007269 0.001490 0.047627 -0.003408
# 6 -0.000439 -0.003189 -0.005249 0.012115 -0.003408 0.041262
#
#
# Mechanical properties :
#
#
# Convention : Reuss Voigt Hill
#
# Bulk Modulus (GPa) = 24.25075 41.71015 32.98045
# Shear Modulus (GPa) = 24.77626 32.11635 28.44630
#
# Velocity S-wave (km/s) = 3.21850 3.66436 3.44864
# Velocity P-wave (km/s) = 4.89394 5.94492 5.44485
#
# Compressibility (1/GPa) = 0.04123583
#
# Stress axis : x y z
#
# Youngs Moduli (GPa) = 41.39414 87.28630 46.88195
#
# Poissons Ratio (x) = 0.44229 -0.17069
# Poissons Ratio (y) = 0.20975 0.30136
# Poissons Ratio (z) = -0.15071 0.56109
#
# Static dielectric constant tensor:
#      x y z
#    x 1.998870 -0.008640 -0.030420 
#    y -0.008640 1.944210 -0.020070 
#    z -0.030420 -0.020070 2.024430 
# 
# From -- ./inp_files/447140.got.cif
#   From: 2010.05.17/outbox.cif.g08.bks.cpg/sg2_224_cif.got.tgz:447140.got - 2010.06.03 11:33:40.
