data_PCOD9082491
_publ_section_title
;
Structure prediction by ZEFSAII (Michael W. Deem and Ramdas Pophale) SiO2 
 PCOD9082491
Probable space group: P -1
;
_chemical_formula_sum "Si O2"
_cell_formula_units_Z 16
_cell_length_a 14.631697
_cell_length_b 8.763693
_cell_length_c 12.009695
_cell_angle_alpha 86.167107
_cell_angle_beta 117.222514
_cell_angle_gamma 134.927606
_cell_volume 885.622908
_symmetry_space_group_name_H-M "P -1"
_symmetry_group_IT_number 2
_symmetry_cell_setting 'triclinic'
loop_
_space_group_symop_operation_xyz
x,y,z
-x,-y,-z
loop_
_atom_site_type_symbol
_atom_site_label
_atom_site_fract_x
_atom_site_fract_y
_atom_site_fract_z
Si Si1 0.741057 0.609847 0.883225
Si Si2 0.646402 0.054654 0.085910
Si Si3 0.444577 0.375500 0.855926
Si Si4 0.085813 0.017115 0.648990
Si Si5 0.045163 0.996504 0.194194
Si Si6 0.035787 0.594811 0.639865
Si Si7 0.230625 0.711536 0.077445
Si Si8 0.104667 0.714068 0.216066
O O1 0.587687 0.533526 0.839099
O O2 0.701142 0.383509 0.874540
O O3 0.824162 0.750678 0.806789
O O4 0.883311 0.803836 0.040638
O O5 0.798816 0.288523 0.226843
O O6 0.596144 0.845869 0.129485
O O7 0.694049 0.089840 0.981457
O O8 0.500000 0.000000 0.000000
O O9 0.276003 0.258857 0.736291
O O10 0.500000 0.500000 0.000000
O O11 0.054825 0.799486 0.642683
O O12 0.000000 0.000000 0.500000
O O13 0.011160 0.002240 0.719945
O O14 0.115748 0.905195 0.241624
O O15 0.000000 0.500000 0.500000
O O16 0.910667 0.397802 0.672879
O O17 0.228661 0.785769 0.193733
O O18 0.057168 0.487210 0.936858
#
# Coordination Sequence:
#
# PCOD9082491 Si02
#       8
#     2   2   2   2   2   2   2   2
#     4  10  19  33  55  84 117 148 182 235 284 334
#     4  10  20  34  56  85 112 143 182 229 282 334
#     4  11  22  35  57  87 119 147 188 234 288 331
#     4  11  23  39  58  84 114 154 193 232 279 344
#     4  10  20  33  56  84 115 150 190 226 283 339
#     4  10  21  36  58  80 110 146 188 230 274 333
#     4   9  17  31  51  80 113 142 179 230 281 326
#     4   9  18  31  53  80 109 143 185 230 274 330
#
# _framework density 18.066381
#
# number of rings (size 3 to 8) (size 9 to 14) (size 15 to 20)
#    0.000    2.000    2.500    1.500    1.750    4.000 
#    0.000    0.625    0.000    0.750    0.000    0.000 
#    0.000    0.000    0.000    0.000    0.000    0.000 
#
# Total GULP energy -89144.015090 kJ/mol
# GULP energy per Si atom -5571.500943 kJ/mol
# Density = 1.802526 g / cm^3
# Si number density = 18.066381 Si / 1000 Ang^3
#
#
#
# Elastic Constant Matrix: (Units=GPa)
#
#
# Indices 1 2 3 4 5 6 
#
# 1 118.6848 27.8268 60.2034 -4.8965 -14.6572 23.7486
# 2 27.8268 57.7396 27.6912 -11.0076 -2.1846 19.4792
# 3 60.2034 27.6912 100.4693 -15.2477 -3.7467 16.0014
# 4 -4.8965 -11.0076 -15.2477 20.5897 2.5427 -3.3901
# 5 -14.6572 -2.1846 -3.7467 2.5427 33.1546 -3.5529
# 6 23.7486 19.4792 16.0014 -3.3901 -3.5529 30.8748
#
#
#
# Elastic Compliance Matrix: (Units=1/GPa)
#
#
# Indices 1 2 3 4 5 6 
#
# 1 0.014392 -0.002058 -0.007705 -0.004961 0.005122 -0.005733
# 2 -0.002058 0.025366 -0.002423 0.009443 -0.001555 -0.012307
# 3 -0.007705 -0.002423 0.016645 0.009433 -0.002453 -0.000418
# 4 -0.004961 0.009443 0.009433 0.059892 -0.005211 -0.001055
# 5 0.005122 -0.001555 -0.002453 -0.005211 0.032606 0.001493
# 6 -0.005733 -0.012307 -0.000418 -0.001055 0.001493 0.044836
#
#
# Mechanical properties :
#
#
# Convention : Reuss Voigt Hill
#
# Bulk Modulus (GPa) = 31.22030 56.48181 43.85105
# Shear Modulus (GPa) = 21.85435 27.66867 24.76151
#
# Velocity S-wave (km/s) = 3.48180 3.91768 3.70616
# Velocity P-wave (km/s) = 5.78639 7.19692 6.52986
#
# Compressibility (1/GPa) = 0.03203045
#
# Stress axis : x y z
#
# Youngs Moduli (GPa) = 69.48307 39.42211 60.07846
#
# Poissons Ratio (x) = 0.08114 0.46293
# Poissons Ratio (y) = 0.14301 0.14556
# Poissons Ratio (z) = 0.53539 0.09551
#
# Static dielectric constant tensor:
#      x y z
#    x 1.627210 0.048520 0.040510 
#    y 0.048520 1.640100 -0.030070 
#    z 0.040510 -0.030070 1.551980 
# 
# From -- ./inp_files/281418.got.cif
#   From: 2010.05.17/outbox.cif.g08.bks.cpg/sg2_141_cif.got.tgz:281418.got - 2010.06.03 11:33:40.
