data_PCOD9082229
_publ_section_title
;
Structure prediction by ZEFSAII (Michael W. Deem and Ramdas Pophale) SiO2 
 PCOD9082229
Probable space group: P -1
;
_chemical_formula_sum "Si O2"
_cell_formula_units_Z 16
_cell_length_a 13.428154
_cell_length_b 17.028110
_cell_length_c 6.707956
_cell_angle_alpha 72.681250
_cell_angle_beta 122.301073
_cell_angle_gamma 146.968556
_cell_volume 668.034691
_symmetry_space_group_name_H-M "P -1"
_symmetry_group_IT_number 2
_symmetry_cell_setting 'triclinic'
loop_
_space_group_symop_operation_xyz
x,y,z
-x,-y,-z
loop_
_atom_site_type_symbol
_atom_site_label
_atom_site_fract_x
_atom_site_fract_y
_atom_site_fract_z
Si Si1 0.268691 0.988134 0.729660
Si Si2 0.165508 0.829795 0.352903
Si Si3 0.411814 0.643042 0.894004
Si Si4 0.446296 0.584797 0.568621
Si Si5 0.893943 0.520661 0.943075
Si Si6 0.762363 0.847652 0.452993
Si Si7 0.919746 0.713239 0.824634
Si Si8 0.547029 0.144200 0.275223
O O1 0.193419 0.881202 0.563540
O O2 0.070760 0.868935 0.767283
O O3 0.291430 0.090996 0.582062
O O4 0.483056 0.095966 0.009314
O O5 0.233589 0.774203 0.489614
O O6 0.355477 0.986530 0.310861
O O7 0.943937 0.727092 0.079601
O O8 0.411101 0.574262 0.773120
O O9 0.202095 0.532789 0.895657
O O10 0.453297 0.758526 0.762760
O O11 0.605471 0.735025 0.184140
O O12 0.692145 0.742763 0.631656
O O13 0.308981 0.432482 0.424905
O O14 0.315820 0.586347 0.338545
O O15 0.027230 0.683950 0.927704
O O16 0.000000 0.500000 0.000000
O O17 0.000000 0.000000 0.500000
#
# Coordination Sequence:
#
# PCOD9082229 Si02
#       8
#     2   2   2   2   2   2   2   2
#     4  10  20  36  57  79 110 149 187 234 285 338
#     4  10  19  33  53  77 121 150 188 226 272 330
#     4  10  20  36  60  79 116 152 190 238 279 328
#     4   9  21  37  57  85 116 147 192 231 284 335
#     4   9  21  34  50  83 121 154 193 223 261 329
#     4  10  22  42  63  85 107 140 193 250 295 343
#     4   9  22  34  52  85 115 152 185 226 272 334
#     4   9  20  32  49  83 108 156 192 226 266 332
#
# _framework density 23.950855000000001
#
# number of rings (size 3 to 8) (size 9 to 14) (size 15 to 20)
#    0.750    1.750    0.000    1.125    5.250    1.000 
#    4.500    0.625    0.000    1.500    0.000    0.000 
#    0.000    0.000    0.000    0.000    0.000    0.000 
#
# Total GULP energy -89151.656325 kJ/mol
# GULP energy per Si atom -5571.978520 kJ/mol
# Density = 2.389634 g / cm^3
# Si number density = 23.950855 Si / 1000 Ang^3
#
#
#
# Elastic Constant Matrix: (Units=GPa)
#
#
# Indices 1 2 3 4 5 6 
#
# 1 42.5768 9.1793 30.8439 2.3226 -7.0454 7.3102
# 2 9.1793 90.9985 23.0497 4.3911 -2.6925 -2.5708
# 3 30.8439 23.0497 92.8297 12.5590 -31.8840 7.7587
# 4 2.3226 4.3911 12.5590 30.4213 -4.8170 5.6529
# 5 -7.0454 -2.6925 -31.8840 -4.8170 21.5209 -6.5666
# 6 7.3102 -2.5708 7.7587 5.6529 -6.5666 28.3682
#
#
#
# Elastic Compliance Matrix: (Units=1/GPa)
#
#
# Indices 1 2 3 4 5 6 
#
# 1 0.033916 -0.000225 -0.015839 0.003288 -0.014209 -0.008373
# 2 -0.000225 0.012151 -0.004816 -0.000871 -0.005460 0.001386
# 3 -0.015839 -0.004816 0.031964 -0.005706 0.042053 0.005774
# 4 0.003288 -0.000871 -0.005706 0.036149 -0.001505 -0.006917
# 5 -0.014209 -0.005460 0.042053 -0.001505 0.108295 0.017033
# 6 -0.008373 0.001386 0.005774 -0.006917 0.017033 0.041276
#
#
# Mechanical properties :
#
#
# Convention : Reuss Voigt Hill
#
# Bulk Modulus (GPa) = 27.56914 39.17230 33.37072
# Shear Modulus (GPa) = 15.74300 26.95089 21.34695
#
# Velocity S-wave (km/s) = 2.56658 3.35813 2.98867
# Velocity P-wave (km/s) = 4.50764 5.60596 5.08653
#
# Compressibility (1/GPa) = 0.03627244
#
# Stress axis : x y z
#
# Youngs Moduli (GPa) = 29.48430 82.29529 31.28518
#
# Poissons Ratio (x) = 0.01851 0.49552
# Poissons Ratio (y) = 0.00663 0.15067
# Poissons Ratio (z) = 0.46699 0.39633
#
# Static dielectric constant tensor:
#      x y z
#    x 1.991160 0.047070 0.021000 
#    y 0.047070 1.972970 0.023390 
#    z 0.021000 0.023390 1.964530 
# 
# From -- ./inp_files/100388.got.cif
#   From: 2010.05.17/outbox.cif.g08.bks.cpg/sg2_51_cif.got.tgz:100388.got - 2010.06.03 11:33:40.
