data_PCOD9082653
_publ_section_title
;
Structure prediction by ZEFSAII (Michael W. Deem and Ramdas Pophale) SiO2 
 PCOD9082653
Probable space group: P -1
;
_chemical_formula_sum "Si O2"
_cell_formula_units_Z 16
_cell_length_a 10.261874
_cell_length_b 9.984435
_cell_length_c 10.842123
_cell_angle_alpha 55.825668
_cell_angle_beta 64.520962
_cell_angle_gamma 91.233541
_cell_volume 776.464557
_symmetry_space_group_name_H-M "P -1"
_symmetry_group_IT_number 2
_symmetry_cell_setting 'triclinic'
loop_
_space_group_symop_operation_xyz
x,y,z
-x,-y,-z
loop_
_atom_site_type_symbol
_atom_site_label
_atom_site_fract_x
_atom_site_fract_y
_atom_site_fract_z
Si Si1 0.352405 0.880278 0.689418
Si Si2 0.051419 0.272315 0.828589
Si Si3 0.902829 0.970794 0.241433
Si Si4 0.252608 0.338608 0.144453
Si Si5 0.984708 0.733947 0.506634
Si Si6 0.161985 0.505835 0.873646
Si Si7 0.804678 0.344421 0.709895
Si Si8 0.442174 0.726859 0.967465
O O1 0.282321 0.694835 0.749417
O O2 0.390777 0.845315 0.832098
O O3 0.500000 0.000000 0.500000
O O4 0.232252 0.976791 0.678493
O O5 0.149726 0.196439 0.739630
O O6 0.136714 0.448863 0.772612
O O7 0.909217 0.288312 0.798692
O O8 0.993683 0.130982 0.034143
O O9 0.987928 0.908560 0.347328
O O10 0.095707 0.268494 0.326472
O O11 0.376741 0.242181 0.138545
O O12 0.212615 0.373822 0.003895
O O13 0.347908 0.528946 0.064050
O O14 0.867937 0.554079 0.584600
O O15 0.147352 0.715177 0.410027
O O16 0.000000 0.500000 0.000000
O O17 0.630091 0.267473 0.870872
#
# Coordination Sequence:
#
# PCOD9082653 Si02
#       8
#     2   2   2   2   2   2   2   2
#     4  11  21  34  58  86 116 150 191 241 288 338
#     4  10  19  35  59  83 112 150 195 233 286 342
#     4  10  19  33  56  89 111 145 191 244 281 331
#     4   9  18  30  52  80 109 145 188 235 277 337
#     4   9  17  28  49  82 114 134 191 242 276 320
#     4  11  20  37  60  84 115 155 193 234 287 349
#     4   9  16  31  54  80 108 148 191 232 278 344
#     4   9  16  31  50  76 107 149 191 220 278 353
#
# _framework density 20.606221999999999
#
# number of rings (size 3 to 8) (size 9 to 14) (size 15 to 20)
#    0.000    2.250    2.500    2.250    0.000    1.000 
#    0.000    1.250    2.750    2.250    0.000    0.000 
#    0.000    0.000    0.000    0.000    0.000    0.000 
#
# Total GULP energy -89147.914333 kJ/mol
# GULP energy per Si atom -5571.744646 kJ/mol
# Density = 2.055932 g / cm^3
# Si number density = 20.606222 Si / 1000 Ang^3
#
#
#
# Elastic Constant Matrix: (Units=GPa)
#
#
# Indices 1 2 3 4 5 6 
#
# 1 30.6241 20.8746 7.0665 -2.2595 11.8179 -0.3798
# 2 20.8746 70.7068 22.1667 12.6093 -0.9192 -6.5343
# 3 7.0665 22.1667 104.8671 3.9570 -2.1721 -4.7911
# 4 -2.2595 12.6093 3.9570 30.1453 -12.2869 3.4124
# 5 11.8179 -0.9192 -2.1721 -12.2869 19.7766 -6.7814
# 6 -0.3798 -6.5343 -4.7911 3.4124 -6.7814 21.3605
#
#
#
# Elastic Compliance Matrix: (Units=1/GPa)
#
#
# Indices 1 2 3 4 5 6 
#
# 1 0.066219 -0.020768 -0.001916 -0.004370 -0.050659 -0.020990
# 2 -0.020768 0.023577 -0.002526 -0.007219 0.012671 0.011452
# 3 -0.001916 -0.002526 0.010359 0.000672 0.003441 0.002502
# 4 -0.004370 -0.007219 0.000672 0.049209 0.033098 0.000511
# 5 -0.050659 0.012671 0.003441 0.033098 0.114279 0.034740
# 6 -0.020990 0.011452 0.002502 0.000511 0.034740 0.061454
#
#
# Mechanical properties :
#
#
# Convention : Reuss Voigt Hill
#
# Bulk Modulus (GPa) = 20.10655 34.04595 27.07625
# Shear Modulus (GPa) = 12.75204 24.66250 18.70727
#
# Velocity S-wave (km/s) = 2.49036 3.46330 3.01632
# Velocity P-wave (km/s) = 4.24828 5.70532 5.02984
#
# Compressibility (1/GPa) = 0.04973504
#
# Stress axis : x y z
#
# Youngs Moduli (GPa) = 15.10140 42.41500 96.53355
#
# Poissons Ratio (x) = 0.88088 0.18492
# Poissons Ratio (y) = 0.31363 0.24385
# Poissons Ratio (z) = 0.02893 0.10714
#
# Static dielectric constant tensor:
#      x y z
#    x 1.733630 0.028620 0.019530 
#    y 0.028620 1.731170 0.024080 
#    z 0.019530 0.024080 1.751140 
# 
# From -- ./inp_files/416271.got.cif
#   From: 2010.05.17/outbox.cif.g08.bks.cpg/sg2_209_cif.got.tgz:416271.got - 2010.06.03 11:33:40.
