data_PCOD9082966
_publ_section_title
;
Structure prediction by ZEFSAII (Michael W. Deem and Ramdas Pophale) SiO2 
 PCOD9082966
Probable space group: P -1
;
_chemical_formula_sum "Si O2"
_cell_formula_units_Z 16
_cell_length_a 11.327811
_cell_length_b 13.715056
_cell_length_c 13.744568
_cell_angle_alpha 149.040382
_cell_angle_beta 104.380681
_cell_angle_gamma 55.576370
_cell_volume 752.497711
_symmetry_space_group_name_H-M "P -1"
_symmetry_group_IT_number 2
_symmetry_cell_setting 'triclinic'
loop_
_space_group_symop_operation_xyz
x,y,z
-x,-y,-z
loop_
_atom_site_type_symbol
_atom_site_label
_atom_site_fract_x
_atom_site_fract_y
_atom_site_fract_z
Si Si1 0.315040 0.567110 0.603099
Si Si2 0.144916 0.838261 0.978124
Si Si3 0.339888 0.976755 0.175596
Si Si4 0.699923 0.518353 0.766843
Si Si5 0.035416 0.492799 0.113415
Si Si6 0.147398 0.414177 0.667458
Si Si7 0.294832 0.869290 0.688079
Si Si8 0.209283 0.345565 0.285488
O O1 0.312313 0.628164 0.765007
O O2 0.262272 0.799804 0.724018
O O3 0.508555 0.281096 0.383149
O O4 0.186308 0.544135 0.525865
O O5 0.133985 0.655972 0.878399
O O6 0.202076 0.959412 0.152794
O O7 0.000000 0.000000 0.000000
O O8 0.298285 0.175653 0.422137
O O9 0.295283 0.098125 0.161177
O O10 0.540889 0.708107 0.971706
O O11 0.870021 0.412714 0.763660
O O12 0.713797 0.292538 0.530705
O O13 0.690574 0.669150 0.797966
O O14 0.867911 0.654925 0.286784
O O15 0.000000 0.500000 0.000000
O O16 0.169337 0.178365 0.903170
O O17 0.970502 0.537986 0.687253
#
# Coordination Sequence:
#
# PCOD9082966 Si02
#       8
#     2   2   2   2   2   2   2   2
#     4  10  19  33  59  95 130 166 190 243 305 374
#     4  12  21  32  56  88 135 174 193 231 311 380
#     4  12  21  35  59  93 132 165 197 248 313 384
#     4  10  23  38  64  91 119 163 212 257 310 360
#     4  11  26  47  69  85 112 167 224 272 308 353
#     4  11  24  39  56  89 128 162 208 255 309 375
#     4  10  21  39  61  94 128 157 212 248 304 374
#     4  10  19  35  54  88 135 171 199 237 292 382
#
# _framework density 21.262525
#
# number of rings (size 3 to 8) (size 9 to 14) (size 15 to 20)
#    0.000    1.250    3.750    3.000    1.750    2.500 
#    0.000    0.625    0.000    1.500    0.000    0.000 
#    0.000    0.000    0.000    0.000    0.000    0.000 
#
# Total GULP energy -89226.066020 kJ/mol
# GULP energy per Si atom -5576.629126 kJ/mol
# Density = 2.121413 g / cm^3
# Si number density = 21.262525 Si / 1000 Ang^3
#
#
#
# Elastic Constant Matrix: (Units=GPa)
#
#
# Indices 1 2 3 4 5 6 
#
# 1 66.5583 0.6984 21.8615 -5.1005 6.8529 -6.9005
# 2 0.6984 56.7426 9.4760 -23.2674 1.2443 1.3284
# 3 21.8615 9.4760 70.9683 -10.7687 -10.4903 4.3376
# 4 -5.1005 -23.2674 -10.7687 25.2460 3.0953 -0.4932
# 5 6.8529 1.2443 -10.4903 3.0953 25.8802 -5.5411
# 6 -6.9005 1.3284 4.3376 -0.4932 -5.5411 11.5009
#
#
#
# Elastic Compliance Matrix: (Units=1/GPa)
#
#
# Indices 1 2 3 4 5 6 
#
# 1 0.019571 0.002584 -0.007372 0.004193 -0.006369 0.011336
# 2 0.002584 0.029466 -0.001279 0.027886 -0.006681 -0.003394
# 3 -0.007372 -0.001279 0.018748 0.004263 0.007485 -0.007557
# 4 0.004193 0.027886 0.004263 0.069106 -0.009867 -0.004103
# 5 -0.006369 -0.006681 0.007485 -0.009867 0.048518 0.017080
# 6 0.011336 -0.003394 -0.007557 -0.004103 0.017080 0.105047
#
#
# Mechanical properties :
#
#
# Convention : Reuss Voigt Hill
#
# Bulk Modulus (GPa) = 17.96934 28.70457 23.33695
# Shear Modulus (GPa) = 15.56957 23.34096 19.45526
#
# Velocity S-wave (km/s) = 2.70895 3.31683 3.02818
# Velocity P-wave (km/s) = 4.27248 5.31016 4.81933
#
# Compressibility (1/GPa) = 0.05565036
#
# Stress axis : x y z
#
# Youngs Moduli (GPa) = 51.09612 33.93767 53.34020
#
# Poissons Ratio (x) = -0.08769 0.39321
# Poissons Ratio (y) = -0.13203 0.06823
# Poissons Ratio (z) = 0.37667 0.04341
#
# Static dielectric constant tensor:
#      x y z
#    x 1.873350 0.016430 -0.008270 
#    y 0.016430 1.733690 -0.022310 
#    z -0.008270 -0.022310 1.901650 
# 
# From -- ./inp_files/454779.got.cif
#   From: 2010.05.17/outbox.cif.g08.bks.cpg/sg2_228_cif.got.tgz:454779.got - 2010.06.03 11:33:40.
