data_PCOD9082920
_publ_section_title
;
Structure prediction by ZEFSAII (Michael W. Deem and Ramdas Pophale) SiO2 
 PCOD9082920
Probable space group: P -1
;
_chemical_formula_sum "Si O2"
_cell_formula_units_Z 16
_cell_length_a 7.430071
_cell_length_b 13.966861
_cell_length_c 9.251790
_cell_angle_alpha 122.874664
_cell_angle_beta 71.140446
_cell_angle_gamma 88.743355
_cell_volume 739.152616
_symmetry_space_group_name_H-M "P -1"
_symmetry_group_IT_number 2
_symmetry_cell_setting 'triclinic'
loop_
_space_group_symop_operation_xyz
x,y,z
-x,-y,-z
loop_
_atom_site_type_symbol
_atom_site_label
_atom_site_fract_x
_atom_site_fract_y
_atom_site_fract_z
Si Si1 0.564951 0.367294 0.433082
Si Si2 0.689883 0.007771 0.551126
Si Si3 0.112119 0.772168 0.991861
Si Si4 0.377008 0.197602 0.229920
Si Si5 0.736619 0.018400 0.881450
Si Si6 0.125299 0.613316 0.414732
Si Si7 0.927492 0.196739 0.657319
Si Si8 0.158076 0.348161 0.195856
O O1 0.500000 0.500000 0.500000
O O2 0.722997 0.296542 0.218223
O O3 0.397294 0.295266 0.420827
O O4 0.672427 0.369249 0.557458
O O5 0.861821 0.886547 0.416581
O O6 0.500000 0.000000 0.500000
O O7 0.648908 0.032714 0.753471
O O8 0.797866 0.109660 0.560107
O O9 0.924225 0.727669 0.960022
O O10 0.093380 0.912326 0.097339
O O11 0.166433 0.744490 0.121158
O O12 0.358093 0.269307 0.144145
O O13 0.216876 0.120078 0.213053
O O14 0.574549 0.093190 0.093206
O O15 0.057667 0.704921 0.380164
O O16 0.155894 0.477662 0.250550
O O17 0.976970 0.633666 0.607590
#
# Coordination Sequence:
#
# PCOD9082920 Si02
#       8
#     2   2   2   2   2   2   2   2
#     4  10  19  37  60  85 121 156 197 250 294 351
#     4  10  22  39  61  85 120 163 200 247 303 359
#     4   9  21  38  56  82 121 158 190 251 302 351
#     4  10  19  33  59  85 114 148 195 252 288 355
#     4   9  20  36  53  86 114 144 200 245 298 354
#     4  10  21  37  58  88 116 160 201 239 305 358
#     4  10  22  42  60  86 127 157 202 253 296 369
#     4  10  20  35  59  84 116 155 198 242 299 355
#
# _framework density 21.646411000000001
#
# number of rings (size 3 to 8) (size 9 to 14) (size 15 to 20)
#    0.000    2.250    1.250    0.750    3.500    1.000 
#    0.000    0.625    0.000    0.000    0.000    0.000 
#    0.000    0.000    0.000    0.000    0.000    0.000 
#
# Total GULP energy -89186.894570 kJ/mol
# GULP energy per Si atom -5574.180911 kJ/mol
# Density = 2.159714 g / cm^3
# Si number density = 21.646411 Si / 1000 Ang^3
#
#
#
# Elastic Constant Matrix: (Units=GPa)
#
#
# Indices 1 2 3 4 5 6 
#
# 1 87.7247 40.0702 30.2648 19.1829 38.2195 3.6954
# 2 40.0702 165.2882 35.9977 30.4199 20.1723 11.6257
# 3 30.2648 35.9977 66.6400 21.1058 28.7085 17.7141
# 4 19.1829 30.4199 21.1058 33.3496 11.5288 5.2919
# 5 38.2195 20.1723 28.7085 11.5288 38.1580 5.3688
# 6 3.6954 11.6257 17.7141 5.2919 5.3688 21.2447
#
#
#
# Elastic Compliance Matrix: (Units=1/GPa)
#
#
# Indices 1 2 3 4 5 6 
#
# 1 0.021945 -0.002406 0.000585 -0.004289 -0.020305 0.003211
# 2 -0.002406 0.007866 -0.001744 -0.004877 0.001253 -0.001534
# 3 0.000585 -0.001744 0.031154 -0.009448 -0.017673 -0.018304
# 4 -0.004289 -0.004877 -0.009448 0.042429 0.001101 0.000446
# 5 -0.020305 0.001253 -0.017673 0.001101 0.058491 0.002527
# 6 0.003211 -0.001534 -0.018304 0.000446 0.002527 0.061864
#
#
# Mechanical properties :
#
#
# Convention : Reuss Voigt Hill
#
# Bulk Modulus (GPa) = 18.57478 59.14648 38.86063
# Shear Modulus (GPa) = 20.09463 32.77180 26.43321
#
# Velocity S-wave (km/s) = 3.05013 3.89518 3.49827
# Velocity P-wave (km/s) = 4.58301 6.90023 5.85735
#
# Compressibility (1/GPa) = 0.05383643
#
# Stress axis : x y z
#
# Youngs Moduli (GPa) = 45.56748 127.13615 32.09897
#
# Poissons Ratio (x) = 0.30589 -0.01879
# Poissons Ratio (y) = 0.10964 0.05597
# Poissons Ratio (z) = -0.02668 0.22167
#
# Static dielectric constant tensor:
#      x y z
#    x 1.943290 0.044920 -0.027720 
#    y 0.044920 1.814660 0.002400 
#    z -0.027720 0.002400 1.814600 
# 
# From -- ./inp_files/171437.got.cif
#   From: 2010.05.17/outbox.cif.g08.bks.cpg/sg2_86_cif.got.tgz:171437.got - 2010.06.03 11:33:40.
