data_PCOD9082906
_publ_section_title
;
Structure prediction by ZEFSAII (Michael W. Deem and Ramdas Pophale) SiO2 
 PCOD9082906
Probable space group: P -1
;
_chemical_formula_sum "Si O2"
_cell_formula_units_Z 13
_cell_length_a 7.927429
_cell_length_b 15.924490
_cell_length_c 11.028852
_cell_angle_alpha 31.315877
_cell_angle_beta 137.020981
_cell_angle_gamma 127.576166
_cell_volume 492.878816
_symmetry_space_group_name_H-M "P -1"
_symmetry_group_IT_number 2
_symmetry_cell_setting 'triclinic'
loop_
_space_group_symop_operation_xyz
x,y,z
-x,-y,-z
loop_
_atom_site_type_symbol
_atom_site_label
_atom_site_fract_x
_atom_site_fract_y
_atom_site_fract_z
Si Si1 0.284499 0.249151 0.530747
Si Si2 0.106808 0.717848 0.513902
Si Si3 0.589987 0.661782 0.986292
Si Si4 0.146691 0.257162 0.192378
Si Si5 0.338057 0.882072 0.949951
Si Si6 0.000000 0.500000 0.500000
Si Si7 0.412813 0.014155 0.266153
O O1 0.235618 0.330226 0.274934
O O2 0.101948 0.315714 0.455658
O O3 0.229374 0.057421 0.717793
O O4 0.563117 0.228353 0.752127
O O5 0.358547 0.639192 0.805552
O O6 0.041904 0.652053 0.429582
O O7 0.184749 0.904110 0.310826
O O8 0.836936 0.654354 0.037878
O O9 0.557246 0.838693 0.809086
O O10 0.692280 0.540576 0.290380
O O11 0.870025 0.203662 0.128364
O O12 0.341262 0.105733 0.459108
O O13 0.574595 0.914019 0.950887
#
# Coordination Sequence:
#
# PCOD9082906 Si02
#       7
#     2   2   2   2   2   1   2
#     4  10  20  33  57  88 124 162 195 247 309 364
#     4  11  23  43  65  93 126 165 212 258 310 368
#     4  11  23  42  67  94 124 163 209 262 311 368
#     4  10  20  36  61  96 128 155 196 258 319 368
#     4  10  19  33  58  99 132 152 192 257 320 370
#     4  12  28  42  62  90 128 172 210 256 310 370
#     4  10  20  38  70  98 123 160 208 263 313 361
#
# _framework density 26.375651000000001
#
# number of rings (size 3 to 8) (size 9 to 14) (size 15 to 20)
#    0.000    1.538    0.000    7.846    0.000    7.385 
#    0.000    0.769    0.000   23.077    0.000    1.077 
#    0.000    0.000    0.000    0.000    0.000    0.000 
#
# Total GULP energy -72469.853119 kJ/mol
# GULP energy per Si atom -5574.604086 kJ/mol
# Density = 2.631562 g / cm^3
# Si number density = 26.375651 Si / 1000 Ang^3
#
#
#
# Elastic Constant Matrix: (Units=GPa)
#
#
# Indices 1 2 3 4 5 6 
#
# 1 71.8392 26.8471 -13.2434 -16.4193 -1.4666 -14.3126
# 2 26.8471 156.3724 7.1910 19.2719 6.9582 -17.0386
# 3 -13.2434 7.1910 37.4248 8.0722 6.9373 24.2287
# 4 -16.4193 19.2719 8.0722 43.6885 4.9232 12.4894
# 5 -1.4666 6.9582 6.9373 4.9232 35.7069 -2.3421
# 6 -14.3126 -17.0386 24.2287 12.4894 -2.3421 32.3571
#
#
#
# Elastic Compliance Matrix: (Units=1/GPa)
#
#
# Indices 1 2 3 4 5 6 
#
# 1 0.018649 -0.005254 0.009221 0.009267 -0.001615 -0.005116
# 2 -0.005254 0.010936 -0.013928 -0.009632 0.002854 0.017788
# 3 0.009221 -0.013928 0.077083 0.017201 -0.018779 -0.068972
# 4 0.009267 -0.009632 0.017201 0.036495 -0.007987 -0.028517
# 5 -0.001615 0.002854 -0.018779 -0.007987 0.033468 0.020355
# 6 -0.005116 0.017788 -0.068972 -0.028517 0.020355 0.102135
#
#
# Mechanical properties :
#
#
# Convention : Reuss Voigt Hill
#
# Bulk Modulus (GPa) = 11.52761 34.13621 22.83191
# Shear Modulus (GPa) = 15.26248 38.67329 26.96788
#
# Velocity S-wave (km/s) = 2.40814 3.83332 3.20105
# Velocity P-wave (km/s) = 3.48026 5.70639 4.72626
#
# Compressibility (1/GPa) = 0.08674827
#
# Stress axis : x y z
#
# Youngs Moduli (GPa) = 53.62216 91.44386 12.97306
#
# Poissons Ratio (x) = 0.48041 -0.11963
# Poissons Ratio (y) = 0.28171 0.18068
# Poissons Ratio (z) = -0.49447 1.27359
#
# Static dielectric constant tensor:
#      x y z
#    x 2.459610 -0.290410 -0.614940 
#    y -0.290410 2.201390 0.347500 
#    z -0.614940 0.347500 2.874340 
# 
# From -- ./inp_files/395363.got.cif
#   From: 2010.05.17/outbox.cif.g08.bks.cpg/sg2_198_cif.got.tgz:395363.got - 2010.06.03 11:33:40.
