data_PCOD9082629
_publ_section_title
;
Structure prediction by ZEFSAII (Michael W. Deem and Ramdas Pophale) SiO2 
 PCOD9082629
Probable space group: P -1
;
_chemical_formula_sum "Si O2"
_cell_formula_units_Z 16
_cell_length_a 11.258814
_cell_length_b 12.074689
_cell_length_c 8.497842
_cell_angle_alpha 54.906580
_cell_angle_beta 65.126654
_cell_angle_gamma 65.450369
_cell_volume 833.766512
_symmetry_space_group_name_H-M "P -1"
_symmetry_group_IT_number 2
_symmetry_cell_setting 'triclinic'
loop_
_space_group_symop_operation_xyz
x,y,z
-x,-y,-z
loop_
_atom_site_type_symbol
_atom_site_label
_atom_site_fract_x
_atom_site_fract_y
_atom_site_fract_z
Si Si1 0.188304 0.745848 0.171390
Si Si2 0.901488 0.774169 0.153255
Si Si3 0.438205 0.020110 0.193293
Si Si4 0.207229 0.874737 0.393506
Si Si5 0.291352 0.985931 0.779743
Si Si6 0.988840 0.820648 0.741170
Si Si7 0.223293 0.204594 0.355729
Si Si8 0.836623 0.555026 0.563179
O O1 0.215821 0.792706 0.293267
O O2 0.225725 0.578247 0.285691
O O3 0.028908 0.780892 0.188016
O O4 0.260698 0.833682 0.939628
O O5 0.802256 0.923829 0.107408
O O6 0.815710 0.664190 0.341972
O O7 0.961529 0.740805 0.975335
O O8 0.331492 0.162403 0.189011
O O9 0.346258 0.908671 0.339498
O O10 0.558206 0.009768 0.258752
O O11 0.500000 0.000000 0.000000
O O12 0.143390 0.806195 0.627774
O O13 0.094537 0.020192 0.313418
O O14 0.251351 0.074108 0.569656
O O15 0.921186 0.778107 0.657784
O O16 0.215056 0.344636 0.342631
O O17 0.000000 0.500000 0.500000
#
# Coordination Sequence:
#
# PCOD9082629 Si02
#       8
#     2   2   2   2   2   2   2   2
#     4  11  20  35  57  86 116 149 189 233 292 339
#     4  10  20  34  60  87 115 148 191 235 295 338
#     4  11  21  38  57  87 116 151 193 240 288 331
#     4  10  20  32  54  85 118 142 185 245 286 328
#     4  11  20  35  60  87 113 153 190 239 281 345
#     4  10  19  33  56  87 114 143 187 246 288 327
#     4  10  22  38  60  85 119 151 193 235 288 340
#     4   9  20  38  57  84 120 154 183 231 290 354
#
# _framework density 19.190021999999999
#
# number of rings (size 3 to 8) (size 9 to 14) (size 15 to 20)
#    0.000    1.750    2.500    3.750    5.250    0.000 
#    0.000    6.250    0.000    3.000    0.000    0.000 
#    0.000    0.000    0.000    0.000    0.000    0.000 
#
# Total GULP energy -89112.030519 kJ/mol
# GULP energy per Si atom -5569.501907 kJ/mol
# Density = 1.914634 g / cm^3
# Si number density = 19.190022 Si / 1000 Ang^3
#
#
#
# Elastic Constant Matrix: (Units=GPa)
#
#
# Indices 1 2 3 4 5 6 
#
# 1 84.7525 18.2601 30.4698 -7.2395 -25.7881 14.0445
# 2 18.2601 104.4625 56.2550 -8.0497 -9.8577 25.8873
# 3 30.4698 56.2550 89.4970 -1.9773 -16.7450 12.4094
# 4 -7.2395 -8.0497 -1.9773 32.3274 1.3432 -10.7421
# 5 -25.7881 -9.8577 -16.7450 1.3432 20.7934 2.2741
# 6 14.0445 25.8873 12.4094 -10.7421 2.2741 21.0916
#
#
#
# Elastic Compliance Matrix: (Units=1/GPa)
#
#
# Indices 1 2 3 4 5 6 
#
# 1 0.029473 0.008951 -0.002717 -0.005174 0.042910 -0.036275
# 2 0.008951 0.022370 -0.009409 -0.004396 0.017919 -0.032052
# 3 -0.002717 -0.009409 0.019463 -0.002101 0.007982 -0.000025
# 4 -0.005174 -0.004396 -0.002101 0.039916 -0.016288 0.032162
# 5 0.042910 0.017919 0.007982 -0.016288 0.125718 -0.077113
# 6 -0.036275 -0.032052 -0.000025 0.032162 -0.077113 0.135616
#
#
# Mechanical properties :
#
#
# Convention : Reuss Voigt Hill
#
# Bulk Modulus (GPa) = 15.39473 54.29795 34.84634
# Shear Modulus (GPa) = 12.48262 26.42427 19.45344
#
# Velocity S-wave (km/s) = 2.55321 3.71479 3.18736
# Velocity P-wave (km/s) = 4.09041 6.83783 5.63415
#
# Compressibility (1/GPa) = 0.06495729
#
# Stress axis : x y z
#
# Youngs Moduli (GPa) = 33.92951 44.70244 51.37936
#
# Poissons Ratio (x) = -0.40014 0.13958
# Poissons Ratio (y) = -0.30371 0.48342
# Poissons Ratio (z) = 0.09217 0.42060
#
# Static dielectric constant tensor:
#      x y z
#    x 1.683360 -0.001660 0.009510 
#    y -0.001660 1.711970 -0.023230 
#    z 0.009510 -0.023230 1.777200 
# 
# From -- ./inp_files/252259.got.cif
#   From: 2010.05.17/outbox.cif.g08.bks.cpg/sg2_127_cif.got.tgz:252259.got - 2010.06.03 11:33:40.
