data_PCOD9082087
_publ_section_title
;
Structure prediction by ZEFSAII (Michael W. Deem and Ramdas Pophale) SiO2 
 PCOD9082087
Probable space group: P -1
;
_chemical_formula_sum "Si O2"
_cell_formula_units_Z 14
_cell_length_a 16.707478
_cell_length_b 12.184918
_cell_length_c 14.429438
_cell_angle_alpha 159.737680
_cell_angle_beta 120.110648
_cell_angle_gamma 60.370148
_cell_volume 877.269786
_symmetry_space_group_name_H-M "P -1"
_symmetry_group_IT_number 2
_symmetry_cell_setting 'triclinic'
loop_
_space_group_symop_operation_xyz
x,y,z
-x,-y,-z
loop_
_atom_site_type_symbol
_atom_site_label
_atom_site_fract_x
_atom_site_fract_y
_atom_site_fract_z
Si Si1 0.600225 0.413311 0.445303
Si Si2 0.715681 0.214980 0.531501
Si Si3 0.560749 0.933881 0.338826
Si Si4 0.825988 0.768871 0.995627
Si Si5 0.096469 0.904136 0.529020
Si Si6 0.669766 0.090886 0.048481
Si Si7 0.564806 0.531657 0.204511
O O1 0.500000 0.500000 0.500000
O O2 0.663248 0.226276 0.411226
O O3 0.604573 0.217289 0.197288
O O4 0.642833 0.752438 0.726301
O O5 0.745632 0.576018 0.846551
O O6 0.815477 0.020648 0.424658
O O7 0.647408 0.088703 0.466547
O O8 0.589060 0.707954 0.263602
O O9 0.487603 0.208423 0.553079
O O10 0.508100 0.724072 0.068618
O O11 0.884608 0.476492 0.748269
O O12 0.888810 0.923250 0.229372
O O13 0.771646 0.021133 0.096565
O O14 0.000000 0.000000 0.500000
O O15 0.650735 0.350096 0.163162
#
# Coordination Sequence:
#
# PCOD9082087 Si02
#       7
#     2   2   2   2   2   2   2
#     4  11  20  28  45  69  98 127 155 190 239 280
#     4   9  20  30  50  69 101 121 161 195 238 279
#     4  10  21  34  46  68  97 132 170 201 219 275
#     4   9  19  31  47  74  95 120 154 196 243 294
#     4  10  19  33  50  72  98 121 151 195 253 299
#     4  11  18  32  45  67  96 124 161 192 232 281
#     4  10  21  33  48  66  96 137 170 192 229 263
#
# _framework density 15.958603
#
# number of rings (size 3 to 8) (size 9 to 14) (size 15 to 20)
#    0.857    1.143    1.429    3.429    2.000    1.143 
#    0.000    0.000    0.000    0.000    0.000    2.000 
#    0.000    0.000    0.000    0.000    0.000    0.000 
#
# Total GULP energy -77963.381499 kJ/mol
# GULP energy per Si atom -5568.812964 kJ/mol
# Density = 1.592228 g / cm^3
# Si number density = 15.958603 Si / 1000 Ang^3
#
#
#
# Elastic Constant Matrix: (Units=GPa)
#
#
# Indices 1 2 3 4 5 6 
#
# 1 30.4507 28.7876 7.4919 10.6414 3.7527 -6.8380
# 2 28.7876 106.8830 24.2692 12.2701 13.9677 -17.8028
# 3 7.4919 24.2692 73.3776 -7.1594 -7.3696 -0.4221
# 4 10.6414 12.2701 -7.1594 19.8420 -0.2682 -1.6753
# 5 3.7527 13.9677 -7.3696 -0.2682 15.4233 -1.3564
# 6 -6.8380 -17.8028 -0.4221 -1.6753 -1.3564 19.6367
#
#
#
# Elastic Compliance Matrix: (Units=1/GPa)
#
#
# Indices 1 2 3 4 5 6 
#
# 1 0.053513 -0.007264 -0.006458 -0.025896 -0.009181 0.009067
# 2 -0.007264 0.018685 -0.008149 -0.009819 -0.018151 0.012144
# 3 -0.006458 -0.008149 0.020301 0.015518 0.018340 -0.006610
# 4 -0.025896 -0.009819 0.015518 0.075463 0.023080 -0.009554
# 5 -0.009181 -0.018151 0.018340 0.023080 0.091710 -0.010954
# 6 0.009067 0.012144 -0.006610 -0.009554 -0.010954 0.063378
#
#
# Mechanical properties :
#
#
# Convention : Reuss Voigt Hill
#
# Bulk Modulus (GPa) = 20.51005 36.86764 28.68885
# Shear Modulus (GPa) = 13.05333 20.99124 17.02229
#
# Velocity S-wave (km/s) = 2.86308 3.63072 3.26951
# Velocity P-wave (km/s) = 4.87951 6.38188 5.68058
#
# Compressibility (1/GPa) = 0.04875657
#
# Stress axis : x y z
#
# Youngs Moduli (GPa) = 18.68697 53.51938 49.25907
#
# Poissons Ratio (x) = 0.38876 0.31811
# Poissons Ratio (y) = 0.13574 0.40143
# Poissons Ratio (z) = 0.12068 0.43615
#
# Static dielectric constant tensor:
#      x y z
#    x 1.518340 -0.007520 -0.014950 
#    y -0.007520 1.542330 0.004040 
#    z -0.014950 0.004040 1.562550 
# 
# From -- ./inp_files/74965.got.cif
#   From: 2010.05.17/outbox.cif.g08.bks.cpg/sg2_38_cif.got.tgz:74965.got - 2010.06.03 11:33:40.
