data_PCOD9082765
_publ_section_title
;
Structure prediction by ZEFSAII (Michael W. Deem and Ramdas Pophale) SiO2 
 PCOD9082765
Probable space group: P -1
;
_chemical_formula_sum "Si O2"
_cell_formula_units_Z 16
_cell_length_a 7.893902
_cell_length_b 18.712059
_cell_length_c 8.121797
_cell_angle_alpha 138.454510
_cell_angle_beta 67.928363
_cell_angle_gamma 117.406618
_cell_volume 705.347366
_symmetry_space_group_name_H-M "P -1"
_symmetry_group_IT_number 2
_symmetry_cell_setting 'triclinic'
loop_
_space_group_symop_operation_xyz
x,y,z
-x,-y,-z
loop_
_atom_site_type_symbol
_atom_site_label
_atom_site_fract_x
_atom_site_fract_y
_atom_site_fract_z
Si Si1 0.320033 0.971641 0.394994
Si Si2 0.397283 0.315276 0.472870
Si Si3 0.143519 0.784508 0.356634
Si Si4 0.496686 0.180999 0.510607
Si Si5 0.930420 0.871654 0.864444
Si Si6 0.131642 0.439931 0.947858
Si Si7 0.808747 0.420927 0.515202
Si Si8 0.771864 0.164812 0.115473
O O1 0.157370 0.896674 0.441585
O O2 0.500000 0.000000 0.500000
O O3 0.326993 0.086536 0.497336
O O4 0.330847 0.883785 0.098344
O O5 0.431815 0.262170 0.547626
O O6 0.276883 0.401150 0.709651
O O7 0.601020 0.384205 0.441067
O O8 0.285558 0.206655 0.215629
O O9 0.345339 0.769220 0.318770
O O10 0.033960 0.801390 0.589303
O O11 0.014535 0.674747 0.125409
O O12 0.617041 0.121971 0.243667
O O13 0.036798 0.872593 0.999658
O O14 0.000000 0.000000 0.000000
O O15 0.224415 0.519405 0.200960
O O16 0.000000 0.500000 0.000000
O O17 0.836080 0.299368 0.330627
O O18 0.000000 0.500000 0.500000
#
# Coordination Sequence:
#
# PCOD9082765 Si02
#       8
#     2   2   2   2   2   2   2   2
#     4  10  19  33  57  88 120 153 193 251 312 363
#     4  10  21  38  63  92 118 161 214 248 299 378
#     4   9  20  35  55  86 118 153 199 250 303 355
#     4   9  18  35  60  87 115 154 200 245 297 366
#     4  10  20  37  59  84 119 162 201 244 295 368
#     4  11  21  40  62  83 119 167 208 250 300 361
#     4  11  23  39  62  89 119 156 203 266 311 345
#     4  10  20  37  57  83 116 158 202 244 300 368
#
# _framework density 22.683858000000001
#
# number of rings (size 3 to 8) (size 9 to 14) (size 15 to 20)
#    0.000    2.000    0.000    5.250    0.000    5.000 
#    0.000    9.375    0.000    6.000    0.000    0.000 
#    0.000    0.000    0.000    0.000    0.000    0.000 
#
# Total GULP energy -89161.793756 kJ/mol
# GULP energy per Si atom -5572.612110 kJ/mol
# Density = 2.263223 g / cm^3
# Si number density = 22.683858 Si / 1000 Ang^3
#
#
#
# Elastic Constant Matrix: (Units=GPa)
#
#
# Indices 1 2 3 4 5 6 
#
# 1 104.3184 32.2371 35.6764 15.3420 3.0144 11.6044
# 2 32.2371 99.9385 10.5907 18.7001 5.6108 19.2036
# 3 35.6764 10.5907 82.0803 23.6848 26.8271 6.9863
# 4 15.3420 18.7001 23.6848 35.6699 1.5085 7.6537
# 5 3.0144 5.6108 26.8271 1.5085 32.9502 6.7057
# 6 11.6044 19.2036 6.9863 7.6537 6.7057 27.2143
#
#
#
# Elastic Compliance Matrix: (Units=1/GPa)
#
#
# Indices 1 2 3 4 5 6 
#
# 1 0.013138 -0.003463 -0.007373 0.001485 0.005964 -0.003153
# 2 -0.003463 0.013295 0.002971 -0.005984 -0.002812 -0.006292
# 3 -0.007373 0.002971 0.026116 -0.015684 -0.021185 0.003974
# 4 0.001485 -0.005984 -0.015684 0.041988 0.013248 -0.007457
# 5 0.005964 -0.002812 -0.021185 0.013248 0.049154 -0.010958
# 6 -0.003153 -0.006292 0.003974 -0.007457 -0.010958 0.046307
#
#
# Mechanical properties :
#
#
# Convention : Reuss Voigt Hill
#
# Bulk Modulus (GPa) = 27.15996 49.26059 38.21028
# Shear Modulus (GPa) = 22.93570 33.02242 27.97906
#
# Velocity S-wave (km/s) = 3.18323 3.81959 3.51584
# Velocity P-wave (km/s) = 5.05073 6.41994 5.77605
#
# Compressibility (1/GPa) = 0.03681891
#
# Stress axis : x y z
#
# Youngs Moduli (GPa) = 76.11604 75.21569 38.29029
#
# Poissons Ratio (x) = 0.26051 0.28232
# Poissons Ratio (y) = 0.26362 -0.11377
# Poissons Ratio (z) = 0.56121 -0.22349
#
# Static dielectric constant tensor:
#      x y z
#    x 1.968990 0.030820 0.034710 
#    y 0.030820 1.912660 -0.000570 
#    z 0.034710 -0.000570 1.919730 
# 
# From -- ./inp_files/221283.got.cif
#   From: 2010.05.17/outbox.cif.g08.bks.cpg/sg2_111_cif.got.tgz:221283.got - 2010.06.03 11:33:40.
