data_PCOD9082331
_publ_section_title
;
Structure prediction by ZEFSAII (Michael W. Deem and Ramdas Pophale) SiO2 
 PCOD9082331
Probable space group: P -1
;
_chemical_formula_sum "Si O2"
_cell_formula_units_Z 14
_cell_length_a 8.728624
_cell_length_b 5.600900
_cell_length_c 15.545108
_cell_angle_alpha 100.973464
_cell_angle_beta 114.692829
_cell_angle_gamma 61.727628
_cell_volume 608.083038
_symmetry_space_group_name_H-M "P -1"
_symmetry_group_IT_number 2
_symmetry_cell_setting 'triclinic'
loop_
_space_group_symop_operation_xyz
x,y,z
-x,-y,-z
loop_
_atom_site_type_symbol
_atom_site_label
_atom_site_fract_x
_atom_site_fract_y
_atom_site_fract_z
Si Si1 0.957529 0.292374 0.580716
Si Si2 0.710222 0.609238 0.316909
Si Si3 0.351964 0.128189 0.396948
Si Si4 0.276386 0.836556 0.922873
Si Si5 0.399037 0.647272 0.575401
Si Si6 0.988351 0.963685 0.732285
Si Si7 0.451535 0.186713 0.885646
O O1 0.810804 0.603578 0.581596
O O2 0.823687 0.196220 0.488368
O O3 0.151075 0.289205 0.597105
O O4 0.996503 0.167765 0.676760
O O5 0.595512 0.541430 0.357769
O O6 0.857846 0.326706 0.287950
O O7 0.586981 0.789580 0.222813
O O8 0.477462 0.196413 0.363185
O O9 0.223857 0.998101 0.319242
O O10 0.500000 0.000000 0.500000
O O11 0.065696 0.979300 0.845641
O O12 0.342791 0.508774 0.911676
O O13 0.380839 0.973354 0.894704
O O14 0.339065 0.895491 0.034856
O O15 0.500000 0.500000 0.500000
#
# Coordination Sequence:
#
# PCOD9082331 Si02
#       7
#     2   2   2   2   2   2   2
#     4  10  19  34  52  76 105 138 181 234 278 327
#     4  10  20  34  52  80 108 140 186 235 280 330
#     4  10  20  35  51  71 107 146 188 222 275 341
#     4   9  17  31  53  84 113 142 179 232 290 342
#     4  10  21  37  51  71 108 151 187 224 275 339
#     4  10  19  33  54  79 107 139 183 232 284 329
#     4   9  17  31  53  82 115 141 179 234 290 335
#
# _framework density 23.023173
#
# number of rings (size 3 to 8) (size 9 to 14) (size 15 to 20)
#    0.000    2.286    2.857    0.429    0.000    0.571 
#    5.143    0.000    0.000    0.857    0.000    4.000 
#    0.000    0.000    0.000    0.000    0.000    1.143 
#
# Total GULP energy -78028.996223 kJ/mol
# GULP energy per Si atom -5573.499730 kJ/mol
# Density = 2.297077 g / cm^3
# Si number density = 23.023173 Si / 1000 Ang^3
#
#
#
# Elastic Constant Matrix: (Units=GPa)
#
#
# Indices 1 2 3 4 5 6 
#
# 1 132.0077 26.1561 51.8439 -0.2501 15.0792 34.4366
# 2 26.1561 75.6797 22.7510 -3.9615 3.9342 10.2087
# 3 51.8439 22.7510 147.8934 -20.6326 26.6255 2.6821
# 4 -0.2501 -3.9615 -20.6326 34.0106 5.6258 -0.8062
# 5 15.0792 3.9342 26.6255 5.6258 35.5781 3.2353
# 6 34.4366 10.2087 2.6821 -0.8062 3.2353 34.9356
#
#
#
# Elastic Compliance Matrix: (Units=1/GPa)
#
#
# Indices 1 2 3 4 5 6 
#
# 1 0.012701 -0.001639 -0.004315 -0.002920 -0.000444 -0.011736
# 2 -0.001639 0.014622 -0.001628 0.000570 0.000438 -0.002559
# 3 -0.004315 -0.001628 0.010945 0.007831 -0.007856 0.004797
# 4 -0.002920 0.000570 0.007831 0.036070 -0.010748 0.003938
# 5 -0.000444 0.000438 -0.007856 -0.010748 0.036069 -0.002676
# 6 -0.011736 -0.002559 0.004797 0.003938 -0.002676 0.040911
#
#
# Mechanical properties :
#
#
# Convention : Reuss Voigt Hill
#
# Bulk Modulus (GPa) = 43.28231 61.89809 52.59020
# Shear Modulus (GPa) = 28.70556 37.89352 33.29954
#
# Velocity S-wave (km/s) = 3.53485 4.06135 3.80722
# Velocity P-wave (km/s) = 5.95823 6.99545 6.49757
#
# Compressibility (1/GPa) = 0.02310413
#
# Stress axis : x y z
#
# Youngs Moduli (GPa) = 78.73105 68.39127 91.36962
#
# Poissons Ratio (x) = 0.11212 0.39425
# Poissons Ratio (y) = 0.12907 0.14871
# Poissons Ratio (z) = 0.33972 0.11131
#
# Static dielectric constant tensor:
#      x y z
#    x 1.856840 -0.002860 0.016780 
#    y -0.002860 2.205940 0.051740 
#    z 0.016780 0.051740 1.879070 
# 
# From -- ./inp_files/39198.got.cif
#   From: 2010.05.17/outbox.cif.g08.bks.cpg/sg2_20_cif.got.tgz:39198.got - 2010.06.03 11:33:40.
