data_PCOD9082270
_publ_section_title
;
Structure prediction by ZEFSAII (Michael W. Deem and Ramdas Pophale) SiO2 
 PCOD9082270
Probable space group: P -1
;
_chemical_formula_sum "Si O2"
_cell_formula_units_Z 16
_cell_length_a 10.919758
_cell_length_b 9.375957
_cell_length_c 8.287818
_cell_angle_alpha 104.741957
_cell_angle_beta 79.004086
_cell_angle_gamma 118.705820
_cell_volume 717.394985
_symmetry_space_group_name_H-M "P -1"
_symmetry_group_IT_number 2
_symmetry_cell_setting 'triclinic'
loop_
_space_group_symop_operation_xyz
x,y,z
-x,-y,-z
loop_
_atom_site_type_symbol
_atom_site_label
_atom_site_fract_x
_atom_site_fract_y
_atom_site_fract_z
Si Si1 0.676702 0.035699 0.614399
Si Si2 0.830692 0.084971 0.934927
Si Si3 0.263715 0.551644 0.694513
Si Si4 0.999211 0.380591 0.152744
Si Si5 0.035998 0.113106 0.276586
Si Si6 0.159430 0.599795 0.418126
Si Si7 0.209124 0.195902 0.589274
Si Si8 0.580816 0.082121 0.166096
O O1 0.755811 0.065856 0.776416
O O2 0.772020 0.202036 0.541126
O O3 0.521191 0.008896 0.686376
O O4 0.679711 0.873377 0.494747
O O5 0.961302 0.268091 0.970253
O O6 0.875190 0.939642 0.883584
O O7 0.725444 0.072890 0.101955
O O8 0.122314 0.561374 0.788981
O O9 0.254829 0.558037 0.503470
O O10 0.266584 0.382550 0.690090
O O11 0.384390 0.725292 0.776195
O O12 0.996798 0.244765 0.243248
O O13 0.142144 0.536463 0.219047
O O14 0.123418 0.181504 0.439687
O O15 0.903991 0.942173 0.307373
O O16 0.000000 0.500000 0.500000
O O17 0.500000 0.000000 0.000000
#
# Coordination Sequence:
#
# PCOD9082270 Si02
#       8
#     2   2   2   2   2   2   2   2
#     4  10  21  37  58  80 111 151 187 231 274 325
#     4   9  20  35  58  80 107 154 188 219 274 334
#     4  10  20  34  57  84 112 146 184 232 275 329
#     4  10  19  33  53  82 117 146 179 226 282 333
#     4  10  19  33  55  83 121 145 177 228 284 338
#     4  10  20  33  54  86 115 138 179 234 284 327
#     4  10  20  32  54  89 113 143 184 229 285 332
#     4   9  20  41  57  78 109 151 194 226 265 330
#
# _framework density 22.302917000000001
#
# number of rings (size 3 to 8) (size 9 to 14) (size 15 to 20)
#    0.000    2.250    1.250    1.875    8.750    1.500 
#    4.500    0.000    0.000    0.750    0.000    0.000 
#    0.000    0.000    0.000    0.000    0.000    0.000 
#
# Total GULP energy -89221.131543 kJ/mol
# GULP energy per Si atom -5576.320721 kJ/mol
# Density = 2.225215 g / cm^3
# Si number density = 22.302917 Si / 1000 Ang^3
#
#
#
# Elastic Constant Matrix: (Units=GPa)
#
#
# Indices 1 2 3 4 5 6 
#
# 1 46.9289 37.7663 24.1924 -0.8163 -13.9718 -7.1294
# 2 37.7663 136.6715 46.6967 21.7494 -22.2489 -12.2763
# 3 24.1924 46.6967 74.8817 29.2593 -21.7793 0.4386
# 4 -0.8163 21.7494 29.2593 44.2865 4.8435 1.5475
# 5 -13.9718 -22.2489 -21.7793 4.8435 38.2074 7.4414
# 6 -7.1294 -12.2763 0.4386 1.5475 7.4414 30.1725
#
#
#
# Elastic Compliance Matrix: (Units=1/GPa)
#
#
# Indices 1 2 3 4 5 6 
#
# 1 0.033267 -0.006853 -0.010954 0.011094 -0.000404 0.004762
# 2 -0.006853 0.011435 -0.002243 -0.004675 0.002965 0.002574
# 3 -0.010954 -0.002243 0.031692 -0.021638 0.016862 -0.007011
# 4 0.011094 -0.004675 -0.021638 0.041108 -0.016809 0.003071
# 5 -0.000404 0.002965 0.016862 -0.016809 0.041134 -0.008417
# 6 0.004762 0.002574 -0.007011 0.003071 -0.008417 0.037336
#
#
# Mechanical properties :
#
#
# Convention : Reuss Voigt Hill
#
# Bulk Modulus (GPa) = 27.55272 52.86590 40.20931
# Shear Modulus (GPa) = 20.14746 32.52173 26.33460
#
# Velocity S-wave (km/s) = 3.00885 3.82276 3.43996
# Velocity P-wave (km/s) = 4.94485 6.57569 5.81770
#
# Compressibility (1/GPa) = 0.03629406
#
# Stress axis : x y z
#
# Youngs Moduli (GPa) = 30.05938 87.45306 31.55335
#
# Poissons Ratio (x) = 0.59936 0.34564
# Poissons Ratio (y) = 0.20601 0.07076
# Poissons Ratio (z) = 0.32927 0.19613
#
# Static dielectric constant tensor:
#      x y z
#    x 1.851130 0.033750 0.009520 
#    y 0.033750 1.846630 -0.032250 
#    z 0.009520 -0.032250 1.963080 
# 
# From -- ./inp_files/419717.got.cif
#   From: 2010.05.17/outbox.cif.g08.bks.cpg/sg2_210_cif.got.tgz:419717.got - 2010.06.03 11:33:40.
