data_PCOD9082307
_publ_section_title
;
Structure prediction by ZEFSAII (Michael W. Deem and Ramdas Pophale) SiO2 
 PCOD9082307
Probable space group: P -1
;
_chemical_formula_sum "Si O2"
_cell_formula_units_Z 11
_cell_length_a 6.856941
_cell_length_b 9.287697
_cell_length_c 13.661866
_cell_angle_alpha 138.395773
_cell_angle_beta 38.875279
_cell_angle_gamma 133.205849
_cell_volume 351.445875
_symmetry_space_group_name_H-M "P -1"
_symmetry_group_IT_number 2
_symmetry_cell_setting 'triclinic'
loop_
_space_group_symop_operation_xyz
x,y,z
-x,-y,-z
loop_
_atom_site_type_symbol
_atom_site_label
_atom_site_fract_x
_atom_site_fract_y
_atom_site_fract_z
Si Si1 0.247482 0.289136 0.614287
Si Si2 0.522272 0.586817 0.143012
Si Si3 0.613753 0.202974 0.256943
Si Si4 0.000000 0.500000 0.000000
Si Si5 0.161576 0.741400 0.511126
Si Si6 0.778344 0.849206 0.871187
O O1 0.302969 0.153116 0.424581
O O2 0.370181 0.549140 0.662477
O O3 0.491563 0.196375 0.542269
O O4 0.995976 0.336848 0.815096
O O5 0.251747 0.702808 0.344016
O O6 0.509196 0.386445 0.128190
O O7 0.500000 0.500000 0.000000
O O8 0.888009 0.695736 0.074802
O O9 0.929540 0.201352 0.201204
O O10 0.638058 0.024392 0.074364
O O11 0.000000 0.500000 0.500000
O O12 0.919517 0.869008 0.717145
#
# Coordination Sequence:
#
# PCOD9082307 Si02
#       6
#     2   2   2   1   2   2
#     4   9  17  31  51  73 104 138 167 210 261 306
#     4  10  19  33  54  76 104 141 171 206 262 312
#     4   9  17  31  54  79 101 133 176 216 256 302
#     4  10  20  34  50  76 106 136 174 208 250 316
#     4   8  16  31  49  71  97 131 173 211 251 300
#     4   9  17  32  53  78 104 131 174 221 253 299
#
# _framework density 31.299272999999999
#
# number of rings (size 3 to 8) (size 9 to 14) (size 15 to 20)
#    0.000    2.909    0.000    1.091    0.000    1.455 
#    0.000   10.909    0.000    8.727    0.000    0.000 
#    0.000    0.000    0.000    0.000    0.000    0.000 
#
# Total GULP energy -61275.934235 kJ/mol
# GULP energy per Si atom -5570.539476 kJ/mol
# Density = 3.122803 g / cm^3
# Si number density = 31.299273 Si / 1000 Ang^3
#
#
#
# Elastic Constant Matrix: (Units=GPa)
#
#
# Indices 1 2 3 4 5 6 
#
# 1 141.1602 2.8708 96.0315 -9.2187 -18.8311 -27.7971
# 2 2.8708 88.0030 98.3721 -8.6136 1.6693 -6.9455
# 3 96.0315 98.3721 414.2395 -26.4704 48.6063 -6.4943
# 4 -9.2187 -8.6136 -26.4704 68.8743 -6.5379 2.6094
# 5 -18.8311 1.6693 48.6063 -6.5379 85.7453 4.8884
# 6 -27.7971 -6.9455 -6.4943 2.6094 4.8884 34.7583
#
#
#
# Elastic Compliance Matrix: (Units=1/GPa)
#
#
# Indices 1 2 3 4 5 6 
#
# 1 0.012700 0.005482 -0.004613 0.000702 0.004800 0.009662
# 2 0.005482 0.018318 -0.005925 0.000880 0.003913 0.006321
# 3 -0.004613 -0.005925 0.005297 0.000458 -0.003672 -0.003401
# 4 0.000702 0.000880 0.000458 0.015016 0.001048 -0.000452
# 5 0.004800 0.003913 -0.003672 0.001048 0.014700 0.001788
# 6 0.009662 0.006321 -0.003401 -0.000452 0.001788 0.036907
#
#
# Mechanical properties :
#
#
# Convention : Reuss Voigt Hill
#
# Bulk Modulus (GPa) = 38.16170 115.32793 76.74482
# Shear Modulus (GPa) = 41.05647 67.61746 54.33697
#
# Velocity S-wave (km/s) = 3.62572 4.65300 4.17111
# Velocity P-wave (km/s) = 5.45406 8.11135 6.91162
#
# Compressibility (1/GPa) = 0.02620429
#
# Stress axis : x y z
#
# Youngs Moduli (GPa) = 78.74234 54.59043 188.77700
#
# Poissons Ratio (x) = -0.29929 0.87081
# Poissons Ratio (y) = -0.43170 1.11849
# Poissons Ratio (z) = 0.36323 0.32344
#
# Static dielectric constant tensor:
#      x y z
#    x 1.275630 -1.076820 1.101170 
#    y -1.076820 1.654660 0.988550 
#    z 1.101170 0.988550 1.511900 
# 
# From -- ./inp_files/145646.got.cif
#   From: 2010.05.17/outbox.cif.g08.bks.cpg/sg2_73_cif.got.tgz:145646.got - 2010.06.03 11:33:40.
