data_PCOD9082430
_publ_section_title
;
Structure prediction by ZEFSAII (Michael W. Deem and Ramdas Pophale) SiO2 
 PCOD9082430
Probable space group: P -1
;
_chemical_formula_sum "Si O2"
_cell_formula_units_Z 14
_cell_length_a 7.126714
_cell_length_b 12.628935
_cell_length_c 17.791563
_cell_angle_alpha 140.433029
_cell_angle_beta 138.271672
_cell_angle_gamma 69.726641
_cell_volume 571.543547
_symmetry_space_group_name_H-M "P -1"
_symmetry_group_IT_number 2
_symmetry_cell_setting 'triclinic'
loop_
_space_group_symop_operation_xyz
x,y,z
-x,-y,-z
loop_
_atom_site_type_symbol
_atom_site_label
_atom_site_fract_x
_atom_site_fract_y
_atom_site_fract_z
Si Si1 0.928836 0.507583 0.247926
Si Si2 0.200444 0.041052 0.158809
Si Si3 0.068622 0.372035 0.069664
Si Si4 0.374776 0.298628 0.805699
Si Si5 0.281646 0.573861 0.709915
Si Si6 0.705034 0.941432 0.215406
Si Si7 0.998232 0.216838 0.318660
O O1 0.853644 0.679540 0.309777
O O2 0.008875 0.504779 0.357313
O O3 0.500000 0.500000 0.000000
O O4 0.129672 0.514773 0.237379
O O5 0.554796 0.072460 0.262942
O O6 0.184415 0.192791 0.291314
O O7 0.023325 0.834204 0.036044
O O8 0.000000 0.000000 0.000000
O O9 0.728244 0.326634 0.902352
O O10 0.608483 0.277926 0.019982
O O11 0.409175 0.430551 0.162286
O O12 0.179073 0.115868 0.705211
O O13 0.321255 0.775981 0.803092
O O14 0.196464 0.426106 0.534770
O O15 0.925682 0.051726 0.269047
#
# Coordination Sequence:
#
# PCOD9082430 Si02
#       7
#     2   2   2   2   2   2   2
#     4   9  18  36  59  80 103 133 177 222 262 306
#     4  10  19  33  55  78 100 134 180 223 259 303
#     4   9  18  33  55  79 101 133 178 218 259 306
#     4   7  15  33  58  82 101 129 174 225 263 296
#     4  11  23  34  50  77 110 146 173 209 263 317
#     4   9  18  34  57  77 101 136 174 220 261 302
#     4  11  23  36  49  76 114 143 173 211 261 316
#
# _framework density 24.495072
#
# number of rings (size 3 to 8) (size 9 to 14) (size 15 to 20)
#    0.000    3.143    0.000    3.429    0.000    3.429 
#    0.000    8.571    0.000   17.143    0.000    1.000 
#    0.000    0.000    0.000    0.000    0.000    0.000 
#
# Total GULP energy -77956.906351 kJ/mol
# GULP energy per Si atom -5568.350454 kJ/mol
# Density = 2.443932 g / cm^3
# Si number density = 24.495072 Si / 1000 Ang^3
#
#
#
# Elastic Constant Matrix: (Units=GPa)
#
#
# Indices 1 2 3 4 5 6 
#
# 1 122.1132 24.5040 14.3780 0.5262 -25.2429 -15.7303
# 2 24.5040 136.8784 26.5748 6.5338 -7.4397 -11.8700
# 3 14.3780 26.5748 42.6456 15.5674 -19.7513 -5.0632
# 4 0.5262 6.5338 15.5674 29.9631 -5.9212 0.1025
# 5 -25.2429 -7.4397 -19.7513 -5.9212 30.7445 0.4218
# 6 -15.7303 -11.8700 -5.0632 0.1025 0.4218 39.2448
#
#
#
# Elastic Compliance Matrix: (Units=1/GPa)
#
#
# Indices 1 2 3 4 5 6 
#
# 1 0.010825 -0.001481 0.001971 0.001060 0.009945 0.004036
# 2 -0.001481 0.008745 -0.006619 0.000923 -0.003191 0.001229
# 3 0.001971 -0.006619 0.045809 -0.017256 0.026061 0.004463
# 4 0.001060 0.000923 -0.017256 0.041744 -0.001931 -0.001610
# 5 0.009945 -0.003191 0.026061 -0.001931 0.056210 0.005784
# 6 0.004036 0.001229 0.004463 -0.001610 0.005784 0.027988
#
#
# Mechanical properties :
#
#
# Convention : Reuss Voigt Hill
#
# Bulk Modulus (GPa) = 18.82490 48.06123 33.44306
# Shear Modulus (GPa) = 22.59508 35.73584 29.16546
#
# Velocity S-wave (km/s) = 3.04045 3.82370 3.45435
# Velocity P-wave (km/s) = 4.47523 6.25760 5.43991
#
# Compressibility (1/GPa) = 0.05312113
#
# Stress axis : x y z
#
# Youngs Moduli (GPa) = 92.37643 114.35009 21.82988
#
# Poissons Ratio (x) = 0.16932 -0.04303
# Poissons Ratio (y) = 0.13678 0.14450
# Poissons Ratio (z) = -0.18208 0.75693
#
# Static dielectric constant tensor:
#      x y z
#    x 2.081420 0.009290 0.081730 
#    y 0.009290 1.971030 -0.103800 
#    z 0.081730 -0.103800 2.148240 
# 
# From -- ./inp_files/109689.got.cif
#   From: 2010.05.17/outbox.cif.g08.bks.cpg/sg2_55_cif.got.tgz:109689.got - 2010.06.03 11:33:40.
