data_PCOD9082900
_publ_section_title
;
Structure prediction by ZEFSAII (Michael W. Deem and Ramdas Pophale) SiO2 
 PCOD9082900
Probable space group: P -1
;
_chemical_formula_sum "Si O2"
_cell_formula_units_Z 16
_cell_length_a 13.327550
_cell_length_b 14.465298
_cell_length_c 6.791450
_cell_angle_alpha 53.657352
_cell_angle_beta 53.823672
_cell_angle_gamma 45.534052
_cell_volume 716.863102
_symmetry_space_group_name_H-M "P -1"
_symmetry_group_IT_number 2
_symmetry_cell_setting 'triclinic'
loop_
_space_group_symop_operation_xyz
x,y,z
-x,-y,-z
loop_
_atom_site_type_symbol
_atom_site_label
_atom_site_fract_x
_atom_site_fract_y
_atom_site_fract_z
Si Si1 0.274536 0.043944 0.066963
Si Si2 0.397087 0.390083 0.688251
Si Si3 0.805138 0.379569 0.087680
Si Si4 0.728897 0.218393 0.626924
Si Si5 0.015103 0.491272 0.760385
Si Si6 0.818545 0.729828 0.416159
Si Si7 0.624174 0.852692 0.844639
Si Si8 0.340783 0.596106 0.166317
O O1 0.183956 0.159428 0.863136
O O2 0.449599 0.964176 0.910673
O O3 0.279818 0.101644 0.203322
O O4 0.227233 0.935218 0.252320
O O5 0.341446 0.485077 0.826274
O O6 0.573400 0.306820 0.578027
O O7 0.327069 0.496720 0.458634
O O8 0.353746 0.279871 0.903253
O O9 0.835620 0.258668 0.352442
O O10 0.775562 0.349368 0.943274
O O11 0.921326 0.423835 0.900831
O O12 0.687325 0.279227 0.819594
O O13 0.166098 0.384696 0.607568
O O14 0.939932 0.638193 0.559326
O O15 0.000000 0.500000 0.000000
O O16 0.674137 0.810816 0.615921
O O17 0.500000 0.500000 0.000000
#
# Coordination Sequence:
#
# PCOD9082900 Si02
#       8
#     2   2   2   2   2   2   2   2
#     4  10  23  40  61  95 133 173 210 263 326 397
#     4  10  19  33  58  93 130 161 205 258 323 378
#     4  11  21  38  62  91 124 166 209 264 328 377
#     4  10  21  37  57  94 133 165 204 253 324 392
#     4  11  26  44  67  93 125 169 226 284 319 367
#     4  11  23  41  65  91 124 168 221 263 321 387
#     4  10  21  39  62  94 135 172 209 264 329 385
#     4  11  19  33  60  91 130 168 206 262 317 392
#
# _framework density 22.319462999999999
#
# number of rings (size 3 to 8) (size 9 to 14) (size 15 to 20)
#    0.000    1.500    3.750    1.875    1.750    4.000 
#    2.250    0.625    0.000    2.250    0.000    0.000 
#    0.000    0.000    0.000    0.000    0.000    0.000 
#
# Total GULP energy -89326.932175 kJ/mol
# GULP energy per Si atom -5582.933261 kJ/mol
# Density = 2.226866 g / cm^3
# Si number density = 22.319463 Si / 1000 Ang^3
#
#
#
# Elastic Constant Matrix: (Units=GPa)
#
#
# Indices 1 2 3 4 5 6 
#
# 1 66.3012 21.7883 35.8488 -8.2000 12.3272 31.1518
# 2 21.7883 107.8708 45.5808 -17.4484 11.3381 17.4233
# 3 35.8488 45.5808 100.2119 -1.6762 24.6856 10.6278
# 4 -8.2000 -17.4484 -1.6762 46.7445 6.1449 0.2680
# 5 12.3272 11.3381 24.6856 6.1449 39.5556 -1.9278
# 6 31.1518 17.4233 10.6278 0.2680 -1.9278 30.1173
#
#
#
# Elastic Compliance Matrix: (Units=1/GPa)
#
#
# Indices 1 2 3 4 5 6 
#
# 1 0.044822 0.006309 -0.010372 0.011886 -0.013457 -0.047319
# 2 0.006309 0.014232 -0.006327 0.006762 -0.003772 -0.012828
# 3 -0.010372 -0.006327 0.016766 -0.003030 -0.004546 0.008208
# 4 0.011886 0.006762 -0.003030 0.027134 -0.008744 -0.015938
# 5 -0.013457 -0.003772 -0.004546 -0.008744 0.035730 0.020071
# 6 -0.047319 -0.012828 0.008208 -0.015938 0.020071 0.088099
#
#
# Mechanical properties :
#
#
# Convention : Reuss Voigt Hill
#
# Bulk Modulus (GPa) = 18.16866 53.42442 35.79654
# Shear Modulus (GPa) = 18.80332 34.69453 26.74893
#
# Velocity S-wave (km/s) = 2.90567 3.94693 3.46563
# Velocity P-wave (km/s) = 4.40627 6.69023 5.66456
#
# Compressibility (1/GPa) = 0.05503984
#
# Stress axis : x y z
#
# Youngs Moduli (GPa) = 22.31026 70.26476 59.64445
#
# Poissons Ratio (x) = -0.44332 0.61864
# Poissons Ratio (y) = -0.14076 0.37740
# Poissons Ratio (z) = 0.23140 0.44460
#
# Static dielectric constant tensor:
#      x y z
#    x 1.891130 -0.052150 -0.044750 
#    y -0.052150 1.863290 0.051010 
#    z -0.044750 0.051010 1.852930 
# 
# From -- ./inp_files/97558.got.cif
#   From: 2010.05.17/outbox.cif.g08.bks.cpg/sg2_49_cif.got.tgz:97558.got - 2010.06.03 11:33:40.
