data_PCOD9082998
_publ_section_title
;
Structure prediction by ZEFSAII (Michael W. Deem and Ramdas Pophale) SiO2 
 PCOD9082998
Probable space group: P -1
;
_chemical_formula_sum "Si O2"
_cell_formula_units_Z 14
_cell_length_a 10.708415
_cell_length_b 8.739236
_cell_length_c 6.568183
_cell_angle_alpha 106.669303
_cell_angle_beta 96.229985
_cell_angle_gamma 118.413913
_cell_volume 495.525386
_symmetry_space_group_name_H-M "P -1"
_symmetry_group_IT_number 2
_symmetry_cell_setting 'triclinic'
loop_
_space_group_symop_operation_xyz
x,y,z
-x,-y,-z
loop_
_atom_site_type_symbol
_atom_site_label
_atom_site_fract_x
_atom_site_fract_y
_atom_site_fract_z
Si Si1 0.528653 0.075013 0.263687
Si Si2 0.756217 0.109132 0.694861
Si Si3 0.826489 0.224314 0.208672
Si Si4 0.412006 0.329391 0.208622
Si Si5 0.092163 0.223498 0.164937
Si Si6 0.681962 0.738844 0.299881
Si Si7 0.909638 0.620961 0.204288
O O1 0.401015 0.904221 0.313319
O O2 0.494044 0.239748 0.304054
O O3 0.702645 0.153416 0.335487
O O4 0.500000 0.000000 0.000000
O O5 0.727207 0.924885 0.502874
O O6 0.782933 0.101648 0.944496
O O7 0.913950 0.279242 0.718604
O O8 0.842426 0.415375 0.204573
O O9 0.981558 0.245267 0.302828
O O10 0.535708 0.548534 0.279267
O O11 0.261158 0.292367 0.271189
O O12 0.358079 0.244725 0.937057
O O13 0.113841 0.361636 0.034173
O O14 0.000000 0.000000 0.000000
O O15 0.822590 0.715131 0.310927
#
# Coordination Sequence:
#
# PCOD9082998 Si02
#       7
#     2   2   2   2   2   2   2
#     4  10  20  37  61  86 115 154 199 240 296 349
#     4  10  20  34  60  95 111 151 205 248 278 351
#     4  10  20  38  62  87 117 156 198 244 295 353
#     4  10  20  37  58  85 120 157 187 243 302 352
#     4  10  19  33  60  88 111 153 202 235 287 360
#     4  10  21  36  59  89 119 152 198 243 296 350
#     4  10  19  37  61  88 118 155 198 246 294 349
#
# _framework density 28.252839000000002
#
# number of rings (size 3 to 8) (size 9 to 14) (size 15 to 20)
#    0.000    2.000    1.429    4.714    0.000    0.571 
#    0.000    2.857    0.000    0.857    0.000    1.000 
#    0.000    0.000    0.000    0.000    0.000    0.000 
#
# Total GULP energy -78402.143471 kJ/mol
# GULP energy per Si atom -5600.153105 kJ/mol
# Density = 2.818853 g / cm^3
# Si number density = 28.252839 Si / 1000 Ang^3
#
#
#
# Elastic Constant Matrix: (Units=GPa)
#
#
# Indices 1 2 3 4 5 6 
#
# 1 236.7659 69.4766 33.5443 -10.0798 -20.8895 24.1468
# 2 69.4766 169.3684 31.4844 -16.7528 -31.5915 9.1147
# 3 33.5443 31.4844 108.6345 7.0090 -32.2834 13.7361
# 4 -10.0798 -16.7528 7.0090 43.3144 19.7559 -15.3982
# 5 -20.8895 -31.5915 -32.2834 19.7559 70.2723 -11.5639
# 6 24.1468 9.1147 13.7361 -15.3982 -11.5639 64.2911
#
#
#
# Elastic Compliance Matrix: (Units=1/GPa)
#
#
# Indices 1 2 3 4 5 6 
#
# 1 0.005027 -0.001815 -0.000841 0.000082 0.000035 -0.001425
# 2 -0.001815 0.007379 -0.001302 0.002125 0.001703 0.000729
# 3 -0.000841 -0.001302 0.012459 -0.006504 0.006291 -0.002588
# 4 0.000082 0.002125 -0.006504 0.031937 -0.009846 0.006936
# 5 0.000035 0.001703 0.006291 -0.009846 0.020624 -0.000247
# 6 -0.001425 0.000729 -0.002588 0.006936 -0.000247 0.018156
#
#
# Mechanical properties :
#
#
# Convention : Reuss Voigt Hill
#
# Bulk Modulus (GPa) = 58.99609 87.08661 73.04135
# Shear Modulus (GPa) = 45.81033 60.92645 53.36839
#
# Velocity S-wave (km/s) = 4.03108 4.64882 4.35093
# Velocity P-wave (km/s) = 6.52633 7.72699 7.15190
#
# Compressibility (1/GPa) = 0.01695028
#
# Stress axis : x y z
#
# Youngs Moduli (GPa) = 198.92117 135.51738 80.26614
#
# Poissons Ratio (x) = 0.24590 0.06751
# Poissons Ratio (y) = 0.36095 0.10447
# Poissons Ratio (z) = 0.16731 0.17639
#
# Static dielectric constant tensor:
#      x y z
#    x 2.280700 0.057690 0.108160 
#    y 0.057690 2.160660 -0.046920 
#    z 0.108160 -0.046920 2.333290 
# 
# From -- ./inp_files/182289.got.cif
#   From: 2010.05.17/outbox.cif.g08.bks.cpg/sg2_92_cif.got.tgz:182289.got - 2010.06.03 11:33:40.
