data_PCOD9082386
_publ_section_title
;
Structure prediction by ZEFSAII (Michael W. Deem and Ramdas Pophale) SiO2 
 PCOD9082386
Probable space group: P -1
;
_chemical_formula_sum "Si O2"
_cell_formula_units_Z 16
_cell_length_a 7.090976
_cell_length_b 12.011661
_cell_length_c 8.542750
_cell_angle_alpha 113.076171
_cell_angle_beta 110.674408
_cell_angle_gamma 73.121216
_cell_volume 616.455896
_symmetry_space_group_name_H-M "P -1"
_symmetry_group_IT_number 2
_symmetry_cell_setting 'triclinic'
loop_
_space_group_symop_operation_xyz
x,y,z
-x,-y,-z
loop_
_atom_site_type_symbol
_atom_site_label
_atom_site_fract_x
_atom_site_fract_y
_atom_site_fract_z
Si Si1 0.241683 0.059743 0.776600
Si Si2 0.744733 0.178735 0.210777
Si Si3 0.501172 0.681347 0.273506
Si Si4 0.248085 0.332427 0.948113
Si Si5 0.800064 0.865377 0.550194
Si Si6 0.802168 0.104068 0.827181
Si Si7 0.949565 0.499034 0.740556
Si Si8 0.687771 0.447877 0.339988
O O1 0.315075 0.186346 0.909497
O O2 0.199071 0.073663 0.587631
O O3 0.033414 0.070743 0.820279
O O4 0.351710 0.924498 0.782760
O O5 0.622503 0.316365 0.259042
O O6 0.968633 0.185127 0.355057
O O7 0.783804 0.139047 0.021090
O O8 0.573276 0.636356 0.094594
O O9 0.666901 0.758170 0.437346
O O10 0.301841 0.781926 0.245591
O O11 0.507949 0.561374 0.312007
O O12 0.050884 0.376467 0.798737
O O13 0.168717 0.403420 0.119259
O O14 0.709556 0.981050 0.697825
O O15 0.803907 0.473567 0.545026
O O16 0.140180 0.550858 0.744979
#
# Coordination Sequence:
#
# PCOD9082386 Si02
#       8
#     2   2   2   2   2   2   2   2
#     4  10  20  36  60  83 109 145 188 229 270 326
#     4  11  21  34  57  84 112 144 187 227 266 327
#     4  10  22  38  57  82 116 146 179 229 283 328
#     4   9  18  35  57  83 110 145 186 229 274 322
#     4  10  20  39  62  81 107 146 191 229 268 326
#     4  11  22  36  56  86 115 144 180 229 284 327
#     4   9  17  32  57  81 107 143 194 232 258 318
#     4  10  19  33  54  83 111 145 185 227 272 324
#
# _framework density 25.954815
#
# number of rings (size 3 to 8) (size 9 to 14) (size 15 to 20)
#    0.000    2.000    0.000    7.125    0.000    1.500 
#    0.000    5.000    0.000    4.500    0.000    0.875 
#    0.000    0.000    0.000    0.000    0.000    0.000 
#
# Total GULP energy -89678.601392 kJ/mol
# GULP energy per Si atom -5604.912587 kJ/mol
# Density = 2.589574 g / cm^3
# Si number density = 25.954815 Si / 1000 Ang^3
#
#
#
# Elastic Constant Matrix: (Units=GPa)
#
#
# Indices 1 2 3 4 5 6 
#
# 1 63.6966 29.7519 16.1904 -10.6018 -2.2806 12.8697
# 2 29.7519 228.5369 55.1159 -3.7255 5.7784 9.2279
# 3 16.1904 55.1159 120.2915 4.8444 -2.4772 6.6614
# 4 -10.6018 -3.7255 4.8444 28.3790 -7.0954 9.3889
# 5 -2.2806 5.7784 -2.4772 -7.0954 20.3454 1.3347
# 6 12.8697 9.2279 6.6614 9.3889 1.3347 38.1704
#
#
#
# Elastic Compliance Matrix: (Units=1/GPa)
#
#
# Indices 1 2 3 4 5 6 
#
# 1 0.021672 -0.001954 -0.001838 0.013542 0.008148 -0.010129
# 2 -0.001954 0.005201 -0.002149 -0.000141 -0.001999 -0.000119
# 3 -0.001838 -0.002149 0.009657 -0.002446 0.000725 0.000030
# 4 0.013542 -0.000141 -0.002446 0.051588 0.020400 -0.017507
# 5 0.008148 -0.001999 0.000725 0.020400 0.058455 -0.009452
# 6 -0.010129 -0.000119 0.000030 -0.017507 -0.009452 0.034274
#
#
# Mechanical properties :
#
#
# Convention : Reuss Voigt Hill
#
# Bulk Modulus (GPa) = 40.57255 68.29349 54.43302
# Shear Modulus (GPa) = 24.88236 38.14341 31.51289
#
# Velocity S-wave (km/s) = 3.09961 3.83771 3.48824
# Velocity P-wave (km/s) = 5.33630 6.78284 6.10258
#
# Compressibility (1/GPa) = 0.02464721
#
# Stress axis : x y z
#
# Youngs Moduli (GPa) = 46.14317 192.25477 103.55195
#
# Poissons Ratio (x) = 0.37572 0.19034
# Poissons Ratio (y) = 0.09018 0.22254
# Poissons Ratio (z) = 0.08481 0.41318
#
# Static dielectric constant tensor:
#      x y z
#    x 2.039090 0.009400 0.051430 
#    y 0.009400 2.060340 0.011710 
#    z 0.051430 0.011710 2.032350 
# 
# From -- ./inp_files/181809.got.cif
#   From: 2010.05.17/outbox.cif.g08.bks.cpg/sg2_91_cif.got.tgz:181809.got - 2010.06.03 11:33:40.
