data_PCOD9082116
_publ_section_title
;
Structure prediction by ZEFSAII (Michael W. Deem and Ramdas Pophale) SiO2 
 PCOD9082116
Probable space group: P -1
;
_chemical_formula_sum "Si O2"
_cell_formula_units_Z 16
_cell_length_a 12.941381
_cell_length_b 14.879403
_cell_length_c 14.675393
_cell_angle_alpha 48.251424
_cell_angle_beta 28.628255
_cell_angle_gamma 41.058278
_cell_volume 889.241815
_symmetry_space_group_name_H-M "P -1"
_symmetry_group_IT_number 2
_symmetry_cell_setting 'triclinic'
loop_
_space_group_symop_operation_xyz
x,y,z
-x,-y,-z
loop_
_atom_site_type_symbol
_atom_site_label
_atom_site_fract_x
_atom_site_fract_y
_atom_site_fract_z
Si Si1 0.137495 0.315306 0.097347
Si Si2 0.607567 0.942358 0.575190
Si Si3 0.418984 0.937245 0.019683
Si Si4 0.201183 0.790278 0.552718
Si Si5 0.969896 0.907750 0.463211
Si Si6 0.803973 0.853855 0.114144
Si Si7 0.798560 0.074415 0.185410
Si Si8 0.250132 0.386424 0.767481
O O1 0.347517 0.211330 0.071069
O O2 0.988988 0.239472 0.223991
O O3 0.938721 0.454806 0.202671
O O4 0.251797 0.350737 0.897556
O O5 0.377268 0.079710 0.703112
O O6 0.751458 0.982332 0.359984
O O7 0.803686 0.871923 0.550781
O O8 0.469466 0.860525 0.698795
O O9 0.340340 0.036937 0.927810
O O10 0.192377 0.912938 0.236053
O O11 0.500000 0.000000 0.000000
O O12 0.468572 0.665301 0.440071
O O13 0.090866 0.814161 0.520177
O O14 0.193250 0.933557 0.485833
O O15 0.827764 0.709402 0.165073
O O16 0.071916 0.844710 0.923295
O O17 0.000000 0.000000 0.000000
#
# Coordination Sequence:
#
# PCOD9082116 Si02
#       8
#     2   2   2   2   2   2   2   2
#     4  11  23  34  48  72 117 150 180 215 255 306
#     4  10  19  33  51  80 108 131 173 227 272 314
#     4  12  19  33  51  80 110 145 178 216 259 313
#     4  11  20  34  50  77 108 144 178 216 256 314
#     4  11  19  30  55  79 105 138 178 218 264 311
#     4  11  19  33  57  78 105 142 180 218 267 308
#     4   9  20  34  51  79 109 131 168 225 281 318
#     4  11  22  35  49  76 110 149 184 213 254 317
#
# _framework density 17.992856
#
# number of rings (size 3 to 8) (size 9 to 14) (size 15 to 20)
#    0.000    1.250    6.250    1.125    0.000    0.000 
#    0.000    0.000    0.000    0.000    0.000   14.875 
#    0.000    0.625    0.000    0.000    0.000    0.000 
#
# Total GULP energy -89157.277455 kJ/mol
# GULP energy per Si atom -5572.329841 kJ/mol
# Density = 1.795190 g / cm^3
# Si number density = 17.992856 Si / 1000 Ang^3
#
#
#
# Elastic Constant Matrix: (Units=GPa)
#
#
# Indices 1 2 3 4 5 6 
#
# 1 84.7070 23.3524 28.0484 2.9724 -25.0535 -6.5123
# 2 23.3524 71.9927 10.3279 12.4333 -9.9847 0.3536
# 3 28.0484 10.3279 112.3931 7.6392 -16.3418 -2.6608
# 4 2.9724 12.4333 7.6392 21.8222 -3.2720 0.1248
# 5 -25.0535 -9.9847 -16.3418 -3.2720 42.2243 0.5599
# 6 -6.5123 0.3536 -2.6608 0.1248 0.5599 11.9325
#
#
#
# Elastic Compliance Matrix: (Units=1/GPa)
#
#
# Indices 1 2 3 4 5 6 
#
# 1 0.016799 -0.004404 -0.002583 0.002276 0.007992 0.008324
# 2 -0.004404 0.016972 0.000204 -0.009002 0.000819 -0.002805
# 3 -0.002583 0.000204 0.010058 -0.002965 0.002168 0.000756
# 4 0.002276 -0.009002 -0.002965 0.051996 0.002101 0.000206
# 5 0.007992 0.000819 0.002168 0.002101 0.029576 0.003412
# 6 0.008324 -0.002805 0.000756 0.000206 0.003412 0.088437
#
#
# Mechanical properties :
#
#
# Convention : Reuss Voigt Hill
#
# Bulk Modulus (GPa) = 33.04462 43.61669 38.33065
# Shear Modulus (GPa) = 21.05350 29.02006 25.03678
#
# Velocity S-wave (km/s) = 3.42439 4.02041 3.73431
# Velocity P-wave (km/s) = 5.83443 6.77092 6.32004
#
# Compressibility (1/GPa) = 0.03026212
#
# Stress axis : x y z
#
# Youngs Moduli (GPa) = 59.52810 58.92193 99.42411
#
# Poissons Ratio (x) = 0.25949 0.25683
# Poissons Ratio (y) = 0.26216 -0.02028
# Poissons Ratio (z) = 0.15377 -0.01202
#
# Static dielectric constant tensor:
#      x y z
#    x 1.675080 0.022100 0.011560 
#    y 0.022100 1.605370 0.002480 
#    z 0.011560 0.002480 1.678500 
# 
# From -- ./inp_files/276894.got.cif
#   From: 2010.05.17/outbox.cif.g08.bks.cpg/sg2_139_cif.got.tgz:276894.got - 2010.06.03 11:33:40.
