data_PCOD9082152
_publ_section_title
;
Structure prediction by ZEFSAII (Michael W. Deem and Ramdas Pophale) SiO2 
 PCOD9082152
Probable space group: P -1
;
_chemical_formula_sum "Si O2"
_cell_formula_units_Z 16
_cell_length_a 8.491511
_cell_length_b 13.348541
_cell_length_c 28.429305
_cell_angle_alpha 23.272823
_cell_angle_beta 34.749212
_cell_angle_gamma 31.156521
_cell_volume 648.710102
_symmetry_space_group_name_H-M "P -1"
_symmetry_group_IT_number 2
_symmetry_cell_setting 'triclinic'
loop_
_space_group_symop_operation_xyz
x,y,z
-x,-y,-z
loop_
_atom_site_type_symbol
_atom_site_label
_atom_site_fract_x
_atom_site_fract_y
_atom_site_fract_z
Si Si1 0.742492 0.832401 0.224884
Si Si2 0.134743 0.667822 0.021213
Si Si3 0.866287 0.329798 0.471009
Si Si4 0.650667 0.128108 0.787134
Si Si5 0.651956 0.746597 0.035236
Si Si6 0.760460 0.642738 0.540433
Si Si7 0.279950 0.823209 0.711937
Si Si8 0.892286 0.806518 0.722889
O O1 0.912487 0.513101 0.339458
O O2 0.557456 0.841151 0.219862
O O3 0.469931 0.016472 0.249796
O O4 0.939105 0.006752 0.094750
O O5 0.039534 0.522047 0.150622
O O6 0.000846 0.613923 0.028235
O O7 0.500000 0.500000 0.000000
O O8 0.500000 0.500000 0.500000
O O9 0.050547 0.355181 0.460515
O O10 0.933150 0.002777 0.588518
O O11 0.592276 0.446993 0.677842
O O12 0.013035 0.980974 0.747735
O O13 0.618159 0.909794 0.925054
O O14 0.551380 0.497532 0.172873
O O15 0.500000 0.000000 0.000000
O O16 0.000000 0.500000 0.500000
O O17 0.570232 0.969008 0.428686
O O18 0.096400 0.821068 0.710460
#
# Coordination Sequence:
#
# PCOD9082152 Si02
#       8
#     2   2   2   2   2   2   2   2
#     4   9  16  27  45  70  98 131 170 213 259 311
#     4   9  17  32  52  75 101 135 178 220 262 317
#     4   9  14  23  40  68 102 131 159 208 269 317
#     4  10  19  33  52  78 109 142 180 226 270 321
#     4  11  22  36  54  80 111 145 180 222 277 331
#     4   9  16  28  49  78 106 135 177 230 274 314
#     4   8  16  31  51  76 105 135 176 222 267 317
#     4   7  13  24  42  69  99 126 161 209 257 304
#
# _framework density 24.664332000000002
#
# number of rings (size 3 to 8) (size 9 to 14) (size 15 to 20)
#    0.000    3.000    0.000    4.125    0.000    0.000 
#    0.000    5.000    0.000    0.000    0.000    8.750 
#    0.000    0.000    0.000    0.000    0.000    0.000 
#
# Total GULP energy -89287.637299 kJ/mol
# GULP energy per Si atom -5580.477331 kJ/mol
# Density = 2.460819 g / cm^3
# Si number density = 24.664332 Si / 1000 Ang^3
#
#
#
# Elastic Constant Matrix: (Units=GPa)
#
#
# Indices 1 2 3 4 5 6 
#
# 1 62.1599 4.4346 59.1549 -6.2873 11.4491 -10.8684
# 2 4.4346 61.3816 39.6355 -10.3710 6.5732 -6.7571
# 3 59.1549 39.6355 318.9516 -51.0269 13.4392 -20.8020
# 4 -6.2873 -10.3710 -51.0269 42.6861 -7.0259 -0.1301
# 5 11.4491 6.5732 13.4392 -7.0259 45.9592 -1.7761
# 6 -10.8684 -6.7571 -20.8020 -0.1301 -1.7761 13.8211
#
#
#
# Elastic Compliance Matrix: (Units=1/GPa)
#
#
# Indices 1 2 3 4 5 6 
#
# 1 0.022272 0.002400 -0.003593 -0.001137 -0.004525 0.012688
# 2 0.002400 0.018800 -0.001760 0.002501 -0.002073 0.008187
# 3 -0.003593 -0.001760 0.005105 0.005260 0.000618 0.004127
# 4 -0.001137 0.002501 0.005260 0.030747 0.003435 0.008976
# 5 -0.004525 -0.002073 0.000618 0.003435 0.023504 -0.000589
# 6 0.012688 0.008187 0.004127 0.008976 -0.000589 0.092552
#
#
# Mechanical properties :
#
#
# Convention : Reuss Voigt Hill
#
# Bulk Modulus (GPa) = 24.83123 72.10478 48.46801
# Shear Modulus (GPa) = 23.55044 43.11116 33.33080
#
# Velocity S-wave (km/s) = 3.09340 4.18534 3.68010
# Velocity P-wave (km/s) = 4.77999 7.25631 6.14420
#
# Compressibility (1/GPa) = 0.04027187
#
# Stress axis : x y z
#
# Youngs Moduli (GPa) = 44.89916 53.19022 195.88937
#
# Poissons Ratio (x) = -0.12765 0.70379
# Poissons Ratio (y) = -0.10776 0.34476
# Poissons Ratio (z) = 0.16131 0.09361
#
# Static dielectric constant tensor:
#      x y z
#    x 1.937910 -0.053610 0.019990 
#    y -0.053610 2.059910 -0.040120 
#    z 0.019990 -0.040120 2.066890 
# 
# From -- ./inp_files/312483.got.cif
#   From: 2010.05.17/outbox.cif.g08.bks.cpg/sg2_157_cif.got.tgz:312483.got - 2010.06.03 11:33:40.
