data_PCOD9082175
_publ_section_title
;
Structure prediction by ZEFSAII (Michael W. Deem and Ramdas Pophale) SiO2 
 PCOD9082175
Probable space group: P -1
;
_chemical_formula_sum "Si O2"
_cell_formula_units_Z 16
_cell_length_a 18.951766
_cell_length_b 10.222118
_cell_length_c 19.456041
_cell_angle_alpha 29.088952
_cell_angle_beta 156.866685
_cell_angle_gamma 155.463510
_cell_volume 598.635218
_symmetry_space_group_name_H-M "P -1"
_symmetry_group_IT_number 2
_symmetry_cell_setting 'triclinic'
loop_
_space_group_symop_operation_xyz
x,y,z
-x,-y,-z
loop_
_atom_site_type_symbol
_atom_site_label
_atom_site_fract_x
_atom_site_fract_y
_atom_site_fract_z
Si Si1 0.219228 0.275147 0.183980
Si Si2 0.113330 0.809749 0.680574
Si Si3 0.559110 0.151187 0.267211
Si Si4 0.054048 0.476610 0.201307
Si Si5 0.687347 0.829619 0.089059
Si Si6 0.347154 0.208847 0.581567
Si Si7 0.520706 0.648449 0.159308
Si Si8 0.628850 0.163486 0.471743
O O1 0.416346 0.553737 0.280422
O O2 0.318714 0.398109 0.139759
O O3 0.203666 0.942499 0.337292
O O4 0.005639 0.279214 0.994886
O O5 0.194126 0.888268 0.638693
O O6 0.339189 0.015724 0.829540
O O7 0.974666 0.514158 0.745192
O O8 0.000000 0.000000 0.500000
O O9 0.722898 0.542930 0.236454
O O10 0.487049 0.057601 0.324110
O O11 0.643695 0.936789 0.415102
O O12 0.383511 0.089830 0.081591
O O13 0.243608 0.416754 0.389264
O O14 0.867702 0.141961 0.148684
O O15 0.489708 0.671068 0.040505
O O16 0.683488 0.521682 0.362858
O O17 0.500000 0.000000 0.500000
#
# Coordination Sequence:
#
# PCOD9082175 Si02
#       8
#     2   2   2   2   2   2   2   2
#     4  10  19  33  56  76 106 143 178 214 255 304
#     4   8  16  29  50  80 112 136 166 216 257 310
#     4  10  19  33  54  79 106 137 174 220 264 311
#     4  10  19  33  52  81 110 139 175 211 260 317
#     4   9  18  32  53  81 108 132 175 215 266 320
#     4  10  20  32  51  83 108 138 175 215 264 308
#     4   8  16  30  55  79 101 142 176 213 258 313
#     4   9  19  36  55  76  98 143 186 211 259 314
#
# _framework density 26.727461999999999
#
# number of rings (size 3 to 8) (size 9 to 14) (size 15 to 20)
#    0.000    2.750    1.250    0.000    1.750    2.500 
#    0.000    0.625    0.000   18.750    0.000    0.000 
#    0.000    0.000    0.000    0.000    0.000    0.000 
#
# Total GULP energy -89225.383314 kJ/mol
# GULP energy per Si atom -5576.586457 kJ/mol
# Density = 2.666663 g / cm^3
# Si number density = 26.727462 Si / 1000 Ang^3
#
#
#
# Elastic Constant Matrix: (Units=GPa)
#
#
# Indices 1 2 3 4 5 6 
#
# 1 157.0806 28.3806 36.2160 4.6838 -24.9160 -13.0034
# 2 28.3806 44.9537 16.2683 -1.5358 3.2575 -13.9917
# 3 36.2160 16.2683 173.5784 -10.0379 9.1997 -0.2905
# 4 4.6838 -1.5358 -10.0379 22.7983 -15.0553 0.6235
# 5 -24.9160 3.2575 9.1997 -15.0553 46.7337 -4.8352
# 6 -13.0034 -13.9917 -0.2905 0.6235 -4.8352 26.3106
#
#
#
# Elastic Compliance Matrix: (Units=1/GPa)
#
#
# Indices 1 2 3 4 5 6 
#
# 1 0.008687 -0.004336 -0.001656 0.001006 0.005897 0.003030
# 2 -0.004336 0.029933 -0.001736 0.000010 -0.002681 0.013263
# 3 -0.001656 -0.001736 0.006470 0.002090 -0.001570 -0.002008
# 4 0.001006 0.000010 0.002090 0.056864 0.018713 0.002617
# 5 0.005897 -0.002681 -0.001570 0.018713 0.031777 0.006868
# 6 0.003030 0.013263 -0.002008 0.002617 0.006868 0.047736
#
#
# Mechanical properties :
#
#
# Convention : Reuss Voigt Hill
#
# Bulk Modulus (GPa) = 33.74228 59.70473 46.72350
# Shear Modulus (GPa) = 24.17793 38.81836 31.49815
#
# Velocity S-wave (km/s) = 3.01094 3.81514 3.43664
# Velocity P-wave (km/s) = 4.97390 6.46482 5.76774
#
# Compressibility (1/GPa) = 0.02963641
#
# Stress axis : x y z
#
# Youngs Moduli (GPa) = 115.10927 33.40766 154.56147
#
# Poissons Ratio (x) = 0.14484 0.25588
# Poissons Ratio (y) = 0.49906 0.26832
# Poissons Ratio (z) = 0.19057 0.05800
#
# Static dielectric constant tensor:
#      x y z
#    x 2.100560 0.054800 0.010490 
#    y 0.054800 2.207980 0.033520 
#    z 0.010490 0.033520 2.157360 
# 
# From -- ./inp_files/404063.got.cif
#   From: 2010.05.17/outbox.cif.g08.bks.cpg/sg2_203_cif.got.tgz:404063.got - 2010.06.03 11:33:40.
