data_PCOD9082444
_publ_section_title
;
Structure prediction by ZEFSAII (Michael W. Deem and Ramdas Pophale) SiO2 
 PCOD9082444
Probable space group: P -1
;
_chemical_formula_sum "Si O2"
_cell_formula_units_Z 14
_cell_length_a 9.179913
_cell_length_b 7.627970
_cell_length_c 8.182678
_cell_angle_alpha 87.360523
_cell_angle_beta 110.210718
_cell_angle_gamma 111.901350
_cell_volume 496.635854
_symmetry_space_group_name_H-M "P -1"
_symmetry_group_IT_number 2
_symmetry_cell_setting 'triclinic'
loop_
_space_group_symop_operation_xyz
x,y,z
-x,-y,-z
loop_
_atom_site_type_symbol
_atom_site_label
_atom_site_fract_x
_atom_site_fract_y
_atom_site_fract_z
Si Si1 0.307624 0.736879 0.812269
Si Si2 0.105961 0.011042 0.251130
Si Si3 0.606857 0.942192 0.411401
Si Si4 0.801266 0.420457 0.885810
Si Si5 0.633250 0.607760 0.283806
Si Si6 0.246772 0.231285 0.007067
Si Si7 0.073628 0.373037 0.372654
O O1 0.385745 0.941011 0.753859
O O2 0.404274 0.607040 0.782513
O O3 0.114301 0.640785 0.675112
O O4 0.284145 0.733895 0.999793
O O5 0.051176 0.187579 0.259825
O O6 0.204436 0.985063 0.445891
O O7 0.235618 0.078895 0.146828
O O8 0.944978 0.840254 0.133427
O O9 0.500000 0.000000 0.500000
O O10 0.550981 0.715094 0.370806
O O11 0.816508 0.435574 0.694446
O O12 0.720113 0.571908 0.897885
O O13 0.000000 0.500000 0.000000
O O14 0.650827 0.727328 0.120241
O O15 0.814365 0.652694 0.436947
#
# Coordination Sequence:
#
# PCOD9082444 Si02
#       7
#     2   2   2   2   2   2   2
#     4  10  19  33  55  79 107 139 173 219 269 316
#     4   9  18  32  53  80 112 139 169 217 270 319
#     4  11  24  39  53  73 107 151 189 216 250 305
#     4   8  16  28  47  79 113 135 160 205 271 336
#     4  10  20  34  55  79 106 134 177 227 267 316
#     4   9  16  30  54  82 107 132 166 221 281 321
#     4   9  16  30  54  85 111 133 163 215 284 329
#
# _framework density 28.189665999999999
#
# number of rings (size 3 to 8) (size 9 to 14) (size 15 to 20)
#    0.000    2.571    0.000    2.143    0.000    6.286 
#    0.000    0.714    0.000   13.714    0.000    0.000 
#    0.000    0.000    0.000    0.000    0.000    0.000 
#
# Total GULP energy -78298.614984 kJ/mol
# GULP energy per Si atom -5592.758213 kJ/mol
# Density = 2.812551 g / cm^3
# Si number density = 28.189666 Si / 1000 Ang^3
#
#
#
# Elastic Constant Matrix: (Units=GPa)
#
#
# Indices 1 2 3 4 5 6 
#
# 1 136.2192 44.1944 23.2028 -7.5593 1.8755 -31.1674
# 2 44.1944 132.1074 45.2978 8.5103 -2.0042 -34.0422
# 3 23.2028 45.2978 125.6389 -16.5262 0.8877 6.0865
# 4 -7.5593 8.5103 -16.5262 46.6389 7.1265 -6.8586
# 5 1.8755 -2.0042 0.8877 7.1265 30.9630 12.1569
# 6 -31.1674 -34.0422 6.0865 -6.8586 12.1569 55.8305
#
#
#
# Elastic Compliance Matrix: (Units=1/GPa)
#
#
# Indices 1 2 3 4 5 6 
#
# 1 0.009519 -0.001636 -0.001041 0.002817 -0.003473 0.005532
# 2 -0.001636 0.011499 -0.004529 -0.002887 -0.000887 0.006431
# 3 -0.001041 -0.004529 0.010472 0.003738 0.000207 -0.004070
# 4 0.002817 -0.002887 0.003738 0.025612 -0.008049 0.004304
# 5 -0.003473 -0.000887 0.000207 -0.008049 0.039001 -0.011984
# 6 0.005532 0.006431 -0.004070 0.004304 -0.011984 0.028502
#
#
# Mechanical properties :
#
#
# Convention : Reuss Voigt Hill
#
# Bulk Modulus (GPa) = 58.55357 68.81728 63.68542
# Shear Modulus (GPa) = 34.55161 45.43786 39.99473
#
# Velocity S-wave (km/s) = 3.50477 4.01916 3.77075
# Velocity P-wave (km/s) = 6.09871 6.78258 6.44972
#
# Compressibility (1/GPa) = 0.01707838
#
# Stress axis : x y z
#
# Youngs Moduli (GPa) = 105.05119 86.96111 95.49441
#
# Poissons Ratio (x) = 0.14227 0.09942
# Poissons Ratio (y) = 0.17187 0.43248
# Poissons Ratio (z) = 0.10937 0.39383
#
# Static dielectric constant tensor:
#      x y z
#    x 2.234560 0.045230 -0.006050 
#    y 0.045230 2.208290 0.031620 
#    z -0.006050 0.031620 2.145120 
# 
# From -- ./inp_files/154323.got.cif
#   From: 2010.05.17/outbox.cif.g08.bks.cpg/sg2_78_cif.got.tgz:154323.got - 2010.06.03 11:33:40.
