data_PCOD9082054
_publ_section_title
;
Structure prediction by ZEFSAII (Michael W. Deem and Ramdas Pophale) SiO2 
 PCOD9082054
Probable space group: P -1
;
_chemical_formula_sum "Si O2"
_cell_formula_units_Z 14
_cell_length_a 8.159156
_cell_length_b 8.681891
_cell_length_c 12.937016
_cell_angle_alpha 49.490913
_cell_angle_beta 63.267984
_cell_angle_gamma 66.893438
_cell_volume 615.466665
_symmetry_space_group_name_H-M "P -1"
_symmetry_group_IT_number 2
_symmetry_cell_setting 'triclinic'
loop_
_space_group_symop_operation_xyz
x,y,z
-x,-y,-z
loop_
_atom_site_type_symbol
_atom_site_label
_atom_site_fract_x
_atom_site_fract_y
_atom_site_fract_z
Si Si1 0.710126 0.069396 0.915812
Si Si2 0.663375 0.908600 0.805283
Si Si3 0.731096 0.807570 0.202788
Si Si4 0.518332 0.559236 0.087119
Si Si5 0.170716 0.326001 0.548602
Si Si6 0.196886 0.038140 0.468558
Si Si7 0.573509 0.397614 0.357206
O O1 0.767816 0.055077 0.785552
O O2 0.818187 0.913098 0.034817
O O3 0.500000 0.000000 0.000000
O O4 0.663269 0.294737 0.879391
O O5 0.672298 0.708807 0.961605
O O6 0.456274 0.031173 0.792604
O O7 0.731222 0.845629 0.700045
O O8 0.845064 0.771964 0.291088
O O9 0.668073 0.592752 0.279738
O O10 0.500000 0.500000 0.000000
O O11 0.571301 0.397767 0.232536
O O12 0.365188 0.417776 0.451284
O O13 0.000000 0.500000 0.500000
O O14 0.190071 0.161813 0.522251
O O15 0.321152 0.817768 0.540546
O O16 0.000000 0.000000 0.500000
#
# Coordination Sequence:
#
# PCOD9082054 Si02
#       7
#     2   2   2   2   2   2   2
#     4   8  16  33  59  94 121 164 208 249 318 384
#     4  10  19  41  63  92 130 168 211 259 322 388
#     4  10  19  38  67  96 124 171 210 261 325 384
#     4  10  19  32  63  98 126 164 216 262 313 387
#     4  12  27  41  64  97 134 168 217 267 321 387
#     4  12  28  43  64  98 131 170 216 273 317 378
#     4  12  22  41  70  99 124 173 215 261 331 375
#
# _framework density 22.746967999999999
#
# number of rings (size 3 to 8) (size 9 to 14) (size 15 to 20)
#    0.000    1.714    5.714    2.571    6.000    0.000 
#    0.000    0.714    3.143    4.286    0.000    0.000 
#    0.000    0.000    0.000    0.000    0.000    0.000 
#
# Total GULP energy -78110.269648 kJ/mol
# GULP energy per Si atom -5579.304975 kJ/mol
# Density = 2.269520 g / cm^3
# Si number density = 22.746968 Si / 1000 Ang^3
#
#
#
# Elastic Constant Matrix: (Units=GPa)
#
#
# Indices 1 2 3 4 5 6 
#
# 1 59.0550 25.3401 21.8468 1.6839 26.8068 -2.2801
# 2 25.3401 57.7548 2.9033 13.3523 9.9996 7.5687
# 3 21.8468 2.9033 123.1919 5.7813 41.8535 -11.3482
# 4 1.6839 13.3523 5.7813 32.1579 13.1167 17.9319
# 5 26.8068 9.9996 41.8535 13.1167 36.0678 1.9522
# 6 -2.2801 7.5687 -11.3482 17.9319 1.9522 36.8698
#
#
#
# Elastic Compliance Matrix: (Units=1/GPa)
#
#
# Indices 1 2 3 4 5 6 
#
# 1 0.037028 -0.014386 0.005181 0.017711 -0.035992 0.000130
# 2 -0.014386 0.025148 -0.000575 -0.013156 0.009190 -0.000317
# 3 0.005181 -0.000575 0.015303 0.004311 -0.023249 0.004283
# 4 0.017711 -0.013156 0.004311 0.062608 -0.036019 -0.023420
# 5 -0.035992 0.009190 -0.023249 -0.036019 0.091931 0.001383
# 6 0.000130 -0.000317 0.004283 -0.023420 0.001383 0.039831
#
#
# Mechanical properties :
#
#
# Convention : Reuss Voigt Hill
#
# Bulk Modulus (GPa) = 17.26595 37.79801 27.53198
# Shear Modulus (GPa) = 16.09197 33.67987 24.88592
#
# Velocity S-wave (km/s) = 2.66265 3.85207 3.31120
# Velocity P-wave (km/s) = 4.13036 6.03634 5.17191
#
# Compressibility (1/GPa) = 0.05791747
#
# Stress axis : x y z
#
# Youngs Moduli (GPa) = 27.00691 39.76515 65.34694
#
# Poissons Ratio (x) = 0.57208 -0.33859
# Poissons Ratio (y) = 0.38853 0.03759
# Poissons Ratio (z) = -0.13993 0.02288
#
# Static dielectric constant tensor:
#      x y z
#    x 1.982510 0.110560 -0.110520 
#    y 0.110560 1.965690 0.017650 
#    z -0.110520 0.017650 1.980430 
# 
# From -- ./inp_files/380973.got.cif
#   From: 2010.05.17/outbox.cif.g08.bks.cpg/sg2_191_cif.got.tgz:380973.got - 2010.06.03 11:33:40.
