data_PCOD9082732
_publ_section_title
;
Structure prediction by ZEFSAII (Michael W. Deem and Ramdas Pophale) SiO2 
 PCOD9082732
Probable space group: P -1
;
_chemical_formula_sum "Si O2"
_cell_formula_units_Z 14
_cell_length_a 9.117103
_cell_length_b 14.951546
_cell_length_c 15.786241
_cell_angle_alpha 143.322710
_cell_angle_beta 47.303767
_cell_angle_gamma 147.708476
_cell_volume 686.666017
_symmetry_space_group_name_H-M "P -1"
_symmetry_group_IT_number 2
_symmetry_cell_setting 'triclinic'
loop_
_space_group_symop_operation_xyz
x,y,z
-x,-y,-z
loop_
_atom_site_type_symbol
_atom_site_label
_atom_site_fract_x
_atom_site_fract_y
_atom_site_fract_z
Si Si1 0.022992 0.942224 0.578121
Si Si2 0.458800 0.810584 0.700841
Si Si3 0.343403 0.068844 0.864884
Si Si4 0.299860 0.302956 0.181017
Si Si5 0.311421 0.948076 0.612909
Si Si6 0.614644 0.319921 0.555487
Si Si7 0.648357 0.483298 0.353597
O O1 0.094650 0.942033 0.647666
O O2 0.784953 0.943228 0.674343
O O3 0.907192 0.725965 0.420634
O O4 0.296767 0.131322 0.564847
O O5 0.398280 0.952941 0.814571
O O6 0.367442 0.677028 0.550099
O O7 0.320186 0.662380 0.724529
O O8 0.465138 0.101484 0.748699
O O9 0.018348 0.907639 0.847294
O O10 0.424387 0.259305 0.027376
O O11 0.297221 0.475875 0.288644
O O12 0.469950 0.378257 0.258692
O O13 0.215612 0.736821 0.522990
O O14 0.500000 0.000000 0.500000
O O15 0.500000 0.500000 0.500000
#
# Coordination Sequence:
#
# PCOD9082732 Si02
#       7
#     2   2   2   2   2   2   2
#     4  10  19  35  58  87 115 138 192 250 279 328
#     4  10  20  34  59  85 111 149 193 239 280 336
#     4  10  23  38  57  83 121 150 194 234 285 342
#     4  11  22  38  56  85 119 156 185 237 288 344
#     4   9  20  37  61  83 111 150 192 237 279 337
#     4  10  20  35  60  86 110 153 193 230 288 340
#     4  10  19  33  57  86 111 143 190 236 284 327
#
# _framework density 20.388366999999999
#
# number of rings (size 3 to 8) (size 9 to 14) (size 15 to 20)
#    0.000    2.000    2.857    2.143    2.000    1.714 
#    0.000    3.571    0.000    0.000    0.000    0.000 
#    0.000    0.000    0.000    0.000    0.000    0.000 
#
# Total GULP energy -78066.666011 kJ/mol
# GULP energy per Si atom -5576.190429 kJ/mol
# Density = 2.034196 g / cm^3
# Si number density = 20.388367 Si / 1000 Ang^3
#
#
#
# Elastic Constant Matrix: (Units=GPa)
#
#
# Indices 1 2 3 4 5 6 
#
# 1 93.9958 -7.4825 28.0077 -7.2969 12.2948 -18.9488
# 2 -7.4825 57.9478 9.8245 -1.3848 16.0137 6.0815
# 3 28.0077 9.8245 130.8395 -4.4755 2.1386 -13.7276
# 4 -7.2969 -1.3848 -4.4755 19.5527 1.0946 2.3029
# 5 12.2948 16.0137 2.1386 1.0946 26.8710 -2.0207
# 6 -18.9488 6.0815 -13.7276 2.3029 -2.0207 24.8115
#
#
#
# Elastic Compliance Matrix: (Units=1/GPa)
#
#
# Indices 1 2 3 4 5 6 
#
# 1 0.014707 0.003929 -0.002317 0.004787 -0.008490 0.007851
# 2 0.003929 0.023436 -0.002827 0.004091 -0.016157 -0.006004
# 3 -0.002317 -0.002827 0.008736 0.000343 0.002330 0.003914
# 4 0.004787 0.004091 0.000343 0.054017 -0.007062 -0.002746
# 5 -0.008490 -0.016157 0.002330 -0.007062 0.051100 0.003582
# 6 0.007851 -0.006004 0.003914 -0.002746 0.003582 0.050484
#
#
# Mechanical properties :
#
#
# Convention : Reuss Voigt Hill
#
# Bulk Modulus (GPa) = 22.49784 38.16472 30.33128
# Shear Modulus (GPa) = 22.75562 31.07594 26.91578
#
# Velocity S-wave (km/s) = 3.34444 3.90834 3.63733
# Velocity P-wave (km/s) = 5.09631 6.25510 5.70520
#
# Compressibility (1/GPa) = 0.04444871
#
# Stress axis : x y z
#
# Youngs Moduli (GPa) = 67.99599 42.66887 114.47535
#
# Poissons Ratio (x) = -0.16763 0.26523
# Poissons Ratio (y) = -0.26713 0.32358
# Poissons Ratio (z) = 0.15754 0.12061
#
# Static dielectric constant tensor:
#      x y z
#    x 1.838520 0.008060 -0.006650 
#    y 0.008060 1.814430 -0.017030 
#    z -0.006650 -0.017030 1.730950 
# 
# From -- ./inp_files/237917.got.cif
#   From: 2010.05.17/outbox.cif.g08.bks.cpg/sg2_119_cif.got.tgz:237917.got - 2010.06.03 11:33:40.
