data_PCOD9082689
_publ_section_title
;
Structure prediction by ZEFSAII (Michael W. Deem and Ramdas Pophale) SiO2 
 PCOD9082689
Probable space group: P -1
;
_chemical_formula_sum "Si O2"
_cell_formula_units_Z 16
_cell_length_a 11.605571
_cell_length_b 12.149276
_cell_length_c 15.062689
_cell_angle_alpha 32.010007
_cell_angle_beta 45.957928
_cell_angle_gamma 53.548119
_cell_volume 809.177711
_symmetry_space_group_name_H-M "P -1"
_symmetry_group_IT_number 2
_symmetry_cell_setting 'triclinic'
loop_
_space_group_symop_operation_xyz
x,y,z
-x,-y,-z
loop_
_atom_site_type_symbol
_atom_site_label
_atom_site_fract_x
_atom_site_fract_y
_atom_site_fract_z
Si Si1 0.500652 0.203134 0.661352
Si Si2 0.813108 0.821719 0.030927
Si Si3 0.617592 0.534914 0.231367
Si Si4 0.456860 0.805813 0.838430
Si Si5 0.109903 0.944960 0.895422
Si Si6 0.827594 0.584100 0.506398
Si Si7 0.678448 0.228185 0.729888
Si Si8 0.517970 0.585284 0.788268
O O1 0.324326 0.205526 0.800345
O O2 0.544662 0.400676 0.442796
O O3 0.628891 0.187373 0.683301
O O4 0.506492 0.011584 0.721919
O O5 0.781658 0.634191 0.107696
O O6 0.990310 0.836823 0.964691
O O7 0.770828 0.039323 0.856256
O O8 0.491744 0.729564 0.157752
O O9 0.603486 0.410078 0.233067
O O10 0.263490 0.809276 0.933148
O O11 0.514483 0.777920 0.725496
O O12 0.518634 0.613287 0.995545
O O13 0.170696 0.170246 0.677936
O O14 0.000000 0.000000 0.000000
O O15 0.775045 0.440275 0.550141
O O16 0.692345 0.550506 0.675896
O O17 0.000000 0.500000 0.500000
#
# Coordination Sequence:
#
# PCOD9082689 Si02
#       8
#     2   2   2   2   2   2   2   2
#     4  11  20  34  57  85 115 150 197 240 281 342
#     4  11  20  35  53  86 119 153 187 237 295 336
#     4  10  21  34  56  84 114 152 194 240 286 337
#     4  11  22  41  61  85 114 156 198 236 293 343
#     4  12  24  34  58  89 124 153 188 240 292 348
#     4  11  21  38  58  92 119 148 190 237 296 339
#     4  10  19  33  57  81 116 151 187 240 281 341
#     4  10  23  41  63  82 114 155 198 243 282 350
#
# _framework density 19.773160000000001
#
# number of rings (size 3 to 8) (size 9 to 14) (size 15 to 20)
#    0.000    1.250    2.500    7.500    1.750    2.000 
#    0.000    0.625    0.000    0.750    0.000    0.000 
#    0.000    0.000    0.000    0.000    0.000    0.000 
#
# Total GULP energy -89332.157760 kJ/mol
# GULP energy per Si atom -5583.259860 kJ/mol
# Density = 1.972816 g / cm^3
# Si number density = 19.773160 Si / 1000 Ang^3
#
#
#
# Elastic Constant Matrix: (Units=GPa)
#
#
# Indices 1 2 3 4 5 6 
#
# 1 136.4085 34.5347 26.0100 -4.0875 -21.6200 33.9597
# 2 34.5347 78.6353 5.0416 0.5004 -7.6542 35.0938
# 3 26.0100 5.0416 65.4651 -6.9160 -4.4511 18.5718
# 4 -4.0875 0.5004 -6.9160 18.0583 9.8284 -1.8782
# 5 -21.6200 -7.6542 -4.4511 9.8284 34.9242 -7.3663
# 6 33.9597 35.0938 18.5718 -1.8782 -7.3663 36.8100
#
#
#
# Elastic Compliance Matrix: (Units=1/GPa)
#
#
# Indices 1 2 3 4 5 6 
#
# 1 0.010374 -0.000884 -0.001971 -0.001844 0.005058 -0.006815
# 2 -0.000884 0.023768 0.005331 -0.001724 0.000661 -0.024490
# 3 -0.001971 0.005331 0.020050 0.006929 -0.002291 -0.013485
# 4 -0.001844 -0.001724 0.006929 0.068506 -0.020057 -0.000669
# 5 0.005058 0.000661 -0.002291 -0.020057 0.037767 0.002393
# 6 -0.006815 -0.024490 -0.013485 -0.000669 0.002393 0.064050
#
#
# Mechanical properties :
#
#
# Convention : Reuss Voigt Hill
#
# Bulk Modulus (GPa) = 16.90804 45.74242 31.32523
# Shear Modulus (GPa) = 20.89631 32.28669 26.59150
#
# Velocity S-wave (km/s) = 3.25438 4.04524 3.67117
# Velocity P-wave (km/s) = 4.76349 6.70839 5.81779
#
# Compressibility (1/GPa) = 0.05914346
#
# Stress axis : x y z
#
# Youngs Moduli (GPa) = 96.39792 42.07328 49.87651
#
# Poissons Ratio (x) = 0.03719 0.09831
# Poissons Ratio (y) = 0.08521 -0.26589
# Poissons Ratio (z) = 0.19000 -0.22429
#
# Static dielectric constant tensor:
#      x y z
#    x 1.731440 0.037830 -0.002780 
#    y 0.037830 1.708750 -0.033880 
#    z -0.002780 -0.033880 1.795230 
# 
# From -- ./inp_files/424007.got.cif
#   From: 2010.05.17/outbox.cif.g08.bks.cpg/sg2_213_cif.got.tgz:424007.got - 2010.06.03 11:33:40.
