data_PCOD9082517
_publ_section_title
;
Structure prediction by ZEFSAII (Michael W. Deem and Ramdas Pophale) SiO2 
 PCOD9082517
Probable space group: P -1
;
_chemical_formula_sum "Si O2"
_cell_formula_units_Z 16
_cell_length_a 9.857356
_cell_length_b 10.015564
_cell_length_c 12.125698
_cell_angle_alpha 48.352806
_cell_angle_beta 57.770067
_cell_angle_gamma 76.340697
_cell_volume 743.358514
_symmetry_space_group_name_H-M "P -1"
_symmetry_group_IT_number 2
_symmetry_cell_setting 'triclinic'
loop_
_space_group_symop_operation_xyz
x,y,z
-x,-y,-z
loop_
_atom_site_type_symbol
_atom_site_label
_atom_site_fract_x
_atom_site_fract_y
_atom_site_fract_z
Si Si1 0.673998 0.231695 0.707275
Si Si2 0.770491 0.582440 0.046370
Si Si3 0.378127 0.798395 0.788918
Si Si4 0.038603 0.203719 0.516468
Si Si5 0.341552 0.174875 0.521067
Si Si6 0.953065 0.214835 0.310114
Si Si7 0.643654 0.373865 0.414307
Si Si8 0.509058 0.814113 0.965088
O O1 0.641550 0.369522 0.549464
O O2 0.606264 0.258942 0.841993
O O3 0.866088 0.228704 0.626255
O O4 0.577458 0.030398 0.824942
O O5 0.717269 0.387187 0.119400
O O6 0.721649 0.552835 0.212718
O O7 0.662420 0.714815 0.964908
O O8 0.955516 0.668673 0.892266
O O9 0.552239 0.837896 0.628316
O O10 0.296242 0.972382 0.702576
O O11 0.414030 0.777335 0.912572
O O12 0.188043 0.260246 0.503703
O O13 0.048345 0.284273 0.344283
O O14 0.038208 0.991523 0.607650
O O15 0.467935 0.292147 0.485471
O O16 0.769022 0.238634 0.401320
#
# Coordination Sequence:
#
# PCOD9082517 Si02
#       8
#     2   2   2   2   2   2   2   2
#     4  10  22  39  59  78 113 159 191 228 269 339
#     4  11  21  33  58  91 115 142 184 244 285 326
#     4  10  20  34  58  87 116 146 178 242 286 332
#     4  10  19  33  58  83 113 150 188 234 271 338
#     4  10  19  34  59  88 114 145 187 229 295 335
#     4  10  19  33  55  88 117 142 186 231 288 333
#     4  10  21  37  59  85 118 149 181 237 285 335
#     4  11  21  38  58  81 115 151 198 225 274 342
#
# _framework density 21.523933
#
# number of rings (size 3 to 8) (size 9 to 14) (size 15 to 20)
#    0.000    1.750    2.500    3.750    1.750    1.500 
#    0.000    0.625    0.000   12.000    0.000    0.000 
#    0.000    0.000    0.000    0.000    0.000    0.000 
#
# Total GULP energy -89435.031954 kJ/mol
# GULP energy per Si atom -5589.689497 kJ/mol
# Density = 2.147494 g / cm^3
# Si number density = 21.523933 Si / 1000 Ang^3
#
#
#
# Elastic Constant Matrix: (Units=GPa)
#
#
# Indices 1 2 3 4 5 6 
#
# 1 143.5218 18.0541 35.7011 23.3749 16.3815 3.2161
# 2 18.0541 43.0459 20.0934 9.7472 5.8726 0.9014
# 3 35.7011 20.0934 108.1723 15.0474 18.3524 15.2105
# 4 23.3749 9.7472 15.0474 31.8975 0.8824 2.1085
# 5 16.3815 5.8726 18.3524 0.8824 35.1357 5.8248
# 6 3.2161 0.9014 15.2105 2.1085 5.8248 12.2520
#
#
#
# Elastic Compliance Matrix: (Units=1/GPa)
#
#
# Indices 1 2 3 4 5 6 
#
# 1 0.008723 -0.001286 -0.001689 -0.005268 -0.003226 0.002342
# 2 -0.001286 0.027263 -0.004223 -0.005707 -0.002566 0.005776
# 3 -0.001689 -0.004223 0.013483 -0.002819 -0.003158 -0.013998
# 4 -0.005268 -0.005707 -0.002819 0.038388 0.004488 -0.003437
# 5 -0.003226 -0.002566 -0.003158 0.004488 0.033909 -0.011938
# 6 0.002342 0.005776 -0.013998 -0.003437 -0.011938 0.104225
#
#
# Mechanical properties :
#
#
# Convention : Reuss Voigt Hill
#
# Bulk Modulus (GPa) = 28.51244 49.15968 38.83606
# Shear Modulus (GPa) = 19.83509 30.58314 25.20912
#
# Velocity S-wave (km/s) = 3.03898 3.77356 3.42601
# Velocity P-wave (km/s) = 5.05860 6.47112 5.80796
#
# Compressibility (1/GPa) = 0.03507241
#
# Stress axis : x y z
#
# Youngs Moduli (GPa) = 114.63538 36.67981 74.16941
#
# Poissons Ratio (x) = 0.04718 0.12530
# Poissons Ratio (y) = 0.14744 0.31320
# Poissons Ratio (z) = 0.19366 0.15489
#
# Static dielectric constant tensor:
#      x y z
#    x 1.807880 -0.020530 0.027320 
#    y -0.020530 1.785020 -0.006480 
#    z 0.027320 -0.006480 1.792850 
# 
# From -- ./inp_files/328732.got.cif
#   From: 2010.05.17/outbox.cif.g08.bks.cpg/sg2_165_cif.got.tgz:328732.got - 2010.06.03 11:33:40.
