data_PCOD9082805
_publ_section_title
;
Structure prediction by ZEFSAII (Michael W. Deem and Ramdas Pophale) SiO2 
 PCOD9082805
Probable space group: P -1
;
_chemical_formula_sum "Si O2"
_cell_formula_units_Z 16
_cell_length_a 17.238125
_cell_length_b 14.419337
_cell_length_c 18.752231
_cell_angle_alpha 145.453965
_cell_angle_beta 164.402580
_cell_angle_gamma 29.463542
_cell_volume 612.496868
_symmetry_space_group_name_H-M "P -1"
_symmetry_group_IT_number 2
_symmetry_cell_setting 'triclinic'
loop_
_space_group_symop_operation_xyz
x,y,z
-x,-y,-z
loop_
_atom_site_type_symbol
_atom_site_label
_atom_site_fract_x
_atom_site_fract_y
_atom_site_fract_z
Si Si1 0.883202 0.904192 0.551579
Si Si2 0.290015 0.530979 0.747006
Si Si3 0.765563 0.549845 0.735539
Si Si4 0.406380 0.877630 0.712733
Si Si5 0.779305 0.603637 0.626372
Si Si6 0.253178 0.775444 0.144255
Si Si7 0.878729 0.771764 0.241708
Si Si8 0.222544 0.889961 0.981668
O O1 0.539109 0.918053 0.282335
O O2 0.811023 0.003672 0.474177
O O3 0.153010 0.677393 0.650426
O O4 0.024864 0.978030 0.787286
O O5 0.467226 0.314397 0.604598
O O6 0.343545 0.668520 0.935621
O O7 0.000000 0.500000 0.500000
O O8 0.500000 0.500000 0.500000
O O9 0.618390 0.642668 0.587134
O O10 0.744528 0.706108 0.869737
O O11 0.428405 0.030536 0.879320
O O12 0.178507 0.809289 0.508989
O O13 0.004212 0.697785 0.885757
O O14 0.009062 0.375204 0.686412
O O15 0.112721 0.363893 0.900877
O O16 0.436563 0.674433 0.169812
O O17 0.040916 0.997817 0.117155
#
# Coordination Sequence:
#
# PCOD9082805 Si02
#       8
#     2   2   2   2   2   2   2   2
#     4  10  23  43  67  93 132 167 215 263 319 388
#     4  10  27  46  70 101 129 165 213 269 332 395
#     4   8  16  31  54  84 121 162 209 258 300 358
#     4  10  15  33  57  81 124 163 208 259 309 359
#     4  10  23  41  62  96 130 174 222 257 319 377
#     4  12  23  43  69  93 134 173 212 270 318 389
#     4   8  19  29  53  87 118 165 213 256 303 365
#     4  10  24  42  66 100 122 171 209 258 322 388
#
# _framework density 26.122582000000001
#
# number of rings (size 3 to 8) (size 9 to 14) (size 15 to 20)
#    1.500    0.750    0.000    3.000    3.500    1.000 
#    0.000    2.500    0.000    3.750    0.000    0.000 
#    0.000    0.000    0.000    0.000    0.000    0.000 
#
# Total GULP energy -89362.090974 kJ/mol
# GULP energy per Si atom -5585.130686 kJ/mol
# Density = 2.606313 g / cm^3
# Si number density = 26.122582 Si / 1000 Ang^3
#
#
#
# Elastic Constant Matrix: (Units=GPa)
#
#
# Indices 1 2 3 4 5 6 
#
# 1 137.7583 58.9936 37.3823 -0.4768 -28.9189 -43.1281
# 2 58.9936 168.8356 29.2783 11.5487 -15.2440 -47.6595
# 3 37.3823 29.2783 95.5760 -8.2042 -7.9561 -2.6282
# 4 -0.4768 11.5487 -8.2042 22.1077 5.3949 -3.5024
# 5 -28.9189 -15.2440 -7.9561 5.3949 42.6864 6.6148
# 6 -43.1281 -47.6595 -2.6282 -3.5024 6.6148 64.1718
#
#
#
# Elastic Compliance Matrix: (Units=1/GPa)
#
#
# Indices 1 2 3 4 5 6 
#
# 1 0.012078 -0.001114 -0.003779 -0.001057 0.006217 0.006436
# 2 -0.001114 0.008678 -0.002369 -0.005047 0.001743 0.005144
# 3 -0.003779 -0.002369 0.012967 0.005733 -0.001197 -0.003332
# 4 -0.001057 -0.005047 0.005733 0.051812 -0.007908 -0.000581
# 5 0.006217 0.001743 -0.001197 -0.007908 0.028722 0.002031
# 6 0.006436 0.005144 -0.003332 -0.000581 0.002031 0.023352
#
#
# Mechanical properties :
#
#
# Convention : Reuss Voigt Hill
#
# Bulk Modulus (GPa) = 52.08770 72.60872 62.34821
# Shear Modulus (GPa) = 31.53907 44.22756 37.88331
#
# Velocity S-wave (km/s) = 3.47846 4.11917 3.81230
# Velocity P-wave (km/s) = 6.00965 7.10486 6.58009
#
# Compressibility (1/GPa) = 0.01919839
#
# Stress axis : x y z
#
# Youngs Moduli (GPa) = 82.79340 115.23743 77.11622
#
# Poissons Ratio (x) = 0.12843 0.29142
# Poissons Ratio (y) = 0.09227 0.18269
# Poissons Ratio (z) = 0.31287 0.27300
#
# Static dielectric constant tensor:
#      x y z
#    x 2.069310 -0.007670 -0.089120 
#    y -0.007670 2.149250 0.015870 
#    z -0.089120 0.015870 1.901100 
# 
# From -- ./inp_files/573272.got.cif
#   From: 2010.05.17/outbox.cif.g08.bks.cpg/sg2_287_cif.got.tgz:573272.got - 2010.06.03 11:33:40.
