data_PCOD9082639
_publ_section_title
;
Structure prediction by ZEFSAII (Michael W. Deem and Ramdas Pophale) SiO2 
 PCOD9082639
Probable space group: P -1
;
_chemical_formula_sum "Si O2"
_cell_formula_units_Z 16
_cell_length_a 8.712573
_cell_length_b 11.335578
_cell_length_c 12.398812
_cell_angle_alpha 116.068943
_cell_angle_beta 38.529881
_cell_angle_gamma 109.322916
_cell_volume 685.005542
_symmetry_space_group_name_H-M "P -1"
_symmetry_group_IT_number 2
_symmetry_cell_setting 'triclinic'
loop_
_space_group_symop_operation_xyz
x,y,z
-x,-y,-z
loop_
_atom_site_type_symbol
_atom_site_label
_atom_site_fract_x
_atom_site_fract_y
_atom_site_fract_z
Si Si1 0.622016 0.141182 0.006984
Si Si2 0.975558 0.775455 0.827926
Si Si3 0.704502 0.611754 0.457491
Si Si4 0.815109 0.642924 0.658737
Si Si5 0.408237 0.878682 0.736336
Si Si6 0.064484 0.452401 0.064900
Si Si7 0.402536 0.584559 0.191352
Si Si8 0.604936 0.145685 0.790040
O O1 0.435818 0.265975 0.153452
O O2 0.700040 0.137540 0.087668
O O3 0.756663 0.147856 0.819962
O O4 0.500000 0.000000 0.000000
O O5 0.997601 0.718285 0.671133
O O6 0.018142 0.665406 0.855001
O O7 0.175192 0.884679 0.787084
O O8 0.690501 0.822543 0.015760
O O9 0.500000 0.500000 0.500000
O O10 0.793950 0.620082 0.534464
O O11 0.568998 0.750276 0.564773
O O12 0.951755 0.575459 0.242170
O O13 0.780863 0.504296 0.680003
O O14 0.588084 0.002356 0.690378
O O15 0.348504 0.413171 0.877677
O O16 0.000000 0.500000 0.000000
O O17 0.312123 0.730837 0.274678
O O18 0.500000 0.500000 0.000000
#
# Coordination Sequence:
#
# PCOD9082639 Si02
#       8
#     2   2   2   2   2   2   2   2
#     4   8  15  28  50  82 113 151 189 239 283 339
#     4  10  19  34  56  92 117 154 193 245 295 340
#     4  11  22  39  59  88 118 160 193 248 297 350
#     4  10  20  36  59  87 120 149 202 238 296 351
#     4  10  19  33  56  87 119 155 197 244 295 350
#     4  11  23  37  57  87 118 149 199 242 298 353
#     4  11  19  36  59  86 116 156 195 245 290 343
#     4   9  18  32  55  86 122 153 199 243 293 346
#
# _framework density 23.357475000000001
#
# number of rings (size 3 to 8) (size 9 to 14) (size 15 to 20)
#    0.000    2.000    5.000    1.125    1.750    0.500 
#    0.000    0.000    0.000    7.500    0.000    0.000 
#    0.000    0.000    0.000    0.000    0.000    0.000 
#
# Total GULP energy -89095.152445 kJ/mol
# GULP energy per Si atom -5568.447028 kJ/mol
# Density = 2.330431 g / cm^3
# Si number density = 23.357475 Si / 1000 Ang^3
#
#
#
# Elastic Constant Matrix: (Units=GPa)
#
#
# Indices 1 2 3 4 5 6 
#
# 1 62.7221 19.9912 -0.1509 -1.7272 23.3834 11.1190
# 2 19.9912 115.7739 25.7982 22.4624 6.4767 1.2971
# 3 -0.1509 25.7982 71.7900 13.1555 16.0822 11.5426
# 4 -1.7272 22.4624 13.1555 32.9343 1.1421 3.7113
# 5 23.3834 6.4767 16.0822 1.1421 41.2265 6.8244
# 6 11.1190 1.2971 11.5426 3.7113 6.8244 35.0782
#
#
#
# Elastic Compliance Matrix: (Units=1/GPa)
#
#
# Indices 1 2 3 4 5 6 
#
# 1 0.024216 -0.005315 0.005491 0.003974 -0.013996 -0.006984
# 2 -0.005315 0.011623 -0.003893 -0.007052 0.002438 0.002808
# 3 0.005491 -0.003893 0.018908 -0.003659 -0.008831 -0.005713
# 4 0.003974 -0.007052 -0.003659 0.037266 -0.000137 -0.003711
# 5 -0.013996 0.002438 -0.008831 -0.000137 0.035191 0.000420
# 6 -0.006984 0.002808 -0.005713 -0.003711 0.000420 0.032808
#
#
# Mechanical properties :
#
#
# Convention : Reuss Voigt Hill
#
# Bulk Modulus (GPa) = 21.13626 37.95144 29.54385
# Shear Modulus (GPa) = 27.29000 35.49098 31.39049
#
# Velocity S-wave (km/s) = 3.42184 3.90227 3.66992
# Velocity P-wave (km/s) = 4.96796 6.04871 5.53478
#
# Compressibility (1/GPa) = 0.04731205
#
# Stress axis : x y z
#
# Youngs Moduli (GPa) = 41.29525 86.03494 52.88871
#
# Poissons Ratio (x) = 0.45726 -0.29040
# Poissons Ratio (y) = 0.21948 0.20591
# Poissons Ratio (z) = -0.22674 0.33496
#
# Static dielectric constant tensor:
#      x y z
#    x 1.885130 0.072610 0.173760 
#    y 0.072610 1.921790 -0.084180 
#    z 0.173760 -0.084180 1.740270 
# 
# From -- ./inp_files/390983.got.cif
#   From: 2010.05.17/outbox.cif.g08.bks.cpg/sg2_196_cif.got.tgz:390983.got - 2010.06.03 11:33:40.
