data_PCOD9082241
_publ_section_title
;
Structure prediction by ZEFSAII (Michael W. Deem and Ramdas Pophale) SiO2 
 PCOD9082241
Probable space group: P -1
;
_chemical_formula_sum "Si O2"
_cell_formula_units_Z 14
_cell_length_a 11.427056
_cell_length_b 4.984018
_cell_length_c 13.848835
_cell_angle_alpha 73.063415
_cell_angle_beta 94.997394
_cell_angle_gamma 94.719318
_cell_volume 750.309934
_symmetry_space_group_name_H-M "P -1"
_symmetry_group_IT_number 2
_symmetry_cell_setting 'triclinic'
loop_
_space_group_symop_operation_xyz
x,y,z
-x,-y,-z
loop_
_atom_site_type_symbol
_atom_site_label
_atom_site_fract_x
_atom_site_fract_y
_atom_site_fract_z
Si Si1 0.623694 0.149446 0.368448
Si Si2 0.406031 0.314454 0.445232
Si Si3 0.379358 0.253904 0.761058
Si Si4 0.342353 0.706943 0.240236
Si Si5 0.198769 0.263663 0.915607
Si Si6 0.219749 0.259770 0.146402
Si Si7 0.958606 0.277562 0.103707
O O1 0.486556 0.158655 0.389776
O O2 0.662961 0.476206 0.329952
O O3 0.664971 0.924541 0.472817
O O4 0.640263 0.017162 0.279090
O O5 0.500000 0.500000 0.500000
O O6 0.332779 0.528278 0.357054
O O7 0.520195 0.290313 0.779381
O O8 0.309867 0.239079 0.857058
O O9 0.265022 0.548481 0.168883
O O10 0.297626 0.015014 0.215539
O O11 0.110287 0.993797 0.917327
O O12 0.232500 0.272843 0.029852
O O13 0.129922 0.544258 0.859276
O O14 0.081648 0.199456 0.166393
O O15 0.000000 0.500000 0.000000
#
# Coordination Sequence:
#
# PCOD9082241 Si02
#       7
#     2   2   2   2   2   2   2
#     4  10  19  33  53  79 112 140 192 230 253 328
#     4  10  19  34  57  78 110 153 187 225 273 320
#     4  11  22  35  53  86 118 150 183 215 281 340
#     4  11  22  33  54  86 122 139 177 229 284 350
#     4  11  22  38  60  80 112 154 192 224 266 330
#     4  11  22  36  55  84 114 148 181 236 279 312
#     4  10  20  39  61  78 102 147 206 241 256 305
#
# _framework density 18.658954999999999
#
# number of rings (size 3 to 8) (size 9 to 14) (size 15 to 20)
#    0.000    1.429    2.857    6.857    2.000    1.143 
#    0.000    0.000    0.000    0.000    0.000   20.000 
#    0.000    0.000    0.000    0.000    0.000    0.000 
#
# Total GULP energy -78086.094867 kJ/mol
# GULP energy per Si atom -5577.578205 kJ/mol
# Density = 1.861649 g / cm^3
# Si number density = 18.658955 Si / 1000 Ang^3
#
#
#
# Elastic Constant Matrix: (Units=GPa)
#
#
# Indices 1 2 3 4 5 6 
#
# 1 48.5555 4.1538 14.9466 -4.9423 13.5400 -4.3667
# 2 4.1538 72.0240 9.7060 9.5843 3.1650 -2.7891
# 3 14.9466 9.7060 48.4994 -0.4689 7.1075 -11.3007
# 4 -4.9423 9.5843 -0.4689 31.8772 2.1566 2.8225
# 5 13.5400 3.1650 7.1075 2.1566 -2.2377 -0.4531
# 6 -4.3667 -2.7891 -11.3007 2.8225 -0.4531 29.2159
#
#
#
# Elastic Compliance Matrix: (Units=1/GPa)
#
#
# Indices 1 2 3 4 5 6 
#
# 1 0.012188 -0.001150 -0.009822 -0.000538 0.040692 -0.001404
# 2 -0.001150 0.014938 -0.002654 -0.004835 0.000936 0.000709
# 3 -0.009822 -0.002654 0.024427 -0.001825 0.011009 0.008074
# 4 -0.000538 -0.004835 -0.001825 0.032008 0.015789 -0.004095
# 5 0.040692 0.000936 0.011009 0.015789 -0.150484 0.006570
# 6 -0.001404 0.000709 0.008074 -0.004095 0.006570 0.037706
#
#
# Mechanical properties :
#
#
# Convention : Reuss Voigt Hill
#
# Bulk Modulus (GPa) = 41.14865 25.18796 33.16831
# Shear Modulus (GPa) = 814.76687 21.12257 417.94472
#
# Velocity S-wave (km/s) = 20.91914 3.36822 14.98258
# Velocity P-wave (km/s) = 24.60857 5.35304 17.80782
#
# Compressibility (1/GPa) = 0.02430213
#
# Stress axis : x y z
#
# Youngs Moduli (GPa) = 82.04486 66.94375 40.93809
#
# Poissons Ratio (x) = 0.07701 0.40209
# Poissons Ratio (y) = 0.09438 0.10863
# Poissons Ratio (z) = 0.80583 0.17764
#
# Static dielectric constant tensor:
#      x y z
#    x 1.646760 -0.016860 0.002170 
#    y -0.016860 1.686100 -0.017560 
#    z 0.002170 -0.017560 1.673580 
# 
# From -- ./inp_files/409324.got.cif
#   From: 2010.05.17/outbox.cif.g08.bks.cpg/sg2_205_cif.got.tgz:409324.got - 2010.06.03 11:33:40.
