data_PCOD9082143
_publ_section_title
;
Structure prediction by ZEFSAII (Michael W. Deem and Ramdas Pophale) SiO2 
 PCOD9082143
Probable space group: P -1
;
_chemical_formula_sum "Si O2"
_cell_formula_units_Z 16
_cell_length_a 7.041198
_cell_length_b 5.775483
_cell_length_c 18.267339
_cell_angle_alpha 74.804772
_cell_angle_beta 115.972988
_cell_angle_gamma 73.567735
_cell_volume 572.794625
_symmetry_space_group_name_H-M "P -1"
_symmetry_group_IT_number 2
_symmetry_cell_setting 'triclinic'
loop_
_space_group_symop_operation_xyz
x,y,z
-x,-y,-z
loop_
_atom_site_type_symbol
_atom_site_label
_atom_site_fract_x
_atom_site_fract_y
_atom_site_fract_z
Si Si1 0.788445 0.830955 0.992032
Si Si2 0.912067 0.174901 0.235084
Si Si3 0.678658 0.074955 0.477478
Si Si4 0.204825 0.721536 0.963882
Si Si5 0.413809 0.976469 0.705064
Si Si6 0.308440 0.624354 0.365062
Si Si7 0.954848 0.470210 0.409502
Si Si8 0.878182 0.497208 0.797104
O O1 0.981347 0.701409 0.099677
O O2 0.687232 0.609579 0.986068
O O3 0.946385 0.815095 0.950043
O O4 0.663555 0.140518 0.975901
O O5 0.841394 0.180770 0.136790
O O6 0.932819 0.448928 0.222845
O O7 0.728100 0.130917 0.257748
O O8 0.177049 0.945513 0.323735
O O9 0.575705 0.396417 0.446509
O O10 0.500000 0.000000 0.500000
O O11 0.635438 0.043905 0.387470
O O12 0.945333 0.850101 0.559410
O O13 0.305839 0.297416 0.673915
O O14 0.688229 0.775659 0.777927
O O15 0.134759 0.543023 0.388531
O O16 0.261967 0.592858 0.274878
O O17 0.000000 0.500000 0.500000
#
# Coordination Sequence:
#
# PCOD9082143 Si02
#       8
#     2   2   2   2   2   2   2   2
#     4   9  17  31  55  83 114 154 196 231 286 345
#     4  10  19  33  52  76 107 140 180 232 281 333
#     4   8  14  27  51  73  97 140 176 219 284 343
#     4   9  17  31  55  83 114 155 193 234 285 346
#     4   9  18  31  51  76 104 137 184 225 285 339
#     4   9  16  29  51  72  98 135 178 215 280 332
#     4   8  14  27  49  71  97 136 170 217 278 335
#     4  10  19  33  52  76 105 140 181 230 276 338
#
# _framework density 27.933222000000001
#
# number of rings (size 3 to 8) (size 9 to 14) (size 15 to 20)
#    0.000    3.000    1.250    0.000    0.000    0.000 
#    0.000    5.625    0.000   94.500    0.000    8.750 
#    0.000    0.000    0.000    0.000    0.000    0.000 
#
# Total GULP energy -89443.206194 kJ/mol
# GULP energy per Si atom -5590.200387 kJ/mol
# Density = 2.786964 g / cm^3
# Si number density = 27.933222 Si / 1000 Ang^3
#
#
#
# Elastic Constant Matrix: (Units=GPa)
#
#
# Indices 1 2 3 4 5 6 
#
# 1 105.2016 52.2295 61.2123 -10.1914 -26.6872 2.7562
# 2 52.2295 123.6474 42.0470 12.9228 -6.5961 -2.0175
# 3 61.2123 42.0470 118.8242 7.7849 -34.5900 6.3639
# 4 -10.1914 12.9228 7.7849 48.0168 1.9740 -6.5423
# 5 -26.6872 -6.5961 -34.5900 1.9740 53.8525 -3.6257
# 6 2.7562 -2.0175 6.3639 -6.5423 -3.6257 42.9387
#
#
#
# Elastic Compliance Matrix: (Units=1/GPa)
#
#
# Indices 1 2 3 4 5 6 
#
# 1 0.017599 -0.005693 -0.006422 0.006268 0.003725 0.000824
# 2 -0.005693 0.011284 -0.001471 -0.003870 -0.002219 0.000337
# 3 -0.006422 -0.001471 0.014288 -0.003777 0.005828 -0.001858
# 4 0.006268 -0.003870 -0.003777 0.024325 -0.000440 0.003645
# 5 0.003725 -0.002219 0.005828 -0.000440 0.023953 0.000748
# 6 0.000824 0.000337 -0.001858 0.003645 0.000748 0.024146
#
#
# Mechanical properties :
#
#
# Convention : Reuss Voigt Hill
#
# Bulk Modulus (GPa) = 62.50230 73.18342 67.84286
# Shear Modulus (GPa) = 33.76089 41.77389 37.76739
#
# Velocity S-wave (km/s) = 3.48031 3.87135 3.68103
# Velocity P-wave (km/s) = 6.21082 6.79996 6.51205
#
# Compressibility (1/GPa) = 0.01599941
#
# Stress axis : x y z
#
# Youngs Moduli (GPa) = 56.82019 88.62127 69.98845
#
# Poissons Ratio (x) = 0.50453 0.44948
# Poissons Ratio (y) = 0.32348 0.10293
# Poissons Ratio (z) = 0.36491 0.13033
#
# Static dielectric constant tensor:
#      x y z
#    x 2.157970 -0.016880 -0.037310 
#    y -0.016880 2.366500 -0.023060 
#    z -0.037310 -0.023060 2.105050 
# 
# From -- ./inp_files/575554.got.cif
#   From: 2010.05.17/outbox.cif.g08.bks.cpg/sg2_288_cif.got.tgz:575554.got - 2010.06.03 11:33:40.
