data_PCOD9082544
_publ_section_title
;
Structure prediction by ZEFSAII (Michael W. Deem and Ramdas Pophale) SiO2 
 PCOD9082544
Probable space group: P -1
;
_chemical_formula_sum "Si O2"
_cell_formula_units_Z 14
_cell_length_a 11.532040
_cell_length_b 15.297585
_cell_length_c 10.444665
_cell_angle_alpha 49.929123
_cell_angle_beta 111.529045
_cell_angle_gamma 150.521188
_cell_volume 595.352914
_symmetry_space_group_name_H-M "P -1"
_symmetry_group_IT_number 2
_symmetry_cell_setting 'triclinic'
loop_
_space_group_symop_operation_xyz
x,y,z
-x,-y,-z
loop_
_atom_site_type_symbol
_atom_site_label
_atom_site_fract_x
_atom_site_fract_y
_atom_site_fract_z
Si Si1 0.571175 0.475113 0.670683
Si Si2 0.658209 0.893643 0.227570
Si Si3 0.250125 0.801336 0.914594
Si Si4 0.266580 0.402156 0.016231
Si Si5 0.191578 0.918280 0.532490
Si Si6 0.469846 0.613951 0.648935
Si Si7 0.376027 0.730658 0.841964
O O1 0.500000 0.500000 0.500000
O O2 0.379728 0.208927 0.820363
O O3 0.533412 0.535262 0.712644
O O4 0.877534 0.677290 0.596570
O O5 0.445157 0.667332 0.458975
O O6 0.638945 0.015085 0.112556
O O7 0.963288 0.113089 0.198331
O O8 0.222451 0.856941 0.721418
O O9 0.410507 0.824037 0.901864
O O10 0.943485 0.508953 0.103610
O O11 0.500000 0.500000 0.000000
O O12 0.228959 0.421917 0.837072
O O13 0.369257 0.587277 0.975158
O O14 0.293284 0.126381 0.422393
O O15 0.393656 0.048020 0.376371
#
# Coordination Sequence:
#
# PCOD9082544 Si02
#       7
#     2   2   2   2   2   2   2
#     4  10  21  33  51  78 116 146 170 216 271 316
#     4   9  20  36  51  77 111 138 172 221 266 312
#     4   9  18  36  58  77 101 140 180 223 266 303
#     4  10  21  31  55  84 102 133 181 220 262 318
#     4  10  19  33  56  79 102 142 184 215 262 316
#     4   9  20  33  53  75 105 141 174 218 259 314
#     4   9  19  33  55  83 104 129 182 231 256 306
#
# _framework density 23.515463
#
# number of rings (size 3 to 8) (size 9 to 14) (size 15 to 20)
#    0.000    2.571    0.000    0.857   14.000    0.571 
#    0.000    3.571    0.000    7.714    0.000    0.000 
#    0.000    0.000    0.000    0.000    0.000    0.000 
#
# Total GULP energy -78058.661204 kJ/mol
# GULP energy per Si atom -5575.618657 kJ/mol
# Density = 2.346194 g / cm^3
# Si number density = 23.515463 Si / 1000 Ang^3
#
#
#
# Elastic Constant Matrix: (Units=GPa)
#
#
# Indices 1 2 3 4 5 6 
#
# 1 183.4838 53.4619 27.1517 -8.2047 3.5876 -46.1985
# 2 53.4619 59.4364 9.6375 -12.7240 9.9479 -28.3496
# 3 27.1517 9.6375 74.1471 0.5132 -14.6410 -3.7536
# 4 -8.2047 -12.7240 0.5132 22.3868 -7.9406 17.0810
# 5 3.5876 9.9479 -14.6410 -7.9406 42.8405 0.3626
# 6 -46.1985 -28.3496 -3.7536 17.0810 0.3626 46.7162
#
#
#
# Elastic Compliance Matrix: (Units=1/GPa)
#
#
# Indices 1 2 3 4 5 6 
#
# 1 0.009036 -0.004931 -0.002554 -0.006130 -0.001688 0.007993
# 2 -0.004931 0.028931 -0.002725 0.003894 -0.006608 0.011089
# 3 -0.002554 -0.002725 0.015901 0.002509 0.006779 -0.003872
# 4 -0.006130 0.003894 0.002509 0.072620 0.014182 -0.030159
# 5 -0.001688 -0.006608 0.006779 0.014182 0.030053 -0.010554
# 6 0.007993 0.011089 -0.003872 -0.030159 -0.010554 0.046837
#
#
# Mechanical properties :
#
#
# Convention : Reuss Voigt Hill
#
# Bulk Modulus (GPa) = 29.89785 55.28550 42.59168
# Shear Modulus (GPa) = 21.28123 37.50979 29.39551
#
# Velocity S-wave (km/s) = 3.01157 3.99822 3.53944
# Velocity P-wave (km/s) = 4.98342 6.69893 5.90382
#
# Compressibility (1/GPa) = 0.03344722
#
# Stress axis : x y z
#
# Youngs Moduli (GPa) = 110.66618 34.56544 62.88725
#
# Poissons Ratio (x) = 0.17044 0.16064
# Poissons Ratio (y) = 0.54569 0.17138
# Poissons Ratio (z) = 0.28268 0.09420
#
# Static dielectric constant tensor:
#      x y z
#    x 1.933340 -0.037850 0.043400 
#    y -0.037850 1.937990 0.058390 
#    z 0.043400 0.058390 1.933510 
# 
# From -- ./inp_files/199632.got.cif
#   From: 2010.05.17/outbox.cif.g08.bks.cpg/sg2_100_cif.got.tgz:199632.got - 2010.06.03 11:33:40.
