data_PCOD9082554
_publ_section_title
;
Structure prediction by ZEFSAII (Michael W. Deem and Ramdas Pophale) SiO2 
 PCOD9082554
Probable space group: P -1
;
_chemical_formula_sum "Si O2"
_cell_formula_units_Z 16
_cell_length_a 13.502222
_cell_length_b 15.844373
_cell_length_c 7.652352
_cell_angle_alpha 67.027298
_cell_angle_beta 89.416167
_cell_angle_gamma 34.582334
_cell_volume 687.337913
_symmetry_space_group_name_H-M "P -1"
_symmetry_group_IT_number 2
_symmetry_cell_setting 'triclinic'
loop_
_space_group_symop_operation_xyz
x,y,z
-x,-y,-z
loop_
_atom_site_type_symbol
_atom_site_label
_atom_site_fract_x
_atom_site_fract_y
_atom_site_fract_z
Si Si1 0.915296 0.725865 0.548154
Si Si2 0.300052 0.863920 0.398020
Si Si3 0.564087 0.496129 0.822894
Si Si4 0.935699 0.183865 0.852263
Si Si5 0.224065 0.475716 0.447620
Si Si6 0.305101 0.443060 0.002632
Si Si7 0.244475 0.947747 0.745643
Si Si8 0.814080 0.627101 0.765121
O O1 0.112225 0.528110 0.581234
O O2 0.065100 0.641379 0.770614
O O3 0.786011 0.919132 0.322811
O O4 0.761398 0.767748 0.565953
O O5 0.367888 0.701205 0.551182
O O6 0.516966 0.737796 0.422694
O O7 0.238482 0.938769 0.541650
O O8 0.113829 0.034525 0.123757
O O9 0.724815 0.311057 0.840415
O O10 0.500000 0.500000 0.000000
O O11 0.682122 0.490613 0.902599
O O12 0.053737 0.058108 0.772588
O O13 0.847766 0.359268 0.676660
O O14 0.114752 0.504463 0.275857
O O15 0.349579 0.302982 0.183584
O O16 0.518486 0.283942 0.010750
O O17 0.000000 0.500000 0.000000
#
# Coordination Sequence:
#
# PCOD9082554 Si02
#       8
#     2   2   2   2   2   2   2   2
#     4  10  21  32  59  80 114 154 192 230 281 330
#     4  10  20  37  62  81 117 153 184 236 293 324
#     4  10  21  39  63  86 114 148 188 234 287 346
#     4  10  20  36  61  84 113 148 195 226 285 342
#     4  10  19  38  52  83 116 153 192 231 277 335
#     4  10  19  39  54  81 116 146 190 238 283 336
#     4  10  20  34  57  86 110 151 188 232 279 334
#     4  10  19  33  56  81 113 154 189 231 279 334
#
# _framework density 23.278217000000001
#
# number of rings (size 3 to 8) (size 9 to 14) (size 15 to 20)
#    0.000    2.000    3.750    1.875    1.750    1.000 
#    0.000    2.500    0.000   27.000    0.000    0.000 
#    0.000    0.000    0.000    0.000    0.000    0.000 
#
# Total GULP energy -89078.429475 kJ/mol
# GULP energy per Si atom -5567.401842 kJ/mol
# Density = 2.322523 g / cm^3
# Si number density = 23.278217 Si / 1000 Ang^3
#
#
#
# Elastic Constant Matrix: (Units=GPa)
#
#
# Indices 1 2 3 4 5 6 
#
# 1 72.5659 20.2407 6.1621 -1.3432 -12.0668 -13.5171
# 2 20.2407 146.3991 4.1133 1.2120 -2.1810 -23.7099
# 3 6.1621 4.1133 32.6414 -4.8871 -0.1833 -8.1545
# 4 -1.3432 1.2120 -4.8871 30.5671 4.7203 -1.9552
# 5 -12.0668 -2.1810 -0.1833 4.7203 28.0785 5.0823
# 6 -13.5171 -23.7099 -8.1545 -1.9552 5.0823 27.5934
#
#
#
# Elastic Compliance Matrix: (Units=1/GPa)
#
#
# Indices 1 2 3 4 5 6 
#
# 1 0.016236 -0.001250 -0.001552 -0.000058 0.005916 0.005327
# 2 -0.001250 0.008066 0.000989 0.000410 -0.001215 0.006863
# 3 -0.001552 0.000989 0.034654 0.006717 -0.003568 0.011463
# 4 -0.000058 0.000410 0.006717 0.035237 -0.006975 0.006091
# 5 0.005916 -0.001215 -0.003568 -0.006975 0.040507 -0.007156
# 6 0.005327 0.006863 0.011463 0.006091 -0.007156 0.049885
#
#
# Mechanical properties :
#
#
# Convention : Reuss Voigt Hill
#
# Bulk Modulus (GPa) = 18.07368 34.73761 26.40565
# Shear Modulus (GPa) = 24.19510 31.98716 28.09113
#
# Velocity S-wave (km/s) = 3.22745 3.71094 3.47761
# Velocity P-wave (km/s) = 4.65507 5.77206 5.24339
#
# Compressibility (1/GPa) = 0.05532907
#
# Stress axis : x y z
#
# Youngs Moduli (GPa) = 61.59181 123.98179 28.85683
#
# Poissons Ratio (x) = 0.15495 0.04479
# Poissons Ratio (y) = 0.07697 -0.02853
# Poissons Ratio (z) = 0.09560 -0.12258
#
# Static dielectric constant tensor:
#      x y z
#    x 1.917330 -0.053850 -0.037220 
#    y -0.053850 1.993420 0.054370 
#    z -0.037220 0.054370 1.962900 
# 
# From -- ./inp_files/317557.got.cif
#   From: 2010.05.17/outbox.cif.g08.bks.cpg/sg2_159_cif.got.tgz:317557.got - 2010.06.03 11:33:40.
