data_PCOD9082262
_publ_section_title
;
Structure prediction by ZEFSAII (Michael W. Deem and Ramdas Pophale) SiO2 
 PCOD9082262
Probable space group: P -1
;
_chemical_formula_sum "Si O2"
_cell_formula_units_Z 12
_cell_length_a 7.168876
_cell_length_b 28.432806
_cell_length_c 8.167968
_cell_angle_alpha 26.195356
_cell_angle_beta 126.133323
_cell_angle_gamma 136.476054
_cell_volume 495.842653
_symmetry_space_group_name_H-M "P -1"
_symmetry_group_IT_number 2
_symmetry_cell_setting 'triclinic'
loop_
_space_group_symop_operation_xyz
x,y,z
-x,-y,-z
loop_
_atom_site_type_symbol
_atom_site_label
_atom_site_fract_x
_atom_site_fract_y
_atom_site_fract_z
Si Si1 0.182337 0.622674 0.385356
Si Si2 0.399166 0.092682 0.310303
Si Si3 0.129784 0.929169 0.367110
Si Si4 0.722133 0.525918 0.674919
Si Si5 0.808962 0.674947 0.826916
Si Si6 0.761020 0.725599 0.282523
O O1 0.431737 0.615341 0.471507
O O2 0.967612 0.526756 0.707764
O O3 0.366529 0.771400 0.079202
O O4 0.999049 0.623413 0.139167
O O5 0.591052 0.053673 0.620343
O O6 0.221376 0.986537 0.416059
O O7 0.235683 0.146419 0.150048
O O8 0.895987 0.782592 0.672894
O O9 0.000000 0.000000 0.000000
O O10 0.500000 0.500000 0.500000
O O11 0.856819 0.665853 0.385764
O O12 0.521279 0.419415 0.033484
O O13 0.881183 0.733668 0.499404
#
# Coordination Sequence:
#
# PCOD9082262 Si02
#       6
#     2   2   2   2   2   2
#     4   8  19  37  53  81 109 142 179 221 273 318
#     4   8  18  30  55  83 100 146 180 215 276 317
#     4  10  15  31  55  80 107 137 187 220 262 325
#     4  10  21  36  56  82 114 144 180 223 276 325
#     4  10  19  32  55  86 104 148 182 218 272 324
#     4  10  19  36  56  83 110 143 183 222 271 324
#
# _framework density 24.201225000000001
#
# number of rings (size 3 to 8) (size 9 to 14) (size 15 to 20)
#    1.000    1.667    1.667    0.500    0.000    3.333 
#    0.000    3.333    0.000   17.000    0.000    0.000 
#    0.000    0.000    0.000    0.000    0.000    0.000 
#
# Total GULP energy -66848.290587 kJ/mol
# GULP energy per Si atom -5570.690882 kJ/mol
# Density = 2.414614 g / cm^3
# Si number density = 24.201225 Si / 1000 Ang^3
#
#
#
# Elastic Constant Matrix: (Units=GPa)
#
#
# Indices 1 2 3 4 5 6 
#
# 1 70.0545 17.6708 19.9029 8.5564 5.9539 1.8038
# 2 17.6708 115.6751 27.7960 -14.9101 14.4958 5.5196
# 3 19.9029 27.7960 60.1030 5.3719 17.8475 -0.0641
# 4 8.5564 -14.9101 5.3719 37.9277 2.0353 16.9418
# 5 5.9539 14.4958 17.8475 2.0353 28.7435 -0.4230
# 6 1.8038 5.5196 -0.0641 16.9418 -0.4230 27.6059
#
#
#
# Elastic Compliance Matrix: (Units=1/GPa)
#
#
# Indices 1 2 3 4 5 6 
#
# 1 0.016583 -0.002471 -0.004094 -0.005390 0.000775 0.002720
# 2 -0.002471 0.012316 -0.004715 0.010082 -0.003611 -0.008555
# 3 -0.004094 -0.004715 0.024029 -0.005814 -0.011214 0.004663
# 4 -0.005390 0.010082 -0.005814 0.045963 -0.004053 -0.029947
# 5 0.000775 -0.003611 -0.011214 -0.004053 0.043757 0.003803
# 6 0.002720 -0.008555 0.004663 -0.029947 0.003803 0.056205
#
#
# Mechanical properties :
#
#
# Convention : Reuss Voigt Hill
#
# Bulk Modulus (GPa) = 32.93051 41.84134 37.38592
# Shear Modulus (GPa) = 21.59484 30.88627 26.24056
#
# Velocity S-wave (km/s) = 2.99039 3.57631 3.29639
# Velocity P-wave (km/s) = 5.05566 5.86343 5.47446
#
# Compressibility (1/GPa) = 0.03036698
#
# Stress axis : x y z
#
# Youngs Moduli (GPa) = 60.30095 81.19733 41.61603
#
# Poissons Ratio (x) = 0.20065 0.17039
# Poissons Ratio (y) = 0.14901 0.19623
# Poissons Ratio (z) = 0.24689 0.38287
#
# Static dielectric constant tensor:
#      x y z
#    x 1.960240 0.012330 0.002860 
#    y 0.012330 1.935910 -0.038500 
#    z 0.002860 -0.038500 2.080360 
# 
# From -- ./inp_files/227776.got.cif
#   From: 2010.05.17/outbox.cif.g08.bks.cpg/sg2_114_cif.got.tgz:227776.got - 2010.06.03 11:33:40.
