data_PCOD9082313
_publ_section_title
;
Structure prediction by ZEFSAII (Michael W. Deem and Ramdas Pophale) SiO2 
 PCOD9082313
Probable space group: P -1
;
_chemical_formula_sum "Si O2"
_cell_formula_units_Z 14
_cell_length_a 13.249502
_cell_length_b 15.844878
_cell_length_c 19.873027
_cell_angle_alpha 152.444482
_cell_angle_beta 26.217231
_cell_angle_gamma 135.163817
_cell_volume 773.024028
_symmetry_space_group_name_H-M "P -1"
_symmetry_group_IT_number 2
_symmetry_cell_setting 'triclinic'
loop_
_space_group_symop_operation_xyz
x,y,z
-x,-y,-z
loop_
_atom_site_type_symbol
_atom_site_label
_atom_site_fract_x
_atom_site_fract_y
_atom_site_fract_z
Si Si1 0.181230 0.659892 0.029167
Si Si2 0.731034 0.655847 0.358692
Si Si3 0.613365 0.676750 0.217262
Si Si4 0.763480 0.979892 0.796494
Si Si5 0.285983 0.678660 0.709787
Si Si6 0.003680 0.429953 0.714022
Si Si7 0.902057 0.966057 0.246746
O O1 0.219218 0.549212 0.856285
O O2 0.317613 0.484386 0.877906
O O3 0.284200 0.828501 0.086715
O O4 0.883474 0.751273 0.290859
O O5 0.435032 0.749675 0.616889
O O6 0.859445 0.624204 0.332784
O O7 0.764673 0.816944 0.235995
O O8 0.321332 0.824465 0.493688
O O9 0.717937 0.558138 0.000285
O O10 0.949682 0.998923 0.754794
O O11 0.909197 0.773126 0.523166
O O12 0.500000 0.000000 0.000000
O O13 0.500000 0.500000 0.500000
O O14 0.110928 0.573419 0.714094
O O15 0.111414 0.857531 0.988298
#
# Coordination Sequence:
#
# PCOD9082313 Si02
#       7
#     2   2   2   2   2   2   2
#     4  10  19  33  54  77 104 137 178 221 258 303
#     4   9  16  30  52  75 100 134 174 219 256 294
#     4   9  20  38  56  77 105 142 179 215 260 310
#     4  12  22  33  54  83 107 138 178 217 264 315
#     4   9  15  30  53  76 101 132 173 219 255 298
#     4   9  18  30  50  78 109 138 170 215 263 310
#     4  10  20  36  58  79 105 140 178 215 260 315
#
# _framework density 18.110692
#
# number of rings (size 3 to 8) (size 9 to 14) (size 15 to 20)
#    0.000    2.286    0.000    7.714    0.000    2.857 
#    0.000    1.429    0.000    1.714    0.000    0.000 
#    0.000    0.000    0.000    0.000    0.000    0.000 
#
# Total GULP energy -77947.837444 kJ/mol
# GULP energy per Si atom -5567.702675 kJ/mol
# Density = 1.806947 g / cm^3
# Si number density = 18.110692 Si / 1000 Ang^3
#
#
#
# Elastic Constant Matrix: (Units=GPa)
#
#
# Indices 1 2 3 4 5 6 
#
# 1 52.0291 27.8231 48.6043 0.2473 11.5397 5.2791
# 2 27.8231 97.7364 64.1725 -4.9167 11.5129 -2.1613
# 3 48.6043 64.1725 160.0877 -10.1121 13.4985 2.9380
# 4 0.2473 -4.9167 -10.1121 30.9411 1.9439 3.2857
# 5 11.5397 11.5129 13.4985 1.9439 28.7569 5.7980
# 6 5.2791 -2.1613 2.9380 3.2857 5.7980 12.8245
#
#
#
# Elastic Compliance Matrix: (Units=1/GPa)
#
#
# Indices 1 2 3 4 5 6 
#
# 1 0.029816 -0.003398 -0.007202 -0.001915 -0.005431 -0.008250
# 2 -0.003398 0.014907 -0.004725 0.000387 -0.003740 0.006585
# 3 -0.007202 -0.004725 0.010539 0.002858 -0.000178 -0.000898
# 4 -0.001915 0.000387 0.002858 0.034263 -0.001446 -0.007925
# 5 -0.005431 -0.003740 -0.000178 -0.001446 0.042059 -0.016999
# 6 -0.008250 0.006585 -0.000898 -0.007925 -0.016999 0.092403
#
#
# Mechanical properties :
#
#
# Convention : Reuss Voigt Hill
#
# Bulk Modulus (GPa) = 40.63049 65.67256 53.15152
# Shear Modulus (GPa) = 19.02295 25.78806 22.40550
#
# Velocity S-wave (km/s) = 3.24446 3.77757 3.52112
# Velocity P-wave (km/s) = 6.04306 7.44091 6.77812
#
# Compressibility (1/GPa) = 0.02461206
#
# Stress axis : x y z
#
# Youngs Moduli (GPa) = 33.53942 67.08260 94.88517
#
# Poissons Ratio (x) = 0.22796 0.68334
# Poissons Ratio (y) = 0.11397 0.44832
# Poissons Ratio (z) = 0.24154 0.31695
#
# Static dielectric constant tensor:
#      x y z
#    x 1.633020 -0.017290 -0.014190 
#    y -0.017290 1.674320 -0.020180 
#    z -0.014190 -0.020180 1.661970 
# 
# From -- ./inp_files/254888.got.cif
#   From: 2010.05.17/outbox.cif.g08.bks.cpg/sg2_128_cif.got.tgz:254888.got - 2010.06.03 11:33:40.
