data_PCOD9082905
_publ_section_title
;
Structure prediction by ZEFSAII (Michael W. Deem and Ramdas Pophale) SiO2 
 PCOD9082905
Probable space group: P -1
;
_chemical_formula_sum "Si O2"
_cell_formula_units_Z 14
_cell_length_a 5.004694
_cell_length_b 9.250360
_cell_length_c 15.002187
_cell_angle_alpha 69.544908
_cell_angle_beta 107.187823
_cell_angle_gamma 82.302178
_cell_volume 599.446657
_symmetry_space_group_name_H-M "P -1"
_symmetry_group_IT_number 2
_symmetry_cell_setting 'triclinic'
loop_
_space_group_symop_operation_xyz
x,y,z
-x,-y,-z
loop_
_atom_site_type_symbol
_atom_site_label
_atom_site_fract_x
_atom_site_fract_y
_atom_site_fract_z
Si Si1 0.753098 0.902236 0.271361
Si Si2 0.398706 0.884710 0.082267
Si Si3 0.827130 0.610700 0.808320
Si Si4 0.144643 0.208001 0.412397
Si Si5 0.754973 0.173389 0.528928
Si Si6 0.450371 0.443202 0.908807
Si Si7 0.867344 0.920062 0.824749
O O1 0.655052 0.815296 0.196087
O O2 0.020076 0.806851 0.377059
O O3 0.445901 0.984228 0.270634
O O4 0.868020 0.046067 0.209902
O O5 0.363132 0.734418 0.056889
O O6 0.158002 0.993606 0.100581
O O7 0.500000 0.000000 0.000000
O O8 0.108402 0.461277 0.866376
O O9 0.833646 0.702254 0.696478
O O10 0.547436 0.556794 0.821794
O O11 0.872306 0.736686 0.860357
O O12 0.411520 0.233117 0.492699
O O13 0.854381 0.249374 0.433329
O O14 0.188134 0.018796 0.437816
O O15 0.500000 0.500000 0.000000
#
# Coordination Sequence:
#
# PCOD9082905 Si02
#       7
#     2   2   2   2   2   2   2
#     4  10  21  38  64  93 132 162 217 270 311 373
#     4  10  26  44  69  94 125 171 224 265 322 388
#     4  12  24  44  65  97 140 168 215 264 342 373
#     4  10  21  32  61  93 135 168 205 273 316 383
#     4  10  19  33  58  99 128 164 222 260 323 359
#     4  12  28  45  67  97 132 174 211 271 329 399
#     4  10  22  38  67  92 126 174 207 265 319 374
#
# _framework density 23.354869999999998
#
# number of rings (size 3 to 8) (size 9 to 14) (size 15 to 20)
#    0.857    0.571    1.429    3.857    8.000    0.571 
#    0.000    0.000    0.000    5.143    0.000    0.000 
#    0.000    0.000    0.000    0.000    0.000    0.000 
#
# Total GULP energy -78166.211900 kJ/mol
# GULP energy per Si atom -5583.300850 kJ/mol
# Density = 2.330171 g / cm^3
# Si number density = 23.354870 Si / 1000 Ang^3
#
#
#
# Elastic Constant Matrix: (Units=GPa)
#
#
# Indices 1 2 3 4 5 6 
#
# 1 103.9254 3.1509 23.9278 0.6382 -6.2193 0.6392
# 2 3.1509 90.7028 18.9795 10.1722 -6.6798 -6.7582
# 3 23.9278 18.9795 102.5741 6.7129 -7.4103 2.2333
# 4 0.6382 10.1722 6.7129 21.5615 9.3093 -1.5738
# 5 -6.2193 -6.6798 -7.4103 9.3093 43.3233 -8.1230
# 6 0.6392 -6.7582 2.2333 -1.5738 -8.1230 24.1112
#
#
#
# Elastic Compliance Matrix: (Units=1/GPa)
#
#
# Indices 1 2 3 4 5 6 
#
# 1 0.010226 0.000281 -0.002344 -0.000208 0.001235 0.000427
# 2 0.000281 0.012813 -0.001792 -0.006912 0.004070 0.004670
# 3 -0.002344 -0.001792 0.011000 -0.003361 0.001789 -0.001076
# 4 -0.000208 -0.006912 -0.003361 0.056696 -0.014371 -0.002761
# 5 0.001235 0.004070 0.001789 -0.014371 0.029122 0.009815
# 6 0.000427 0.004670 -0.001076 -0.002761 0.009815 0.045998
#
#
# Mechanical properties :
#
#
# Convention : Reuss Voigt Hill
#
# Bulk Modulus (GPa) = 37.97900 43.25764 40.61832
# Shear Modulus (GPa) = 27.42127 34.54214 30.98171
#
# Velocity S-wave (km/s) = 3.43025 3.84997 3.64615
# Velocity P-wave (km/s) = 5.65560 6.19073 5.92920
#
# Compressibility (1/GPa) = 0.02633034
#
# Stress axis : x y z
#
# Youngs Moduli (GPa) = 97.78985 78.04544 90.90892
#
# Poissons Ratio (x) = -0.02196 0.21309
# Poissons Ratio (y) = -0.02751 0.16289
# Poissons Ratio (z) = 0.22922 0.13984
#
# Static dielectric constant tensor:
#      x y z
#    x 1.853300 -0.011690 0.058460 
#    y -0.011690 1.853090 0.030350 
#    z 0.058460 0.030350 1.989010 
# 
# From -- ./inp_files/480440.got.cif
#   From: 2010.05.17/outbox.cif.g08.bks.cpg/sg2_241_cif.got.tgz:480440.got - 2010.06.03 11:33:40.
