data_PCOD9082122
_publ_section_title
;
Structure prediction by ZEFSAII (Michael W. Deem and Ramdas Pophale) SiO2 
 PCOD9082122
Probable space group: P -1
;
_chemical_formula_sum "Si O2"
_cell_formula_units_Z 16
_cell_length_a 5.105620
_cell_length_b 11.186208
_cell_length_c 13.964772
_cell_angle_alpha 70.853304
_cell_angle_beta 65.535670
_cell_angle_gamma 89.872931
_cell_volume 677.469257
_symmetry_space_group_name_H-M "P -1"
_symmetry_group_IT_number 2
_symmetry_cell_setting 'triclinic'
loop_
_space_group_symop_operation_xyz
x,y,z
-x,-y,-z
loop_
_atom_site_type_symbol
_atom_site_label
_atom_site_fract_x
_atom_site_fract_y
_atom_site_fract_z
Si Si1 0.695579 0.481941 0.883379
Si Si2 0.183865 0.533907 0.558777
Si Si3 0.812560 0.761371 0.819524
Si Si4 0.866357 0.250497 0.026448
Si Si5 0.312992 0.664744 0.242675
Si Si6 0.808797 0.083425 0.910982
Si Si7 0.308125 0.798283 0.403319
Si Si8 0.896296 0.966691 0.312955
O O1 0.824999 0.627608 0.799384
O O2 0.522792 0.415657 0.834892
O O3 0.500000 0.500000 0.000000
O O4 0.881741 0.379790 0.927375
O O5 0.500000 0.500000 0.500000
O O6 0.206659 0.686844 0.525007
O O7 0.000000 0.500000 0.500000
O O8 0.996147 0.432366 0.683246
O O9 0.476439 0.782610 0.880812
O O10 0.946256 0.739925 0.909151
O O11 0.998683 0.886954 0.710854
O O12 0.950582 0.138684 0.974338
O O13 0.273538 0.791820 0.161207
O O14 0.416918 0.716202 0.318447
O O15 0.001706 0.030618 0.814818
O O16 0.500000 0.000000 0.000000
O O17 0.560470 0.904814 0.377260
O O18 0.062103 0.870281 0.374667
#
# Coordination Sequence:
#
# PCOD9082122 Si02
#       8
#     2   2   2   2   2   2   2   2
#     4   9  20  38  57  80 117 158 202 237 271 332
#     4  10  19  37  62  88 115 145 187 244 301 346
#     4  11  21  36  53  75 109 153 193 225 274 333
#     4  10  21  35  52  75 107 151 195 233 271 324
#     4   9  20  36  59  87 116 152 193 236 292 343
#     4  10  19  33  51  81 117 146 181 231 284 344
#     4  10  21  38  58  86 114 141 187 245 297 344
#     4  11  22  34  55  83 114 150 184 230 296 348
#
# _framework density 23.617305999999999
#
# number of rings (size 3 to 8) (size 9 to 14) (size 15 to 20)
#    0.000    2.000    1.250    3.375    1.750    4.500 
#    0.000   12.500    0.000    1.500    0.000    0.000 
#    0.000    0.000    0.000    0.000    0.000    0.000 
#
# Total GULP energy -89310.632747 kJ/mol
# GULP energy per Si atom -5581.914547 kJ/mol
# Density = 2.356355 g / cm^3
# Si number density = 23.617306 Si / 1000 Ang^3
#
#
#
# Elastic Constant Matrix: (Units=GPa)
#
#
# Indices 1 2 3 4 5 6 
#
# 1 106.4593 -7.7380 8.8185 -4.7658 -6.7904 0.8846
# 2 -7.7380 120.9512 12.8161 -28.3088 1.7144 7.4953
# 3 8.8185 12.8161 79.7627 -43.6429 -8.8348 -1.6205
# 4 -4.7658 -28.3088 -43.6429 47.2076 4.6869 -0.9008
# 5 -6.7904 1.7144 -8.8348 4.6869 27.9768 -9.5883
# 6 0.8846 7.4953 -1.6205 -0.9008 -9.5883 20.0545
#
#
#
# Elastic Compliance Matrix: (Units=1/GPa)
#
#
# Indices 1 2 3 4 5 6 
#
# 1 0.009662 0.000805 -0.000555 0.000744 0.002084 0.000258
# 2 0.000805 0.010491 0.002877 0.009208 -0.002650 -0.004578
# 3 -0.000555 0.002877 0.027363 0.026504 0.005616 0.005036
# 4 0.000744 0.009208 0.026504 0.051331 -0.000335 0.000813
# 5 0.002084 -0.002650 0.005616 -0.000335 0.046284 0.023466
# 6 0.000258 -0.004578 0.005036 0.000813 0.023466 0.063227
#
#
# Mechanical properties :
#
#
# Convention : Reuss Voigt Hill
#
# Bulk Modulus (GPa) = 18.59760 37.21849 27.90805
# Shear Modulus (GPa) = 22.72466 38.59954 30.66210
#
# Velocity S-wave (km/s) = 3.10531 4.04713 3.60709
# Velocity P-wave (km/s) = 4.55510 6.13451 5.40283
#
# Compressibility (1/GPa) = 0.05377037
#
# Stress axis : x y z
#
# Youngs Moduli (GPa) = 103.49997 95.32167 36.54637
#
# Poissons Ratio (x) = -0.07677 0.02027
# Poissons Ratio (y) = -0.08336 -0.10514
# Poissons Ratio (z) = 0.05740 -0.27422
#
# Static dielectric constant tensor:
#      x y z
#    x 1.861400 0.005300 -0.032600 
#    y 0.005300 2.021070 0.006050 
#    z -0.032600 0.006050 2.041780 
# 
# From -- ./inp_files/482779.got.cif
#   From: 2010.05.17/outbox.cif.g08.bks.cpg/sg2_242_cif.got.tgz:482779.got - 2010.06.03 11:33:40.
