data_PCOD9082431
_publ_section_title
;
Structure prediction by ZEFSAII (Michael W. Deem and Ramdas Pophale) SiO2 
 PCOD9082431
Probable space group: P -1
;
_chemical_formula_sum "Si O2"
_cell_formula_units_Z 16
_cell_length_a 18.043495
_cell_length_b 20.488510
_cell_length_c 5.537489
_cell_angle_alpha 88.163359
_cell_angle_beta 105.280777
_cell_angle_gamma 155.350548
_cell_volume 705.625608
_symmetry_space_group_name_H-M "P -1"
_symmetry_group_IT_number 2
_symmetry_cell_setting 'triclinic'
loop_
_space_group_symop_operation_xyz
x,y,z
-x,-y,-z
loop_
_atom_site_type_symbol
_atom_site_label
_atom_site_fract_x
_atom_site_fract_y
_atom_site_fract_z
Si Si1 0.101552 0.008294 0.581426
Si Si2 0.919520 0.245756 0.537377
Si Si3 0.339707 0.941481 0.156022
Si Si4 0.913185 0.485795 0.247037
Si Si5 0.231015 0.374235 0.697404
Si Si6 0.333075 0.421647 0.279141
Si Si7 0.314142 0.776299 0.247880
Si Si8 0.101748 0.007778 0.081642
O O1 0.224120 0.096277 0.426198
O O2 0.902677 0.799544 0.429703
O O3 0.223809 0.095606 0.925968
O O4 0.000000 0.000000 0.500000
O O5 0.802867 0.156583 0.711256
O O6 0.066792 0.427658 0.630353
O O7 0.064336 0.297023 0.640715
O O8 0.769257 0.126464 0.181888
O O9 0.403447 0.914891 0.199201
O O10 0.561696 0.149003 0.416238
O O11 0.000000 0.500000 0.500000
O O12 0.083974 0.619709 0.157345
O O13 0.700626 0.290841 0.957773
O O14 0.321725 0.460067 0.496961
O O15 0.388174 0.490289 0.048847
O O16 0.500000 0.500000 0.500000
O O17 0.098995 0.201750 0.071458
O O18 0.000000 0.000000 0.000000
#
# Coordination Sequence:
#
# PCOD9082431 Si02
#       8
#     2   2   2   2   2   2   2   2
#     4   8  14  26  46  69  90 120 162 204 250 303
#     4  11  22  36  56  82 117 153 190 234 289 347
#     4  10  21  35  57  84 112 147 193 242 285 319
#     4  10  19  34  57  84 112 157 200 226 279 337
#     4  10  20  34  53  79 108 141 177 226 285 334
#     4  10  19  33  55  78 101 132 179 226 269 329
#     4   9  20  34  55  85 112 146 200 247 267 328
#     4   8  14  25  44  70  91 116 152 201 250 296
#
# _framework density 22.674914999999999
#
# number of rings (size 3 to 8) (size 9 to 14) (size 15 to 20)
#    0.000    2.500    1.250    1.125    1.750    1.500 
#    0.000    0.000    0.000   18.000    0.000    0.000 
#    0.000    0.000    0.000    0.000    0.000    0.000 
#
# Total GULP energy -89103.968173 kJ/mol
# GULP energy per Si atom -5568.998011 kJ/mol
# Density = 2.262331 g / cm^3
# Si number density = 22.674915 Si / 1000 Ang^3
#
#
#
# Elastic Constant Matrix: (Units=GPa)
#
#
# Indices 1 2 3 4 5 6 
#
# 1 87.7942 16.6645 39.1304 4.1813 -13.0216 2.1817
# 2 16.6645 32.1706 25.5007 -16.7360 -19.0973 3.2206
# 3 39.1304 25.5007 173.0124 -30.6281 -41.1676 7.4056
# 4 4.1813 -16.7360 -30.6281 38.6497 12.6471 -15.2162
# 5 -13.0216 -19.0973 -41.1676 12.6471 35.0022 -8.7127
# 6 2.1817 3.2206 7.4056 -15.2162 -8.7127 28.2630
#
#
#
# Elastic Compliance Matrix: (Units=1/GPa)
#
#
# Indices 1 2 3 4 5 6 
#
# 1 0.015893 -0.012127 -0.004369 -0.011786 -0.003076 -0.005994
# 2 -0.012127 0.065893 0.005043 0.030974 0.030723 0.018253
# 3 -0.004369 0.005043 0.010020 0.009154 0.010958 0.005444
# 4 -0.011786 0.030974 0.009154 0.055504 0.010198 0.028008
# 5 -0.003076 0.030723 0.010958 0.010198 0.057656 0.017129
# 6 -0.005994 0.018253 0.005444 0.028008 0.017129 0.052697
#
#
# Mechanical properties :
#
#
# Convention : Reuss Voigt Hill
#
# Bulk Modulus (GPa) = 14.51378 50.61871 32.56624
# Shear Modulus (GPa) = 16.47255 34.49509 25.48382
#
# Velocity S-wave (km/s) = 2.69823 3.90460 3.35606
# Velocity P-wave (km/s) = 4.01521 6.53452 5.42319
#
# Compressibility (1/GPa) = 0.06890004
#
# Stress axis : x y z
#
# Youngs Moduli (GPa) = 62.91886 15.17623 99.80318
#
# Poissons Ratio (x) = 0.18404 0.43604
# Poissons Ratio (y) = 0.76301 -0.50331
# Poissons Ratio (z) = 0.27489 -0.07653
#
# Static dielectric constant tensor:
#      x y z
#    x 1.804280 0.003240 -0.055900 
#    y 0.003240 2.015700 -0.005940 
#    z -0.055900 -0.005940 1.938900 
# 
# From -- ./inp_files/47084.got.cif
#   From: 2010.05.17/outbox.cif.g08.bks.cpg/sg2_24_cif.got.tgz:47084.got - 2010.06.03 11:33:40.
