data_PCOD9082140
_publ_section_title
;
Structure prediction by ZEFSAII (Michael W. Deem and Ramdas Pophale) SiO2 
 PCOD9082140
Probable space group: P -1
;
_chemical_formula_sum "Si O2"
_cell_formula_units_Z 14
_cell_length_a 7.968911
_cell_length_b 14.184960
_cell_length_c 9.224950
_cell_angle_alpha 48.031355
_cell_angle_beta 59.169333
_cell_angle_gamma 86.462905
_cell_volume 597.786165
_symmetry_space_group_name_H-M "P -1"
_symmetry_group_IT_number 2
_symmetry_cell_setting 'triclinic'
loop_
_space_group_symop_operation_xyz
x,y,z
-x,-y,-z
loop_
_atom_site_type_symbol
_atom_site_label
_atom_site_fract_x
_atom_site_fract_y
_atom_site_fract_z
Si Si1 0.574472 0.765992 0.498490
Si Si2 0.635525 0.163194 0.737371
Si Si3 0.699112 0.536397 0.764381
Si Si4 0.006078 0.210862 0.293582
Si Si5 0.306142 0.735314 0.074120
Si Si6 0.097572 0.610602 0.028811
Si Si7 0.272001 0.068845 0.465520
O O1 0.520555 0.789443 0.335447
O O2 0.708996 0.673989 0.542388
O O3 0.336335 0.689329 0.764058
O O4 0.698887 0.901906 0.406425
O O5 0.827152 0.180828 0.526396
O O6 0.715146 0.238313 0.777930
O O7 0.500000 0.000000 0.000000
O O8 0.645257 0.402098 0.822679
O O9 0.500000 0.500000 0.000000
O O10 0.899578 0.534760 0.771629
O O11 0.061710 0.360894 0.037319
O O12 0.187010 0.177308 0.323229
O O13 0.888679 0.087594 0.352215
O O14 0.105769 0.686152 0.101314
O O15 0.494936 0.874857 0.774584
#
# Coordination Sequence:
#
# PCOD9082140 Si02
#       7
#     2   2   2   2   2   2   2
#     4   9  18  31  54  71 103 131 170 201 249 288
#     4  11  21  32  50  79 103 130 166 208 247 300
#     4   8  14  31  54  78  93 125 178 207 231 290
#     4  10  20  33  50  75 108 126 167 204 258 289
#     4   9  18  32  55  74  99 129 170 205 245 292
#     4   7  16  30  52  71  95 131 166 204 232 297
#     4  10  19  33  52  75  99 137 164 208 243 303
#
# _framework density 23.419747000000001
#
# number of rings (size 3 to 8) (size 9 to 14) (size 15 to 20)
#    0.857    2.000    2.857    0.000    2.000    2.286 
#    0.000    2.857    0.000    0.857    0.000    0.000 
#    0.000    0.000    0.000    0.000    0.000    0.000 
#
# Total GULP energy -78063.714481 kJ/mol
# GULP energy per Si atom -5575.979606 kJ/mol
# Density = 2.336644 g / cm^3
# Si number density = 23.419747 Si / 1000 Ang^3
#
#
#
# Elastic Constant Matrix: (Units=GPa)
#
#
# Indices 1 2 3 4 5 6 
#
# 1 56.2691 26.1458 25.5380 -4.3223 33.9670 -5.3313
# 2 26.1458 98.4459 29.5167 9.5392 20.4596 6.0805
# 3 25.5380 29.5167 70.4085 -0.9301 30.2718 -0.8170
# 4 -4.3223 9.5392 -0.9301 28.5789 4.6337 14.7282
# 5 33.9670 20.4596 30.2718 4.6337 42.1083 -5.9773
# 6 -5.3313 6.0805 -0.8170 14.7282 -5.9773 36.5160
#
#
#
# Elastic Compliance Matrix: (Units=1/GPa)
#
#
# Indices 1 2 3 4 5 6 
#
# 1 0.040994 -0.005729 0.002643 0.016619 -0.034780 -0.005398
# 2 -0.005729 0.013149 -0.004291 -0.005343 0.001810 -0.000671
# 3 0.002643 -0.004291 0.022803 0.007781 -0.017930 -0.004463
# 4 0.016619 -0.005343 0.007781 0.055682 -0.025824 -0.023196
# 5 -0.034780 0.001810 -0.017930 -0.025824 0.068916 0.015916
# 6 -0.005398 -0.000671 -0.004463 -0.023196 0.015916 0.038570
#
#
# Mechanical properties :
#
#
# Convention : Reuss Voigt Hill
#
# Bulk Modulus (GPa) = 16.07904 43.05827 29.56865
# Shear Modulus (GPa) = 18.14238 31.03550 24.58894
#
# Velocity S-wave (km/s) = 2.78629 3.64426 3.24377
# Velocity P-wave (km/s) = 4.15111 6.01106 5.16549
#
# Compressibility (1/GPa) = 0.06219278
#
# Stress axis : x y z
#
# Youngs Moduli (GPa) = 24.39357 76.05229 43.85409
#
# Poissons Ratio (x) = 0.43568 -0.11590
# Poissons Ratio (y) = 0.13974 0.18817
# Poissons Ratio (z) = -0.06447 0.32633
#
# Static dielectric constant tensor:
#      x y z
#    x 1.961760 0.021090 0.014420 
#    y 0.021090 1.916990 -0.045930 
#    z 0.014420 -0.045930 1.882740 
# 
# From -- ./inp_files/170847.got.cif
#   From: 2010.05.17/outbox.cif.g08.bks.cpg/sg2_86_cif.got.tgz:170847.got - 2010.06.03 11:33:40.
