data_PCOD9082942
_publ_section_title
;
Structure prediction by ZEFSAII (Michael W. Deem and Ramdas Pophale) SiO2 
 PCOD9082942
Probable space group: P -1
;
_chemical_formula_sum "Si O2"
_cell_formula_units_Z 14
_cell_length_a 11.989116
_cell_length_b 10.022524
_cell_length_c 14.817579
_cell_angle_alpha 32.444153
_cell_angle_beta 144.803658
_cell_angle_gamma 130.687003
_cell_volume 546.448010
_symmetry_space_group_name_H-M "P -1"
_symmetry_group_IT_number 2
_symmetry_cell_setting 'triclinic'
loop_
_space_group_symop_operation_xyz
x,y,z
-x,-y,-z
loop_
_atom_site_type_symbol
_atom_site_label
_atom_site_fract_x
_atom_site_fract_y
_atom_site_fract_z
Si Si1 0.562560 0.664950 0.863404
Si Si2 0.368607 0.267246 0.883294
Si Si3 0.791368 0.000857 0.911084
Si Si4 0.945161 0.868338 0.690680
Si Si5 0.646735 0.794723 0.296755
Si Si6 0.749894 0.381272 0.822947
Si Si7 0.922986 0.296384 0.316313
O O1 0.432386 0.547113 0.768935
O O2 0.786768 0.549374 0.063036
O O3 0.500000 0.500000 0.000000
O O4 0.606443 0.943592 0.758675
O O5 0.217850 0.211564 0.893851
O O6 0.463162 0.640003 0.267125
O O7 0.306579 0.189339 0.787783
O O8 0.749496 0.251784 0.799119
O O9 0.000000 0.000000 0.000000
O O10 0.797301 0.663398 0.701941
O O11 0.078080 0.785833 0.911350
O O12 0.078371 0.833947 0.708417
O O13 0.855402 0.150876 0.444278
O O14 0.556795 0.052669 0.140880
O O15 0.851990 0.674476 0.537924
#
# Coordination Sequence:
#
# PCOD9082942 Si02
#       7
#     2   2   2   2   2   2   2
#     4  10  21  37  55  78 116 164 198 227 280 359
#     4   9  18  36  57  83 116 155 193 234 296 352
#     4  10  20  34  56  83 113 156 201 232 271 348
#     4  10  21  36  61  90 118 152 192 248 303 347
#     4  10  19  33  59  89 117 144 189 255 301 337
#     4  10  21  39  60  88 123 156 192 240 305 353
#     4  11  20  35  60  92 119 148 197 247 298 349
#
# _framework density 25.620003000000001
#
# number of rings (size 3 to 8) (size 9 to 14) (size 15 to 20)
#    0.000    2.000    0.000    6.000    0.000    1.714 
#    0.000    9.286    0.000    0.000    0.000   42.000 
#    0.000    0.000    0.000    0.000    0.000    0.000 
#
# Total GULP energy -78019.225124 kJ/mol
# GULP energy per Si atom -5572.801795 kJ/mol
# Density = 2.556169 g / cm^3
# Si number density = 25.620003 Si / 1000 Ang^3
#
#
#
# Elastic Constant Matrix: (Units=GPa)
#
#
# Indices 1 2 3 4 5 6 
#
# 1 102.2481 37.2122 0.1547 -1.0910 8.9286 7.1139
# 2 37.2122 173.9530 10.4206 -12.7896 -3.3443 27.9831
# 3 0.1547 10.4206 49.7353 -2.4363 -6.2561 -3.6492
# 4 -1.0910 -12.7896 -2.4363 23.1071 10.2612 0.8667
# 5 8.9286 -3.3443 -6.2561 10.2612 25.6963 -0.6565
# 6 7.1139 27.9831 -3.6492 0.8667 -0.6565 50.7208
#
#
#
# Elastic Compliance Matrix: (Units=1/GPa)
#
#
# Indices 1 2 3 4 5 6 
#
# 1 0.011067 -0.002291 -0.000110 0.001353 -0.004721 -0.000380
# 2 -0.002291 0.007250 -0.001645 0.004043 -0.000374 -0.003871
# 3 -0.000110 -0.001645 0.021278 -0.001239 0.005564 0.002547
# 4 0.001353 0.004043 -0.001239 0.055599 -0.022544 -0.003751
# 5 -0.004721 -0.000374 0.005564 -0.022544 0.050924 0.002313
# 6 -0.000380 -0.003871 0.002547 -0.003751 0.002313 0.022182
#
#
# Mechanical properties :
#
#
# Convention : Reuss Voigt Hill
#
# Bulk Modulus (GPa) = 31.74275 46.83460 39.28868
# Shear Modulus (GPa) = 26.75333 38.44809 32.60071
#
# Velocity S-wave (km/s) = 3.23497 3.87810 3.57104
# Velocity P-wave (km/s) = 5.13518 6.19460 5.68960
#
# Compressibility (1/GPa) = 0.03150326
#
# Stress axis : x y z
#
# Youngs Moduli (GPa) = 90.35714 137.93053 46.99789
#
# Poissons Ratio (x) = 0.31600 0.00516
# Poissons Ratio (y) = 0.20701 0.07731
# Poissons Ratio (z) = 0.00992 0.22689
#
# Static dielectric constant tensor:
#      x y z
#    x 2.069070 -0.051320 0.001410 
#    y -0.051320 2.294120 -0.214460 
#    z 0.001410 -0.214460 2.361360 
# 
# From -- ./inp_files/597665.got.cif
#   From: 2010.05.17/outbox.cif.g08.bks.cpg/sg2_299_cif.got.tgz:597665.got - 2010.06.03 11:33:40.
