data_PCOD9082460
_publ_section_title
;
Structure prediction by ZEFSAII (Michael W. Deem and Ramdas Pophale) SiO2 
 PCOD9082460
Probable space group: P -1
;
_chemical_formula_sum "Si O2"
_cell_formula_units_Z 16
_cell_length_a 5.458794
_cell_length_b 25.717413
_cell_length_c 4.938143
_cell_angle_alpha 94.756820
_cell_angle_beta 85.254112
_cell_angle_gamma 60.922958
_cell_volume 597.732566
_symmetry_space_group_name_H-M "P -1"
_symmetry_group_IT_number 2
_symmetry_cell_setting 'triclinic'
loop_
_space_group_symop_operation_xyz
x,y,z
-x,-y,-z
loop_
_atom_site_type_symbol
_atom_site_label
_atom_site_fract_x
_atom_site_fract_y
_atom_site_fract_z
Si Si1 0.789331 0.513791 0.775814
Si Si2 0.532633 0.851189 0.390949
Si Si3 0.707601 0.629647 0.719147
Si Si4 0.064462 0.606407 0.185931
Si Si5 0.968985 0.731166 0.440288
Si Si6 0.006882 0.038973 0.265530
Si Si7 0.800406 0.877119 0.871686
Si Si8 0.217900 0.755014 0.935447
O O1 0.585236 0.585900 0.805611
O O2 0.000000 0.500000 0.500000
O O3 0.704394 0.461605 0.775955
O O4 0.000000 0.500000 0.000000
O O5 0.234763 0.895696 0.571280
O O6 0.743196 0.859374 0.577242
O O7 0.655163 0.779575 0.378608
O O8 0.584510 0.872610 0.103818
O O9 0.789917 0.617505 0.393656
O O10 0.518371 0.700562 0.805963
O O11 0.975893 0.610856 0.883869
O O12 0.084690 0.662443 0.319680
O O13 0.012041 0.741238 0.754050
O O14 0.165299 0.747678 0.247370
O O15 0.230195 0.058452 0.145271
O O16 0.000000 0.000000 0.500000
O O17 0.000000 0.000000 0.000000
O O18 0.107450 0.824890 0.925906
#
# Coordination Sequence:
#
# PCOD9082460 Si02
#       8
#     2   2   2   2   2   2   2   2
#     4   8  16  30  48  74 112 142 188 236 288 342
#     4  10  23  43  63  89 127 163 194 251 307 352
#     4  10  19  33  55  82 107 151 194 240 286 343
#     4  10  19  33  55  82 107 151 194 240 286 343
#     4  10  21  38  56  82 117 150 190 239 297 351
#     4  12  26  42  66  98 120 157 210 243 288 374
#     4  10  23  43  63  89 127 163 194 251 307 352
#     4  10  21  38  56  82 117 150 190 239 297 351
#
# _framework density 26.767824000000001
#
# number of rings (size 3 to 8) (size 9 to 14) (size 15 to 20)
#    0.000    2.000    0.000    3.000    1.750    3.000 
#    2.250    1.250    0.000    0.000    0.000    0.000 
#    0.000    0.000    0.000    0.000    0.000    0.000 
#
# Total GULP energy -89309.739289 kJ/mol
# GULP energy per Si atom -5581.858706 kJ/mol
# Density = 2.670690 g / cm^3
# Si number density = 26.767824 Si / 1000 Ang^3
#
#
#
# Elastic Constant Matrix: (Units=GPa)
#
#
# Indices 1 2 3 4 5 6 
#
# 1 41.8009 42.1276 11.3838 -4.7590 -4.1733 9.9849
# 2 42.1276 144.4435 35.4906 -5.2123 -24.7094 20.5035
# 3 11.3838 35.4906 158.4221 7.1862 1.1948 8.7002
# 4 -4.7590 -5.2123 7.1862 51.8905 -4.9986 -11.8055
# 5 -4.1733 -24.7094 1.1948 -4.9986 21.6281 10.7982
# 6 9.9849 20.5035 8.7002 -11.8055 10.7982 47.6033
#
#
#
# Elastic Compliance Matrix: (Units=1/GPa)
#
#
# Indices 1 2 3 4 5 6 
#
# 1 0.034675 -0.010618 -0.000069 0.001391 -0.004448 -0.001333
# 2 -0.010618 0.015143 -0.002376 0.000928 0.019634 -0.008085
# 3 -0.000069 -0.002376 0.006933 -0.001501 -0.003560 0.000206
# 4 0.001391 0.000928 -0.001501 0.020984 0.004367 0.003796
# 5 -0.004448 0.019634 -0.003560 0.004367 0.081090 -0.024184
# 6 -0.001333 -0.008085 0.000206 0.003796 -0.024184 0.031159
#
#
# Mechanical properties :
#
#
# Convention : Reuss Voigt Hill
#
# Bulk Modulus (GPa) = 32.65183 58.07451 45.36317
# Shear Modulus (GPa) = 22.09272 41.26868 31.68070
#
# Velocity S-wave (km/s) = 2.87600 3.93074 3.44399
# Velocity P-wave (km/s) = 4.82215 6.50721 5.72699
#
# Compressibility (1/GPa) = 0.03062615
#
# Stress axis : x y z
#
# Youngs Moduli (GPa) = 28.83909 66.03514 144.23549
#
# Poissons Ratio (x) = 0.70114 0.01001
# Poissons Ratio (y) = 0.30620 0.34267
# Poissons Ratio (z) = 0.00200 0.15688
#
# Static dielectric constant tensor:
#      x y z
#    x 2.183330 -0.040340 -0.065060 
#    y -0.040340 2.311570 0.015380 
#    z -0.065060 0.015380 1.968160 
# 
# From -- ./inp_files/13275.got.cif
#   From: 2010.05.17/outbox.cif.g08.bks.cpg/sg2_7_cif.got.tgz:13275.got - 2010.06.03 11:33:40.
