data_PCOD9082287
_publ_section_title
;
Structure prediction by ZEFSAII (Michael W. Deem and Ramdas Pophale) SiO2 
 PCOD9082287
Probable space group: P -1
;
_chemical_formula_sum "Si O2"
_cell_formula_units_Z 14
_cell_length_a 7.612932
_cell_length_b 8.530814
_cell_length_c 12.693863
_cell_angle_alpha 105.577256
_cell_angle_beta 121.102434
_cell_angle_gamma 104.713719
_cell_volume 597.938652
_symmetry_space_group_name_H-M "P -1"
_symmetry_group_IT_number 2
_symmetry_cell_setting 'triclinic'
loop_
_space_group_symop_operation_xyz
x,y,z
-x,-y,-z
loop_
_atom_site_type_symbol
_atom_site_label
_atom_site_fract_x
_atom_site_fract_y
_atom_site_fract_z
Si Si1 0.133963 0.044344 0.698533
Si Si2 0.771387 0.178779 0.169830
Si Si3 0.377623 0.792963 0.381623
Si Si4 0.112253 0.908593 0.173109
Si Si5 0.223518 0.294415 0.598751
Si Si6 0.260049 0.501431 0.458136
Si Si7 0.687264 0.881474 0.925601
O O1 0.219657 0.245279 0.711159
O O2 0.947810 0.016600 0.725726
O O3 0.311478 0.995010 0.805318
O O4 0.014915 0.879128 0.548186
O O5 0.573086 0.238883 0.133365
O O6 0.027697 0.330720 0.308133
O O7 0.772803 0.083427 0.043396
O O8 0.216308 0.783125 0.230791
O O9 0.566436 0.737146 0.386534
O O10 0.262110 0.672184 0.428389
O O11 0.500000 0.000000 0.500000
O O12 0.285947 0.077291 0.182813
O O13 0.870495 0.817950 0.015082
O O14 0.241810 0.471425 0.573866
O O15 0.500000 0.500000 0.500000
#
# Coordination Sequence:
#
# PCOD9082287 Si02
#       7
#     2   2   2   2   2   2   2
#     4   9  16  29  56  77 111 148 190 229 275 347
#     4   9  17  35  57  85 112 150 199 233 278 349
#     4  11  20  34  56  84 115 148 188 244 297 344
#     4  10  19  33  53  86 111 149 196 238 281 337
#     4   9  17  32  52  81 110 153 183 227 288 346
#     4   9  20  35  57  85 119 149 188 241 290 347
#     4   9  19  33  59  84 109 156 194 235 281 339
#
# _framework density 23.413772000000002
#
# number of rings (size 3 to 8) (size 9 to 14) (size 15 to 20)
#    0.000    2.571    1.429    0.857    2.000    0.000 
#    0.000    2.143    0.000    0.000    0.000    0.000 
#    0.000    0.000    0.000    0.000    0.000    0.000 
#
# Total GULP energy -77997.748288 kJ/mol
# GULP energy per Si atom -5571.267735 kJ/mol
# Density = 2.336048 g / cm^3
# Si number density = 23.413772 Si / 1000 Ang^3
#
#
#
# Elastic Constant Matrix: (Units=GPa)
#
#
# Indices 1 2 3 4 5 6 
#
# 1 68.7789 18.9420 33.4202 -6.2071 9.0323 11.5414
# 2 18.9420 150.3159 48.5258 -40.7174 -2.6863 26.3129
# 3 33.4202 48.5258 83.8804 -20.7170 17.9807 4.3853
# 4 -6.2071 -40.7174 -20.7170 43.3596 0.9903 -0.9400
# 5 9.0323 -2.6863 17.9807 0.9903 42.9408 -12.7699
# 6 11.5414 26.3129 4.3853 -0.9400 -12.7699 27.3498
#
#
#
# Elastic Compliance Matrix: (Units=1/GPa)
#
#
# Indices 1 2 3 4 5 6 
#
# 1 0.020148 0.002061 -0.007405 0.001137 -0.004399 -0.011313
# 2 0.002061 0.012818 -0.004778 0.009808 -0.001690 -0.012888
# 3 -0.007405 -0.004778 0.020060 0.004225 -0.006800 0.001476
# 4 0.001137 0.009808 0.004225 0.034324 -0.005790 -0.012117
# 5 -0.004399 -0.001690 -0.006800 -0.005790 0.032966 0.019766
# 6 -0.011313 -0.012888 0.001476 -0.012117 0.019766 0.062312
#
#
# Mechanical properties :
#
#
# Convention : Reuss Voigt Hill
#
# Bulk Modulus (GPa) = 30.50342 56.08346 43.29344
# Shear Modulus (GPa) = 23.38625 36.20253 29.79439
#
# Velocity S-wave (km/s) = 3.16385 3.93645 3.57110
# Velocity P-wave (km/s) = 5.13837 6.68327 5.96108
#
# Compressibility (1/GPa) = 0.03278320
#
# Stress axis : x y z
#
# Youngs Moduli (GPa) = 49.63151 78.01476 49.84994
#
# Poissons Ratio (x) = -0.16081 0.36913
# Poissons Ratio (y) = -0.10231 0.23820
# Poissons Ratio (z) = 0.36751 0.37277
#
# Static dielectric constant tensor:
#      x y z
#    x 1.968740 -0.004930 0.038970 
#    y -0.004930 1.973440 -0.059220 
#    z 0.038970 -0.059220 1.949510 
# 
# From -- ./inp_files/491086.got.cif
#   From: 2010.05.17/outbox.cif.g08.bks.cpg/sg2_246_cif.got.tgz:491086.got - 2010.06.03 11:33:40.
