data_PCOD9082478
_publ_section_title
;
Structure prediction by ZEFSAII (Michael W. Deem and Ramdas Pophale) SiO2 
 PCOD9082478
Probable space group: P -1
;
_chemical_formula_sum "Si O2"
_cell_formula_units_Z 16
_cell_length_a 9.225990
_cell_length_b 8.990660
_cell_length_c 12.083020
_cell_angle_alpha 101.602402
_cell_angle_beta 64.009928
_cell_angle_gamma 129.091870
_cell_volume 695.146902
_symmetry_space_group_name_H-M "P -1"
_symmetry_group_IT_number 2
_symmetry_cell_setting 'triclinic'
loop_
_space_group_symop_operation_xyz
x,y,z
-x,-y,-z
loop_
_atom_site_type_symbol
_atom_site_label
_atom_site_fract_x
_atom_site_fract_y
_atom_site_fract_z
Si Si1 0.797389 0.186250 0.379756
Si Si2 0.548185 0.030430 0.858634
Si Si3 0.783565 0.833247 0.263059
Si Si4 0.233506 0.129697 0.210967
Si Si5 0.778785 0.422923 0.749032
Si Si6 0.355410 0.218304 0.931949
Si Si7 0.938390 0.796662 0.530001
Si Si8 0.633494 0.383935 0.540006
O O1 0.633109 0.226338 0.447848
O O2 0.997637 0.379404 0.287161
O O3 0.867764 0.176663 0.478747
O O4 0.759936 0.003356 0.308568
O O5 0.597990 0.885331 0.796077
O O6 0.749782 0.240396 0.785612
O O7 0.373249 0.044573 0.877759
O O8 0.500000 0.000000 0.000000
O O9 0.763464 0.781574 0.132272
O O10 0.586695 0.668359 0.374566
O O11 0.006245 0.923556 0.248159
O O12 0.204734 0.251512 0.321728
O O13 0.278867 0.194385 0.077896
O O14 0.593729 0.403684 0.869969
O O15 0.713064 0.381986 0.636086
O O16 0.804238 0.602394 0.475101
O O17 0.000000 0.000000 0.500000
#
# Coordination Sequence:
#
# PCOD9082478 Si02
#       8
#     2   2   2   2   2   2   2   2
#     4  10  20  35  56  83 106 148 193 227 263 331
#     4   8  16  31  58  80 104 142 186 220 274 322
#     4  10  20  35  55  82 111 144 185 224 277 327
#     4  10  19  33  55  83 115 138 176 228 284 317
#     4   8  16  31  56  80  99 138 195 221 259 316
#     4   8  17  34  57  80 104 147 181 223 266 332
#     4  10  22  34  56  85 109 142 186 232 281 321
#     4  10  20  37  55  78 111 147 189 225 267 333
#
# _framework density 23.016718999999998
#
# number of rings (size 3 to 8) (size 9 to 14) (size 15 to 20)
#    0.750    2.000    0.000    2.250    3.500    0.000 
#    0.000   13.750    5.500    1.500    0.000    0.000 
#    0.000    0.000    0.000    0.000    0.000    0.000 
#
# Total GULP energy -89076.650367 kJ/mol
# GULP energy per Si atom -5567.290648 kJ/mol
# Density = 2.296433 g / cm^3
# Si number density = 23.016719 Si / 1000 Ang^3
#
#
#
# Elastic Constant Matrix: (Units=GPa)
#
#
# Indices 1 2 3 4 5 6 
#
# 1 51.5192 2.3525 12.7106 4.0362 3.9558 -12.1849
# 2 2.3525 64.6617 22.1561 -8.1546 8.8546 -10.6839
# 3 12.7106 22.1561 79.3716 -11.9778 -7.8247 -4.8334
# 4 4.0362 -8.1546 -11.9778 34.9735 -12.1164 -7.4988
# 5 3.9558 8.8546 -7.8247 -12.1164 22.9778 0.2034
# 6 -12.1849 -10.6839 -4.8334 -7.4988 0.2034 27.1933
#
#
#
# Elastic Compliance Matrix: (Units=1/GPa)
#
#
# Indices 1 2 3 4 5 6 
#
# 1 0.024379 0.003625 -0.006272 -0.005801 -0.010874 0.009715
# 2 0.003625 0.020622 -0.006878 0.000090 -0.010942 0.008611
# 3 -0.006272 -0.006878 0.018882 0.011364 0.016145 0.000857
# 4 -0.005801 0.000090 0.011364 0.045702 0.028828 0.011843
# 5 -0.010874 -0.010942 0.016145 0.028828 0.070298 0.001122
# 6 0.009715 0.008611 0.000857 0.011843 0.001122 0.047920
#
#
# Mechanical properties :
#
#
# Convention : Reuss Voigt Hill
#
# Bulk Modulus (GPa) = 22.30456 29.99899 26.15177
# Shear Modulus (GPa) = 19.09876 27.58446 23.34161
#
# Velocity S-wave (km/s) = 2.88371 3.46562 3.18797
# Velocity P-wave (km/s) = 4.56063 5.39221 4.99376
#
# Compressibility (1/GPa) = 0.04483388
#
# Stress axis : x y z
#
# Youngs Moduli (GPa) = 41.01861 48.49119 52.96090
#
# Poissons Ratio (x) = -0.17577 0.33216
# Poissons Ratio (y) = -0.14868 0.36425
# Poissons Ratio (z) = 0.25726 0.33351
#
# Static dielectric constant tensor:
#      x y z
#    x 1.878440 -0.048840 -0.031710 
#    y -0.048840 1.930030 -0.027150 
#    z -0.031710 -0.027150 1.904450 
# 
# From -- ./inp_files/513442.got.cif
#   From: 2010.05.17/outbox.cif.g08.bks.cpg/sg2_257_cif.got.tgz:513442.got - 2010.06.03 11:33:40.
