data_PCOD9082397
_publ_section_title
;
Structure prediction by ZEFSAII (Michael W. Deem and Ramdas Pophale) SiO2 
 PCOD9082397
Probable space group: P -1
;
_chemical_formula_sum "Si O2"
_cell_formula_units_Z 16
_cell_length_a 10.952546
_cell_length_b 11.514523
_cell_length_c 6.986978
_cell_angle_alpha 104.392246
_cell_angle_beta 101.064895
_cell_angle_gamma 47.075229
_cell_volume 624.653969
_symmetry_space_group_name_H-M "P -1"
_symmetry_group_IT_number 2
_symmetry_cell_setting 'triclinic'
loop_
_space_group_symop_operation_xyz
x,y,z
-x,-y,-z
loop_
_atom_site_type_symbol
_atom_site_label
_atom_site_fract_x
_atom_site_fract_y
_atom_site_fract_z
Si Si1 0.363643 0.189249 0.583138
Si Si2 0.013713 0.635028 0.067933
Si Si3 0.468513 0.678010 0.198812
Si Si4 0.290943 0.621198 0.613650
Si Si5 0.635182 0.582812 0.825754
Si Si6 0.673943 0.821424 0.983952
Si Si7 0.068446 0.234570 0.480011
Si Si8 0.808028 0.099226 0.533370
O O1 0.450877 0.262288 0.632693
O O2 0.311872 0.216225 0.801739
O O3 0.189560 0.263790 0.458824
O O4 0.500000 0.000000 0.500000
O O5 0.843482 0.786420 0.975499
O O6 0.002014 0.682427 0.302081
O O7 0.201955 0.549383 0.043820
O O8 0.000000 0.500000 0.000000
O O9 0.577782 0.497305 0.232816
O O10 0.277937 0.791938 0.257689
O O11 0.491398 0.684382 0.984546
O O12 0.350413 0.510364 0.394210
O O13 0.282944 0.766156 0.606159
O O14 0.102650 0.698329 0.645330
O O15 0.658191 0.706981 0.819163
O O16 0.500000 0.000000 0.000000
O O17 0.189234 0.044374 0.486149
O O18 0.000000 0.000000 0.500000
#
# Coordination Sequence:
#
# PCOD9082397 Si02
#       8
#     2   2   2   2   2   2   2   2
#     4  10  19  33  54  84 116 145 179 236 292 333
#     4   8  15  32  53  75 115 152 178 224 287 341
#     4  11  22  38  61  88 114 148 197 238 283 347
#     4  10  22  38  62  84 111 159 195 231 282 340
#     4   9  20  37  54  82 115 146 187 239 286 329
#     4   9  18  30  50  79 112 150 188 224 280 345
#     4   9  18  36  59  83 116 153 188 233 292 340
#     4  10  21  39  60  83 115 154 195 237 285 339
#
# _framework density 25.614183000000001
#
# number of rings (size 3 to 8) (size 9 to 14) (size 15 to 20)
#    0.000    2.500    1.250    1.125    1.750    1.000 
#    2.250    0.000    0.000   12.750    0.000    0.000 
#    0.000    0.000    0.000    0.000    0.000    0.000 
#
# Total GULP energy -89238.068799 kJ/mol
# GULP energy per Si atom -5577.379300 kJ/mol
# Density = 2.555588 g / cm^3
# Si number density = 25.614183 Si / 1000 Ang^3
#
#
#
# Elastic Constant Matrix: (Units=GPa)
#
#
# Indices 1 2 3 4 5 6 
#
# 1 102.5218 19.9796 11.9373 12.8945 -8.2864 -19.1242
# 2 19.9796 112.8347 10.2650 16.6633 -1.0274 -12.3104
# 3 11.9373 10.2650 81.1857 3.9966 -3.2617 -1.2348
# 4 12.8945 16.6633 3.9966 29.8283 0.1157 1.5847
# 5 -8.2864 -1.0274 -3.2617 0.1157 37.9601 13.2359
# 6 -19.1242 -12.3104 -1.2348 1.5847 13.2359 52.6711
#
#
#
# Elastic Compliance Matrix: (Units=1/GPa)
#
#
# Indices 1 2 3 4 5 6 
#
# 1 0.011421 -0.000817 -0.001254 -0.004519 0.001053 0.003798
# 2 -0.000817 0.010129 -0.000895 -0.005310 -0.000806 0.002412
# 3 -0.001254 -0.000895 0.012677 -0.000629 0.001003 -0.000600
# 4 -0.004519 -0.005310 -0.000629 0.038746 0.000125 -0.004094
# 5 0.001053 -0.000806 0.001003 0.000125 0.029114 -0.007102
# 6 0.003798 0.002412 -0.000600 -0.004094 -0.007102 0.022822
#
#
# Mechanical properties :
#
#
# Convention : Reuss Voigt Hill
#
# Bulk Modulus (GPa) = 35.34068 42.32290 38.83179
# Shear Modulus (GPa) = 35.64509 41.04924 38.34717
#
# Velocity S-wave (km/s) = 3.73448 4.00759 3.87344
# Velocity P-wave (km/s) = 5.69407 6.16226 5.93278
#
# Compressibility (1/GPa) = 0.02829601
#
# Stress axis : x y z
#
# Youngs Moduli (GPa) = 87.55736 98.73027 78.88300
#
# Poissons Ratio (x) = 0.08067 0.09888
# Poissons Ratio (y) = 0.07154 0.07058
# Poissons Ratio (z) = 0.10975 0.08834
#
# Static dielectric constant tensor:
#      x y z
#    x 2.292930 -0.084970 0.053370 
#    y -0.084970 2.165210 -0.041430 
#    z 0.053370 -0.041430 2.029300 
# 
# From -- ./inp_files/259047.got.cif
#   From: 2010.05.17/outbox.cif.g08.bks.cpg/sg2_130_cif.got.tgz:259047.got - 2010.06.03 11:33:40.
