data_PCOD9082466
_publ_section_title
;
Structure prediction by ZEFSAII (Michael W. Deem and Ramdas Pophale) SiO2 
 PCOD9082466
Probable space group: P -1
;
_chemical_formula_sum "Si O2"
_cell_formula_units_Z 16
_cell_length_a 12.525845
_cell_length_b 14.447074
_cell_length_c 8.937510
_cell_angle_alpha 106.176965
_cell_angle_beta 51.155537
_cell_angle_gamma 137.098023
_cell_volume 806.098381
_symmetry_space_group_name_H-M "P -1"
_symmetry_group_IT_number 2
_symmetry_cell_setting 'triclinic'
loop_
_space_group_symop_operation_xyz
x,y,z
-x,-y,-z
loop_
_atom_site_type_symbol
_atom_site_label
_atom_site_fract_x
_atom_site_fract_y
_atom_site_fract_z
Si Si1 0.994684 0.887486 0.505568
Si Si2 0.788948 0.296121 0.107121
Si Si3 0.364634 0.032158 0.469286
Si Si4 0.207031 0.491231 0.708800
Si Si5 0.413888 0.261239 0.682118
Si Si6 0.879767 0.753652 0.234343
Si Si7 0.705726 0.668482 0.912968
Si Si8 0.920913 0.231764 0.202370
O O1 0.982325 0.821440 0.334295
O O2 0.795602 0.756533 0.719926
O O3 0.000000 0.000000 0.500000
O O4 0.187585 0.966958 0.477888
O O5 0.574445 0.128442 0.235541
O O6 0.743888 0.385962 0.186623
O O7 0.899880 0.322993 0.178868
O O8 0.957585 0.361968 0.862193
O O9 0.399346 0.140654 0.601778
O O10 0.275178 0.897140 0.583314
O O11 0.352568 0.579188 0.477621
O O12 0.250619 0.413927 0.718589
O O13 0.269753 0.238401 0.675342
O O14 0.331328 0.261004 0.909911
O O15 0.049304 0.826118 0.989649
O O16 0.877829 0.687210 0.841092
O O17 0.500000 0.500000 0.000000
#
# Coordination Sequence:
#
# PCOD9082466 Si02
#       8
#     2   2   2   2   2   2   2   2
#     4  11  22  35  54  85 119 143 178 227 283 330
#     4   9  18  35  55  80 105 145 193 223 266 318
#     4  10  20  35  56  81 110 148 181 228 269 328
#     4   9  18  32  53  80 107 136 183 234 264 315
#     4  10  19  33  57  81 110 142 184 221 279 331
#     4  10  19  33  55  82 111 143 179 225 280 327
#     4  10  22  37  56  84 114 145 178 231 283 333
#     4   9  20  35  59  79 110 147 184 224 268 332
#
# _framework density 19.848692
#
# number of rings (size 3 to 8) (size 9 to 14) (size 15 to 20)
#    0.000    2.250    1.250    1.500    1.750    3.500 
#    2.250    2.500    0.000   15.000    0.000    0.000 
#    0.000    0.000    0.000    0.000    0.000    0.000 
#
# Total GULP energy -89133.295633 kJ/mol
# GULP energy per Si atom -5570.830977 kJ/mol
# Density = 1.980352 g / cm^3
# Si number density = 19.848692 Si / 1000 Ang^3
#
#
#
# Elastic Constant Matrix: (Units=GPa)
#
#
# Indices 1 2 3 4 5 6 
#
# 1 44.2751 17.2668 4.0078 -5.2638 8.8881 -3.7302
# 2 17.2668 58.3807 26.4798 -13.3301 8.4711 7.6196
# 3 4.0078 26.4798 74.4624 -26.0540 3.0516 20.0793
# 4 -5.2638 -13.3301 -26.0540 35.9309 -0.4840 -2.3393
# 5 8.8881 8.4711 3.0516 -0.4840 29.5263 -0.7430
# 6 -3.7302 7.6196 20.0793 -2.3393 -0.7430 26.0397
#
#
#
# Elastic Compliance Matrix: (Units=1/GPa)
#
#
# Indices 1 2 3 4 5 6 
#
# 1 0.027499 -0.007905 0.000692 0.001891 -0.005906 0.005720
# 2 -0.007905 0.023864 -0.005875 0.003160 -0.003894 -0.003412
# 3 0.000692 -0.005875 0.025230 0.015137 -0.001293 -0.016314
# 4 0.001891 0.003160 0.015137 0.039646 -0.002613 -0.008839
# 5 -0.005906 -0.003894 -0.001293 -0.002613 0.036907 0.002108
# 6 0.005720 -0.003412 -0.016314 -0.008839 0.002108 0.052066
#
#
# Mechanical properties :
#
#
# Convention : Reuss Voigt Hill
#
# Bulk Modulus (GPa) = 19.83486 30.29189 25.06337
# Shear Modulus (GPa) = 20.14562 26.92364 23.53463
#
# Velocity S-wave (km/s) = 3.18930 3.68699 3.44714
# Velocity P-wave (km/s) = 4.85561 5.78098 5.33838
#
# Compressibility (1/GPa) = 0.05041629
#
# Stress axis : x y z
#
# Youngs Moduli (GPa) = 36.36559 41.90465 39.63524
#
# Poissons Ratio (x) = 0.33125 -0.02744
# Poissons Ratio (y) = 0.28746 0.23287
# Poissons Ratio (z) = -0.02517 0.24621
#
# Static dielectric constant tensor:
#      x y z
#    x 1.706940 -0.006910 -0.027570 
#    y -0.006910 1.722770 -0.015380 
#    z -0.027570 -0.015380 1.736570 
# 
# From -- ./inp_files/205745.got.cif
#   From: 2010.05.17/outbox.cif.g08.bks.cpg/sg2_103_cif.got.tgz:205745.got - 2010.06.03 11:33:40.
