data_PCOD9082703
_publ_section_title
;
Structure prediction by ZEFSAII (Michael W. Deem and Ramdas Pophale) SiO2 
 PCOD9082703
Probable space group: P -1
;
_chemical_formula_sum "Si O2"
_cell_formula_units_Z 12
_cell_length_a 8.985706
_cell_length_b 9.245561
_cell_length_c 15.722448
_cell_angle_alpha 151.779474
_cell_angle_beta 124.088589
_cell_angle_gamma 67.047180
_cell_volume 493.198090
_symmetry_space_group_name_H-M "P -1"
_symmetry_group_IT_number 2
_symmetry_cell_setting 'triclinic'
loop_
_space_group_symop_operation_xyz
x,y,z
-x,-y,-z
loop_
_atom_site_type_symbol
_atom_site_label
_atom_site_fract_x
_atom_site_fract_y
_atom_site_fract_z
Si Si1 0.370548 0.231167 0.626806
Si Si2 0.664133 0.416774 0.958442
Si Si3 0.578105 0.354560 0.300367
Si Si4 0.845956 0.854074 0.734731
Si Si5 0.974557 0.176077 0.771195
Si Si6 0.765971 0.178835 0.109735
O O1 0.551549 0.261989 0.757447
O O2 0.446727 0.375221 0.633596
O O3 0.267026 0.492494 0.762604
O O4 0.201407 0.918000 0.397242
O O5 0.764431 0.151020 0.883963
O O6 0.500000 0.500000 0.000000
O O7 0.824746 0.744855 0.167170
O O8 0.688695 0.525643 0.505345
O O9 0.696087 0.173068 0.184063
O O10 0.381287 0.114827 0.131391
O O11 0.023922 0.833924 0.834263
O O12 0.924554 0.911893 0.691768
O O13 0.000000 0.500000 0.000000
#
# Coordination Sequence:
#
# PCOD9082703 Si02
#       6
#     2   2   2   2   2   2
#     4   9  19  34  54  79 109 141 177 221 270 315
#     4  11  24  38  52  76 112 150 184 220 263 314
#     4   8  17  30  57  83 111 131 170 224 279 314
#     4  10  19  33  57  83 107 135 178 221 268 321
#     4   9  20  34  57  82 107 138 180 223 268 320
#     4   9  17  31  54  87 108 133 168 225 276 320
#
# _framework density 24.330992999999999
#
# number of rings (size 3 to 8) (size 9 to 14) (size 15 to 20)
#    1.000    1.667    0.000    1.500    0.000    9.333 
#    0.000    0.833    0.000    2.000    0.000    0.000 
#    0.000    0.000    0.000    0.000    0.000    0.000 
#
# Total GULP energy -66968.679988 kJ/mol
# GULP energy per Si atom -5580.723332 kJ/mol
# Density = 2.427561 g / cm^3
# Si number density = 24.330993 Si / 1000 Ang^3
#
#
#
# Elastic Constant Matrix: (Units=GPa)
#
#
# Indices 1 2 3 4 5 6 
#
# 1 82.5758 24.8818 31.6845 -3.4948 12.5061 -20.1113
# 2 24.8818 105.3206 44.3688 -18.1068 3.8089 -38.5406
# 3 31.6845 44.3688 208.0621 -14.3484 23.0967 -22.1799
# 4 -3.4948 -18.1068 -14.3484 22.8462 -5.5598 4.0605
# 5 12.5061 3.8089 23.0967 -5.5598 20.9488 -3.0762
# 6 -20.1113 -38.5406 -22.1799 4.0605 -3.0762 32.7258
#
#
#
# Elastic Compliance Matrix: (Units=1/GPa)
#
#
# Indices 1 2 3 4 5 6 
#
# 1 0.015569 -0.000466 -0.000673 -0.001725 -0.007744 0.008049
# 2 -0.000466 0.019860 -0.001624 0.012079 0.004740 0.020949
# 3 -0.000673 -0.001624 0.006056 0.000850 -0.005586 0.001148
# 4 -0.001725 0.012079 0.000850 0.055532 0.013832 0.008151
# 5 -0.007744 0.004740 -0.005586 0.013832 0.061488 0.001101
# 6 0.008049 0.020949 0.001148 0.008151 0.001101 0.060045
#
#
# Mechanical properties :
#
#
# Convention : Reuss Voigt Hill
#
# Bulk Modulus (GPa) = 27.80881 66.42540 47.11711
# Shear Modulus (GPa) = 21.18093 34.97237 28.07665
#
# Velocity S-wave (km/s) = 2.95368 3.79536 3.40066
# Velocity P-wave (km/s) = 4.80484 6.82396 5.90139
#
# Compressibility (1/GPa) = 0.03595982
#
# Stress axis : x y z
#
# Youngs Moduli (GPa) = 64.23128 50.35171 165.12184
#
# Poissons Ratio (x) = 0.02345 0.11110
# Poissons Ratio (y) = 0.02991 0.26819
# Poissons Ratio (z) = 0.04322 0.08178
#
# Static dielectric constant tensor:
#      x y z
#    x 2.054470 0.014370 -0.030250 
#    y 0.014370 1.950790 0.009010 
#    z -0.030250 0.009010 1.972880 
# 
# From -- ./inp_files/381218.got.cif
#   From: 2010.05.17/outbox.cif.g08.bks.cpg/sg2_191_cif.got.tgz:381218.got - 2010.06.03 11:33:40.
