data_PCOD9082971
_publ_section_title
;
Structure prediction by ZEFSAII (Michael W. Deem and Ramdas Pophale) SiO2 
 PCOD9082971
Probable space group: P -1
;
_chemical_formula_sum "Si O2"
_cell_formula_units_Z 16
_cell_length_a 14.346119
_cell_length_b 18.081639
_cell_length_c 8.046780
_cell_angle_alpha 136.763651
_cell_angle_beta 150.141114
_cell_angle_gamma 43.285992
_cell_volume 683.017481
_symmetry_space_group_name_H-M "P -1"
_symmetry_group_IT_number 2
_symmetry_cell_setting 'triclinic'
loop_
_space_group_symop_operation_xyz
x,y,z
-x,-y,-z
loop_
_atom_site_type_symbol
_atom_site_label
_atom_site_fract_x
_atom_site_fract_y
_atom_site_fract_z
Si Si1 0.075604 0.082678 0.633738
Si Si2 0.652273 0.065431 0.411811
Si Si3 0.596466 0.301001 0.532752
Si Si4 0.899321 0.333556 0.832324
Si Si5 0.429880 0.105839 0.445606
Si Si6 0.947894 0.480671 0.693003
Si Si7 0.329856 0.338621 0.854303
Si Si8 0.393358 0.543193 0.697218
O O1 0.947378 0.210669 0.623136
O O2 0.141811 0.019010 0.459541
O O3 0.260257 0.095977 0.044063
O O4 0.000000 0.000000 0.500000
O O5 0.619736 0.181703 0.454489
O O6 0.612126 0.098895 0.595121
O O7 0.500000 0.000000 0.000000
O O8 0.804666 0.318913 0.837120
O O9 0.470978 0.408961 0.613006
O O10 0.478995 0.307391 0.189404
O O11 0.731978 0.418505 0.602940
O O12 0.071194 0.393821 0.203612
O O13 0.345436 0.219855 0.600844
O O14 0.500000 0.000000 0.500000
O O15 0.766543 0.428120 0.354555
O O16 0.121973 0.402901 0.722004
O O17 0.000000 0.500000 0.000000
O O18 0.423735 0.408775 0.982138
#
# Coordination Sequence:
#
# PCOD9082971 Si02
#       8
#     2   2   2   2   2   2   2   2
#     4  11  23  44  70  97 126 174 230 282 330 406
#     4  10  23  40  65  94 123 180 229 268 332 411
#     4  11  18  38  70  92 132 176 235 268 323 414
#     4  10  19  35  64  96 129 163 227 278 320 383
#     4  11  27  45  66  95 136 178 220 283 355 396
#     4  10  19  33  60 101 129 173 223 264 328 401
#     4  11  20  41  63  97 139 171 218 288 332 389
#     4  10  21  34  66 102 129 182 225 268 328 408
#
# _framework density 23.425462
#
# number of rings (size 3 to 8) (size 9 to 14) (size 15 to 20)
#    0.000    1.500    5.000    2.250    5.250    2.000 
#    2.250    1.875    0.000    0.000    0.000    0.000 
#    0.000    0.000    0.000    0.000    0.000    0.000 
#
# Total GULP energy -89310.950794 kJ/mol
# GULP energy per Si atom -5581.934425 kJ/mol
# Density = 2.337214 g / cm^3
# Si number density = 23.425462 Si / 1000 Ang^3
#
#
#
# Elastic Constant Matrix: (Units=GPa)
#
#
# Indices 1 2 3 4 5 6 
#
# 1 180.4224 67.6429 42.7288 22.0043 37.7991 -18.3669
# 2 67.6429 149.5458 22.8433 33.9270 14.1990 -14.9408
# 3 42.7288 22.8433 68.6095 10.5162 8.5762 -4.3635
# 4 22.0043 33.9270 10.5162 26.0680 10.5256 -0.1700
# 5 37.7991 14.1990 8.5762 10.5256 37.7580 5.2425
# 6 -18.3669 -14.9408 -4.3635 -0.1700 5.2425 50.5108
#
#
#
# Elastic Compliance Matrix: (Units=1/GPa)
#
#
# Indices 1 2 3 4 5 6 
#
# 1 0.009424 -0.002678 -0.003821 0.000362 -0.008097 0.003146
# 2 -0.002678 0.010755 -0.000115 -0.012426 0.001854 0.001963
# 3 -0.003821 -0.000115 0.017489 -0.004102 0.001044 -0.000035
# 4 0.000362 -0.012426 -0.004102 0.060408 -0.011246 -0.002528
# 5 -0.008097 0.001854 0.001044 -0.011246 0.037659 -0.006252
# 6 0.003146 0.001963 -0.000035 -0.002528 -0.006252 0.022160
#
#
# Mechanical properties :
#
#
# Convention : Reuss Voigt Hill
#
# Bulk Modulus (GPa) = 40.91625 73.88975 57.40300
# Shear Modulus (GPa) = 27.89106 40.55822 34.22464
#
# Velocity S-wave (km/s) = 3.45429 4.16549 3.82645
# Velocity P-wave (km/s) = 5.78049 7.39906 6.63928
#
# Compressibility (1/GPa) = 0.02444016
#
# Stress axis : x y z
#
# Youngs Moduli (GPa) = 106.11335 92.97956 57.17855
#
# Poissons Ratio (x) = 0.24900 0.21846
# Poissons Ratio (y) = 0.28417 0.00659
# Poissons Ratio (z) = 0.40542 0.01072
#
# Static dielectric constant tensor:
#      x y z
#    x 1.945550 -0.036270 0.029100 
#    y -0.036270 1.867680 -0.036900 
#    z 0.029100 -0.036900 1.981900 
# 
# From -- ./inp_files/318186.got.cif
#   From: 2010.05.17/outbox.cif.g08.bks.cpg/sg2_160_cif.got.tgz:318186.got - 2010.06.03 11:33:40.
