data_PCOD9082561
_publ_section_title
;
Structure prediction by ZEFSAII (Michael W. Deem and Ramdas Pophale) SiO2 
 PCOD9082561
Probable space group: P -1
;
_chemical_formula_sum "Si O2"
_cell_formula_units_Z 16
_cell_length_a 23.236158
_cell_length_b 13.757747
_cell_length_c 6.181802
_cell_angle_alpha 93.199048
_cell_angle_beta 81.596752
_cell_angle_gamma 23.482874
_cell_volume 682.717615
_symmetry_space_group_name_H-M "P -1"
_symmetry_group_IT_number 2
_symmetry_cell_setting 'triclinic'
loop_
_space_group_symop_operation_xyz
x,y,z
-x,-y,-z
loop_
_atom_site_type_symbol
_atom_site_label
_atom_site_fract_x
_atom_site_fract_y
_atom_site_fract_z
Si Si1 0.408412 0.355879 0.185635
Si Si2 0.016816 0.395893 0.171743
Si Si3 0.006647 0.708927 0.187094
Si Si4 0.785860 0.169413 0.909218
Si Si5 0.234876 0.202516 0.253567
Si Si6 0.918349 0.234810 0.571784
Si Si7 0.656905 0.231050 0.670105
Si Si8 0.562552 0.550006 0.449233
O O1 0.302956 0.605695 0.154761
O O2 0.278418 0.472420 0.308216
O O3 0.462911 0.312803 0.384127
O O4 0.570225 0.086205 0.917639
O O5 0.857315 0.645142 0.446725
O O6 0.173229 0.193905 0.193947
O O7 0.029913 0.271736 0.031177
O O8 0.000000 0.500000 0.000000
O O9 0.150948 0.416298 0.174167
O O10 0.049553 0.752277 0.228641
O O11 0.841717 0.939518 0.437070
O O12 0.686358 0.228560 0.891999
O O13 0.738640 0.268329 0.192660
O O14 0.975775 0.876957 0.687080
O O15 0.000000 0.000000 0.500000
O O16 0.564347 0.461999 0.615530
O O17 0.569452 0.269927 0.642159
#
# Coordination Sequence:
#
# PCOD9082561 Si02
#       8
#     2   2   2   2   2   2   2   2
#     4  10  21  36  53  77 111 144 186 232 268 323
#     4   9  20  38  58  83 115 146 182 225 275 337
#     4  10  20  36  58  81 115 153 184 225 278 334
#     4   9  19  34  55  78 106 144 183 230 283 328
#     4  10  21  36  58  88 114 146 184 225 281 334
#     4   9  20  40  57  77 112 150 189 237 277 316
#     4   9  19  33  51  82 114 137 177 233 282 336
#     4  10  19  33  56  82 107 143 184 227 284 334
#
# _framework density 23.435751
#
# number of rings (size 3 to 8) (size 9 to 14) (size 15 to 20)
#    0.000    2.500    0.000    1.875    0.000    8.000 
#    0.000    6.875    0.000    0.000    0.000    0.000 
#    0.000    0.000    0.000    0.000    0.000    0.000 
#
# Total GULP energy -89370.359831 kJ/mol
# GULP energy per Si atom -5585.647489 kJ/mol
# Density = 2.338241 g / cm^3
# Si number density = 23.435751 Si / 1000 Ang^3
#
#
#
# Elastic Constant Matrix: (Units=GPa)
#
#
# Indices 1 2 3 4 5 6 
#
# 1 111.6642 31.6951 38.1243 -2.0874 12.8010 -25.7313
# 2 31.6951 78.3299 17.2167 17.2996 -11.5059 -24.0303
# 3 38.1243 17.2167 118.4580 2.7952 -3.8644 -25.6931
# 4 -2.0874 17.2996 2.7952 39.5462 -6.8540 -12.4858
# 5 12.8010 -11.5059 -3.8644 -6.8540 43.7459 4.1341
# 6 -25.7313 -24.0303 -25.6931 -12.4858 4.1341 38.7058
#
#
#
# Elastic Compliance Matrix: (Units=1/GPa)
#
#
# Indices 1 2 3 4 5 6 
#
# 1 0.013179 -0.004538 -0.002527 0.003869 -0.005241 0.006074
# 2 -0.004538 0.018376 0.000469 -0.005458 0.004739 0.006436
# 3 -0.002527 0.000469 0.010448 0.000968 0.001398 0.005710
# 4 0.003869 -0.005458 0.000968 0.031132 0.001478 0.009711
# 5 -0.005241 0.004739 0.001398 0.001478 0.026177 -0.001933
# 6 0.006074 0.006436 0.005710 0.009711 -0.001933 0.040999
#
#
# Mechanical properties :
#
#
# Convention : Reuss Voigt Hill
#
# Bulk Modulus (GPa) = 34.70826 53.61379 44.16103
# Shear Modulus (GPa) = 30.65467 39.16065 34.90766
#
# Velocity S-wave (km/s) = 3.62059 4.09220 3.86360
# Velocity P-wave (km/s) = 5.68510 6.72716 6.22796
#
# Compressibility (1/GPa) = 0.02881158
#
# Stress axis : x y z
#
# Youngs Moduli (GPa) = 75.87731 54.41948 95.71169
#
# Poissons Ratio (x) = 0.24697 0.24184
# Poissons Ratio (y) = 0.34435 -0.04491
# Poissons Ratio (z) = 0.19172 -0.02554
#
# Static dielectric constant tensor:
#      x y z
#    x 1.924020 0.034810 0.028820 
#    y 0.034810 1.975830 -0.009070 
#    z 0.028820 -0.009070 1.891400 
# 
# From -- ./inp_files/127453.got.cif
#   From: 2010.05.17/outbox.cif.g08.bks.cpg/sg2_64_cif.got.tgz:127453.got - 2010.06.03 11:33:40.
