data_PCOD9082216
_publ_section_title
;
Structure prediction by ZEFSAII (Michael W. Deem and Ramdas Pophale) SiO2 
 PCOD9082216
Probable space group: P -1
;
_chemical_formula_sum "Si O2"
_cell_formula_units_Z 16
_cell_length_a 12.838328
_cell_length_b 5.098164
_cell_length_c 15.489493
_cell_angle_alpha 93.051312
_cell_angle_beta 107.241953
_cell_angle_gamma 99.819281
_cell_volume 948.253864
_symmetry_space_group_name_H-M "P -1"
_symmetry_group_IT_number 2
_symmetry_cell_setting 'triclinic'
loop_
_space_group_symop_operation_xyz
x,y,z
-x,-y,-z
loop_
_atom_site_type_symbol
_atom_site_label
_atom_site_fract_x
_atom_site_fract_y
_atom_site_fract_z
Si Si1 0.093479 0.627681 0.091910
Si Si2 0.989986 0.718974 0.576954
Si Si3 0.811684 0.834192 0.423168
Si Si4 0.792016 0.808206 0.831965
Si Si5 0.902174 0.513787 0.725426
Si Si6 0.339745 0.741087 0.401377
Si Si7 0.330611 0.720792 0.602252
Si Si8 0.422211 0.259060 0.326990
O O1 0.191638 0.456352 0.117744
O O2 0.048637 0.599378 0.179367
O O3 0.146753 0.935048 0.097202
O O4 0.000000 0.500000 0.000000
O O5 0.000000 0.500000 0.500000
O O6 0.873305 0.811156 0.529587
O O7 0.981123 0.582398 0.664956
O O8 0.086999 0.981118 0.600454
O O9 0.756601 0.528260 0.383253
O O10 0.716749 0.008066 0.400978
O O11 0.859102 0.771792 0.758907
O O12 0.668767 0.820994 0.772125
O O13 0.787966 0.324022 0.663282
O O14 0.341570 0.674765 0.501406
O O15 0.405277 0.545314 0.362710
O O16 0.391913 0.043212 0.392938
O O17 0.452591 0.738493 0.670474
#
# Coordination Sequence:
#
# PCOD9082216 Si02
#       8
#     2   2   2   2   2   2   2   2
#     4  10  19  33  53  76 106 132 161 206 257 315
#     4  11  21  38  53  70 100 144 182 218 258 292
#     4  11  23  34  48  69  92 137 178 222 242 289
#     4   9  19  33  50  76 104 134 163 200 254 318
#     4   9  20  31  55  72 106 136 171 208 254 299
#     4  11  19  32  47  71  99 137 172 206 240 303
#     4  12  22  33  48  68 102 134 181 213 246 282
#     4  11  20  33  47  72  99 138 170 208 244 302
#
# _framework density 16.873118999999999
#
# number of rings (size 3 to 8) (size 9 to 14) (size 15 to 20)
#    0.750    0.750    3.750    2.625    1.750    2.000 
#    0.000    0.000    0.000    0.000    0.000    0.000 
#    0.000    6.000    0.000    0.000    0.000    0.000 
#
# Total GULP energy -89136.725844 kJ/mol
# GULP energy per Si atom -5571.045365 kJ/mol
# Density = 1.683472 g / cm^3
# Si number density = 16.873119 Si / 1000 Ang^3
#
#
#
# Elastic Constant Matrix: (Units=GPa)
#
#
# Indices 1 2 3 4 5 6 
#
# 1 35.0497 5.4089 15.2200 -0.8653 12.1883 4.7448
# 2 5.4089 68.5068 -1.4782 1.8619 -0.5619 0.2743
# 3 15.2200 -1.4782 50.9934 8.4146 9.9235 1.7835
# 4 -0.8653 1.8619 8.4146 17.6051 1.8526 1.1958
# 5 12.1883 -0.5619 9.9235 1.8526 15.8695 -3.0789
# 6 4.7448 0.2743 1.7835 1.1958 -3.0789 25.0067
#
#
#
# Elastic Compliance Matrix: (Units=1/GPa)
#
#
# Indices 1 2 3 4 5 6 
#
# 1 0.047247 -0.004471 -0.008923 0.011609 -0.034765 -0.013115
# 2 -0.004471 0.015089 0.001529 -0.003002 0.003588 0.001159
# 3 -0.008923 0.001529 0.025887 -0.012094 -0.007980 -0.000574
# 4 0.011609 -0.003002 -0.012094 0.064922 -0.010136 -0.005660
# 5 -0.034765 0.003588 -0.007980 -0.010136 0.099877 0.019908
# 6 -0.013115 0.001159 -0.000574 -0.005660 0.019908 0.045228
#
#
# Mechanical properties :
#
#
# Convention : Reuss Voigt Hill
#
# Bulk Modulus (GPa) = 15.50572 21.42793 18.46683
# Shear Modulus (GPa) = 14.55699 20.72287 17.63993
#
# Velocity S-wave (km/s) = 2.94042 3.50831 3.23684
# Velocity P-wave (km/s) = 4.55386 5.39796 4.99378
#
# Compressibility (1/GPa) = 0.06449233
#
# Stress axis : x y z
#
# Youngs Moduli (GPa) = 21.16541 66.27132 38.63007
#
# Poissons Ratio (x) = 0.29630 0.34469
# Poissons Ratio (y) = 0.09463 -0.05905
# Poissons Ratio (z) = 0.18886 -0.10130
#
# Static dielectric constant tensor:
#      x y z
#    x 1.596710 -0.012730 0.012880 
#    y -0.012730 1.615420 -0.004520 
#    z 0.012880 -0.004520 1.558210 
# 
# From -- ./inp_files/563859.got.cif
#   From: 2010.05.17/outbox.cif.g08.bks.cpg/sg2_282_cif.got.tgz:563859.got - 2010.06.03 11:33:40.
