data_PCOD9082242
_publ_section_title
;
Structure prediction by ZEFSAII (Michael W. Deem and Ramdas Pophale) SiO2 
 PCOD9082242
Probable space group: P -1
;
_chemical_formula_sum "Si O2"
_cell_formula_units_Z 16
_cell_length_a 14.464769
_cell_length_b 17.593677
_cell_length_c 12.837542
_cell_angle_alpha 158.275428
_cell_angle_beta 136.204983
_cell_angle_gamma 53.151942
_cell_volume 804.257290
_symmetry_space_group_name_H-M "P -1"
_symmetry_group_IT_number 2
_symmetry_cell_setting 'triclinic'
loop_
_space_group_symop_operation_xyz
x,y,z
-x,-y,-z
loop_
_atom_site_type_symbol
_atom_site_label
_atom_site_fract_x
_atom_site_fract_y
_atom_site_fract_z
Si Si1 0.178465 0.755523 0.935445
Si Si2 0.649349 0.134030 0.338717
Si Si3 0.491071 0.522540 0.296129
Si Si4 0.739672 0.948799 0.989286
Si Si5 0.321267 0.856597 0.386527
Si Si6 0.612038 0.165350 0.984475
Si Si7 0.635931 0.594519 0.161365
Si Si8 0.881409 0.745340 0.693114
O O1 0.152468 0.501716 0.612221
O O2 0.034335 0.796912 0.835724
O O3 0.220019 0.872072 0.229312
O O4 0.297380 0.808594 0.013057
O O5 0.625626 0.371094 0.619703
O O6 0.677565 0.071339 0.400255
O O7 0.500000 0.000000 0.000000
O O8 0.756524 0.068918 0.265999
O O9 0.613619 0.725860 0.611902
O O10 0.562792 0.377814 0.238349
O O11 0.421531 0.362796 0.942250
O O12 0.867146 0.883943 0.958488
O O13 0.693439 0.105198 0.070916
O O14 0.474638 0.969731 0.613518
O O15 0.302704 0.605248 0.063144
O O16 0.757732 0.759483 0.532017
O O17 0.500000 0.500000 0.000000
#
# Coordination Sequence:
#
# PCOD9082242 Si02
#       8
#     2   2   2   2   2   2   2   2
#     4  10  22  35  55  85 112 150 189 221 282 334
#     4   9  18  36  55  80 115 146 181 230 278 325
#     4  10  19  33  53  83 111 144 179 224 281 324
#     4  11  20  37  55  82 117 145 185 229 274 331
#     4  10  19  34  54  83 114 141 186 232 272 330
#     4  12  20  33  58  88 113 143 181 234 281 328
#     4  10  15  31  55  76 108 146 175 223 282 321
#     4  10  20  37  55  78 117 151 184 226 273 340
#
# _framework density 19.894133
#
# number of rings (size 3 to 8) (size 9 to 14) (size 15 to 20)
#    0.000    1.750    6.250    1.125    0.000    2.000 
#    0.000    0.625    0.000    0.000    0.000   14.875 
#    0.000    0.000    0.000    0.000    0.000    0.000 
#
# Total GULP energy -89134.979373 kJ/mol
# GULP energy per Si atom -5570.936211 kJ/mol
# Density = 1.984885 g / cm^3
# Si number density = 19.894133 Si / 1000 Ang^3
#
#
#
# Elastic Constant Matrix: (Units=GPa)
#
#
# Indices 1 2 3 4 5 6 
#
# 1 96.6890 23.5332 41.0938 -4.7922 -19.7149 -8.2669
# 2 23.5332 68.4856 28.0926 3.1926 0.0635 0.9133
# 3 41.0938 28.0926 41.7228 0.2450 -11.7621 4.3781
# 4 -4.7922 3.1926 0.2450 29.8772 2.4970 -0.7637
# 5 -19.7149 0.0635 -11.7621 2.4970 25.5135 -0.7302
# 6 -8.2669 0.9133 4.3781 -0.7637 -0.7302 28.1209
#
#
#
# Elastic Compliance Matrix: (Units=1/GPa)
#
#
# Indices 1 2 3 4 5 6 
#
# 1 0.021310 0.000871 -0.020667 0.003166 0.006905 0.009719
# 2 0.000871 0.021596 -0.017678 -0.001357 -0.007338 0.002080
# 3 -0.020667 -0.017678 0.061241 -0.003327 0.012209 -0.014809
# 4 0.003166 -0.001357 -0.003327 0.034410 -0.002384 0.002365
# 5 0.006905 -0.007338 0.012209 -0.002384 0.050457 0.001613
# 6 0.009719 0.002080 -0.014809 0.002365 0.001613 0.040762
#
#
# Mechanical properties :
#
#
# Convention : Reuss Voigt Hill
#
# Bulk Modulus (GPa) = 34.24694 43.59296 38.91995
# Shear Modulus (GPa) = 15.90043 24.31420 20.10731
#
# Velocity S-wave (km/s) = 2.83017 3.49976 3.18262
# Velocity P-wave (km/s) = 5.28505 6.18798 5.75426
#
# Compressibility (1/GPa) = 0.02919969
#
# Stress axis : x y z
#
# Youngs Moduli (GPa) = 46.92651 46.30502 16.32880
#
# Poissons Ratio (x) = -0.04035 0.33747
# Poissons Ratio (y) = -0.04089 0.28866
# Poissons Ratio (z) = 0.96984 0.81858
#
# Static dielectric constant tensor:
#      x y z
#    x 1.738910 0.009000 -0.033440 
#    y 0.009000 1.748200 0.007160 
#    z -0.033440 0.007160 1.742530 
# 
# From -- ./inp_files/535296.got.cif
#   From: 2010.05.17/outbox.cif.g08.bks.cpg/sg2_268_cif.got.tgz:535296.got - 2010.06.03 11:33:40.
