data_PCOD9082259
_publ_section_title
;
Structure prediction by ZEFSAII (Michael W. Deem and Ramdas Pophale) SiO2 
 PCOD9082259
Probable space group: P -1
;
_chemical_formula_sum "Si O2"
_cell_formula_units_Z 16
_cell_length_a 19.936157
_cell_length_b 8.952364
_cell_length_c 12.002526
_cell_angle_alpha 101.917360
_cell_angle_beta 44.538581
_cell_angle_gamma 137.890330
_cell_volume 733.772210
_symmetry_space_group_name_H-M "P -1"
_symmetry_group_IT_number 2
_symmetry_cell_setting 'triclinic'
loop_
_space_group_symop_operation_xyz
x,y,z
-x,-y,-z
loop_
_atom_site_type_symbol
_atom_site_label
_atom_site_fract_x
_atom_site_fract_y
_atom_site_fract_z
Si Si1 0.295006 0.214836 0.756941
Si Si2 0.199826 0.054470 0.470608
Si Si3 0.102684 0.611377 0.616886
Si Si4 0.089754 0.101469 0.152275
Si Si5 0.941596 0.554233 0.992759
Si Si6 0.189951 0.025999 0.219476
Si Si7 0.730570 0.380764 0.407829
Si Si8 0.455218 0.260336 0.771676
O O1 0.500000 0.500000 0.500000
O O2 0.312845 0.116225 0.820606
O O3 0.120882 0.921062 0.839306
O O4 0.235166 0.284986 0.905169
O O5 0.199062 0.875027 0.470426
O O6 0.003271 0.864296 0.711504
O O7 0.221669 0.112075 0.321989
O O8 0.371016 0.377420 0.379878
O O9 0.941030 0.475626 0.861312
O O10 0.243328 0.727879 0.558571
O O11 0.003664 0.341115 0.621846
O O12 0.176690 0.152045 0.170997
O O13 0.914678 0.743853 0.273537
O O14 0.000000 0.500000 0.000000
O O15 0.761486 0.380803 0.241769
O O16 0.354993 0.147447 0.991110
O O17 0.546654 0.224661 0.631834
#
# Coordination Sequence:
#
# PCOD9082259 Si02
#       8
#     2   2   2   2   2   2   2   2
#     4  10  19  33  53  81 108 128 162 220 262 294
#     4  11  20  34  56  79 101 135 176 218 255 293
#     4  10  20  35  53  77 104 134 176 215 249 303
#     4   8  18  34  54  76 102 137 175 203 251 320
#     4   9  17  34  54  71 101 143 168 196 253 316
#     4  10  20  37  54  74 104 139 174 214 254 300
#     4   8  17  34  54  74 104 140 169 201 255 320
#     4  10  20  35  54  78 104 136 173 209 257 314
#
# _framework density 21.805130999999999
#
# number of rings (size 3 to 8) (size 9 to 14) (size 15 to 20)
#    0.000    2.500    0.000    4.125    0.000    1.000 
#    0.000   15.000    0.000    0.000    0.000    0.000 
#    0.000    0.000    0.000    0.000    0.000    0.000 
#
# Total GULP energy -89351.672477 kJ/mol
# GULP energy per Si atom -5584.479530 kJ/mol
# Density = 2.175550 g / cm^3
# Si number density = 21.805131 Si / 1000 Ang^3
#
#
#
# Elastic Constant Matrix: (Units=GPa)
#
#
# Indices 1 2 3 4 5 6 
#
# 1 49.2700 22.0502 11.2608 6.5515 -1.7184 -1.1181
# 2 22.0502 57.6216 6.7097 -1.9562 -0.5386 5.2144
# 3 11.2608 6.7097 98.7053 15.9551 -15.4624 -2.1428
# 4 6.5515 -1.9562 15.9551 27.1863 -7.6754 3.0453
# 5 -1.7184 -0.5386 -15.4624 -7.6754 30.0199 3.7584
# 6 -1.1181 5.2144 -2.1428 3.0453 3.7584 29.1871
#
#
#
# Elastic Compliance Matrix: (Units=1/GPa)
#
#
# Indices 1 2 3 4 5 6 
#
# 1 0.026282 -0.010507 -0.001297 -0.007221 -0.001669 0.003757
# 2 -0.010507 0.022190 -0.001146 0.005763 0.001334 -0.005224
# 3 -0.001297 -0.001146 0.012000 -0.005657 0.004509 0.001046
# 4 -0.007221 0.005763 -0.005657 0.045790 0.009450 -0.007716
# 5 -0.001669 0.001334 0.004509 0.009450 0.038722 -0.005943
# 6 0.003757 -0.005224 0.001046 -0.007716 -0.005943 0.036986
#
#
# Mechanical properties :
#
#
# Convention : Reuss Voigt Hill
#
# Bulk Modulus (GPa) = 28.92425 31.73757 30.33091
# Shear Modulus (GPa) = 22.78998 28.31707 25.55352
#
# Velocity S-wave (km/s) = 3.23641 3.60758 3.42702
# Velocity P-wave (km/s) = 5.22106 5.65151 5.44054
#
# Compressibility (1/GPa) = 0.03457307
#
# Stress axis : x y z
#
# Youngs Moduli (GPa) = 38.04846 45.06596 83.33021
#
# Poissons Ratio (x) = 0.47352 0.10807
# Poissons Ratio (y) = 0.39978 0.09547
# Poissons Ratio (z) = 0.04934 0.05163
#
# Static dielectric constant tensor:
#      x y z
#    x 1.786750 -0.017400 -0.005270 
#    y -0.017400 1.820640 -0.014800 
#    z -0.005270 -0.014800 1.846110 
# 
# From -- ./inp_files/203574.got.cif
#   From: 2010.05.17/outbox.cif.g08.bks.cpg/sg2_102_cif.got.tgz:203574.got - 2010.06.03 11:33:40.
