data_PCOD9082640
_publ_section_title
;
Structure prediction by ZEFSAII (Michael W. Deem and Ramdas Pophale) SiO2 
 PCOD9082640
Probable space group: P -1
;
_chemical_formula_sum "Si O2"
_cell_formula_units_Z 14
_cell_length_a 14.216199
_cell_length_b 5.691476
_cell_length_c 19.668685
_cell_angle_alpha 127.707641
_cell_angle_beta 153.908999
_cell_angle_gamma 47.033327
_cell_volume 512.152732
_symmetry_space_group_name_H-M "P -1"
_symmetry_group_IT_number 2
_symmetry_cell_setting 'triclinic'
loop_
_space_group_symop_operation_xyz
x,y,z
-x,-y,-z
loop_
_atom_site_type_symbol
_atom_site_label
_atom_site_fract_x
_atom_site_fract_y
_atom_site_fract_z
Si Si1 0.328284 0.508889 0.591137
Si Si2 0.687076 0.773192 0.174216
Si Si3 0.226732 0.642848 0.338556
Si Si4 0.272339 0.043578 0.559906
Si Si5 0.128327 0.225704 0.298521
Si Si6 0.560447 0.409121 0.134225
Si Si7 0.731270 0.146973 0.868183
O O1 0.225324 0.868349 0.562986
O O2 0.323211 0.281211 0.483530
O O3 0.592821 0.404693 0.766590
O O4 0.204810 0.407525 0.556066
O O5 0.663296 0.657812 0.214090
O O6 0.903468 0.489871 0.232874
O O7 0.684441 0.122357 0.216859
O O8 0.475098 0.766338 0.988242
O O9 0.500000 0.500000 0.500000
O O10 0.158355 0.902093 0.401570
O O11 0.149982 0.357176 0.261393
O O12 0.142014 0.866470 0.257086
O O13 0.557261 0.946183 0.723128
O O14 0.331006 0.646113 0.065817
O O15 0.000000 0.000000 0.000000
#
# Coordination Sequence:
#
# PCOD9082640 Si02
#       7
#     2   2   2   2   2   2   2
#     4   8  18  35  55  80 117 146 184 240 282 355
#     4  10  22  43  62  86 118 157 212 239 294 346
#     4  10  19  33  56  87 119 156 189 246 295 344
#     4   8  18  34  51  77 120 144 180 237 280 347
#     4  10  19  37  61  80 119 154 192 246 294 351
#     4  10  23  41  62  87 119 156 199 261 280 350
#     4  10  22  39  62  87 121 157 195 239 313 356
#
# _framework density 27.335595000000001
#
# number of rings (size 3 to 8) (size 9 to 14) (size 15 to 20)
#    0.857    1.714    0.000    1.286    2.000    1.714 
#    5.143    1.429    0.000    0.000    0.000    0.000 
#    0.000    0.000    0.000    0.000    0.000    0.000 
#
# Total GULP energy -78084.405345 kJ/mol
# GULP energy per Si atom -5577.457525 kJ/mol
# Density = 2.727338 g / cm^3
# Si number density = 27.335595 Si / 1000 Ang^3
#
#
#
# Elastic Constant Matrix: (Units=GPa)
#
#
# Indices 1 2 3 4 5 6 
#
# 1 175.3573 96.7308 28.0236 -28.1974 11.4738 62.1216
# 2 96.7308 168.1486 28.1904 -21.5863 -16.6349 70.9721
# 3 28.0236 28.1904 88.4523 -0.1276 3.9217 1.0902
# 4 -28.1974 -21.5863 -0.1276 42.1087 -19.8267 -12.4106
# 5 11.4738 -16.6349 3.9217 -19.8267 32.0985 -9.4287
# 6 62.1216 70.9721 1.0902 -12.4106 -9.4287 77.8590
#
#
#
# Elastic Compliance Matrix: (Units=1/GPa)
#
#
# Indices 1 2 3 4 5 6 
#
# 1 0.010838 -0.004422 -0.001609 -0.000351 -0.007831 -0.005598
# 2 -0.004422 0.014112 -0.003561 0.008266 0.012541 -0.006449
# 3 -0.001609 -0.003561 0.013101 -0.004006 -0.004413 0.003173
# 4 -0.000351 0.008266 -0.004006 0.044832 0.033777 0.004038
# 5 -0.007831 0.012541 -0.004413 0.033777 0.064216 0.008039
# 6 -0.005598 -0.006449 0.003173 0.004038 0.008039 0.024762
#
#
# Mechanical properties :
#
#
# Convention : Reuss Voigt Hill
#
# Bulk Modulus (GPa) = 53.00189 81.98311 67.49250
# Shear Modulus (GPa) = 25.33766 49.01413 37.17590
#
# Velocity S-wave (km/s) = 3.04782 4.23904 3.69179
# Velocity P-wave (km/s) = 5.64066 7.34954 6.55106
#
# Compressibility (1/GPa) = 0.01886725
#
# Stress axis : x y z
#
# Youngs Moduli (GPa) = 92.26664 70.86175 76.33007
#
# Poissons Ratio (x) = 0.31335 0.12280
# Poissons Ratio (y) = 0.40800 0.27183
# Poissons Ratio (z) = 0.14844 0.25236
#
# Static dielectric constant tensor:
#      x y z
#    x 2.182380 -0.016100 -0.021750 
#    y -0.016100 2.157170 0.034670 
#    z -0.021750 0.034670 2.222690 
# 
# From -- ./inp_files/117798.got.cif
#   From: 2010.05.17/outbox.cif.g08.bks.cpg/sg2_59_cif.got.tgz:117798.got - 2010.06.03 11:33:40.
