data_PCOD9082748
_publ_section_title
;
Structure prediction by ZEFSAII (Michael W. Deem and Ramdas Pophale) SiO2 
 PCOD9082748
Probable space group: P -1
;
_chemical_formula_sum "Si O2"
_cell_formula_units_Z 16
_cell_length_a 10.871665
_cell_length_b 14.883775
_cell_length_c 9.624979
_cell_angle_alpha 81.795542
_cell_angle_beta 128.477237
_cell_angle_gamma 59.181799
_cell_volume 761.472504
_symmetry_space_group_name_H-M "P -1"
_symmetry_group_IT_number 2
_symmetry_cell_setting 'triclinic'
loop_
_space_group_symop_operation_xyz
x,y,z
-x,-y,-z
loop_
_atom_site_type_symbol
_atom_site_label
_atom_site_fract_x
_atom_site_fract_y
_atom_site_fract_z
Si Si1 0.660004 0.716458 0.340093
Si Si2 0.812613 0.284537 0.757689
Si Si3 0.776851 0.028385 0.815403
Si Si4 0.651199 0.222880 0.142963
Si Si5 0.733990 0.881825 0.291991
Si Si6 0.788735 0.006761 0.508879
Si Si7 0.675818 0.520669 0.470584
Si Si8 0.268306 0.674206 0.610736
O O1 0.794150 0.749473 0.388862
O O2 0.789971 0.568941 0.527438
O O3 0.445849 0.845265 0.267721
O O4 0.540229 0.729244 0.113298
O O5 0.800266 0.398547 0.699494
O O6 0.614372 0.343216 0.720241
O O7 0.704897 0.296299 0.531664
O O8 0.086911 0.126404 0.013323
O O9 0.709337 0.056249 0.600067
O O10 0.000000 0.000000 0.000000
O O11 0.587736 0.340589 0.162581
O O12 0.910166 0.124382 0.264446
O O13 0.696321 0.125948 0.312847
O O14 0.696776 0.952666 0.392991
O O15 0.976641 0.817491 0.407508
O O16 0.500000 0.000000 0.000000
O O17 0.683297 0.453738 0.354184
#
# Coordination Sequence:
#
# PCOD9082748 Si02
#       8
#     2   2   2   2   2   2   2   2
#     4  12  23  36  60  90 119 155 195 235 291 354
#     4   9  18  36  57  88 116 149 190 245 293 334
#     4  12  20  34  63  89 114 148 196 245 291 330
#     4  10  19  33  57  87 114 147 196 245 287 337
#     4  11  22  39  56  85 123 156 189 239 293 351
#     4  10  21  34  57  88 118 149 191 243 293 341
#     4   9  20  35  58  87 116 155 194 237 293 347
#     4   9  20  36  59  79 117 155 192 237 295 336
#
# _framework density 21.011921000000001
#
# number of rings (size 3 to 8) (size 9 to 14) (size 15 to 20)
#    0.750    1.000    3.750    1.500    1.750    1.500 
#    0.000    0.000    0.000    0.750    0.000    0.000 
#    0.000    0.000    0.000    0.000    0.000    0.000 
#
# Total GULP energy -89241.637007 kJ/mol
# GULP energy per Si atom -5577.602313 kJ/mol
# Density = 2.096410 g / cm^3
# Si number density = 21.011921 Si / 1000 Ang^3
#
#
#
# Elastic Constant Matrix: (Units=GPa)
#
#
# Indices 1 2 3 4 5 6 
#
# 1 40.4027 26.6741 20.6168 10.0663 -11.7728 8.3820
# 2 26.6741 105.3521 20.7678 13.0302 -7.8523 4.0697
# 3 20.6168 20.7678 57.6302 18.0438 -15.1666 -3.3864
# 4 10.0663 13.0302 18.0438 34.5665 5.6372 -13.4608
# 5 -11.7728 -7.8523 -15.1666 5.6372 21.9437 3.7499
# 6 8.3820 4.0697 -3.3864 -13.4608 3.7499 47.3706
#
#
#
# Elastic Compliance Matrix: (Units=1/GPa)
#
#
# Indices 1 2 3 4 5 6 
#
# 1 0.047599 -0.006071 0.000051 -0.023562 0.032384 -0.017156
# 2 -0.006071 0.011654 -0.000991 -0.002594 0.001034 -0.000817
# 3 0.000051 -0.000991 0.032646 -0.024158 0.029604 -0.006798
# 4 -0.023562 -0.002594 -0.024158 0.068077 -0.052222 0.026144
# 5 0.032384 0.001034 0.029604 -0.052222 0.101737 -0.026596
# 6 -0.017156 -0.000817 -0.006798 0.026144 -0.026596 0.033264
#
#
# Mechanical properties :
#
#
# Convention : Reuss Voigt Hill
#
# Bulk Modulus (GPa) = 12.84083 37.72250 25.28167
# Shear Modulus (GPa) = 14.92723 29.79791 22.36257
#
# Velocity S-wave (km/s) = 2.66826 3.76991 3.26587
# Velocity P-wave (km/s) = 3.95187 6.07795 5.12634
#
# Compressibility (1/GPa) = 0.07787659
#
# Stress axis : x y z
#
# Youngs Moduli (GPa) = 21.00897 85.80714 30.63150
#
# Poissons Ratio (x) = 0.52093 -0.00157
# Poissons Ratio (y) = 0.12755 0.03037
# Poissons Ratio (z) = -0.00108 0.08507
#
# Static dielectric constant tensor:
#      x y z
#    x 1.776130 0.032510 -0.028950 
#    y 0.032510 1.829950 -0.022970 
#    z -0.028950 -0.022970 1.739530 
# 
# From -- ./inp_files/267951.got.cif
#   From: 2010.05.17/outbox.cif.g08.bks.cpg/sg2_134_cif.got.tgz:267951.got - 2010.06.03 11:33:40.
