data_PCOD9082770
_publ_section_title
;
Structure prediction by ZEFSAII (Michael W. Deem and Ramdas Pophale) SiO2 
 PCOD9082770
Probable space group: P -1
;
_chemical_formula_sum "Si O2"
_cell_formula_units_Z 16
_cell_length_a 12.135157
_cell_length_b 17.779110
_cell_length_c 22.170338
_cell_angle_alpha 16.354466
_cell_angle_beta 144.403785
_cell_angle_gamma 150.975847
_cell_volume 641.628749
_symmetry_space_group_name_H-M "P -1"
_symmetry_group_IT_number 2
_symmetry_cell_setting 'triclinic'
loop_
_space_group_symop_operation_xyz
x,y,z
-x,-y,-z
loop_
_atom_site_type_symbol
_atom_site_label
_atom_site_fract_x
_atom_site_fract_y
_atom_site_fract_z
Si Si1 0.756044 0.247057 0.447492
Si Si2 0.187791 0.945587 0.896634
Si Si3 0.136206 0.326433 0.479017
Si Si4 0.589898 0.371799 0.829351
Si Si5 0.064216 0.829220 0.735419
Si Si6 0.775561 0.763649 0.918185
Si Si7 0.548150 0.038484 0.801131
Si Si8 0.955543 0.248929 0.726562
O O1 0.925672 0.345212 0.390719
O O2 0.823132 0.557171 0.279636
O O3 0.500000 0.000000 0.500000
O O4 0.801847 0.040310 0.672967
O O5 0.951342 0.692201 0.022067
O O6 0.121567 0.068972 0.716084
O O7 0.359772 0.253533 0.780046
O O8 0.315170 0.801678 0.033871
O O9 0.366129 0.670687 0.335421
O O10 0.123143 0.159372 0.539901
O O11 0.833437 0.713120 0.685306
O O12 0.504804 0.242393 0.959398
O O13 0.315053 0.937192 0.741153
O O14 0.000000 0.500000 0.000000
O O15 0.877426 0.925640 0.903942
O O16 0.500000 0.500000 0.000000
O O17 0.747035 0.158190 0.748639
O O18 0.000000 0.500000 0.500000
#
# Coordination Sequence:
#
# PCOD9082770 Si02
#       8
#     2   2   2   2   2   2   2   2
#     4   9  20  38  59  82 114 153 192 241 291 342
#     4  10  21  39  57  82 126 152 191 239 301 344
#     4  10  19  36  60  83 114 153 192 237 290 350
#     4  10  22  37  59  86 120 157 186 245 297 341
#     4  10  19  33  57  89 116 149 193 239 291 344
#     4  10  22  36  61  84 114 157 201 239 289 351
#     4  10  20  35  64  84 114 150 202 234 292 351
#     4   9  20  39  57  84 116 157 189 242 298 341
#
# _framework density 24.936537999999999
#
# number of rings (size 3 to 8) (size 9 to 14) (size 15 to 20)
#    0.000    2.250    2.500    1.125    1.750    4.000 
#    0.000    1.875    0.000    0.000    0.000    0.000 
#    0.000    0.000    0.000    0.000    0.000    0.000 
#
# Total GULP energy -89243.133011 kJ/mol
# GULP energy per Si atom -5577.695813 kJ/mol
# Density = 2.487978 g / cm^3
# Si number density = 24.936538 Si / 1000 Ang^3
#
#
#
# Elastic Constant Matrix: (Units=GPa)
#
#
# Indices 1 2 3 4 5 6 
#
# 1 124.3559 45.2424 32.3890 -5.8845 -12.3940 12.1951
# 2 45.2424 112.5430 -2.9612 -24.7141 0.8327 1.5394
# 3 32.3890 -2.9612 51.0456 -4.2143 -9.4187 0.5690
# 4 -5.8845 -24.7141 -4.2143 36.4983 -1.3453 -11.7889
# 5 -12.3940 0.8327 -9.4187 -1.3453 33.9893 -0.7305
# 6 12.1951 1.5394 0.5690 -11.7889 -0.7305 37.4944
#
#
#
# Elastic Compliance Matrix: (Units=1/GPa)
#
#
# Indices 1 2 3 4 5 6 
#
# 1 0.013228 -0.006588 -0.008712 -0.005005 0.002256 -0.005429
# 2 -0.006588 0.013942 0.005688 0.010559 -0.000647 0.004791
# 3 -0.008712 0.005688 0.026820 0.007175 0.004497 0.004537
# 4 -0.005005 0.010559 0.007175 0.038951 0.001734 0.013366
# 5 0.002256 -0.000647 0.004497 0.001734 0.031583 0.000385
# 6 -0.005429 0.004791 0.004537 0.013366 0.000385 0.032381
#
#
# Mechanical properties :
#
#
# Convention : Reuss Voigt Hill
#
# Bulk Modulus (GPa) = 28.76464 48.58722 38.67593
# Shear Modulus (GPa) = 26.63600 35.81470 31.22535
#
# Velocity S-wave (km/s) = 3.27180 3.79388 3.54247
# Velocity P-wave (km/s) = 5.08263 6.22238 5.68116
#
# Compressibility (1/GPa) = 0.03476491
#
# Stress axis : x y z
#
# Youngs Moduli (GPa) = 75.59816 71.72798 37.28606
#
# Poissons Ratio (x) = 0.47257 0.32483
# Poissons Ratio (y) = 0.49806 -0.21209
# Poissons Ratio (z) = 0.65860 -0.40799
#
# Static dielectric constant tensor:
#      x y z
#    x 1.990450 0.017450 0.029160 
#    y 0.017450 2.041590 0.038830 
#    z 0.029160 0.038830 1.963490 
# 
# From -- ./inp_files/610763.got.cif
#   From: 2010.05.17/outbox.cif.g08.bks.cpg/sg2_306_cif.got.tgz:610763.got - 2010.06.03 11:33:40.
