data_PCOD9082568
_publ_section_title
;
Structure prediction by ZEFSAII (Michael W. Deem and Ramdas Pophale) SiO2 
 PCOD9082568
Probable space group: P -1
;
_chemical_formula_sum "Si O2"
_cell_formula_units_Z 16
_cell_length_a 18.737007
_cell_length_b 8.178352
_cell_length_c 19.113848
_cell_angle_alpha 145.811468
_cell_angle_beta 29.241131
_cell_angle_gamma 136.180062
_cell_volume 803.968494
_symmetry_space_group_name_H-M "P -1"
_symmetry_group_IT_number 2
_symmetry_cell_setting 'triclinic'
loop_
_space_group_symop_operation_xyz
x,y,z
-x,-y,-z
loop_
_atom_site_type_symbol
_atom_site_label
_atom_site_fract_x
_atom_site_fract_y
_atom_site_fract_z
Si Si1 0.484829 0.389970 0.706670
Si Si2 0.256318 0.415628 0.706368
Si Si3 0.111553 0.180130 0.338248
Si Si4 0.835729 0.143820 0.484802
Si Si5 0.552759 0.174869 0.825706
Si Si6 0.276547 0.815744 0.953494
Si Si7 0.576836 0.215694 0.413661
Si Si8 0.358507 0.095657 0.198960
O O1 0.355532 0.602887 0.866585
O O2 0.566588 0.285761 0.529510
O O3 0.609547 0.562009 0.701388
O O4 0.416105 0.131503 0.718338
O O5 0.200419 0.618473 0.889714
O O6 0.416844 0.306210 0.554767
O O7 0.296591 0.612219 0.673861
O O8 0.162231 0.132085 0.666585
O O9 0.120194 0.531094 0.462152
O O10 0.207463 0.045475 0.270820
O O11 0.944890 0.087618 0.436960
O O12 0.186968 0.057714 0.158720
O O13 0.671716 0.161672 0.659414
O O14 0.412938 0.978286 0.857944
O O15 0.623499 0.046927 0.791038
O O16 0.500000 0.500000 0.000000
O O17 0.500000 0.000000 0.000000
#
# Coordination Sequence:
#
# PCOD9082568 Si02
#       8
#     2   2   2   2   2   2   2   2
#     4   9  17  30  53  82 112 141 183 242 283 331
#     4  10  19  33  56  82 112 150 187 237 285 332
#     4  11  23  40  56  85 119 156 195 231 293 347
#     4  11  23  39  59  82 120 156 191 242 286 343
#     4  11  20  36  61  91 114 144 193 244 284 338
#     4  10  20  37  57  86 115 143 196 237 278 345
#     4   9  17  31  53  83 113 140 187 237 284 336
#     4  11  19  33  58  84 111 149 187 236 283 340
#
# _framework density 19.901277
#
# number of rings (size 3 to 8) (size 9 to 14) (size 15 to 20)
#    0.000    1.750    3.750    3.750    0.000    2.000 
#    0.000    0.000    0.000    0.750    0.000    0.000 
#    0.000    0.000    0.000    0.000    0.000    0.000 
#
# Total GULP energy -89225.901900 kJ/mol
# GULP energy per Si atom -5576.618869 kJ/mol
# Density = 1.985598 g / cm^3
# Si number density = 19.901277 Si / 1000 Ang^3
#
#
#
# Elastic Constant Matrix: (Units=GPa)
#
#
# Indices 1 2 3 4 5 6 
#
# 1 64.7676 19.2032 15.6077 15.0151 11.7972 21.5395
# 2 19.2032 75.3407 28.5325 27.3392 8.8185 14.7848
# 3 15.6077 28.5325 49.3294 15.8770 2.5135 13.3194
# 4 15.0151 27.3392 15.8770 29.5555 4.4097 5.4082
# 5 11.7972 8.8185 2.5135 4.4097 24.2800 6.6176
# 6 21.5395 14.7848 13.3194 5.4082 6.6176 32.4650
#
#
#
# Elastic Compliance Matrix: (Units=1/GPa)
#
#
# Indices 1 2 3 4 5 6 
#
# 1 0.022670 0.000962 -0.001379 -0.008484 -0.006354 -0.012204
# 2 0.000962 0.023044 -0.006760 -0.016730 -0.003790 -0.004800
# 3 -0.001379 -0.006760 0.028907 -0.007768 0.003531 -0.007292
# 4 -0.008484 -0.016730 -0.007768 0.056654 -0.001264 0.007255
# 5 -0.006354 -0.003790 0.003531 -0.001264 0.046834 -0.004843
# 6 -0.012204 -0.004800 -0.007292 0.007255 -0.004843 0.043856
#
#
# Mechanical properties :
#
#
# Convention : Reuss Voigt Hill
#
# Bulk Modulus (GPa) = 16.59269 35.12493 25.85881
# Shear Modulus (GPa) = 19.50008 25.66639 22.58323
#
# Velocity S-wave (km/s) = 3.13364 3.59511 3.37228
# Velocity P-wave (km/s) = 4.63125 5.90940 5.30893
#
# Compressibility (1/GPa) = 0.06026751
#
# Stress axis : x y z
#
# Youngs Moduli (GPa) = 44.11082 43.39481 34.59342
#
# Poissons Ratio (x) = -0.04172 0.04771
# Poissons Ratio (y) = -0.04241 0.23383
# Poissons Ratio (z) = 0.06083 0.29333
#
# Static dielectric constant tensor:
#      x y z
#    x 1.733040 0.014260 0.020590 
#    y 0.014260 1.715100 0.052980 
#    z 0.020590 0.052980 1.758700 
# 
# From -- ./inp_files/279413.got.cif
#   From: 2010.05.17/outbox.cif.g08.bks.cpg/sg2_140_cif.got.tgz:279413.got - 2010.06.03 11:33:40.
