data_PCOD9082308
_publ_section_title
;
Structure prediction by ZEFSAII (Michael W. Deem and Ramdas Pophale) SiO2 
 PCOD9082308
Probable space group: P -1
;
_chemical_formula_sum "Si O2"
_cell_formula_units_Z 16
_cell_length_a 5.230783
_cell_length_b 30.631420
_cell_length_c 9.550282
_cell_angle_alpha 149.931736
_cell_angle_beta 57.882346
_cell_angle_gamma 120.741149
_cell_volume 644.631916
_symmetry_space_group_name_H-M "P -1"
_symmetry_group_IT_number 2
_symmetry_cell_setting 'triclinic'
loop_
_space_group_symop_operation_xyz
x,y,z
-x,-y,-z
loop_
_atom_site_type_symbol
_atom_site_label
_atom_site_fract_x
_atom_site_fract_y
_atom_site_fract_z
Si Si1 0.018090 0.018267 0.787993
Si Si2 0.560920 0.163699 0.710689
Si Si3 0.355521 0.957565 0.260357
Si Si4 0.708397 0.387001 0.038039
Si Si5 0.135789 0.406705 0.452825
Si Si6 0.548219 0.678542 0.638832
Si Si7 0.688328 0.699292 0.330373
Si Si8 0.244415 0.149296 0.473888
O O1 0.325819 0.075181 0.897414
O O2 0.804770 0.076349 0.928296
O O3 0.841421 0.957038 0.786487
O O4 0.138934 0.956900 0.456414
O O5 0.458017 0.061391 0.489310
O O6 0.479093 0.172430 0.595646
O O7 0.915374 0.179584 0.686171
O O8 0.406465 0.230313 0.035851
O O9 0.413734 0.377424 0.198537
O O10 0.845137 0.488755 0.277478
O O11 0.564206 0.359538 0.852611
O O12 0.976949 0.333744 0.867820
O O13 0.228969 0.381030 0.511729
O O14 0.806536 0.363715 0.375569
O O15 0.620086 0.694085 0.499198
O O16 0.674877 0.794535 0.530437
#
# Coordination Sequence:
#
# PCOD9082308 Si02
#       8
#     2   2   2   2   2   2   2   2
#     4   8  14  25  44  72 100 128 170 220 260 296
#     4  10  19  33  54  76 104 142 180 218 260 313
#     4   8  14  25  44  72 100 128 170 220 260 296
#     4  11  24  42  62  81 104 139 182 224 268 322
#     4  11  24  42  62  81 104 139 182 224 268 322
#     4  12  24  37  56  83 114 143 176 221 270 321
#     4  12  24  37  56  83 114 143 176 221 270 321
#     4  10  19  33  54  76 104 142 180 218 260 313
#
# _framework density 24.820364999999999
#
# number of rings (size 3 to 8) (size 9 to 14) (size 15 to 20)
#    0.000    1.750    0.000    6.000    0.000    5.000 
#    0.000    0.000    0.000    0.750    0.000    0.000 
#    0.000   24.000    0.000    0.000    0.000    5.000 
#
# Total GULP energy -89475.466555 kJ/mol
# GULP energy per Si atom -5592.216660 kJ/mol
# Density = 2.476387 g / cm^3
# Si number density = 24.820365 Si / 1000 Ang^3
#
#
#
# Elastic Constant Matrix: (Units=GPa)
#
#
# Indices 1 2 3 4 5 6 
#
# 1 159.3916 11.6793 15.2897 7.4314 -2.9314 -21.2578
# 2 11.6793 98.9259 28.4005 -5.4747 1.2227 -22.4026
# 3 15.2897 28.4005 68.9345 -3.4628 6.1664 -8.0883
# 4 7.4314 -5.4747 -3.4628 13.6073 -8.6826 6.8435
# 5 -2.9314 1.2227 6.1664 -8.6826 26.1334 -5.3848
# 6 -21.2578 -22.4026 -8.0883 6.8435 -5.3848 49.5505
#
#
#
# Elastic Compliance Matrix: (Units=1/GPa)
#
#
# Indices 1 2 3 4 5 6 
#
# 1 0.007197 0.000078 -0.001492 -0.006250 -0.000153 0.003726
# 2 0.000078 0.012701 -0.004755 0.003040 0.002547 0.004857
# 3 -0.001492 -0.004755 0.017122 0.001172 -0.003711 -0.000560
# 4 -0.006250 0.003040 0.001172 0.104345 0.031044 -0.012153
# 5 -0.000153 0.002547 -0.003711 0.031044 0.049646 0.001588
# 6 0.003726 0.004857 -0.000560 -0.012153 0.001588 0.025735
#
#
# Mechanical properties :
#
#
# Convention : Reuss Voigt Hill
#
# Bulk Modulus (GPa) = 40.51511 48.66566 44.59038
# Shear Modulus (GPa) = 21.06942 35.98373 28.52658
#
# Velocity S-wave (km/s) = 2.91671 3.81171 3.39384
# Velocity P-wave (km/s) = 5.26324 6.24675 5.77597
#
# Compressibility (1/GPa) = 0.02468215
#
# Stress axis : x y z
#
# Youngs Moduli (GPa) = 138.95248 78.73285 58.40548
#
# Poissons Ratio (x) = -0.00617 0.08712
# Poissons Ratio (y) = -0.01089 0.27775
# Poissons Ratio (z) = 0.20726 0.37441
#
# Static dielectric constant tensor:
#      x y z
#    x 2.063140 -0.020920 0.013180 
#    y -0.020920 2.005420 -0.039000 
#    z 0.013180 -0.039000 1.955600 
# 
# From -- ./inp_files/51868.got.cif
#   From: 2010.05.17/outbox.cif.g08.bks.cpg/sg2_26_cif.got.tgz:51868.got - 2010.06.03 11:33:40.
