data_PCOD9082913
_publ_section_title
;
Structure prediction by ZEFSAII (Michael W. Deem and Ramdas Pophale) SiO2 
 PCOD9082913
Probable space group: P -1
;
_chemical_formula_sum "Si O2"
_cell_formula_units_Z 16
_cell_length_a 27.749130
_cell_length_b 17.940991
_cell_length_c 15.894550
_cell_angle_alpha 154.689836
_cell_angle_beta 162.073117
_cell_angle_gamma 17.994709
_cell_volume 752.413022
_symmetry_space_group_name_H-M "P -1"
_symmetry_group_IT_number 2
_symmetry_cell_setting 'triclinic'
loop_
_space_group_symop_operation_xyz
x,y,z
-x,-y,-z
loop_
_atom_site_type_symbol
_atom_site_label
_atom_site_fract_x
_atom_site_fract_y
_atom_site_fract_z
Si Si1 0.335387 0.082523 0.072568
Si Si2 0.033641 0.000574 0.456621
Si Si3 0.988875 0.586712 0.813759
Si Si4 0.826863 0.678999 0.465350
Si Si5 0.201176 0.883943 0.155820
Si Si6 0.660681 0.764185 0.584076
Si Si7 0.339786 0.441027 0.347762
Si Si8 0.738804 0.149825 0.966417
O O1 0.297388 0.149837 0.176820
O O2 0.322563 0.286418 0.221683
O O3 0.575582 0.817605 0.185768
O O4 0.166242 0.077502 0.749343
O O5 0.181013 0.721176 0.391750
O O6 0.000000 0.000000 0.500000
O O7 0.833072 0.158987 0.218768
O O8 0.929149 0.538640 0.579796
O O9 0.876223 0.579218 0.698234
O O10 0.240848 0.436830 0.093221
O O11 0.866297 0.866835 0.888790
O O12 0.000000 0.500000 0.500000
O O13 0.805273 0.904256 0.654442
O O14 0.417614 0.678749 0.359319
O O15 0.212960 0.799868 0.993561
O O16 0.000000 0.000000 0.000000
O O17 0.500000 0.000000 0.500000
O O18 0.516142 0.706100 0.307239
#
# Coordination Sequence:
#
# PCOD9082913 Si02
#       8
#     2   2   2   2   2   2   2   2
#     4  11  21  40  63  90 127 162 207 255 305 374
#     4  11  24  38  63  97 130 159 204 258 315 374
#     4   9  18  34  63  88 115 164 203 242 320 375
#     4  10  21  39  60  88 119 159 212 257 309 372
#     4  10  21  42  63  81 120 171 207 257 314 363
#     4  10  15  33  66  84 116 169 199 240 314 376
#     4  10  22  42  61  92 124 160 210 256 310 366
#     4   9  18  39  58  87 124 164 203 249 313 378
#
# _framework density 21.264914999999998
#
# number of rings (size 3 to 8) (size 9 to 14) (size 15 to 20)
#    0.000    2.000    5.000    2.250    1.750    2.000 
#    4.500    3.750    0.000    0.000    0.000    0.000 
#    0.000    0.000    0.000    0.000    0.000    0.000 
#
# Total GULP energy -89151.885630 kJ/mol
# GULP energy per Si atom -5571.992852 kJ/mol
# Density = 2.121652 g / cm^3
# Si number density = 21.264915 Si / 1000 Ang^3
#
#
#
# Elastic Constant Matrix: (Units=GPa)
#
#
# Indices 1 2 3 4 5 6 
#
# 1 86.7315 19.1381 52.2292 -17.8855 0.7593 -20.8856
# 2 19.1381 66.7124 24.6316 -8.6826 -8.4623 -2.7504
# 3 52.2292 24.6316 138.4506 -16.6910 -9.1231 -11.5880
# 4 -17.8855 -8.6826 -16.6910 31.6641 1.9460 3.5434
# 5 0.7593 -8.4623 -9.1231 1.9460 26.8954 2.4443
# 6 -20.8856 -2.7504 -11.5880 3.5434 2.4443 24.3826
#
#
#
# Elastic Compliance Matrix: (Units=1/GPa)
#
#
# Indices 1 2 3 4 5 6 
#
# 1 0.020240 -0.003012 -0.005489 0.006466 -0.005118 0.013962
# 2 -0.003012 0.017246 -0.001522 0.002160 0.005037 -0.002177
# 3 -0.005489 -0.001522 0.009894 0.001593 0.002981 -0.000701
# 4 0.006466 0.002160 0.001593 0.036617 -0.001739 0.001392
# 5 -0.005118 0.005037 0.002981 -0.001739 0.040612 -0.006217
# 6 0.013962 -0.002177 -0.000701 0.001392 -0.006217 0.052815
#
#
# Mechanical properties :
#
#
# Convention : Reuss Voigt Hill
#
# Bulk Modulus (GPa) = 36.58341 53.76580 45.17461
# Shear Modulus (GPa) = 24.20374 29.64813 26.92593
#
# Velocity S-wave (km/s) = 3.37738 3.73799 3.56225
# Velocity P-wave (km/s) = 5.69649 6.63089 6.18137
#
# Compressibility (1/GPa) = 0.02733479
#
# Stress axis : x y z
#
# Youngs Moduli (GPa) = 49.40713 57.98481 101.07275
#
# Poissons Ratio (x) = 0.17464 0.55475
# Poissons Ratio (y) = 0.14881 0.15383
# Poissons Ratio (z) = 0.27118 0.08825
#
# Static dielectric constant tensor:
#      x y z
#    x 1.826470 0.002270 -0.008070 
#    y 0.002270 1.768850 -0.020770 
#    z -0.008070 -0.020770 1.845820 
# 
# From -- ./inp_files/544343.got.cif
#   From: 2010.05.17/outbox.cif.g08.bks.cpg/sg2_273_cif.got.tgz:544343.got - 2010.06.03 11:33:40.
