data_PCOD9082043
_publ_section_title
;
Structure prediction by ZEFSAII (Michael W. Deem and Ramdas Pophale) SiO2 
 PCOD9082043
Probable space group: P -1
;
_chemical_formula_sum "Si O2"
_cell_formula_units_Z 16
_cell_length_a 5.152602
_cell_length_b 18.847665
_cell_length_c 9.277751
_cell_angle_alpha 72.373004
_cell_angle_beta 73.987097
_cell_angle_gamma 72.984113
_cell_volume 803.592360
_symmetry_space_group_name_H-M "P -1"
_symmetry_group_IT_number 2
_symmetry_cell_setting 'triclinic'
loop_
_space_group_symop_operation_xyz
x,y,z
-x,-y,-z
loop_
_atom_site_type_symbol
_atom_site_label
_atom_site_fract_x
_atom_site_fract_y
_atom_site_fract_z
Si Si1 0.156153 0.156329 0.270171
Si Si2 0.690752 0.008204 0.601675
Si Si3 0.351833 0.405833 0.208452
Si Si4 0.327023 0.294884 0.032602
Si Si5 0.331895 0.333220 0.556455
Si Si6 0.156665 0.565523 0.063625
Si Si7 0.714351 0.348021 0.750976
Si Si8 0.541640 0.172927 0.470529
O O1 0.218233 0.218713 0.111983
O O2 0.303555 0.170062 0.390879
O O3 0.829252 0.168214 0.342920
O O4 0.286396 0.068086 0.260674
O O5 0.585712 0.096232 0.609529
O O6 0.500000 0.000000 0.500000
O O7 0.000000 0.000000 0.500000
O O8 0.349662 0.329082 0.167200
O O9 0.312364 0.390376 0.389627
O O10 0.127813 0.479066 0.137863
O O11 0.641670 0.424605 0.104184
O O12 0.610893 0.286262 0.905932
O O13 0.109927 0.365284 0.948381
O O14 0.514389 0.358822 0.637729
O O15 0.476770 0.249441 0.526399
O O16 0.028622 0.329066 0.660474
O O17 0.310435 0.581260 0.178545
#
# Coordination Sequence:
#
# PCOD9082043 Si02
#       8
#     2   2   2   2   2   2   2   2
#     4  10  19  32  62  88 114 149 192 239 287 344
#     4   8  16  30  50  87 121 141 176 240 297 328
#     4  10  23  37  67  87 115 145 206 248 291 341
#     4  11  21  41  61  86 119 155 197 238 296 345
#     4  12  23  41  59  90 113 162 192 243 286 350
#     4  10  22  44  58  90 114 159 188 252 293 345
#     4  11  26  41  58  82 125 157 197 233 298 345
#     4  10  19  34  57  90 119 145 189 244 288 335
#
# _framework density 19.910592000000001
#
# number of rings (size 3 to 8) (size 9 to 14) (size 15 to 20)
#    0.000    1.750    2.500    1.875    3.500    1.000 
#    0.000    0.000    0.000    1.500    0.000    0.000 
#    0.000    0.000    0.000    0.000    0.000    0.000 
#
# Total GULP energy -89239.577129 kJ/mol
# GULP energy per Si atom -5577.473571 kJ/mol
# Density = 1.986527 g / cm^3
# Si number density = 19.910592 Si / 1000 Ang^3
#
#
#
# Elastic Constant Matrix: (Units=GPa)
#
#
# Indices 1 2 3 4 5 6 
#
# 1 96.9320 7.1698 15.2401 5.4474 -3.2319 0.5060
# 2 7.1698 81.5549 38.4784 -35.1515 -14.2890 -10.5783
# 3 15.2401 38.4784 77.3919 -2.6099 -9.6575 -4.5295
# 4 5.4474 -35.1515 -2.6099 28.3414 4.5923 1.9035
# 5 -3.2319 -14.2890 -9.6575 4.5923 23.6122 3.0064
# 6 0.5060 -10.5783 -4.5295 1.9035 3.0064 26.2268
#
#
#
# Elastic Compliance Matrix: (Units=1/GPa)
#
#
# Indices 1 2 3 4 5 6 
#
# 1 0.011088 -0.003703 -0.000585 -0.006771 0.000530 -0.001378
# 2 -0.003703 0.052071 -0.021291 0.061091 0.008894 0.011943
# 3 -0.000585 -0.021291 0.022810 -0.024227 0.001464 -0.003046
# 4 -0.006771 0.061091 -0.024227 0.108745 0.003418 0.012302
# 5 0.000530 0.008894 0.001464 0.003418 0.047984 -0.001919
# 6 -0.001378 0.011943 -0.003046 0.012302 -0.001919 0.041774
#
#
# Mechanical properties :
#
#
# Convention : Reuss Voigt Hill
#
# Bulk Modulus (GPa) = 28.72731 41.96172 35.34451
# Shear Modulus (GPa) = 14.39952 28.63544 21.51748
#
# Velocity S-wave (km/s) = 2.69217 3.79648 3.29097
# Velocity P-wave (km/s) = 4.91154 6.35126 5.67722
#
# Compressibility (1/GPa) = 0.03481008
#
# Stress axis : x y z
#
# Youngs Moduli (GPa) = 90.18923 19.20445 43.84118
#
# Poissons Ratio (x) = 0.07112 0.02565
# Poissons Ratio (y) = 0.33398 0.93342
# Poissons Ratio (z) = 0.05278 0.40888
#
# Static dielectric constant tensor:
#      x y z
#    x 1.755670 0.001470 0.032690 
#    y 0.001470 1.737100 -0.025020 
#    z 0.032690 -0.025020 1.699570 
# 
# From -- ./inp_files/51635.got.cif
#   From: 2010.05.17/outbox.cif.g08.bks.cpg/sg2_26_cif.got.tgz:51635.got - 2010.06.03 11:33:40.
