data_PCOD9082588
_publ_section_title
;
Structure prediction by ZEFSAII (Michael W. Deem and Ramdas Pophale) SiO2 
 PCOD9082588
Probable space group: P -1
;
_chemical_formula_sum "Si O2"
_cell_formula_units_Z 16
_cell_length_a 5.429569
_cell_length_b 18.092807
_cell_length_c 19.807858
_cell_angle_alpha 20.434586
_cell_angle_beta 98.399485
_cell_angle_gamma 103.662837
_cell_volume 643.691904
_symmetry_space_group_name_H-M "P -1"
_symmetry_group_IT_number 2
_symmetry_cell_setting 'triclinic'
loop_
_space_group_symop_operation_xyz
x,y,z
-x,-y,-z
loop_
_atom_site_type_symbol
_atom_site_label
_atom_site_fract_x
_atom_site_fract_y
_atom_site_fract_z
Si Si1 0.499273 0.146135 0.076986
Si Si2 0.693905 0.977299 0.434932
Si Si3 0.905987 0.867286 0.327198
Si Si4 0.367624 0.122309 0.943805
Si Si5 0.110916 0.821700 0.510679
Si Si6 0.888810 0.705632 0.321343
Si Si7 0.133275 0.579132 0.854815
Si Si8 0.413095 0.511385 0.095464
O O1 0.199952 0.011207 0.196568
O O2 0.708888 0.010503 0.214612
O O3 0.521557 0.201671 0.950611
O O4 0.543569 0.356436 0.946632
O O5 0.756503 0.178897 0.316305
O O6 0.420190 0.947107 0.410720
O O7 0.649677 0.749493 0.669951
O O8 0.941754 0.975324 0.401537
O O9 0.968958 0.739525 0.504582
O O10 0.793519 0.733741 0.368960
O O11 0.303738 0.310355 0.735438
O O12 0.500000 0.000000 0.000000
O O13 0.111519 0.933452 0.119503
O O14 0.095143 0.630747 0.728983
O O15 0.000000 0.500000 0.500000
O O16 0.333092 0.435673 0.985315
O O17 0.846010 0.456677 0.973984
#
# Coordination Sequence:
#
# PCOD9082588 Si02
#       8
#     2   2   2   2   2   2   2   2
#     4  11  23  40  63  83 126 169 211 255 321 393
#     4  10  19  35  59  85 115 153 196 267 321 375
#     4  11  23  41  59  86 127 166 201 268 325 379
#     4  10  21  44  66  93 134 181 216 273 337 386
#     4  10  19  33  56  83 115 150 196 241 320 371
#     4  10  23  42  67  99 131 175 228 272 330 405
#     4  10  19  35  60  84 117 149 200 265 322 373
#     4  10  19  33  56  88 108 151 200 246 308 376
#
# _framework density 24.856611999999998
#
# number of rings (size 3 to 8) (size 9 to 14) (size 15 to 20)
#    0.000    1.750    1.250    5.250    0.000    2.500 
#    4.500    0.000    0.000   25.500    0.000    0.000 
#    0.000    0.000    0.000    0.000    0.000    0.000 
#
# Total GULP energy -89524.464961 kJ/mol
# GULP energy per Si atom -5595.279060 kJ/mol
# Density = 2.480004 g / cm^3
# Si number density = 24.856612 Si / 1000 Ang^3
#
#
#
# Elastic Constant Matrix: (Units=GPa)
#
#
# Indices 1 2 3 4 5 6 
#
# 1 181.3947 20.6713 24.0889 -1.7471 22.6399 -7.1758
# 2 20.6713 100.0189 38.4027 12.0199 8.4293 -0.1863
# 3 24.0889 38.4027 92.1059 13.9204 14.6042 3.1360
# 4 -1.7471 12.0199 13.9204 32.0789 3.6061 17.5534
# 5 22.6399 8.4293 14.6042 3.6061 43.7904 -0.5183
# 6 -7.1758 -0.1863 3.1360 17.5534 -0.5183 41.5987
#
#
#
# Elastic Compliance Matrix: (Units=1/GPa)
#
#
# Indices 1 2 3 4 5 6 
#
# 1 0.006114 -0.000759 -0.001021 0.001002 -0.002749 0.000671
# 2 -0.000759 0.012313 -0.004406 -0.003721 -0.000180 0.001824
# 3 -0.001021 -0.004406 0.014091 -0.004525 -0.002943 0.000614
# 4 0.001002 -0.003721 -0.004525 0.044958 -0.002214 -0.018501
# 5 -0.002749 -0.000180 -0.002943 -0.002214 0.025468 0.000999
# 6 0.000671 0.001824 0.000614 -0.018501 0.000999 0.031936
#
#
# Mechanical properties :
#
#
# Convention : Reuss Voigt Hill
#
# Bulk Modulus (GPa) = 49.64078 59.98282 54.81180
# Shear Modulus (GPa) = 32.47446 42.85070 37.66258
#
# Velocity S-wave (km/s) = 3.61844 4.15651 3.89677
# Velocity P-wave (km/s) = 6.12141 6.87163 6.50734
#
# Compressibility (1/GPa) = 0.02014473
#
# Stress axis : x y z
#
# Youngs Moduli (GPa) = 163.55231 81.21809 70.96801
#
# Poissons Ratio (x) = 0.06166 0.07246
# Poissons Ratio (y) = 0.12416 0.31270
# Poissons Ratio (z) = 0.16699 0.35787
#
# Static dielectric constant tensor:
#      x y z
#    x 2.005150 -0.030810 -0.016120 
#    y -0.030810 1.980360 0.069250 
#    z -0.016120 0.069250 1.948320 
# 
# From -- ./inp_files/120014.got.cif
#   From: 2010.05.17/outbox.cif.g08.bks.cpg/sg2_61_cif.got.tgz:120014.got - 2010.06.03 11:33:40.
