data_PCOD9082020
_publ_section_title
;
Structure prediction by ZEFSAII (Michael W. Deem and Ramdas Pophale) SiO2 
 PCOD9082020
Probable space group: P -1
;
_chemical_formula_sum "Si O2"
_cell_formula_units_Z 16
_cell_length_a 15.484613
_cell_length_b 8.403439
_cell_length_c 8.616938
_cell_angle_alpha 104.277513
_cell_angle_beta 97.816563
_cell_angle_gamma 43.752949
_cell_volume 749.977486
_symmetry_space_group_name_H-M "P -1"
_symmetry_group_IT_number 2
_symmetry_cell_setting 'triclinic'
loop_
_space_group_symop_operation_xyz
x,y,z
-x,-y,-z
loop_
_atom_site_type_symbol
_atom_site_label
_atom_site_fract_x
_atom_site_fract_y
_atom_site_fract_z
Si Si1 0.679930 0.538704 0.332093
Si Si2 0.283469 0.177376 0.786661
Si Si3 0.369971 0.250132 0.083684
Si Si4 0.535589 0.690269 0.617266
Si Si5 0.361582 0.613290 0.999341
Si Si6 0.112733 0.733663 0.411823
Si Si7 0.745608 0.190509 0.680966
Si Si8 0.069669 0.291556 0.588954
O O1 0.685386 0.700506 0.276775
O O2 0.553171 0.690403 0.438609
O O3 0.689206 0.370599 0.177575
O O4 0.790608 0.395533 0.451546
O O5 0.153920 0.277753 0.725012
O O6 0.397763 0.897741 0.705515
O O7 0.276598 0.249609 0.980025
O O8 0.386792 0.262704 0.272019
O O9 0.367279 0.431229 0.045738
O O10 0.500000 0.000000 0.000000
O O11 0.613238 0.421734 0.622401
O O12 0.500000 0.500000 0.000000
O O13 0.280067 0.828558 0.153458
O O14 0.176025 0.743970 0.287911
O O15 0.042512 0.659316 0.348022
O O16 0.000000 0.000000 0.500000
O O17 0.829147 0.955992 0.542222
O O18 0.000000 0.500000 0.500000
#
# Coordination Sequence:
#
# PCOD9082020 Si02
#       8
#     2   2   2   2   2   2   2   2
#     4  10  19  35  60  84 118 158 191 241 300 352
#     4  10  19  32  60  89 120 153 189 242 304 347
#     4   8  17  37  53  80 122 154 177 236 298 355
#     4   9  18  35  59  87 115 155 190 233 306 367
#     4  10  21  37  57  88 123 149 193 245 296 355
#     4   9  19  40  59  81 112 158 203 237 288 338
#     4   9  21  40  59  85 123 156 188 249 301 346
#     4  11  21  37  62  89 118 155 207 252 275 349
#
# _framework density 21.333973
#
# number of rings (size 3 to 8) (size 9 to 14) (size 15 to 20)
#    0.000    2.500    1.250    0.375    1.750    0.500 
#   18.000    2.500    2.750   13.500    0.000    0.000 
#    0.000    0.000    0.000    0.000    0.000    0.000 
#
# Total GULP energy -89119.220218 kJ/mol
# GULP energy per Si atom -5569.951264 kJ/mol
# Density = 2.128542 g / cm^3
# Si number density = 21.333973 Si / 1000 Ang^3
#
#
#
# Elastic Constant Matrix: (Units=GPa)
#
#
# Indices 1 2 3 4 5 6 
#
# 1 114.8282 5.1491 39.2726 -7.5036 17.6557 -16.6792
# 2 5.1491 70.6147 -2.0448 2.0730 5.8413 -10.6037
# 3 39.2726 -2.0448 102.7992 -5.9648 7.0530 -8.8851
# 4 -7.5036 2.0730 -5.9648 18.4449 -8.7279 4.9535
# 5 17.6557 5.8413 7.0530 -8.7279 35.5639 -4.9368
# 6 -16.6792 -10.6037 -8.8851 4.9535 -4.9368 23.3016
#
#
#
# Elastic Compliance Matrix: (Units=1/GPa)
#
#
# Indices 1 2 3 4 5 6 
#
# 1 0.011436 0.000338 -0.003553 -0.000178 -0.004221 0.006128
# 2 0.000338 0.015780 0.000807 -0.004990 -0.003012 0.008153
# 3 -0.003553 0.000807 0.011351 0.001669 0.000041 0.001806
# 4 -0.000178 -0.004990 0.001669 0.065693 0.014956 -0.012558
# 5 -0.004221 -0.003012 0.000041 0.014956 0.034332 -0.000282
# 6 0.006128 0.008153 0.001806 -0.012558 -0.000282 0.054311
#
#
# Mechanical properties :
#
#
# Convention : Reuss Voigt Hill
#
# Bulk Modulus (GPa) = 29.62963 41.44400 35.53682
# Shear Modulus (GPa) = 23.92674 31.85310 27.88992
#
# Velocity S-wave (km/s) = 3.35256 3.86822 3.61958
# Velocity P-wave (km/s) = 5.37632 6.27848 5.84483
#
# Compressibility (1/GPa) = 0.03375000
#
# Stress axis : x y z
#
# Youngs Moduli (GPa) = 87.43997 63.37124 88.09506
#
# Poissons Ratio (x) = -0.02141 0.31303
# Poissons Ratio (y) = -0.02954 -0.07106
# Poissons Ratio (z) = 0.31071 -0.05112
#
# Static dielectric constant tensor:
#      x y z
#    x 1.837230 0.006950 0.024640 
#    y 0.006950 1.805880 0.026490 
#    z 0.024640 0.026490 1.885170 
# 
# From -- ./inp_files/299249.got.cif
#   From: 2010.05.17/outbox.cif.g08.bks.cpg/sg2_150_cif.got.tgz:299249.got - 2010.06.03 11:33:40.
