data_PCOD9082326
_publ_section_title
;
Structure prediction by ZEFSAII (Michael W. Deem and Ramdas Pophale) SiO2 
 PCOD9082326
Probable space group: P -1
;
_chemical_formula_sum "Si O2"
_cell_formula_units_Z 14
_cell_length_a 13.200191
_cell_length_b 13.228102
_cell_length_c 13.861705
_cell_angle_alpha 33.006786
_cell_angle_beta 24.378142
_cell_angle_gamma 32.940532
_cell_volume 512.711612
_symmetry_space_group_name_H-M "P -1"
_symmetry_group_IT_number 2
_symmetry_cell_setting 'triclinic'
loop_
_space_group_symop_operation_xyz
x,y,z
-x,-y,-z
loop_
_atom_site_type_symbol
_atom_site_label
_atom_site_fract_x
_atom_site_fract_y
_atom_site_fract_z
Si Si1 0.098019 0.796729 0.522046
Si Si2 0.760716 0.159321 0.207455
Si Si3 0.453434 0.143862 0.835081
Si Si4 0.090285 0.510689 0.544882
Si Si5 0.171120 0.756178 0.118906
Si Si6 0.987892 0.576457 0.116902
Si Si7 0.731743 0.903066 0.600026
O O1 0.385904 0.714839 0.381259
O O2 0.940194 0.648065 0.798448
O O3 0.025416 0.867187 0.418071
O O4 0.000000 0.000000 0.500000
O O5 0.033741 0.979759 0.094366
O O6 0.632802 0.046089 0.481263
O O7 0.658426 0.234113 0.130058
O O8 0.807577 0.333937 0.087322
O O9 0.168377 0.279074 0.944701
O O10 0.558966 0.008352 0.756449
O O11 0.500000 0.000000 0.000000
O O12 0.040698 0.332505 0.673831
O O13 0.190500 0.435475 0.624879
O O14 0.247976 0.615538 0.258008
O O15 0.803535 0.678462 0.680203
#
# Coordination Sequence:
#
# PCOD9082326 Si02
#       7
#     2   2   2   2   2   2   2
#     4   9  19  37  54  73 100 135 179 220 257 308
#     4   9  16  29  54  82 104 132 174 213 255 310
#     4  11  22  36  52  74 107 140 174 219 268 307
#     4   8  15  30  53  78 104 136 175 211 252 306
#     4   8  14  27  53  80 102 131 174 215 249 302
#     4  10  19  33  54  79 104 137 172 214 269 310
#     4   9  18  34  53  76 106 138 176 217 252 305
#
# _framework density 27.305797999999999
#
# number of rings (size 3 to 8) (size 9 to 14) (size 15 to 20)
#    0.000    2.857    0.000    1.286    0.000    0.000 
#    0.000   26.429    0.000   32.571    0.000    0.000 
#    0.000    0.000    0.000    0.000    0.000    0.000 
#
# Total GULP energy -78063.505580 kJ/mol
# GULP energy per Si atom -5575.964684 kJ/mol
# Density = 2.724365 g / cm^3
# Si number density = 27.305798 Si / 1000 Ang^3
#
#
#
# Elastic Constant Matrix: (Units=GPa)
#
#
# Indices 1 2 3 4 5 6 
#
# 1 130.4886 31.7134 53.9629 -4.6447 23.8753 8.1295
# 2 31.7134 95.9942 46.7535 -29.5472 -1.8861 16.9419
# 3 53.9629 46.7535 104.0410 -30.5144 30.9819 1.8188
# 4 -4.6447 -29.5472 -30.5144 41.9151 7.6730 1.1516
# 5 23.8753 -1.8861 30.9819 7.6730 64.8809 -13.4575
# 6 8.1295 16.9419 1.8188 1.1516 -13.4575 38.6623
#
#
#
# Elastic Compliance Matrix: (Units=1/GPa)
#
#
# Indices 1 2 3 4 5 6 
#
# 1 0.010487 -0.001763 -0.005338 -0.003699 -0.001235 -0.001501
# 2 -0.001763 0.016990 -0.004243 0.008753 0.000704 -0.006891
# 3 -0.005338 -0.004243 0.021645 0.014179 -0.010619 -0.002155
# 4 -0.003699 0.008753 0.014179 0.042404 -0.012076 -0.009191
# 5 -0.001235 0.000704 -0.010619 -0.012076 0.024310 0.009272
# 6 -0.001501 -0.006891 -0.002155 -0.009191 0.009272 0.032803
#
#
# Mechanical properties :
#
#
# Convention : Reuss Voigt Hill
#
# Bulk Modulus (GPa) = 37.82781 66.15371 51.99076
# Shear Modulus (GPa) = 27.75645 42.29791 35.02718
#
# Velocity S-wave (km/s) = 3.19172 3.94006 3.58547
# Velocity P-wave (km/s) = 5.24083 6.70659 6.01850
#
# Compressibility (1/GPa) = 0.02643558
#
# Stress axis : x y z
#
# Youngs Moduli (GPa) = 95.35259 58.85730 46.19961
#
# Poissons Ratio (x) = 0.10375 0.24663
# Poissons Ratio (y) = 0.16807 0.19601
# Poissons Ratio (z) = 0.50902 0.24971
#
# Static dielectric constant tensor:
#      x y z
#    x 2.155630 0.029720 -0.044760 
#    y 0.029720 2.233350 0.087570 
#    z -0.044760 0.087570 2.314040 
# 
# From -- ./inp_files/534036.got.cif
#   From: 2010.05.17/outbox.cif.g08.bks.cpg/sg2_268_cif.got.tgz:534036.got - 2010.06.03 11:33:40.
