data_PCOD9082515
_publ_section_title
;
Structure prediction by ZEFSAII (Michael W. Deem and Ramdas Pophale) SiO2 
 PCOD9082515
Probable space group: P -1
;
_chemical_formula_sum "Si O2"
_cell_formula_units_Z 16
_cell_length_a 11.916283
_cell_length_b 8.780618
_cell_length_c 15.237530
_cell_angle_alpha 38.221298
_cell_angle_beta 61.190676
_cell_angle_gamma 81.314137
_cell_volume 784.484654
_symmetry_space_group_name_H-M "P -1"
_symmetry_group_IT_number 2
_symmetry_cell_setting 'triclinic'
loop_
_space_group_symop_operation_xyz
x,y,z
-x,-y,-z
loop_
_atom_site_type_symbol
_atom_site_label
_atom_site_fract_x
_atom_site_fract_y
_atom_site_fract_z
Si Si1 0.571717 0.083032 0.028621
Si Si2 0.700224 0.503438 0.987884
Si Si3 0.841579 0.612741 0.254276
Si Si4 0.634786 0.807325 0.521696
Si Si5 0.694781 0.414967 0.217153
Si Si6 0.604596 0.419960 0.557700
Si Si7 0.617694 0.692338 0.774051
Si Si8 0.840819 0.183402 0.970764
O O1 0.730948 0.110911 0.964560
O O2 0.484761 0.858489 0.233735
O O3 0.577085 0.374852 0.915139
O O4 0.500000 0.000000 0.000000
O O5 0.744423 0.592736 0.030330
O O6 0.533069 0.301408 0.155001
O O7 0.785150 0.344400 0.986557
O O8 0.705127 0.732274 0.812797
O O9 0.796497 0.532328 0.207433
O O10 0.723400 0.406903 0.455291
O O11 0.836418 0.904661 0.137727
O O12 0.998570 0.643592 0.195595
O O13 0.463990 0.639037 0.669520
O O14 0.674459 0.641216 0.508573
O O15 0.684579 0.828624 0.595009
O O16 0.677867 0.113087 0.336845
O O17 0.500000 0.500000 0.500000
#
# Coordination Sequence:
#
# PCOD9082515 Si02
#       8
#     2   2   2   2   2   2   2   2
#     4  11  21  37  66  94 117 156 203 258 299 362
#     4   9  19  35  56  81 113 156 197 242 297 355
#     4  11  23  38  59  92 126 162 199 254 311 365
#     4  10  19  33  55  87 120 151 199 258 300 347
#     4  10  20  32  57  86 118 154 205 253 296 352
#     4  12  21  36  63  94 120 157 208 253 302 358
#     4   9  19  34  57  87 118 152 197 250 305 352
#     4  10  22  40  61  86 129 159 200 253 314 360
#
# _framework density 20.395555999999999
#
# number of rings (size 3 to 8) (size 9 to 14) (size 15 to 20)
#    0.000    1.750    3.750    0.750    3.500    3.500 
#    0.000    0.625    0.000    3.750    0.000    0.000 
#    0.000    0.000    0.000    0.000    0.000    0.000 
#
# Total GULP energy -89317.126718 kJ/mol
# GULP energy per Si atom -5582.320420 kJ/mol
# Density = 2.034914 g / cm^3
# Si number density = 20.395556 Si / 1000 Ang^3
#
#
#
# Elastic Constant Matrix: (Units=GPa)
#
#
# Indices 1 2 3 4 5 6 
#
# 1 122.2118 40.5068 56.2725 30.7412 -4.5332 4.7862
# 2 40.5068 60.5137 7.6930 19.0003 0.6720 -2.7543
# 3 56.2725 7.6930 72.6553 16.8268 13.6840 5.7112
# 4 30.7412 19.0003 16.8268 26.8053 2.9986 12.0163
# 5 -4.5332 0.6720 13.6840 2.9986 32.2433 7.3158
# 6 4.7862 -2.7543 5.7112 12.0163 7.3158 35.7519
#
#
#
# Elastic Compliance Matrix: (Units=1/GPa)
#
#
# Indices 1 2 3 4 5 6 
#
# 1 0.020835 -0.009383 -0.015028 -0.008854 0.010385 -0.000261
# 2 -0.009383 0.027829 0.008922 -0.018047 -0.006115 0.009292
# 3 -0.015028 0.008922 0.028528 -0.006913 -0.014544 0.003442
# 4 -0.008854 -0.018047 -0.006913 0.075561 0.000625 -0.024625
# 5 0.010385 -0.006115 -0.014544 0.000625 0.040541 -0.008044
# 6 -0.000261 0.009292 0.003442 -0.024625 -0.008044 0.038094
#
#
# Mechanical properties :
#
#
# Convention : Reuss Voigt Hill
#
# Bulk Modulus (GPa) = 21.63896 51.59173 36.61535
# Shear Modulus (GPa) = 18.00034 29.02067 23.51051
#
# Velocity S-wave (km/s) = 2.97402 3.77622 3.39887
# Velocity P-wave (km/s) = 4.73558 6.66060 5.77881
#
# Compressibility (1/GPa) = 0.04621294
#
# Stress axis : x y z
#
# Youngs Moduli (GPa) = 47.99614 35.93366 35.05273
#
# Poissons Ratio (x) = 0.33717 0.52678
# Poissons Ratio (y) = 0.45035 -0.31273
# Poissons Ratio (z) = 0.72130 -0.32059
#
# Static dielectric constant tensor:
#      x y z
#    x 1.761010 0.023300 0.033600 
#    y 0.023300 1.770430 0.003750 
#    z 0.033600 0.003750 1.735710 
# 
# From -- ./inp_files/514898.got.cif
#   From: 2010.05.17/outbox.cif.g08.bks.cpg/sg2_258_cif.got.tgz:514898.got - 2010.06.03 11:33:40.
