data_PCOD9082183
_publ_section_title
;
Structure prediction by ZEFSAII (Michael W. Deem and Ramdas Pophale) SiO2 
 PCOD9082183
Probable space group: P -1
;
_chemical_formula_sum "Si O2"
_cell_formula_units_Z 16
_cell_length_a 9.198450
_cell_length_b 22.937019
_cell_length_c 16.452076
_cell_angle_alpha 161.471075
_cell_angle_beta 35.210662
_cell_angle_gamma 138.392018
_cell_volume 629.081020
_symmetry_space_group_name_H-M "P -1"
_symmetry_group_IT_number 2
_symmetry_cell_setting 'triclinic'
loop_
_space_group_symop_operation_xyz
x,y,z
-x,-y,-z
loop_
_atom_site_type_symbol
_atom_site_label
_atom_site_fract_x
_atom_site_fract_y
_atom_site_fract_z
Si Si1 0.581654 0.745327 0.074371
Si Si2 0.422699 0.489864 0.927427
Si Si3 0.641478 0.949406 0.161594
Si Si4 0.715478 0.827112 0.512918
Si Si5 0.942610 0.272931 0.427054
Si Si6 0.759068 0.453575 0.265759
Si Si7 0.042445 0.850184 0.104498
Si Si8 0.576078 0.391861 0.515319
O O1 0.384770 0.673375 0.132761
O O2 0.694040 0.555023 0.723287
O O3 0.514977 0.889715 0.222133
O O4 0.780535 0.827520 0.150294
O O5 0.223458 0.355302 0.813541
O O6 0.704838 0.382109 0.632765
O O7 0.500000 0.500000 0.000000
O O8 0.447903 0.030201 0.286288
O O9 0.831536 0.785692 0.816639
O O10 0.830421 0.100971 0.290728
O O11 0.549409 0.747779 0.554104
O O12 0.908969 0.943883 0.622646
O O13 0.058974 0.392873 0.599024
O O14 0.500000 0.500000 0.500000
O O15 0.649629 0.480278 0.261543
O O16 0.910119 0.266983 0.988463
O O17 0.246278 0.739757 0.801853
#
# Coordination Sequence:
#
# PCOD9082183 Si02
#       8
#     2   2   2   2   2   2   2   2
#     4  11  22  35  59  90 115 160 196 244 295 361
#     4  10  23  44  63  80 116 164 208 244 288 348
#     4  10  21  33  58  91 129 144 192 243 311 358
#     4  10  22  38  55  90 121 160 190 245 296 354
#     4  10  20  35  58  89 121 159 191 244 295 357
#     4  10  19  33  52  82 124 160 188 230 295 358
#     4  11  20  31  55  88 122 146 198 239 300 351
#     4  10  21  32  54  83 129 160 186 225 307 370
#
# _framework density 25.433926
#
# number of rings (size 3 to 8) (size 9 to 14) (size 15 to 20)
#    0.000    1.750    1.250    4.500    8.750    0.000 
#    0.000    3.125    0.000    3.000    0.000    0.000 
#    0.000    0.000    0.000    0.000    0.000    0.000 
#
# Total GULP energy -89376.944658 kJ/mol
# GULP energy per Si atom -5586.059041 kJ/mol
# Density = 2.537604 g / cm^3
# Si number density = 25.433926 Si / 1000 Ang^3
#
#
#
# Elastic Constant Matrix: (Units=GPa)
#
#
# Indices 1 2 3 4 5 6 
#
# 1 110.0932 40.7665 60.6003 15.0586 22.5468 -9.0489
# 2 40.7665 129.9732 52.0411 20.0416 8.3790 -39.7236
# 3 60.6003 52.0411 100.4737 9.5924 47.7070 -0.6912
# 4 15.0586 20.0416 9.5924 30.4440 11.9881 -3.5921
# 5 22.5468 8.3790 47.7070 11.9881 60.4716 17.7891
# 6 -9.0489 -39.7236 -0.6912 -3.5921 17.7891 47.1877
#
#
#
# Elastic Compliance Matrix: (Units=1/GPa)
#
#
# Indices 1 2 3 4 5 6 
#
# 1 0.014650 0.000535 -0.009984 -0.005426 0.002949 0.001589
# 2 0.000535 0.015569 -0.008919 -0.007448 0.002784 0.011462
# 3 -0.009984 -0.008919 0.028914 0.009218 -0.019389 -0.000988
# 4 -0.005426 -0.007448 0.009218 0.042755 -0.012979 0.000972
# 5 0.002949 0.002784 -0.019389 -0.012979 0.036485 -0.012117
# 6 0.001589 0.011462 -0.000988 0.000972 -0.012117 0.035773
#
#
# Mechanical properties :
#
#
# Convention : Reuss Voigt Hill
#
# Bulk Modulus (GPa) = 44.65023 71.92842 58.28933
# Shear Modulus (GPa) = 22.89924 40.09613 31.49768
#
# Velocity S-wave (km/s) = 3.00383 3.97480 3.52293
# Velocity P-wave (km/s) = 5.44280 7.02903 6.28615
#
# Compressibility (1/GPa) = 0.02239630
#
# Stress axis : x y z
#
# Youngs Moduli (GPa) = 68.26058 64.22899 34.58574
#
# Poissons Ratio (x) = -0.03435 0.34531
# Poissons Ratio (y) = -0.03651 0.30847
# Poissons Ratio (z) = 0.68152 0.57285
#
# Static dielectric constant tensor:
#      x y z
#    x 1.979830 -0.009120 0.005820 
#    y -0.009120 2.078140 -0.067260 
#    z 0.005820 -0.067260 2.142840 
# 
# From -- ./inp_files/399784.got.cif
#   From: 2010.05.17/outbox.cif.g08.bks.cpg/sg2_200_cif.got.tgz:399784.got - 2010.06.03 11:33:40.
