data_PCOD9082520
_publ_section_title
;
Structure prediction by ZEFSAII (Michael W. Deem and Ramdas Pophale) SiO2 
 PCOD9082520
Probable space group: P -1
;
_chemical_formula_sum "Si O2"
_cell_formula_units_Z 16
_cell_length_a 14.454970
_cell_length_b 8.612677
_cell_length_c 11.649279
_cell_angle_alpha 78.153544
_cell_angle_beta 38.437170
_cell_angle_gamma 63.807232
_cell_volume 782.938336
_symmetry_space_group_name_H-M "P -1"
_symmetry_group_IT_number 2
_symmetry_cell_setting 'triclinic'
loop_
_space_group_symop_operation_xyz
x,y,z
-x,-y,-z
loop_
_atom_site_type_symbol
_atom_site_label
_atom_site_fract_x
_atom_site_fract_y
_atom_site_fract_z
Si Si1 0.229966 0.404857 0.026822
Si Si2 0.335897 0.470814 0.164338
Si Si3 0.526881 0.856927 0.348850
Si Si4 0.919840 0.138054 0.661475
Si Si5 0.272309 0.950046 0.768814
Si Si6 0.036124 0.815066 0.132718
Si Si7 0.633558 0.887328 0.727841
Si Si8 0.256739 0.080236 0.146468
O O1 0.313937 0.417475 0.063706
O O2 0.095859 0.604112 0.097230
O O3 0.155635 0.267587 0.151136
O O4 0.367853 0.313720 0.807406
O O5 0.173554 0.657780 0.319863
O O6 0.345623 0.312399 0.260463
O O7 0.500000 0.500000 0.000000
O O8 0.430542 0.825224 0.553774
O O9 0.655578 0.932143 0.251967
O O10 0.381162 0.018701 0.392978
O O11 0.005600 0.129610 0.701529
O O12 0.777812 0.077529 0.839029
O O13 0.000000 0.000000 0.500000
O O14 0.194057 0.848991 0.937519
O O15 0.116751 0.075360 0.819895
O O16 0.756607 0.892220 0.706980
O O17 0.448148 0.017367 0.936173
#
# Coordination Sequence:
#
# PCOD9082520 Si02
#       8
#     2   2   2   2   2   2   2   2
#     4   9  20  35  60  85 115 150 190 241 287 351
#     4  10  19  33  55  89 116 152 186 226 294 350
#     4  10  21  38  61  88 109 152 204 245 275 333
#     4  11  23  36  58  87 120 151 185 234 291 354
#     4  10  23  40  62  81 114 160 198 240 288 333
#     4  10  22  42  59  83 120 157 189 239 296 347
#     4   9  17  32  58  81 115 145 183 234 280 340
#     4   9  17  33  54  87 112 149 179 223 296 346
#
# _framework density 20.435835999999998
#
# number of rings (size 3 to 8) (size 9 to 14) (size 15 to 20)
#    0.000    2.250    1.250    2.250    3.500    1.000 
#    2.250    1.875    5.500    0.000    0.000    0.000 
#    0.000    0.000    0.000    0.000    0.000    0.000 
#
# Total GULP energy -89168.399717 kJ/mol
# GULP energy per Si atom -5573.024982 kJ/mol
# Density = 2.038932 g / cm^3
# Si number density = 20.435836 Si / 1000 Ang^3
#
#
#
# Elastic Constant Matrix: (Units=GPa)
#
#
# Indices 1 2 3 4 5 6 
#
# 1 57.2538 21.2215 21.4461 11.8585 3.5562 0.4027
# 2 21.2215 96.6590 19.4695 17.6172 11.9576 1.1978
# 3 21.4461 19.4695 83.4566 8.5146 27.6139 2.6212
# 4 11.8585 17.6172 8.5146 26.2536 6.4562 6.0072
# 5 3.5562 11.9576 27.6139 6.4562 30.3247 -0.6858
# 6 0.4027 1.1978 2.6212 6.0072 -0.6858 23.0893
#
#
#
# Elastic Compliance Matrix: (Units=1/GPa)
#
#
# Indices 1 2 3 4 5 6 
#
# 1 0.022192 -0.002903 -0.006288 -0.008166 0.006070 0.002782
# 2 -0.002903 0.012625 -0.000717 -0.006550 -0.002566 0.001105
# 3 -0.006288 -0.000717 0.019300 0.001952 -0.017040 -0.003058
# 4 -0.008166 -0.006550 0.001952 0.050878 -0.009369 -0.013255
# 5 0.006070 -0.002566 -0.017040 -0.009369 0.050921 0.005912
# 6 0.002782 0.001105 -0.003058 -0.013255 0.005912 0.047176
#
#
# Mechanical properties :
#
#
# Convention : Reuss Voigt Hill
#
# Bulk Modulus (GPa) = 29.15294 40.18263 34.66778
# Shear Modulus (GPa) = 21.33638 27.61566 24.47602
#
# Velocity S-wave (km/s) = 3.23471 3.68004 3.46454
# Velocity P-wave (km/s) = 5.31485 6.14511 5.74500
#
# Compressibility (1/GPa) = 0.03430186
#
# Stress axis : x y z
#
# Youngs Moduli (GPa) = 45.06072 79.20891 51.81238
#
# Poissons Ratio (x) = 0.22992 0.32581
# Poissons Ratio (y) = 0.13080 0.03714
# Poissons Ratio (z) = 0.28335 0.05678
#
# Static dielectric constant tensor:
#      x y z
#    x 1.767460 0.004580 -0.013800 
#    y 0.004580 1.749490 -0.043670 
#    z -0.013800 -0.043670 1.808790 
# 
# From -- ./inp_files/285213.got.cif
#   From: 2010.05.17/outbox.cif.g08.bks.cpg/sg2_143_cif.got.tgz:285213.got - 2010.06.03 11:33:40.
