data_PCOD9082779
_publ_section_title
;
Structure prediction by ZEFSAII (Michael W. Deem and Ramdas Pophale) SiO2 
 PCOD9082779
Probable space group: P -1
;
_chemical_formula_sum "Si O2"
_cell_formula_units_Z 16
_cell_length_a 8.245858
_cell_length_b 8.566689
_cell_length_c 18.951099
_cell_angle_alpha 54.752459
_cell_angle_beta 138.371837
_cell_angle_gamma 127.742444
_cell_volume 684.763425
_symmetry_space_group_name_H-M "P -1"
_symmetry_group_IT_number 2
_symmetry_cell_setting 'triclinic'
loop_
_space_group_symop_operation_xyz
x,y,z
-x,-y,-z
loop_
_atom_site_type_symbol
_atom_site_label
_atom_site_fract_x
_atom_site_fract_y
_atom_site_fract_z
Si Si1 0.511589 0.815317 0.443393
Si Si2 0.247153 0.998325 0.187555
Si Si3 0.986629 0.070963 0.616291
Si Si4 0.218044 0.724761 0.734733
Si Si5 0.892708 0.628111 0.097976
Si Si6 0.420534 0.688443 0.010715
Si Si7 0.145350 0.404507 0.474129
Si Si8 0.193436 0.044632 0.839581
O O1 0.380256 0.906911 0.316319
O O2 0.300603 0.640617 0.463382
O O3 0.686201 0.704755 0.487706
O O4 0.701609 0.975502 0.515798
O O5 0.138373 0.829030 0.135521
O O6 0.998851 0.024893 0.138055
O O7 0.471959 0.196843 0.183484
O O8 0.102427 0.293607 0.563394
O O9 0.027570 0.068109 0.713210
O O10 0.135548 0.920736 0.674182
O O11 0.091078 0.545179 0.795942
O O12 0.112319 0.643889 0.644156
O O13 0.646146 0.681785 0.032458
O O14 0.818852 0.515102 0.028907
O O15 0.576037 0.748724 0.118776
O O16 0.322779 0.874492 0.912128
#
# Coordination Sequence:
#
# PCOD9082779 Si02
#       8
#     2   2   2   2   2   2   2   2
#     4  10  19  33  57  90 123 156 198 238 283 356
#     4  11  21  37  61  93 123 154 195 244 298 358
#     4  11  20  36  59  87 123 164 190 238 294 352
#     4  11  19  35  62  92 119 156 202 241 288 357
#     4  10  20  38  70  87 111 157 206 250 291 348
#     4   9  20  42  64  84 114 160 204 248 301 348
#     4  10  19  33  57  90 125 154 200 243 278 348
#     4  10  22  39  63  86 123 160 192 248 311 346
#
# _framework density 23.365735999999998
#
# number of rings (size 3 to 8) (size 9 to 14) (size 15 to 20)
#    0.000    1.750    5.000    0.750    0.000    0.500 
#    0.000    9.375    0.000    0.000    0.000    0.000 
#    0.000    0.000    0.000    0.000    0.000    0.000 
#
# Total GULP energy -89466.542470 kJ/mol
# GULP energy per Si atom -5591.658904 kJ/mol
# Density = 2.331255 g / cm^3
# Si number density = 23.365736 Si / 1000 Ang^3
#
#
#
# Elastic Constant Matrix: (Units=GPa)
#
#
# Indices 1 2 3 4 5 6 
#
# 1 24.3247 12.5309 -3.3081 4.2681 1.3086 -4.6866
# 2 12.5309 74.2583 36.5258 15.5200 -6.4758 4.7949
# 3 -3.3081 36.5258 86.0943 16.0380 0.0577 -14.0801
# 4 4.2681 15.5200 16.0380 51.2072 -5.8625 -2.7349
# 5 1.3086 -6.4758 0.0577 -5.8625 25.5848 0.1159
# 6 -4.6866 4.7949 -14.0801 -2.7349 0.1159 30.6075
#
#
#
# Elastic Compliance Matrix: (Units=1/GPa)
#
#
# Indices 1 2 3 4 5 6 
#
# 1 0.055613 -0.016581 0.012556 -0.003567 -0.007962 0.016600
# 2 -0.016581 0.024224 -0.012575 -0.001921 0.006624 -0.012315
# 3 0.012556 -0.012575 0.020178 -0.003406 -0.004709 0.012888
# 4 -0.003567 -0.001921 -0.003406 0.022026 0.004750 0.000138
# 5 -0.007962 0.006624 -0.004709 0.004750 0.042287 -0.004159
# 6 0.016600 -0.012315 0.012888 0.000138 -0.004159 0.043100
#
#
# Mechanical properties :
#
#
# Convention : Reuss Voigt Hill
#
# Bulk Modulus (GPa) = 14.96674 30.68606 22.82640
# Shear Modulus (GPa) = 19.01867 30.74182 24.88025
#
# Velocity S-wave (km/s) = 2.85609 3.63116 3.26669
# Velocity P-wave (km/s) = 4.15880 5.54454 4.90090
#
# Compressibility (1/GPa) = 0.06681483
#
# Stress axis : x y z
#
# Youngs Moduli (GPa) = 17.98152 41.28108 49.55884
#
# Poissons Ratio (x) = 0.68450 -0.62228
# Poissons Ratio (y) = 0.29816 0.62320
# Poissons Ratio (z) = -0.22578 0.51911
#
# Static dielectric constant tensor:
#      x y z
#    x 1.895160 -0.012410 0.014120 
#    y -0.012410 1.874210 0.017630 
#    z 0.014120 0.017630 1.883410 
# 
# From -- ./inp_files/215087.got.cif
#   From: 2010.05.17/outbox.cif.g08.bks.cpg/sg2_108_cif.got.tgz:215087.got - 2010.06.03 11:33:40.
