data_PCOD9082146
_publ_section_title
;
Structure prediction by ZEFSAII (Michael W. Deem and Ramdas Pophale) SiO2 
 PCOD9082146
Probable space group: P -1
;
_chemical_formula_sum "Si O2"
_cell_formula_units_Z 12
_cell_length_a 15.229779
_cell_length_b 7.177956
_cell_length_c 8.440547
_cell_angle_alpha 50.476170
_cell_angle_beta 50.306781
_cell_angle_gamma 83.421201
_cell_volume 476.868878
_symmetry_space_group_name_H-M "P -1"
_symmetry_group_IT_number 2
_symmetry_cell_setting 'triclinic'
loop_
_space_group_symop_operation_xyz
x,y,z
-x,-y,-z
loop_
_atom_site_type_symbol
_atom_site_label
_atom_site_fract_x
_atom_site_fract_y
_atom_site_fract_z
Si Si1 0.122258 0.679423 0.055391
Si Si2 0.832347 0.524623 0.182784
Si Si3 0.950229 0.849915 0.368196
Si Si4 0.544723 0.286215 0.690945
Si Si5 0.711565 0.547488 0.619564
Si Si6 0.388757 0.972390 0.761153
O O1 0.019870 0.752530 0.211121
O O2 0.093439 0.379217 0.319585
O O3 0.116774 0.636513 0.897397
O O4 0.260051 0.906511 0.847132
O O5 0.679886 0.399268 0.372416
O O6 0.796207 0.470402 0.439528
O O7 0.936385 0.849046 0.872854
O O8 0.818979 0.809302 0.452616
O O9 0.593247 0.510326 0.659167
O O10 0.434997 0.197840 0.729518
O O11 0.500000 0.000000 0.000000
O O12 0.649341 0.309480 0.947875
O O13 0.500000 0.000000 0.500000
#
# Coordination Sequence:
#
# PCOD9082146 Si02
#       6
#     2   2   2   2   2   2
#     4  10  21  32  53  76 103 135 162 210 250 298
#     4  10  18  33  54  75  99 136 166 207 250 293
#     4  10  20  35  49  78 105 128 171 204 253 297
#     4   8  16  29  51  77  95 131 172 201 248 297
#     4   8  18  30  52  75  99 132 166 213 243 294
#     4  10  15  31  53  75 100 132 171 201 251 300
#
# _framework density 25.164149999999999
#
# number of rings (size 3 to 8) (size 9 to 14) (size 15 to 20)
#    1.000    1.667    1.667    1.000    0.000    0.667 
#    0.000    0.833    0.000    4.000    0.000    0.000 
#    0.000    0.000    0.000    0.000    0.000    0.000 
#
# Total GULP energy -66859.072081 kJ/mol
# GULP energy per Si atom -5571.589340 kJ/mol
# Density = 2.510688 g / cm^3
# Si number density = 25.164150 Si / 1000 Ang^3
#
#
#
# Elastic Constant Matrix: (Units=GPa)
#
#
# Indices 1 2 3 4 5 6 
#
# 1 112.8189 33.3310 21.7157 -22.4212 -16.0313 33.6012
# 2 33.3310 143.0537 65.1711 -21.3717 1.9087 23.7555
# 3 21.7157 65.1711 137.7032 -41.9068 0.7671 16.1293
# 4 -22.4212 -21.3717 -41.9068 40.7482 9.5937 -9.9653
# 5 -16.0313 1.9087 0.7671 9.5937 32.1461 -11.9879
# 6 33.6012 23.7555 16.1293 -9.9653 -11.9879 31.8274
#
#
#
# Elastic Compliance Matrix: (Units=1/GPa)
#
#
# Indices 1 2 3 4 5 6 
#
# 1 0.013780 -0.000950 0.001346 0.005229 0.000618 -0.012651
# 2 -0.000950 0.009957 -0.003863 0.000082 -0.003089 -0.005608
# 3 0.001346 -0.003863 0.012995 0.012367 -0.004150 -0.002814
# 4 0.005229 0.000082 0.012367 0.042137 -0.011362 -0.002935
# 5 0.000618 -0.003089 -0.004150 -0.011362 0.040910 0.015607
# 6 -0.012651 -0.005608 -0.002814 -0.002935 0.015607 0.055347
#
#
# Mechanical properties :
#
#
# Convention : Reuss Voigt Hill
#
# Bulk Modulus (GPa) = 33.56043 70.44573 52.00308
# Shear Modulus (GPa) = 26.04271 39.16821 32.60546
#
# Velocity S-wave (km/s) = 3.22050 3.94954 3.60350
# Velocity P-wave (km/s) = 5.21482 6.98955 6.16636
#
# Compressibility (1/GPa) = 0.02979700
#
# Stress axis : x y z
#
# Youngs Moduli (GPa) = 72.56670 100.43680 76.95538
#
# Poissons Ratio (x) = 0.09544 -0.10362
# Poissons Ratio (y) = 0.06896 0.29731
# Poissons Ratio (z) = -0.09771 0.38802
#
# Static dielectric constant tensor:
#      x y z
#    x 2.113760 0.010380 0.021630 
#    y 0.010380 1.958740 -0.089560 
#    z 0.021630 -0.089560 1.999660 
# 
# From -- ./inp_files/191604.got.cif
#   From: 2010.05.17/outbox.cif.g08.bks.cpg/sg2_96_cif.got.tgz:191604.got - 2010.06.03 11:33:40.
