data_PCOD9082332
_publ_section_title
;
Structure prediction by ZEFSAII (Michael W. Deem and Ramdas Pophale) SiO2 
 PCOD9082332
Probable space group: P -1
;
_chemical_formula_sum "Si O2"
_cell_formula_units_Z 16
_cell_length_a 8.756882
_cell_length_b 18.712780
_cell_length_c 19.073000
_cell_angle_alpha 21.901801
_cell_angle_beta 42.453225
_cell_angle_gamma 51.914016
_cell_volume 757.913413
_symmetry_space_group_name_H-M "P -1"
_symmetry_group_IT_number 2
_symmetry_cell_setting 'triclinic'
loop_
_space_group_symop_operation_xyz
x,y,z
-x,-y,-z
loop_
_atom_site_type_symbol
_atom_site_label
_atom_site_fract_x
_atom_site_fract_y
_atom_site_fract_z
Si Si1 0.250118 0.007814 0.046082
Si Si2 0.345773 0.056080 0.561946
Si Si3 0.037216 0.318454 0.910043
Si Si4 0.276229 0.203830 0.142340
Si Si5 0.016845 0.717301 0.500184
Si Si6 0.212724 0.871926 0.572730
Si Si7 0.492188 0.908553 0.252469
Si Si8 0.304893 0.575968 0.715550
O O1 0.289260 0.021193 0.937487
O O2 0.193539 0.204822 0.916374
O O3 0.500000 0.000000 0.000000
O O4 0.061816 0.818943 0.315743
O O5 0.545783 0.161558 0.452569
O O6 0.179262 0.197309 0.473923
O O7 0.500000 0.000000 0.500000
O O8 0.182576 0.854381 0.832711
O O9 0.964094 0.482127 0.738516
O O10 0.173803 0.428442 0.832282
O O11 0.991322 0.157529 0.273888
O O12 0.274829 0.094508 0.317265
O O13 0.414165 0.087955 0.151794
O O14 0.367944 0.433820 0.882353
O O15 0.263231 0.800815 0.381776
O O16 0.140079 0.704393 0.688939
O O17 0.507081 0.745482 0.454179
#
# Coordination Sequence:
#
# PCOD9082332 Si02
#       8
#     2   2   2   2   2   2   2   2
#     4   9  17  31  53  83 115 140 173 229 279 313
#     4  11  22  37  55  79 112 147 180 222 273 323
#     4  10  21  35  55  84 113 143 182 223 270 326
#     4  10  19  35  54  76 110 143 179 225 268 315
#     4   9  19  33  51  78 113 142 175 222 272 322
#     4  10  22  35  54  79 108 145 181 217 268 326
#     4   9  18  31  53  85 109 136 179 225 271 319
#     4  10  19  33  54  79 107 140 179 219 262 317
#
# _framework density 21.110589999999998
#
# number of rings (size 3 to 8) (size 9 to 14) (size 15 to 20)
#    0.000    2.250    0.000    4.125    0.000    8.000 
#    0.000    0.000    0.000   12.000    0.000   35.875 
#    0.000    0.000    0.000    0.000    0.000    0.000 
#
# Total GULP energy -89168.410404 kJ/mol
# GULP energy per Si atom -5573.025650 kJ/mol
# Density = 2.106254 g / cm^3
# Si number density = 21.110590 Si / 1000 Ang^3
#
#
#
# Elastic Constant Matrix: (Units=GPa)
#
#
# Indices 1 2 3 4 5 6 
#
# 1 20.4901 20.0981 25.2587 -4.8919 16.0794 -1.8190
# 2 20.0981 161.4613 87.6191 2.1270 24.4104 -0.8544
# 3 25.2587 87.6191 110.1979 -21.8116 45.9588 -7.6304
# 4 -4.8919 2.1270 -21.8116 34.6272 -4.1714 8.5068
# 5 16.0794 24.4104 45.9588 -4.1714 34.9366 -1.3779
# 6 -1.8190 -0.8544 -7.6304 8.5068 -1.3779 23.0553
#
#
#
# Elastic Compliance Matrix: (Units=1/GPa)
#
#
# Indices 1 2 3 4 5 6 
#
# 1 0.082257 -0.007268 0.004853 0.010110 -0.037884 0.001832
# 2 -0.007268 0.016374 -0.022205 -0.013375 0.019470 -0.001217
# 3 0.004853 -0.022205 0.054368 0.028814 -0.054655 0.003656
# 4 0.010110 -0.013375 0.028814 0.048296 -0.027826 -0.009645
# 5 -0.037884 0.019470 -0.054655 -0.027826 0.100871 -0.004061
# 6 0.001832 -0.001217 0.003656 -0.009645 -0.004061 0.047999
#
#
# Mechanical properties :
#
#
# Convention : Reuss Voigt Hill
#
# Bulk Modulus (GPa) = 9.63781 62.01124 35.82453
# Shear Modulus (GPa) = 11.52096 29.13537 20.32816
#
# Velocity S-wave (km/s) = 2.33865 3.71904 3.10649
# Velocity P-wave (km/s) = 3.44495 6.91953 5.46569
#
# Compressibility (1/GPa) = 0.10375798
#
# Stress axis : x y z
#
# Youngs Moduli (GPa) = 12.15703 61.07195 18.39327
#
# Poissons Ratio (x) = 0.44390 -0.08926
# Poissons Ratio (y) = 0.08836 0.40842
# Poissons Ratio (z) = -0.05900 1.35609
#
# Static dielectric constant tensor:
#      x y z
#    x 1.910410 0.048040 0.001510 
#    y 0.048040 1.768660 0.013330 
#    z 0.001510 0.013330 1.784300 
# 
# From -- ./inp_files/591594.got.cif
#   From: 2010.05.17/outbox.cif.g08.bks.cpg/sg2_296_cif.got.tgz:591594.got - 2010.06.03 11:33:40.
