data_PCOD9082312
_publ_section_title
;
Structure prediction by ZEFSAII (Michael W. Deem and Ramdas Pophale) SiO2 
 PCOD9082312
Probable space group: P -1
;
_chemical_formula_sum "Si O2"
_cell_formula_units_Z 16
_cell_length_a 12.567842
_cell_length_b 9.880352
_cell_length_c 12.118094
_cell_angle_alpha 36.966534
_cell_angle_beta 114.837531
_cell_angle_gamma 127.883811
_cell_volume 706.246523
_symmetry_space_group_name_H-M "P -1"
_symmetry_group_IT_number 2
_symmetry_cell_setting 'triclinic'
loop_
_space_group_symop_operation_xyz
x,y,z
-x,-y,-z
loop_
_atom_site_type_symbol
_atom_site_label
_atom_site_fract_x
_atom_site_fract_y
_atom_site_fract_z
Si Si1 0.135071 0.088875 0.120141
Si Si2 0.598526 0.772906 0.729501
Si Si3 0.629231 0.293876 0.733133
Si Si4 0.849207 0.939278 0.112332
Si Si5 0.174985 0.607902 0.885359
Si Si6 0.545648 0.009088 0.336176
Si Si7 0.895029 0.495740 0.830586
Si Si8 0.555097 0.715873 0.156839
O O1 0.250620 0.099594 0.240096
O O2 0.151881 0.024492 0.044157
O O3 0.159451 0.383223 0.941603
O O4 0.978855 0.906143 0.210144
O O5 0.505078 0.803225 0.759752
O O6 0.534907 0.476839 0.854207
O O7 0.592578 0.916173 0.523437
O O8 0.788039 0.492341 0.699595
O O9 0.534949 0.362886 0.721124
O O10 0.577339 0.226039 0.630676
O O11 0.598634 0.011977 0.950808
O O12 0.697912 0.723335 0.221798
O O13 0.879164 0.208210 0.006272
O O14 0.325952 0.849208 0.781459
O O15 0.056957 0.677280 0.766689
O O16 0.150122 0.487586 0.076115
#
# Coordination Sequence:
#
# PCOD9082312 Si02
#       8
#     2   2   2   2   2   2   2   2
#     4  10  19  33  54  77 102 134 174 219 263 306
#     4  11  23  36  51  76 111 145 176 211 255 312
#     4  10  19  34  57  81 103 133 175 221 265 307
#     4   9  18  31  53  80 102 128 171 222 265 304
#     4  10  19  34  56  79 103 134 174 218 263 307
#     4  11  23  36  51  76 110 145 177 211 256 312
#     4   9  18  32  55  82 104 127 169 224 266 304
#     4  10  19  34  57  81 103 133 176 222 263 305
#
# _framework density 22.654980999999999
#
# number of rings (size 3 to 8) (size 9 to 14) (size 15 to 20)
#    0.000    2.000    0.000    6.000    0.000    2.000 
#    0.000    1.250    0.000   24.000    0.000    0.000 
#    0.000    0.000    0.000    0.000    0.000    0.000 
#
# Total GULP energy -89407.512329 kJ/mol
# GULP energy per Si atom -5587.969521 kJ/mol
# Density = 2.260342 g / cm^3
# Si number density = 22.654981 Si / 1000 Ang^3
#
#
#
# Elastic Constant Matrix: (Units=GPa)
#
#
# Indices 1 2 3 4 5 6 
#
# 1 140.1626 36.7155 -1.7075 6.1266 19.4694 23.0955
# 2 36.7155 97.3203 -12.7523 18.6812 9.6205 7.1576
# 3 -1.7075 -12.7523 -92.7560 -58.4752 -1.8425 28.9289
# 4 6.1266 18.6812 -58.4752 -15.3349 3.9154 27.3417
# 5 19.4694 9.6205 -1.8425 3.9154 15.5389 15.3625
# 6 23.0955 7.1576 28.9289 27.3417 15.3625 37.4435
#
#
#
# Elastic Compliance Matrix: (Units=1/GPa)
#
#
# Indices 1 2 3 4 5 6 
#
# 1 0.009520 -0.003897 -0.003265 0.004755 -0.008569 -0.002560
# 2 -0.003897 0.017989 0.014112 -0.022596 -0.005718 0.006908
# 3 -0.003265 0.014112 0.026779 -0.052301 -0.008275 0.020213
# 4 0.004755 -0.022596 -0.052301 0.080178 -0.003045 -0.015503
# 5 -0.008569 -0.005718 -0.008275 -0.003045 0.106990 -0.028901
# 6 -0.002560 0.006908 0.020213 -0.015503 -0.028901 0.034527
#
#
# Mechanical properties :
#
#
# Convention : Reuss Voigt Hill
#
# Bulk Modulus (GPa) = 14.66539 21.02648 17.84593
# Shear Modulus (GPa) = 17.55539 15.69422 16.62480
#
# Velocity S-wave (km/s) = 2.78673 2.63487 2.71186
# Velocity P-wave (km/s) = 4.10388 4.30790 4.20713
#
# Compressibility (1/GPa) = 0.06818775
#
# Stress axis : x y z
#
# Youngs Moduli (GPa) = 105.04285 55.58875 37.34252
#
# Poissons Ratio (x) = 0.21661 0.12194
# Poissons Ratio (y) = 0.40932 -0.52697
# Poissons Ratio (z) = 0.34301 -0.78446
#
# Static dielectric constant tensor:
#      x y z
#    x 1.871130 0.042170 0.044470 
#    y 0.042170 1.829160 0.003190 
#    z 0.044470 0.003190 1.869970 
# 
# From -- ./inp_files/416389.got.cif
#   From: 2010.05.17/outbox.cif.g08.bks.cpg/sg2_209_cif.got.tgz:416389.got - 2010.06.03 11:33:40.
