data_PCOD9082144
_publ_section_title
;
Structure prediction by ZEFSAII (Michael W. Deem and Ramdas Pophale) SiO2 
 PCOD9082144
Probable space group: P -1
;
_chemical_formula_sum "Si O2"
_cell_formula_units_Z 12
_cell_length_a 12.611532
_cell_length_b 7.280489
_cell_length_c 12.657894
_cell_angle_alpha 69.554365
_cell_angle_beta 115.616474
_cell_angle_gamma 153.658217
_cell_volume 462.901079
_symmetry_space_group_name_H-M "P -1"
_symmetry_group_IT_number 2
_symmetry_cell_setting 'triclinic'
loop_
_space_group_symop_operation_xyz
x,y,z
-x,-y,-z
loop_
_atom_site_type_symbol
_atom_site_label
_atom_site_fract_x
_atom_site_fract_y
_atom_site_fract_z
Si Si1 0.721641 0.406767 0.098446
Si Si2 0.703810 0.589503 0.846917
Si Si3 0.229963 0.502652 0.513124
Si Si4 0.271597 0.271505 0.394119
Si Si5 0.520627 0.751539 0.778711
Si Si6 0.018394 0.542926 0.309232
O O1 0.546275 0.270419 0.130091
O O2 0.781047 0.279114 0.198430
O O3 0.666415 0.360070 0.960034
O O4 0.999481 0.919020 0.121900
O O5 0.652178 0.483113 0.722137
O O6 0.555249 0.567074 0.824300
O O7 0.173457 0.261940 0.446551
O O8 0.306176 0.516432 0.654700
O O9 0.028504 0.377843 0.427670
O O10 0.500000 0.000000 0.500000
O O11 0.500000 0.500000 0.500000
O O12 0.113957 0.865659 0.355672
O O13 0.780742 0.205613 0.747528
#
# Coordination Sequence:
#
# PCOD9082144 Si02
#       6
#     2   2   2   2   2   2
#     4   9  17  32  48  73 101 131 165 197 248 289
#     4   9  18  30  50  73 100 130 164 205 239 293
#     4  10  17  30  52  76  99 129 164 201 247 290
#     4  10  15  31  53  74  96 129 167 197 248 290
#     4   9  16  28  51  73  95 131 166 200 241 292
#     4   9  20  32  51  76 100 131 160 204 244 291
#
# _framework density 25.923466999999999
#
# number of rings (size 3 to 8) (size 9 to 14) (size 15 to 20)
#    0.000    3.000    5.000    0.500    0.000    0.667 
#    0.000    4.167    0.000    4.000    0.000    0.000 
#    0.000    0.000    0.000    0.000    0.000    0.000 
#
# Total GULP energy -67100.778594 kJ/mol
# GULP energy per Si atom -5591.731549 kJ/mol
# Density = 2.586446 g / cm^3
# Si number density = 25.923467 Si / 1000 Ang^3
#
#
#
# Elastic Constant Matrix: (Units=GPa)
#
#
# Indices 1 2 3 4 5 6 
#
# 1 160.5726 31.7134 65.8385 -18.8156 -27.4579 17.9672
# 2 31.7134 57.3020 35.9729 -10.2408 2.1019 6.7866
# 3 65.8385 35.9729 211.0943 -5.7745 -20.6571 14.8491
# 4 -18.8156 -10.2408 -5.7745 57.0941 2.2869 7.0564
# 5 -27.4579 2.1019 -20.6571 2.2869 42.2228 -5.1590
# 6 17.9672 6.7866 14.8491 7.0564 -5.1590 43.1357
#
#
#
# Elastic Compliance Matrix: (Units=1/GPa)
#
#
# Indices 1 2 3 4 5 6 
#
# 1 0.008877 -0.003471 -0.001474 0.002263 0.004804 -0.002440
# 2 -0.003471 0.022233 -0.002987 0.003018 -0.005251 -0.002146
# 3 -0.001474 -0.002987 0.005939 -0.000422 0.002040 -0.000648
# 4 0.002263 0.003018 -0.000422 0.019334 -0.000481 -0.004492
# 5 0.004804 -0.005251 0.002040 -0.000481 0.028287 0.001585
# 6 -0.002440 -0.002146 -0.000648 -0.004492 0.001585 0.025684
#
#
# Mechanical properties :
#
#
# Convention : Reuss Voigt Hill
#
# Bulk Modulus (GPa) = 47.19688 77.33541 62.26614
# Shear Modulus (GPa) = 37.51536 48.18680 42.85108
#
# Velocity S-wave (km/s) = 3.80828 4.31607 4.07010
# Velocity P-wave (km/s) = 6.13051 7.39830 6.79404
#
# Compressibility (1/GPa) = 0.02118784
#
# Stress axis : x y z
#
# Youngs Moduli (GPa) = 112.65005 44.97789 168.36659
#
# Poissons Ratio (x) = 0.15610 0.24811
# Poissons Ratio (y) = 0.39097 0.50285
# Poissons Ratio (z) = 0.16600 0.13433
#
# Static dielectric constant tensor:
#      x y z
#    x 1.993810 0.027600 -0.016080 
#    y 0.027600 2.461140 -0.069830 
#    z -0.016080 -0.069830 2.065590 
# 
# From -- ./inp_files/412431.got.cif
#   From: 2010.05.17/outbox.cif.g08.bks.cpg/sg2_207_cif.got.tgz:412431.got - 2010.06.03 11:33:40.
