data_PCOD9082422
_publ_section_title
;
Structure prediction by ZEFSAII (Michael W. Deem and Ramdas Pophale) SiO2 
 PCOD9082422
Probable space group: P -1
;
_chemical_formula_sum "Si O2"
_cell_formula_units_Z 16
_cell_length_a 10.219277
_cell_length_b 12.813012
_cell_length_c 17.427324
_cell_angle_alpha 153.013903
_cell_angle_beta 105.636901
_cell_angle_gamma 90.190023
_cell_volume 827.981923
_symmetry_space_group_name_H-M "P -1"
_symmetry_group_IT_number 2
_symmetry_cell_setting 'triclinic'
loop_
_space_group_symop_operation_xyz
x,y,z
-x,-y,-z
loop_
_atom_site_type_symbol
_atom_site_label
_atom_site_fract_x
_atom_site_fract_y
_atom_site_fract_z
Si Si1 0.038581 0.700224 0.776538
Si Si2 0.610342 0.731923 0.538113
Si Si3 0.889851 0.622914 0.949785
Si Si4 0.661170 0.046829 0.592715
Si Si5 0.238379 0.329566 0.194371
Si Si6 0.924471 0.770146 0.565838
Si Si7 0.791670 0.248272 0.000035
Si Si8 0.842712 0.798762 0.394801
O O1 0.032306 0.456805 0.570201
O O2 0.862247 0.628993 0.728735
O O3 0.138911 0.747664 0.902391
O O4 0.137126 0.999505 0.948941
O O5 0.425890 0.467054 0.335930
O O6 0.753466 0.675544 0.518576
O O7 0.631011 0.901703 0.574817
O O8 0.649830 0.941592 0.751370
O O9 0.057550 0.660825 0.974030
O O10 0.796575 0.375291 0.832828
O O11 0.778715 0.544878 0.805058
O O12 0.940651 0.921598 0.182827
O O13 0.500000 0.000000 0.500000
O O14 0.729691 0.914444 0.460146
O O15 0.900054 0.798859 0.490575
O O16 0.753946 0.482974 0.145532
O O17 0.000000 0.000000 0.500000
#
# Coordination Sequence:
#
# PCOD9082422 Si02
#       8
#     2   2   2   2   2   2   2   2
#     4   9  20  39  57  77 106 139 178 220 266 314
#     4  10  21  35  55  82 107 137 180 217 262 312
#     4  10  19  35  56  77 110 145 173 211 265 315
#     4  11  21  34  52  79 114 140 170 218 263 310
#     4  10  20  37  58  77 106 143 174 219 270 311
#     4   9  21  35  54  81 105 136 185 217 253 319
#     4   9  19  36  56  78 105 140 181 216 256 316
#     4  10  19  33  55  75 104 145 180 208 255 314
#
# _framework density 19.324093000000001
#
# number of rings (size 3 to 8) (size 9 to 14) (size 15 to 20)
#    0.000    2.250    2.500    0.000    1.750    3.000 
#    2.250    0.625    0.000    0.000    0.000    0.000 
#    0.000    0.000    0.000    0.000    0.000    0.000 
#
# Total GULP energy -89300.340151 kJ/mol
# GULP energy per Si atom -5581.271259 kJ/mol
# Density = 1.928011 g / cm^3
# Si number density = 19.324093 Si / 1000 Ang^3
#
#
#
# Elastic Constant Matrix: (Units=GPa)
#
#
# Indices 1 2 3 4 5 6 
#
# 1 77.4068 11.0865 45.3439 8.6647 -20.2510 -1.4741
# 2 11.0865 26.6329 5.0501 9.1792 -6.3660 8.4879
# 3 45.3439 5.0501 97.0767 5.0278 -25.2668 11.1354
# 4 8.6647 9.1792 5.0278 28.4605 -1.1324 -1.4129
# 5 -20.2510 -6.3660 -25.2668 -1.1324 32.2365 6.2203
# 6 -1.4741 8.4879 11.1354 -1.4129 6.2203 15.5288
#
#
#
# Elastic Compliance Matrix: (Units=1/GPa)
#
#
# Indices 1 2 3 4 5 6 
#
# 1 0.021799 -0.013946 -0.012442 0.000936 -0.002587 0.019735
# 2 -0.013946 0.087902 0.025137 -0.031153 0.044171 -0.087923
# 3 -0.012442 0.025137 0.027983 -0.010494 0.027795 -0.047075
# 4 0.000936 -0.031153 -0.010494 0.047810 -0.019187 0.036677
# 5 -0.002587 0.044171 0.027795 -0.019187 0.073825 -0.075638
# 6 0.019735 -0.087923 -0.047075 0.036677 -0.075638 0.181719
#
#
# Mechanical properties :
#
#
# Convention : Reuss Voigt Hill
#
# Bulk Modulus (GPa) = 7.39746 36.00858 21.70302
# Shear Modulus (GPa) = 10.23330 24.55423 17.39377
#
# Velocity S-wave (km/s) = 2.30372 3.56849 3.00343
# Velocity P-wave (km/s) = 3.30342 5.97104 4.82524
#
# Compressibility (1/GPa) = 0.13518156
#
# Stress axis : x y z
#
# Youngs Moduli (GPa) = 45.87414 11.37625 35.73592
#
# Poissons Ratio (x) = 0.15865 0.44464
# Poissons Ratio (y) = 0.63974 -0.89828
# Poissons Ratio (z) = 0.57078 -0.28596
#
# Static dielectric constant tensor:
#      x y z
#    x 1.657780 -0.001790 -0.014670 
#    y -0.001790 1.688320 0.006220 
#    z -0.014670 0.006220 1.681250 
# 
# From -- ./inp_files/178846.got.cif
#   From: 2010.05.17/outbox.cif.g08.bks.cpg/sg2_90_cif.got.tgz:178846.got - 2010.06.03 11:33:40.
