data_PCOD9082538
_publ_section_title
;
Structure prediction by ZEFSAII (Michael W. Deem and Ramdas Pophale) SiO2 
 PCOD9082538
Probable space group: P -1
;
_chemical_formula_sum "Si O2"
_cell_formula_units_Z 16
_cell_length_a 25.421012
_cell_length_b 7.958956
_cell_length_c 5.517568
_cell_angle_alpha 123.810758
_cell_angle_beta 86.559530
_cell_angle_gamma 131.500117
_cell_volume 603.182702
_symmetry_space_group_name_H-M "P -1"
_symmetry_group_IT_number 2
_symmetry_cell_setting 'triclinic'
loop_
_space_group_symop_operation_xyz
x,y,z
-x,-y,-z
loop_
_atom_site_type_symbol
_atom_site_label
_atom_site_fract_x
_atom_site_fract_y
_atom_site_fract_z
Si Si1 0.034103 0.346079 0.127534
Si Si2 0.687852 0.487280 0.087680
Si Si3 0.196916 0.867832 0.226808
Si Si4 0.890002 0.158466 0.136964
Si Si5 0.285853 0.667526 0.552868
Si Si6 0.536985 0.825906 0.102287
Si Si7 0.148065 0.346201 0.032316
Si Si8 0.500978 0.176292 0.385092
O O1 0.107872 0.651876 0.192324
O O2 0.055669 0.500754 0.508039
O O3 0.059540 0.188285 0.960152
O O4 0.945116 0.171305 0.962496
O O5 0.721283 0.463238 0.293192
O O6 0.728891 0.825314 0.392998
O O7 0.707540 0.445988 0.789507
O O8 0.591276 0.177225 0.884605
O O9 0.193187 0.613436 0.032500
O O10 0.187354 0.958331 0.051446
O O11 0.866259 0.933204 0.176749
O O12 0.375599 0.023013 0.822852
O O13 0.205396 0.557467 0.420368
O O14 0.495771 0.680095 0.258353
O O15 0.552491 0.120702 0.342600
O O16 0.485616 0.664972 0.740679
#
# Coordination Sequence:
#
# PCOD9082538 Si02
#       8
#     2   2   2   2   2   2   2   2
#     4   9  23  37  58  84 105 148 192 236 293 350
#     4  10  19  33  56  78 115 151 188 234 291 333
#     4  10  22  35  55  81 109 147 189 233 288 345
#     4  11  19  43  57  76 118 142 188 248 287 345
#     4  10  19  34  55  80 112 155 183 240 288 337
#     4   8  14  25  45  73 106 138 189 224 277 333
#     4  10  22  36  56  85 110 148 194 234 293 347
#     4   8  14  25  44  75 103 142 184 230 270 337
#
# _framework density 26.525960999999999
#
# number of rings (size 3 to 8) (size 9 to 14) (size 15 to 20)
#    0.750    1.750    1.250    1.500    0.000    1.000 
#    2.250    1.250    0.000    0.750    0.000    0.000 
#    0.000   21.000    0.000    0.000    0.000    3.000 
#
# Total GULP energy -89088.102324 kJ/mol
# GULP energy per Si atom -5568.006395 kJ/mol
# Density = 2.646559 g / cm^3
# Si number density = 26.525961 Si / 1000 Ang^3
#
#
#
# Elastic Constant Matrix: (Units=GPa)
#
#
# Indices 1 2 3 4 5 6 
#
# 1 72.6787 24.8299 26.4679 1.6394 2.8326 -15.4578
# 2 24.8299 109.5760 47.8893 -0.0315 -5.7625 -19.1761
# 3 26.4679 47.8893 97.8618 -16.9910 2.9896 -22.5965
# 4 1.6394 -0.0315 -16.9910 55.1815 0.3953 -0.1897
# 5 2.8326 -5.7625 2.9896 0.3953 36.7089 -2.8158
# 6 -15.4578 -19.1761 -22.5965 -0.1897 -2.8158 41.4211
#
#
#
# Elastic Compliance Matrix: (Units=1/GPa)
#
#
# Indices 1 2 3 4 5 6 
#
# 1 0.016269 -0.001863 -0.002867 -0.001348 -0.001026 0.003569
# 2 -0.001863 0.012467 -0.005433 -0.001622 0.002737 0.002291
# 3 -0.002867 -0.005433 0.015687 0.004941 -0.001588 0.004888
# 4 -0.001348 -0.001622 0.004941 0.019692 -0.000651 0.001487
# 5 -0.001026 0.002737 -0.001588 -0.000651 0.028034 0.001921
# 6 0.003569 0.002291 0.004888 0.001487 0.001921 0.029338
#
#
# Mechanical properties :
#
#
# Convention : Reuss Voigt Hill
#
# Bulk Modulus (GPa) = 41.49898 53.16563 47.33231
# Shear Modulus (GPa) = 33.36721 38.72427 36.04574
#
# Velocity S-wave (km/s) = 3.55055 3.82496 3.69031
# Velocity P-wave (km/s) = 5.69975 6.29233 6.00336
#
# Compressibility (1/GPa) = 0.02409698
#
# Stress axis : x y z
#
# Youngs Moduli (GPa) = 61.46542 80.21018 63.74516
#
# Poissons Ratio (x) = 0.14947 0.18275
# Poissons Ratio (y) = 0.11454 0.34634
# Poissons Ratio (z) = 0.17621 0.43580
#
# Static dielectric constant tensor:
#      x y z
#    x 2.154460 -0.004160 0.046880 
#    y -0.004160 2.236550 -0.044820 
#    z 0.046880 -0.044820 2.104940 
# 
# From -- ./inp_files/126118.got.cif
#   From: 2010.05.17/outbox.cif.g08.bks.cpg/sg2_64_cif.got.tgz:126118.got - 2010.06.03 11:33:40.
