data_PCOD9082370
_publ_section_title
;
Structure prediction by ZEFSAII (Michael W. Deem and Ramdas Pophale) SiO2 
 PCOD9082370
Probable space group: P -1
;
_chemical_formula_sum "Si O2"
_cell_formula_units_Z 14
_cell_length_a 5.187190
_cell_length_b 24.260768
_cell_length_c 10.562136
_cell_angle_alpha 146.804720
_cell_angle_beta 63.321479
_cell_angle_gamma 120.411628
_cell_volume 626.691509
_symmetry_space_group_name_H-M "P -1"
_symmetry_group_IT_number 2
_symmetry_cell_setting 'triclinic'
loop_
_space_group_symop_operation_xyz
x,y,z
-x,-y,-z
loop_
_atom_site_type_symbol
_atom_site_label
_atom_site_fract_x
_atom_site_fract_y
_atom_site_fract_z
Si Si1 0.593526 0.645808 0.880585
Si Si2 0.905271 0.128273 0.145786
Si Si3 0.203686 0.112552 0.306155
Si Si4 0.354274 0.951762 0.308447
Si Si5 0.802647 0.249043 0.168710
Si Si6 0.284538 0.152223 0.633771
Si Si7 0.335416 0.562229 0.505196
O O1 0.483273 0.617302 0.707493
O O2 0.525216 0.533041 0.746507
O O3 0.950074 0.697750 0.888323
O O4 0.505209 0.742539 0.151380
O O5 0.554115 0.122562 0.228530
O O6 0.970831 0.207351 0.165030
O O7 0.070813 0.154884 0.294184
O O8 0.939326 0.012322 0.885293
O O9 0.170324 0.169820 0.554070
O O10 0.000818 0.899644 0.313810
O O11 0.500000 0.000000 0.500000
O O12 0.423865 0.053407 0.400015
O O13 0.429547 0.852685 0.035816
O O14 0.665015 0.345368 0.414925
O O15 0.000000 0.500000 0.500000
#
# Coordination Sequence:
#
# PCOD9082370 Si02
#       7
#     2   2   2   2   2   2   2
#     4   9  19  34  55  82 109 141 178 235 289 339
#     4  10  22  37  56  79 112 157 198 225 271 324
#     4  10  22  38  54  79 115 157 192 230 267 334
#     4  10  20  30  51  81 112 142 176 226 289 339
#     4  10  19  33  54  82 108 145 187 233 275 334
#     4  10  20  34  50  80 112 144 182 225 288 336
#     4   9  18  34  54  82 106 138 183 228 292 336
#
# _framework density 22.339541000000001
#
# number of rings (size 3 to 8) (size 9 to 14) (size 15 to 20)
#    0.000    2.286    1.429    0.857    4.000    1.143 
#    0.000    0.000    0.000    1.714    0.000    0.000 
#    0.000    0.000    0.000    0.000    0.000    0.000 
#
# Total GULP energy -78037.829757 kJ/mol
# GULP energy per Si atom -5574.130697 kJ/mol
# Density = 2.228870 g / cm^3
# Si number density = 22.339541 Si / 1000 Ang^3
#
#
#
# Elastic Constant Matrix: (Units=GPa)
#
#
# Indices 1 2 3 4 5 6 
#
# 1 66.0541 22.2092 24.8675 17.0126 11.6896 -16.4977
# 2 22.2092 103.9878 65.0275 23.0085 -0.8862 -36.9480
# 3 24.8675 65.0275 143.0862 37.4309 23.3245 -20.5623
# 4 17.0126 23.0085 37.4309 41.3707 -6.1203 -4.3883
# 5 11.6896 -0.8862 23.3245 -6.1203 29.5615 -1.9357
# 6 -16.4977 -36.9480 -20.5623 -4.3883 -1.9357 41.7081
#
#
#
# Elastic Compliance Matrix: (Units=1/GPa)
#
#
# Indices 1 2 3 4 5 6 
#
# 1 0.021677 -0.001734 0.003395 -0.012283 -0.013400 0.006798
# 2 -0.001734 0.019984 -0.008165 -0.000335 0.008532 0.013353
# 3 0.003395 -0.008165 0.016938 -0.014839 -0.018019 0.000063
# 4 -0.012283 -0.000335 -0.014839 0.045945 0.025645 -0.006447
# 5 -0.013400 0.008532 -0.018019 0.025645 0.058831 -0.001198
# 6 0.006798 0.013353 0.000063 -0.006447 -0.001198 0.037791
#
#
# Mechanical properties :
#
#
# Convention : Reuss Voigt Hill
#
# Bulk Modulus (GPa) = 21.93403 59.70405 40.81904
# Shear Modulus (GPa) = 21.79889 35.92964 28.86427
#
# Velocity S-wave (km/s) = 3.12717 4.01477 3.59844
# Velocity P-wave (km/s) = 4.78317 6.94801 5.96463
#
# Compressibility (1/GPa) = 0.04559126
#
# Stress axis : x y z
#
# Youngs Moduli (GPa) = 46.13234 50.04048 59.04058
#
# Poissons Ratio (x) = 0.08676 -0.20045
# Poissons Ratio (y) = 0.07998 0.48205
# Poissons Ratio (z) = -0.15663 0.40857
#
# Static dielectric constant tensor:
#      x y z
#    x 1.979880 -0.038500 -0.071060 
#    y -0.038500 1.882160 0.036680 
#    z -0.071060 0.036680 1.926980 
# 
# From -- ./inp_files/34077.got.cif
#   From: 2010.05.17/outbox.cif.g08.bks.cpg/sg2_18_cif.got.tgz:34077.got - 2010.06.03 11:33:40.
