data_PCOD9082077
_publ_section_title
;
Structure prediction by ZEFSAII (Michael W. Deem and Ramdas Pophale) SiO2 
 PCOD9082077
Probable space group: P -1
;
_chemical_formula_sum "Si O2"
_cell_formula_units_Z 12
_cell_length_a 9.415208
_cell_length_b 16.599094
_cell_length_c 5.113146
_cell_angle_alpha 80.851537
_cell_angle_beta 104.473302
_cell_angle_gamma 44.336586
_cell_volume 468.573650
_symmetry_space_group_name_H-M "P -1"
_symmetry_group_IT_number 2
_symmetry_cell_setting 'triclinic'
loop_
_space_group_symop_operation_xyz
x,y,z
-x,-y,-z
loop_
_atom_site_type_symbol
_atom_site_label
_atom_site_fract_x
_atom_site_fract_y
_atom_site_fract_z
Si Si1 0.748465 0.665908 0.062310
Si Si2 0.465069 0.753492 0.401490
Si Si3 0.950855 0.266783 0.378548
Si Si4 0.803122 0.477066 0.920586
Si Si5 0.003106 0.864360 0.032513
Si Si6 0.476526 0.068008 0.704538
O O1 0.609466 0.725634 0.236996
O O2 0.970811 0.626234 0.119660
O O3 0.547302 0.765735 0.693060
O O4 0.851685 0.529430 0.123592
O O5 0.583633 0.611308 0.589377
O O6 0.192539 0.852047 0.173936
O O7 0.938561 0.231087 0.674403
O O8 0.196393 0.211760 0.506449
O O9 0.964537 0.187558 0.214450
O O10 0.762993 0.413304 0.098043
O O11 0.723141 0.010703 0.858683
O O12 0.500000 0.000000 0.500000
O O13 0.500000 0.000000 0.000000
#
# Coordination Sequence:
#
# PCOD9082077 Si02
#       6
#     2   2   2   2   2   2
#     4   9  20  34  49  68  93 132 162 189 227 278
#     4  10  19  33  49  70  96 130 153 191 238 282
#     4  10  20  31  51  73  95 125 156 195 233 279
#     4   9  21  32  52  68  97 123 167 191 229 274
#     4  10  20  32  49  73 100 123 150 194 243 284
#     4   8  16  32  47  66  93 125 157 183 228 283
#
# _framework density 25.609635000000001
#
# number of rings (size 3 to 8) (size 9 to 14) (size 15 to 20)
#    1.000    1.667    0.000    1.500    2.333    1.333 
#    0.000    0.000    0.000    2.000    0.000    0.000 
#    0.000    0.000    0.000    0.000    0.000    0.000 
#
# Total GULP energy -67056.822793 kJ/mol
# GULP energy per Si atom -5588.068566 kJ/mol
# Density = 2.555135 g / cm^3
# Si number density = 25.609635 Si / 1000 Ang^3
#
#
#
# Elastic Constant Matrix: (Units=GPa)
#
#
# Indices 1 2 3 4 5 6 
#
# 1 129.7541 26.6833 41.1434 -13.2271 36.9714 -17.0564
# 2 26.6833 61.6172 32.7026 3.7465 1.8284 -9.6718
# 3 41.1434 32.7026 136.0738 0.5456 -1.6373 -21.4600
# 4 -13.2271 3.7465 0.5456 42.3227 -10.1346 3.1390
# 5 36.9714 1.8284 -1.6373 -10.1346 51.9102 -9.4950
# 6 -17.0564 -9.6718 -21.4600 3.1390 -9.4950 26.3095
#
#
#
# Elastic Compliance Matrix: (Units=1/GPa)
#
#
# Indices 1 2 3 4 5 6 
#
# 1 0.011841 -0.003419 -0.002674 0.002089 -0.007773 0.001184
# 2 -0.003419 0.020069 -0.003207 -0.002644 0.001750 0.003492
# 3 -0.002674 -0.003207 0.010002 -0.000336 0.003462 0.006536
# 4 0.002089 -0.002644 -0.000336 0.025425 0.003237 -0.001757
# 5 -0.007773 0.001750 0.003462 0.003237 0.026897 0.007749
# 6 0.001184 0.003492 0.006536 -0.001757 0.007749 0.048398
#
#
# Mechanical properties :
#
#
# Convention : Reuss Voigt Hill
#
# Bulk Modulus (GPa) = 42.89589 58.72265 50.80927
# Shear Modulus (GPa) = 29.58537 39.23619 34.41078
#
# Velocity S-wave (km/s) = 3.40258 3.91843 3.66958
# Velocity P-wave (km/s) = 5.67653 6.59180 6.15121
#
# Compressibility (1/GPa) = 0.02331226
#
# Stress axis : x y z
#
# Youngs Moduli (GPa) = 84.45046 49.82821 99.98157
#
# Poissons Ratio (x) = 0.17038 0.26732
# Poissons Ratio (y) = 0.28876 0.32063
# Poissons Ratio (z) = 0.22580 0.15980
#
# Static dielectric constant tensor:
#      x y z
#    x 2.072640 0.057720 0.012720 
#    y 0.057720 2.024310 -0.032750 
#    z 0.012720 -0.032750 2.013750 
# 
# From -- ./inp_files/30616.got.cif
#   From: 2010.05.17/outbox.cif.g08.bks.cpg/sg2_16_cif.got.tgz:30616.got - 2010.06.03 11:33:40.
