data_PCOD9082585
_publ_section_title
;
Structure prediction by ZEFSAII (Michael W. Deem and Ramdas Pophale) SiO2 
 PCOD9082585
Probable space group: P -1
;
_chemical_formula_sum "Si O2"
_cell_formula_units_Z 16
_cell_length_a 21.560986
_cell_length_b 9.724282
_cell_length_c 11.726130
_cell_angle_alpha 101.820699
_cell_angle_beta 52.178176
_cell_angle_gamma 143.912557
_cell_volume 893.174167
_symmetry_space_group_name_H-M "P -1"
_symmetry_group_IT_number 2
_symmetry_cell_setting 'triclinic'
loop_
_space_group_symop_operation_xyz
x,y,z
-x,-y,-z
loop_
_atom_site_type_symbol
_atom_site_label
_atom_site_fract_x
_atom_site_fract_y
_atom_site_fract_z
Si Si1 0.976114 0.189393 0.629698
Si Si2 0.421114 0.651005 0.336420
Si Si3 0.043097 0.978877 0.600743
Si Si4 0.241314 0.629670 0.587387
Si Si5 0.585736 0.833383 0.415236
Si Si6 0.641017 0.640102 0.209698
Si Si7 0.611984 0.723969 0.017794
Si Si8 0.020071 0.993886 0.106789
O O1 0.968641 0.012773 0.649044
O O2 0.125680 0.488914 0.586691
O O3 0.006760 0.219582 0.465464
O O4 0.804607 0.997773 0.817456
O O5 0.244709 0.312079 0.431045
O O6 0.393394 0.774371 0.393040
O O7 0.456743 0.662784 0.429021
O O8 0.564046 0.806513 0.124487
O O9 0.990653 0.889925 0.776348
O O10 0.304354 0.858279 0.628477
O O11 0.126625 0.343427 0.743582
O O12 0.686301 0.858530 0.258297
O O13 0.490640 0.639758 0.604829
O O14 0.572730 0.571074 0.150071
O O15 0.804007 0.804222 0.041134
O O16 0.500000 0.500000 0.000000
O O17 0.000000 0.000000 0.000000
#
# Coordination Sequence:
#
# PCOD9082585 Si02
#       8
#     2   2   2   2   2   2   2   2
#     4   9  17  31  51  78 104 141 183 221 267 319
#     4   9  18  30  52  82 107 143 182 218 270 325
#     4   9  16  30  51  78 107 140 180 222 261 320
#     4  10  20  35  55  81 113 149 178 225 279 327
#     4  10  21  35  56  77 115 144 180 228 281 330
#     4  10  20  36  53  83 105 143 190 227 273 327
#     4  11  18  31  55  84 108 138 188 235 261 321
#     4  10  19  33  56  83 113 141 183 226 267 326
#
# _framework density 17.913639
#
# number of rings (size 3 to 8) (size 9 to 14) (size 15 to 20)
#    0.000    2.500    3.750    1.875    0.000    0.500 
#    0.000    0.000    0.000    6.750    0.000    0.000 
#    0.000    0.000    0.000    0.000    0.000    0.000 
#
# Total GULP energy -89094.412502 kJ/mol
# GULP energy per Si atom -5568.400781 kJ/mol
# Density = 1.787287 g / cm^3
# Si number density = 17.913639 Si / 1000 Ang^3
#
#
#
# Elastic Constant Matrix: (Units=GPa)
#
#
# Indices 1 2 3 4 5 6 
#
# 1 66.2198 36.1706 40.1964 13.0983 -3.0436 24.3446
# 2 36.1706 67.4789 32.4487 16.4293 14.7855 15.8352
# 3 40.1964 32.4487 96.6932 32.5329 -7.5260 8.4889
# 4 13.0983 16.4293 32.5329 19.1278 5.3260 6.0354
# 5 -3.0436 14.7855 -7.5260 5.3260 32.9020 5.7482
# 6 24.3446 15.8352 8.4889 6.0354 5.7482 17.5833
#
#
#
# Elastic Compliance Matrix: (Units=1/GPa)
#
#
# Indices 1 2 3 4 5 6 
#
# 1 0.054982 -0.013273 -0.019460 0.024205 0.014533 -0.067836
# 2 -0.013273 0.027337 -0.002459 -0.007060 -0.013228 0.001693
# 3 -0.019460 -0.002459 0.039687 -0.064682 0.014029 0.027612
# 4 0.024205 -0.007060 -0.064682 0.174588 -0.029576 -0.046185
# 5 0.014533 -0.013228 0.014029 -0.029576 0.049340 -0.020960
# 6 -0.067836 0.001693 0.027612 -0.046185 -0.020960 0.158642
#
#
# Mechanical properties :
#
#
# Convention : Reuss Voigt Hill
#
# Bulk Modulus (GPa) = 19.37137 49.78035 34.57586
# Shear Modulus (GPa) = 8.44355 22.02770 15.23563
#
# Velocity S-wave (km/s) = 2.17341 3.51046 2.91950
# Velocity P-wave (km/s) = 4.13951 6.65436 5.54148
#
# Compressibility (1/GPa) = 0.05162256
#
# Stress axis : x y z
#
# Youngs Moduli (GPa) = 18.18763 36.58106 25.19719
#
# Poissons Ratio (x) = 0.48554 0.49033
# Poissons Ratio (y) = 0.24141 0.06195
# Poissons Ratio (z) = 0.35393 0.08995
#
# Static dielectric constant tensor:
#      x y z
#    x 1.653640 0.010690 0.000400 
#    y 0.010690 1.603760 0.034410 
#    z 0.000400 0.034410 1.631320 
# 
# From -- ./inp_files/458345.got.cif
#   From: 2010.05.17/outbox.cif.g08.bks.cpg/sg2_230_cif.got.tgz:458345.got - 2010.06.03 11:33:40.
