data_PCOD9082931
_publ_section_title
;
Structure prediction by ZEFSAII (Michael W. Deem and Ramdas Pophale) SiO2 
 PCOD9082931
Probable space group: P -1
;
_chemical_formula_sum "Si O2"
_cell_formula_units_Z 16
_cell_length_a 9.561520
_cell_length_b 9.095096
_cell_length_c 8.346516
_cell_angle_alpha 97.070461
_cell_angle_beta 109.088297
_cell_angle_gamma 75.870306
_cell_volume 664.434184
_symmetry_space_group_name_H-M "P -1"
_symmetry_group_IT_number 2
_symmetry_cell_setting 'triclinic'
loop_
_space_group_symop_operation_xyz
x,y,z
-x,-y,-z
loop_
_atom_site_type_symbol
_atom_site_label
_atom_site_fract_x
_atom_site_fract_y
_atom_site_fract_z
Si Si1 0.113883 0.698404 0.063165
Si Si2 0.873010 0.725675 0.451529
Si Si3 0.198934 0.785673 0.611282
Si Si4 0.596988 0.333978 0.044900
Si Si5 0.156852 0.397957 0.248172
Si Si6 0.861626 0.901337 0.172597
Si Si7 0.401861 0.154043 0.118593
Si Si8 0.634419 0.026033 0.446342
O O1 0.147012 0.559999 0.183479
O O2 0.019733 0.847870 0.134418
O O3 0.269731 0.712082 0.040672
O O4 0.993088 0.657581 0.881281
O O5 0.845172 0.606193 0.558962
O O6 0.839090 0.754889 0.252546
O O7 0.048205 0.729683 0.520186
O O8 0.768214 0.880825 0.499640
O O9 0.313435 0.675884 0.754490
O O10 0.290491 0.827833 0.498036
O O11 0.145539 0.949930 0.703526
O O12 0.476653 0.229885 0.012597
O O13 0.500000 0.500000 0.000000
O O14 0.306877 0.284647 0.217926
O O15 0.724948 0.930640 0.000547
O O16 0.545206 0.051880 0.247287
O O17 0.500000 0.000000 0.500000
#
# Coordination Sequence:
#
# PCOD9082931 Si02
#       8
#     2   2   2   2   2   2   2   2
#     4  10  21  38  62  92 115 158 203 251 296 356
#     4  11  21  40  62  87 121 163 204 248 299 360
#     4  10  23  40  60  88 121 164 203 244 302 363
#     4  11  21  38  65  89 120 157 201 251 298 360
#     4  10  19  37  64  86 115 159 209 238 298 366
#     4  10  23  40  59  90 126 154 204 252 299 356
#     4  10  21  38  61  91 122 156 200 252 302 357
#     4  10  19  33  59  87 116 156 195 242 297 355
#
# _framework density 24.080642999999998
#
# number of rings (size 3 to 8) (size 9 to 14) (size 15 to 20)
#    0.000    1.750    3.750    1.500    0.000    5.500 
#    0.000    5.000    0.000    1.500    0.000    0.000 
#    0.000    0.000    0.000    0.000    0.000    0.000 
#
# Total GULP energy -89384.409674 kJ/mol
# GULP energy per Si atom -5586.525605 kJ/mol
# Density = 2.402583 g / cm^3
# Si number density = 24.080643 Si / 1000 Ang^3
#
#
#
# Elastic Constant Matrix: (Units=GPa)
#
#
# Indices 1 2 3 4 5 6 
#
# 1 171.6902 39.5135 32.1681 -14.8158 -19.8224 -19.7888
# 2 39.5135 85.5547 34.9541 -21.3693 -3.5088 -13.7072
# 3 32.1681 34.9541 59.7715 -32.3210 0.0822 2.5788
# 4 -14.8158 -21.3693 -32.3210 35.8162 -1.5024 -2.2999
# 5 -19.8224 -3.5088 0.0822 -1.5024 52.5502 -6.5875
# 6 -19.7888 -13.7072 2.5788 -2.2999 -6.5875 27.9192
#
#
#
# Elastic Compliance Matrix: (Units=1/GPa)
#
#
# Indices 1 2 3 4 5 6 
#
# 1 0.007973 -0.000838 -0.004418 -0.000616 0.003753 0.006482
# 2 -0.000838 0.018197 -0.008872 0.003238 0.002254 0.009958
# 3 -0.004418 -0.008872 0.039975 0.028230 -0.002704 -0.009492
# 4 -0.000616 0.003238 0.028230 0.055385 0.001971 0.003573
# 5 0.003753 0.002254 -0.002704 0.001971 0.021826 0.009329
# 6 0.006482 0.009958 -0.009492 0.003573 0.009329 0.048673
#
#
# Mechanical properties :
#
#
# Convention : Reuss Voigt Hill
#
# Bulk Modulus (GPa) = 26.39428 58.92086 42.65757
# Shear Modulus (GPa) = 21.46714 37.28250 29.37482
#
# Velocity S-wave (km/s) = 2.98899 3.93903 3.49643
# Velocity P-wave (km/s) = 4.78504 6.72378 5.83549
#
# Compressibility (1/GPa) = 0.03788700
#
# Stress axis : x y z
#
# Youngs Moduli (GPa) = 125.43111 54.95428 25.01570
#
# Poissons Ratio (x) = 0.04607 0.11052
# Poissons Ratio (y) = 0.10515 0.22195
# Poissons Ratio (z) = 0.55417 0.48757
#
# Static dielectric constant tensor:
#      x y z
#    x 1.954840 0.029570 -0.072590 
#    y 0.029570 1.942280 0.017330 
#    z -0.072590 0.017330 2.000950 
# 
# From -- ./inp_files/186786.got.cif
#   From: 2010.05.17/outbox.cif.g08.bks.cpg/sg2_94_cif.got.tgz:186786.got - 2010.06.03 11:33:40.
