data_PCOD9082941
_publ_section_title
;
Structure prediction by ZEFSAII (Michael W. Deem and Ramdas Pophale) SiO2 
 PCOD9082941
Probable space group: P -1
;
_chemical_formula_sum "Si O2"
_cell_formula_units_Z 16
_cell_length_a 7.114548
_cell_length_b 21.495732
_cell_length_c 22.242189
_cell_angle_alpha 160.112629
_cell_angle_beta 140.299409
_cell_angle_gamma 35.876906
_cell_volume 677.649506
_symmetry_space_group_name_H-M "P -1"
_symmetry_group_IT_number 2
_symmetry_cell_setting 'triclinic'
loop_
_space_group_symop_operation_xyz
x,y,z
-x,-y,-z
loop_
_atom_site_type_symbol
_atom_site_label
_atom_site_fract_x
_atom_site_fract_y
_atom_site_fract_z
Si Si1 0.796370 0.467893 0.689910
Si Si2 0.817595 0.835343 0.400183
Si Si3 0.756798 0.631547 0.510171
Si Si4 0.415500 0.677773 0.092919
Si Si5 0.876342 0.234626 0.375802
Si Si6 0.775068 0.956315 0.254980
Si Si7 0.708434 0.767003 0.838303
Si Si8 0.684755 0.218967 0.965116
O O1 0.483567 0.476134 0.654742
O O2 0.871758 0.309072 0.509581
O O3 0.723086 0.669833 0.819477
O O4 0.068118 0.360874 0.707800
O O5 0.686321 0.771361 0.249922
O O6 0.500000 0.000000 0.500000
O O7 0.080997 0.933124 0.559730
O O8 0.000000 0.500000 0.500000
O O9 0.943784 0.659817 0.524635
O O10 0.527751 0.859202 0.680196
O O11 0.402907 0.632671 0.978490
O O12 0.068220 0.838244 0.175712
O O13 0.500000 0.500000 0.000000
O O14 0.514328 0.295272 0.317689
O O15 0.090008 0.000485 0.205725
O O16 0.622418 0.807253 0.107089
O O17 0.075946 0.734820 0.888842
O O18 0.500000 0.000000 0.000000
#
# Coordination Sequence:
#
# PCOD9082941 Si02
#       8
#     2   2   2   2   2   2   2   2
#     4  11  20  37  60  83 118 150 196 249 282 344
#     4   9  19  37  62  87 110 147 198 246 292 338
#     4  10  19  33  59  89 116 148 190 243 286 340
#     4  11  22  40  63  86 116 158 196 240 301 345
#     4  10  20  37  60  85 114 156 197 234 293 347
#     4   9  21  39  58  88 118 148 198 245 287 348
#     4  10  21  35  54  83 118 158 194 229 288 354
#     4  10  21  39  58  82 122 154 188 244 291 347
#
# _framework density 23.611025999999999
#
# number of rings (size 3 to 8) (size 9 to 14) (size 15 to 20)
#    0.000    2.000    1.250    3.375    0.000    1.000 
#    0.000   10.000    0.000   10.500    0.000    0.000 
#    0.000    0.000    0.000    0.000    0.000    0.000 
#
# Total GULP energy -89298.105516 kJ/mol
# GULP energy per Si atom -5581.131595 kJ/mol
# Density = 2.355729 g / cm^3
# Si number density = 23.611026 Si / 1000 Ang^3
#
#
#
# Elastic Constant Matrix: (Units=GPa)
#
#
# Indices 1 2 3 4 5 6 
#
# 1 94.2775 24.2605 19.3638 -2.0320 19.0804 -5.2159
# 2 24.2605 114.4187 10.4286 -5.0033 3.0310 -15.1012
# 3 19.3638 10.4286 67.0972 -9.7009 16.5951 -12.4405
# 4 -2.0320 -5.0033 -9.7009 57.8673 -3.8237 3.1144
# 5 19.0804 3.0310 16.5951 -3.8237 38.1032 2.0020
# 6 -5.2159 -15.1012 -12.4405 3.1144 2.0020 20.9700
#
#
#
# Elastic Compliance Matrix: (Units=1/GPa)
#
#
# Indices 1 2 3 4 5 6 
#
# 1 0.012728 -0.002270 -0.001838 -0.000476 -0.005495 0.001036
# 2 -0.002270 0.010122 0.000493 0.000490 -0.000200 0.006964
# 3 -0.001838 0.000493 0.019969 0.002123 -0.008245 0.012216
# 4 -0.000476 0.000490 0.002123 0.017805 0.001128 -0.001258
# 5 -0.005495 -0.000200 -0.008245 0.001128 0.033228 -0.009742
# 6 0.001036 0.006964 0.012216 -0.001258 -0.009742 0.061324
#
#
# Mechanical properties :
#
#
# Convention : Reuss Voigt Hill
#
# Bulk Modulus (GPa) = 28.09838 42.65546 35.37692
# Shear Modulus (GPa) = 28.69169 38.17080 33.43125
#
# Velocity S-wave (km/s) = 3.48973 4.02512 3.76695
# Velocity P-wave (km/s) = 5.30697 6.30137 5.82543
#
# Compressibility (1/GPa) = 0.03558924
#
# Stress axis : x y z
#
# Youngs Moduli (GPa) = 78.56905 98.79555 50.07835
#
# Poissons Ratio (x) = 0.22423 0.09205
# Poissons Ratio (y) = 0.17833 -0.02470
# Poissons Ratio (z) = 0.14442 -0.04874
#
# Static dielectric constant tensor:
#      x y z
#    x 1.908480 -0.027520 0.027540 
#    y -0.027520 1.889490 -0.007180 
#    z 0.027540 -0.007180 2.002150 
# 
# From -- ./inp_files/617591.got.cif
#   From: 2010.05.17/outbox.cif.g08.bks.cpg/sg2_309_cif.got.tgz:617591.got - 2010.06.03 11:33:40.
