data_PCOD9082489
_publ_section_title
;
Structure prediction by ZEFSAII (Michael W. Deem and Ramdas Pophale) SiO2 
 PCOD9082489
Probable space group: P -1
;
_chemical_formula_sum "Si O2"
_cell_formula_units_Z 16
_cell_length_a 21.671792
_cell_length_b 22.743672
_cell_length_c 9.652434
_cell_angle_alpha 147.912278
_cell_angle_beta 25.992455
_cell_angle_gamma 159.812132
_cell_volume 719.346091
_symmetry_space_group_name_H-M "P -1"
_symmetry_group_IT_number 2
_symmetry_cell_setting 'triclinic'
loop_
_space_group_symop_operation_xyz
x,y,z
-x,-y,-z
loop_
_atom_site_type_symbol
_atom_site_label
_atom_site_fract_x
_atom_site_fract_y
_atom_site_fract_z
Si Si1 0.342979 0.986059 0.204650
Si Si2 0.229260 0.329503 0.579769
Si Si3 0.159374 0.320134 0.402071
Si Si4 0.639623 0.730957 0.565239
Si Si5 0.095304 0.665905 0.715305
Si Si6 0.908516 0.484150 0.005715
Si Si7 0.228393 0.160282 0.784870
Si Si8 0.416813 0.827476 0.165090
O O1 0.367846 0.132882 0.477985
O O2 0.091734 0.813391 0.401609
O O3 0.396501 0.005392 0.971155
O O4 0.500000 0.000000 0.000000
O O5 0.465828 0.528236 0.487346
O O6 0.234981 0.231491 0.476893
O O7 0.157042 0.256016 0.425323
O O8 0.069455 0.330316 0.955802
O O9 0.230914 0.487719 0.626540
O O10 0.287011 0.316998 0.035605
O O11 0.782328 0.832957 0.344754
O O12 0.508439 0.766287 0.915618
O O13 0.302956 0.816993 0.503788
O O14 0.000000 0.500000 0.500000
O O15 0.091241 0.629277 0.813126
O O16 0.762562 0.310107 0.866855
O O17 0.000000 0.500000 0.000000
O O18 0.000000 0.000000 0.000000
#
# Coordination Sequence:
#
# PCOD9082489 Si02
#       8
#     2   2   2   2   2   2   2   2
#     4  10  21  38  61  82 115 154 191 235 291 346
#     4  10  20  35  57  85 114 151 186 236 289 335
#     4  10  20  40  56  86 116 148 192 242 281 335
#     4  10  19  36  57  82 115 148 191 228 289 338
#     4   9  17  33  54  78 112 145 187 220 282 340
#     4  10  19  33  55  84 114 143 186 237 282 327
#     4   9  21  38  59  82 115 156 191 232 291 349
#     4  10  19  38  57  83 111 152 188 232 281 346
#
# _framework density 22.242422000000001
#
# number of rings (size 3 to 8) (size 9 to 14) (size 15 to 20)
#    0.000    2.250    3.750    0.750    0.000    4.500 
#    0.000   10.625    0.000    1.500    0.000    0.000 
#    0.000    0.000    0.000    0.000    0.000    0.000 
#
# Total GULP energy -89270.812914 kJ/mol
# GULP energy per Si atom -5579.425807 kJ/mol
# Density = 2.219180 g / cm^3
# Si number density = 22.242422 Si / 1000 Ang^3
#
#
#
# Elastic Constant Matrix: (Units=GPa)
#
#
# Indices 1 2 3 4 5 6 
#
# 1 172.4249 5.1689 47.0320 0.4420 -17.2238 -32.1222
# 2 5.1689 78.2404 -1.4023 -12.9123 -0.7169 -7.1233
# 3 47.0320 -1.4023 89.8168 -16.5711 15.0391 -13.8261
# 4 0.4420 -12.9123 -16.5711 28.6363 -3.0554 4.9891
# 5 -17.2238 -0.7169 15.0391 -3.0554 23.9195 1.7041
# 6 -32.1222 -7.1233 -13.8261 4.9891 1.7041 31.5085
#
#
#
# Elastic Compliance Matrix: (Units=1/GPa)
#
#
# Indices 1 2 3 4 5 6 
#
# 1 0.010066 -0.000782 -0.006739 -0.004573 0.010358 0.007292
# 2 -0.000782 0.014313 0.002533 0.007407 -0.000953 0.002429
# 3 -0.006739 0.002533 0.019528 0.010608 -0.015802 0.001446
# 4 -0.004573 0.007407 0.010608 0.045000 -0.003617 -0.005262
# 5 0.010358 -0.000953 -0.015802 -0.003617 0.058653 0.000811
# 6 0.007292 0.002429 0.001446 -0.005262 0.000811 0.041145
#
#
# Mechanical properties :
#
#
# Convention : Reuss Voigt Hill
#
# Bulk Modulus (GPa) = 29.47089 49.11993 39.29541
# Shear Modulus (GPa) = 23.81058 36.12510 29.96784
#
# Velocity S-wave (km/s) = 3.27540 4.03445 3.67458
# Velocity P-wave (km/s) = 5.25195 6.62074 5.97567
#
# Compressibility (1/GPa) = 0.03393179
#
# Stress axis : x y z
#
# Youngs Moduli (GPa) = 99.34323 69.86706 51.20892
#
# Poissons Ratio (x) = 0.05461 0.34508
# Poissons Ratio (y) = 0.07765 -0.12970
# Poissons Ratio (z) = 0.66945 -0.17696
#
# Static dielectric constant tensor:
#      x y z
#    x 1.797380 0.049240 0.010810 
#    y 0.049240 1.975490 0.005550 
#    z 0.010810 0.005550 1.808840 
# 
# From -- ./inp_files/349303.got.cif
#   From: 2010.05.17/outbox.cif.g08.bks.cpg/sg2_175_cif.got.tgz:349303.got - 2010.06.03 11:33:40.
