data_PCOD9082275
_publ_section_title
;
Structure prediction by ZEFSAII (Michael W. Deem and Ramdas Pophale) SiO2 
 PCOD9082275
Probable space group: P -1
;
_chemical_formula_sum "Si O2"
_cell_formula_units_Z 16
_cell_length_a 11.457713
_cell_length_b 10.560319
_cell_length_c 25.663990
_cell_angle_alpha 143.716725
_cell_angle_beta 26.626285
_cell_angle_gamma 126.814639
_cell_volume 732.248315
_symmetry_space_group_name_H-M "P -1"
_symmetry_group_IT_number 2
_symmetry_cell_setting 'triclinic'
loop_
_space_group_symop_operation_xyz
x,y,z
-x,-y,-z
loop_
_atom_site_type_symbol
_atom_site_label
_atom_site_fract_x
_atom_site_fract_y
_atom_site_fract_z
Si Si1 0.835274 0.511039 0.261811
Si Si2 0.067368 0.253827 0.183989
Si Si3 0.778560 0.497708 0.472643
Si Si4 0.254431 0.243748 0.331823
Si Si5 0.604871 0.033572 0.527376
Si Si6 0.254022 0.982171 0.154883
Si Si7 0.674683 0.436974 0.191220
Si Si8 0.954549 0.847661 0.143574
O O1 0.509351 0.539870 0.415588
O O2 0.866184 0.441236 0.165591
O O3 0.047066 0.312400 0.150939
O O4 0.846561 0.761302 0.350076
O O5 0.863547 0.495490 0.378044
O O6 0.936820 0.074355 0.192824
O O7 0.400977 0.134725 0.030529
O O8 0.738498 0.724850 0.598620
O O9 0.053810 0.253435 0.303284
O O10 0.220750 0.028529 0.245786
O O11 0.542370 0.254265 0.196543
O O12 0.000000 0.500000 0.500000
O O13 0.597472 0.293598 0.613929
O O14 0.361632 0.090342 0.688071
O O15 0.500000 0.000000 0.500000
O O16 0.133300 0.829066 0.119538
O O17 0.861499 0.366369 0.040585
#
# Coordination Sequence:
#
# PCOD9082275 Si02
#       8
#     2   2   2   2   2   2   2   2
#     4  10  20  36  52  84 113 147 179 224 282 315
#     4  11  20  31  56  85 121 137 170 235 285 333
#     4   9  17  31  51  78 109 144 181 215 266 325
#     4   9  18  30  52  82 111 133 182 228 270 314
#     4  10  21  37  56  76 106 150 193 228 258 324
#     4  10  19  33  53  84 111 141 175 228 282 325
#     4  10  21  35  55  82 111 144 189 228 261 329
#     4  11  20  35  57  84 108 144 189 223 280 321
#
# _framework density 21.850511000000001
#
# number of rings (size 3 to 8) (size 9 to 14) (size 15 to 20)
#    0.000    2.000    3.750    2.250    3.500    0.500 
#    0.000    0.000    0.000    3.750    0.000    0.000 
#    0.000    0.000    0.000    0.000    0.000    0.000 
#
# Total GULP energy -89121.968703 kJ/mol
# GULP energy per Si atom -5570.123044 kJ/mol
# Density = 2.180078 g / cm^3
# Si number density = 21.850511 Si / 1000 Ang^3
#
#
#
# Elastic Constant Matrix: (Units=GPa)
#
#
# Indices 1 2 3 4 5 6 
#
# 1 87.6163 21.0585 36.4241 6.9443 24.0631 5.1296
# 2 21.0585 52.7261 9.9089 6.9567 -4.1866 -6.9949
# 3 36.4241 9.9089 76.5705 -6.9737 23.4304 -0.0392
# 4 6.9443 6.9567 -6.9737 25.4875 -2.3438 4.1606
# 5 24.0631 -4.1866 23.4304 -2.3438 47.6761 8.7544
# 6 5.1296 -6.9949 -0.0392 4.1606 8.7544 12.0541
#
#
#
# Elastic Compliance Matrix: (Units=1/GPa)
#
#
# Indices 1 2 3 4 5 6 
#
# 1 0.017859 -0.006594 -0.006321 -0.004356 -0.005625 -0.005858
# 2 -0.006594 0.025760 -0.001754 -0.008552 0.002574 0.018831
# 3 -0.006321 -0.001754 0.018929 0.005999 -0.006819 0.004615
# 4 -0.004356 -0.008552 0.005999 0.048755 0.005254 -0.023734
# 5 -0.005625 0.002574 -0.006819 0.005254 0.031469 -0.020804
# 6 -0.005858 0.018831 0.004615 -0.023734 -0.020804 0.119696
#
#
# Mechanical properties :
#
#
# Convention : Reuss Voigt Hill
#
# Bulk Modulus (GPa) = 30.11009 39.07735 34.59372
# Shear Modulus (GPa) = 16.50846 27.01164 21.76005
#
# Velocity S-wave (km/s) = 2.75165 3.51978 3.15915
# Velocity P-wave (km/s) = 4.88931 5.86867 5.40123
#
# Compressibility (1/GPa) = 0.03321146
#
# Stress axis : x y z
#
# Youngs Moduli (GPa) = 55.99419 38.81990 52.82950
#
# Poissons Ratio (x) = 0.25598 0.33391
# Poissons Ratio (y) = 0.36922 0.09264
# Poissons Ratio (z) = 0.35392 0.06807
#
# Static dielectric constant tensor:
#      x y z
#    x 1.876010 0.031790 0.062130 
#    y 0.031790 1.853360 0.000420 
#    z 0.062130 0.000420 1.852680 
# 
# From -- ./inp_files/570967.got.cif
#   From: 2010.05.17/outbox.cif.g08.bks.cpg/sg2_286_cif.got.tgz:570967.got - 2010.06.03 11:33:40.
