data_PCOD9082026
_publ_section_title
;
Structure prediction by ZEFSAII (Michael W. Deem and Ramdas Pophale) SiO2 
 PCOD9082026
Probable space group: P -1
;
_chemical_formula_sum "Si O2"
_cell_formula_units_Z 15
_cell_length_a 22.735317
_cell_length_b 4.954863
_cell_length_c 9.284538
_cell_angle_alpha 73.012506
_cell_angle_beta 139.075860
_cell_angle_gamma 85.954014
_cell_volume 580.090712
_symmetry_space_group_name_H-M "P -1"
_symmetry_group_IT_number 2
_symmetry_cell_setting 'triclinic'
loop_
_space_group_symop_operation_xyz
x,y,z
-x,-y,-z
loop_
_atom_site_type_symbol
_atom_site_label
_atom_site_fract_x
_atom_site_fract_y
_atom_site_fract_z
Si Si1 0.050654 0.113828 0.277838
Si Si2 0.617574 0.237734 0.758620
Si Si3 0.909762 0.406448 0.350083
Si Si4 0.170408 0.445657 0.522951
Si Si5 0.500000 0.500000 0.000000
Si Si6 0.636217 0.589232 0.002007
Si Si7 0.832747 0.636092 0.864641
Si Si8 0.300990 0.664031 0.413004
O O1 0.054713 0.947044 0.467044
O O2 0.080700 0.807379 0.281010
O O3 0.207300 0.991310 0.245173
O O4 0.057490 0.576458 0.970822
O O5 0.500000 0.500000 0.500000
O O6 0.664662 0.313142 0.978240
O O7 0.670166 0.268656 0.704947
O O8 0.614426 0.906517 0.824996
O O9 0.838300 0.618455 0.313663
O O10 0.000000 0.500000 0.500000
O O11 0.149801 0.513400 0.919865
O O12 0.141206 0.207965 0.423274
O O13 0.275530 0.452542 0.715928
O O14 0.544404 0.608269 0.923986
O O15 0.399549 0.553315 0.710631
O O16 0.742874 0.587969 0.635317
#
# Coordination Sequence:
#
# PCOD9082026 Si02
#       8
#     2   2   2   2   1   2   2   2
#     4  10  21  35  60 102 153 179 228 285 361 433
#     4  12  25  48  74 110 141 191 238 332 375 430
#     4  10  19  32  61 102 152 186 220 287 361 433
#     4  10  21  35  61  98 139 190 223 285 350 438
#     4  12  32  56  74 106 142 206 254 320 374 452
#     4  12  27  48  79 103 151 190 254 300 383 447
#     4  12  23  39  66 106 147 195 234 295 361 441
#     4  12  28  45  75 104 151 190 251 304 376 433
#
# _framework density 25.858022999999999
#
# number of rings (size 3 to 8) (size 9 to 14) (size 15 to 20)
#    0.800    0.000    2.667    5.600    5.600    2.133 
#    0.000    0.000    0.000    4.800    0.000    0.000 
#    0.000    0.000    0.000    0.000    0.000    0.000 
#
# Total GULP energy -83755.736089 kJ/mol
# GULP energy per Si atom -5583.715739 kJ/mol
# Density = 2.579917 g / cm^3
# Si number density = 25.858023 Si / 1000 Ang^3
#
#
#
# Elastic Constant Matrix: (Units=GPa)
#
#
# Indices 1 2 3 4 5 6 
#
# 1 130.7479 32.7534 14.2870 13.1006 12.0311 31.9670
# 2 32.7534 101.6456 -2.1295 20.4562 0.5427 3.8156
# 3 14.2870 -2.1295 123.6556 15.8471 -8.2041 13.7685
# 4 13.1006 20.4562 15.8471 22.9304 0.3456 10.9083
# 5 12.0311 0.5427 -8.2041 0.3456 45.8032 10.2994
# 6 31.9670 3.8156 13.7685 10.9083 10.2994 35.7344
#
#
#
# Elastic Compliance Matrix: (Units=1/GPa)
#
#
# Indices 1 2 3 4 5 6 
#
# 1 0.010764 -0.003488 -0.000544 0.001808 -0.000790 -0.009372
# 2 -0.003488 0.013599 0.001839 -0.013879 0.000022 0.005190
# 3 -0.000544 0.001839 0.009438 -0.006998 0.002285 -0.001868
# 4 0.001808 -0.013879 -0.006998 0.068844 0.002209 -0.019091
# 5 -0.000790 0.000022 0.002285 0.002209 0.024191 -0.007823
# 6 -0.009372 0.005190 -0.001868 -0.019091 -0.007823 0.044616
#
#
# Mechanical properties :
#
#
# Convention : Reuss Voigt Hill
#
# Bulk Modulus (GPa) = 33.99555 49.54122 41.76838
# Shear Modulus (GPa) = 26.93346 41.63616 34.28481
#
# Velocity S-wave (km/s) = 3.23087 4.01706 3.64522
# Velocity P-wave (km/s) = 5.20515 6.38093 5.82279
#
# Compressibility (1/GPa) = 0.02941561
#
# Stress axis : x y z
#
# Youngs Moduli (GPa) = 92.89926 73.53605 105.95475
#
# Poissons Ratio (x) = 0.25648 0.05768
# Poissons Ratio (y) = 0.32402 -0.19490
# Poissons Ratio (z) = 0.05057 -0.13527
#
# Static dielectric constant tensor:
#      x y z
#    x 2.068400 -0.059880 -0.038490 
#    y -0.059880 1.988960 -0.014350 
#    z -0.038490 -0.014350 2.072260 
# 
# From -- ./inp_files/339284.got.cif
#   From: 2010.05.17/outbox.cif.g08.bks.cpg/sg2_170_cif.got.tgz:339284.got - 2010.06.03 11:33:40.
