data_PCOD9082446
_publ_section_title
;
Structure prediction by ZEFSAII (Michael W. Deem and Ramdas Pophale) SiO2 
 PCOD9082446
Probable space group: P -1
;
_chemical_formula_sum "Si O2"
_cell_formula_units_Z 16
_cell_length_a 11.618877
_cell_length_b 7.527337
_cell_length_c 17.576705
_cell_angle_alpha 120.479338
_cell_angle_beta 27.890313
_cell_angle_gamma 119.146332
_cell_volume 616.856223
_symmetry_space_group_name_H-M "P -1"
_symmetry_group_IT_number 2
_symmetry_cell_setting 'triclinic'
loop_
_space_group_symop_operation_xyz
x,y,z
-x,-y,-z
loop_
_atom_site_type_symbol
_atom_site_label
_atom_site_fract_x
_atom_site_fract_y
_atom_site_fract_z
Si Si1 0.016871 0.496664 0.102018
Si Si2 0.473737 0.692959 0.233332
Si Si3 0.702990 0.817284 0.384793
Si Si4 0.062792 0.695221 0.352345
Si Si5 0.064684 0.725287 0.607370
Si Si6 0.280444 0.982484 0.737583
Si Si7 0.739004 0.886129 0.713455
Si Si8 0.800065 0.156005 0.051179
O O1 0.857158 0.630530 0.278585
O O2 0.842461 0.293208 0.133330
O O3 0.292665 0.436957 0.942044
O O4 0.068722 0.668753 0.043739
O O5 0.319077 0.694861 0.248363
O O6 0.264689 0.653808 0.413386
O O7 0.603479 0.918318 0.231263
O O8 0.647091 0.838461 0.331769
O O9 0.845091 0.043959 0.367878
O O10 0.442788 0.805942 0.577437
O O11 0.973980 0.452325 0.344691
O O12 0.872480 0.790277 0.542435
O O13 0.131787 0.882681 0.294995
O O14 0.810207 0.750740 0.714738
O O15 0.985089 0.975155 0.906424
O O16 0.460358 0.892336 0.848905
#
# Coordination Sequence:
#
# PCOD9082446 Si02
#       8
#     2   2   2   2   2   2   2   2
#     4   9  16  28  52  79 103 134 174 218 264 315
#     4   9  16  31  53  78 103 132 175 223 264 302
#     4   9  17  29  50  81 107 138 177 209 262 325
#     4  10  20  33  54  81 107 139 179 220 259 305
#     4  10  19  33  55  79 108 143 174 212 260 311
#     4   8  16  29  48  76 105 133 173 220 263 313
#     4  10  20  34  54  81 108 138 179 220 259 308
#     4   9  16  29  50  76 103 133 173 222 265 302
#
# _framework density 25.937971000000001
#
# number of rings (size 3 to 8) (size 9 to 14) (size 15 to 20)
#    0.000    2.750    0.000    3.750    0.000    3.000 
#    0.000    8.125    0.000    8.250    0.000   18.375 
#    0.000    0.000    0.000    0.000    0.000    0.000 
#
# Total GULP energy -89245.757029 kJ/mol
# GULP energy per Si atom -5577.859814 kJ/mol
# Density = 2.587894 g / cm^3
# Si number density = 25.937971 Si / 1000 Ang^3
#
#
#
# Elastic Constant Matrix: (Units=GPa)
#
#
# Indices 1 2 3 4 5 6 
#
# 1 54.4347 22.9223 23.8277 2.3370 -22.6189 8.0940
# 2 22.9223 159.0955 48.3419 -1.9186 -13.8605 -3.2815
# 3 23.8277 48.3419 166.1807 27.8043 -37.9031 8.4157
# 4 2.3370 -1.9186 27.8043 38.9992 -4.8560 -3.1497
# 5 -22.6189 -13.8605 -37.9031 -4.8560 27.8233 -9.6827
# 6 8.0940 -3.2815 8.4157 -3.1497 -9.6827 30.8567
#
#
#
# Elastic Compliance Matrix: (Units=1/GPa)
#
#
# Indices 1 2 3 4 5 6 
#
# 1 0.029118 -0.002784 0.002574 -0.000608 0.025436 -0.000716
# 2 -0.002784 0.007438 -0.002427 0.002356 -0.000683 0.002209
# 3 0.002574 -0.002427 0.010636 -0.006069 0.014328 0.000043
# 4 -0.000608 0.002356 -0.006069 0.030459 -0.000529 0.005008
# 5 0.025436 -0.000683 0.014328 -0.000529 0.080804 0.014649
# 6 -0.000716 0.002209 0.000043 0.005008 0.014649 0.037927
#
#
# Mechanical properties :
#
#
# Convention : Reuss Voigt Hill
#
# Bulk Modulus (GPa) = 23.85508 63.32165 43.58836
# Shear Modulus (GPa) = 23.18820 38.51044 30.84932
#
# Velocity S-wave (km/s) = 2.99320 3.85738 3.45244
# Velocity P-wave (km/s) = 4.60029 6.65619 5.72134
#
# Compressibility (1/GPa) = 0.04191980
#
# Stress axis : x y z
#
# Youngs Moduli (GPa) = 34.34330 134.43782 94.02428
#
# Poissons Ratio (x) = 0.37421 -0.24203
# Poissons Ratio (y) = 0.09560 0.22816
# Poissons Ratio (z) = -0.08841 0.32622
#
# Static dielectric constant tensor:
#      x y z
#    x 2.155340 -0.003760 0.100470 
#    y -0.003760 2.142040 -0.010570 
#    z 0.100470 -0.010570 2.146890 
# 
# From -- ./inp_files/611682.got.cif
#   From: 2010.05.17/outbox.cif.g08.bks.cpg/sg2_306_cif.got.tgz:611682.got - 2010.06.03 11:33:40.
