data_PCOD9082099
_publ_section_title
;
Structure prediction by ZEFSAII (Michael W. Deem and Ramdas Pophale) SiO2 
 PCOD9082099
Probable space group: P -1
;
_chemical_formula_sum "Si O2"
_cell_formula_units_Z 16
_cell_length_a 14.166792
_cell_length_b 11.653113
_cell_length_c 7.668388
_cell_angle_alpha 130.520290
_cell_angle_beta 133.362033
_cell_angle_gamma 68.020011
_cell_volume 693.722646
_symmetry_space_group_name_H-M "P -1"
_symmetry_group_IT_number 2
_symmetry_cell_setting 'triclinic'
loop_
_space_group_symop_operation_xyz
x,y,z
-x,-y,-z
loop_
_atom_site_type_symbol
_atom_site_label
_atom_site_fract_x
_atom_site_fract_y
_atom_site_fract_z
Si Si1 0.169039 0.663098 0.773578
Si Si2 0.346136 0.831530 0.602984
Si Si3 0.440809 0.649267 0.017469
Si Si4 0.170349 0.266118 0.808365
Si Si5 0.601473 0.879847 0.228281
Si Si6 0.640102 0.479010 0.579905
Si Si7 0.039001 0.567597 0.856141
Si Si8 0.094420 0.807409 0.470957
O O1 0.321998 0.673777 0.012614
O O2 0.093462 0.674538 0.870085
O O3 0.146236 0.777911 0.702050
O O4 0.108763 0.499549 0.452868
O O5 0.310527 0.649856 0.362350
O O6 0.224556 0.884798 0.612044
O O7 0.365099 0.939344 0.566278
O O8 0.484036 0.848671 0.902937
O O9 0.372091 0.599867 0.698471
O O10 0.500000 0.500000 0.000000
O O11 0.543267 0.796280 0.246204
O O12 0.268074 0.192248 0.731828
O O13 0.104945 0.409039 0.784832
O O14 0.052117 0.152810 0.631770
O O15 0.270789 0.360773 0.162171
O O16 0.500000 0.500000 0.500000
O O17 0.052726 0.657667 0.145238
#
# Coordination Sequence:
#
# PCOD9082099 Si02
#       8
#     2   2   2   2   2   2   2   2
#     4  10  19  33  50  86 117 146 184 242 298 333
#     4  10  20  35  56  78 122 155 186 239 289 346
#     4  11  20  33  55  83 114 145 192 240 285 345
#     4  11  19  33  58  88 110 144 200 241 282 343
#     4  10  21  36  53  84 117 152 193 232 295 351
#     4  11  19  34  57  87 110 144 188 244 281 333
#     4  10  20  32  56  85 118 144 186 248 295 336
#     4  11  20  35  59  84 116 151 196 239 290 346
#
# _framework density 23.063974000000002
#
# number of rings (size 3 to 8) (size 9 to 14) (size 15 to 20)
#    0.000    1.500    6.250    3.000    0.000    0.500 
#    0.000    0.000    0.000    4.500    0.000   14.000 
#    0.000    0.000    0.000    0.000    0.000    0.000 
#
# Total GULP energy -89114.007962 kJ/mol
# GULP energy per Si atom -5569.625498 kJ/mol
# Density = 2.301148 g / cm^3
# Si number density = 23.063974 Si / 1000 Ang^3
#
#
#
# Elastic Constant Matrix: (Units=GPa)
#
#
# Indices 1 2 3 4 5 6 
#
# 1 148.3932 40.7969 27.1794 -3.8123 39.4876 -4.9293
# 2 40.7969 85.1602 12.8121 4.1099 11.0520 11.8016
# 3 27.1794 12.8121 39.6210 -3.6067 6.5892 -0.4289
# 4 -3.8123 4.1099 -3.6067 20.2840 7.8762 6.9672
# 5 39.4876 11.0520 6.5892 7.8762 46.6170 -5.0041
# 6 -4.9293 11.8016 -0.4289 6.9672 -5.0041 46.8422
#
#
#
# Elastic Compliance Matrix: (Units=1/GPa)
#
#
# Indices 1 2 3 4 5 6 
#
# 1 0.011060 -0.003811 -0.004420 0.005318 -0.008700 0.000363
# 2 -0.003811 0.014549 -0.002436 -0.002941 0.000231 -0.003627
# 3 -0.004420 -0.002436 0.029688 0.005434 -0.000845 -0.000478
# 4 0.005318 -0.002941 0.005434 0.061309 -0.015951 -0.009473
# 5 -0.008700 0.000231 -0.000845 -0.015951 0.032098 0.004820
# 6 0.000363 -0.003627 -0.000478 -0.009473 0.004820 0.024220
#
#
# Mechanical properties :
#
#
# Convention : Reuss Voigt Hill
#
# Bulk Modulus (GPa) = 29.44245 48.30568 38.87406
# Shear Modulus (GPa) = 24.32155 35.57438 29.94797
#
# Velocity S-wave (km/s) = 3.25087 3.93163 3.60734
# Velocity P-wave (km/s) = 5.18499 6.44980 5.85167
#
# Compressibility (1/GPa) = 0.03396457
#
# Stress axis : x y z
#
# Youngs Moduli (GPa) = 90.41694 68.73095 33.68308
#
# Poissons Ratio (x) = 0.26196 0.14886
# Poissons Ratio (y) = 0.34462 0.08204
# Poissons Ratio (z) = 0.39960 0.16741
#
# Static dielectric constant tensor:
#      x y z
#    x 1.888220 0.044550 0.070650 
#    y 0.044550 1.879920 -0.019130 
#    z 0.070650 -0.019130 1.944870 
# 
# From -- ./inp_files/304224.got.cif
#   From: 2010.05.17/outbox.cif.g08.bks.cpg/sg2_153_cif.got.tgz:304224.got - 2010.06.03 11:33:40.
