data_PCOD9082739
_publ_section_title
;
Structure prediction by ZEFSAII (Michael W. Deem and Ramdas Pophale) SiO2 
 PCOD9082739
Probable space group: P -1
;
_chemical_formula_sum "Si O2"
_cell_formula_units_Z 16
_cell_length_a 10.148080
_cell_length_b 9.305523
_cell_length_c 19.207681
_cell_angle_alpha 51.756642
_cell_angle_beta 57.058827
_cell_angle_gamma 102.572330
_cell_volume 646.968647
_symmetry_space_group_name_H-M "P -1"
_symmetry_group_IT_number 2
_symmetry_cell_setting 'triclinic'
loop_
_space_group_symop_operation_xyz
x,y,z
-x,-y,-z
loop_
_atom_site_type_symbol
_atom_site_label
_atom_site_fract_x
_atom_site_fract_y
_atom_site_fract_z
Si Si1 0.268316 0.176745 0.827868
Si Si2 0.830571 0.870810 0.811554
Si Si3 0.592176 0.883782 0.058972
Si Si4 0.740122 0.015123 0.596167
Si Si5 0.183391 0.351547 0.682800
Si Si6 0.916107 0.799518 0.674267
Si Si7 0.478065 0.083861 0.701604
Si Si8 0.238998 0.766145 0.282378
O O1 0.451194 0.291098 0.808104
O O2 0.353860 0.415139 0.675860
O O3 0.241277 0.971879 0.845951
O O4 0.000000 0.000000 0.000000
O O5 0.983300 0.885266 0.709758
O O6 0.835834 0.095123 0.731656
O O7 0.500000 0.500000 0.000000
O O8 0.989012 0.012657 0.797307
O O9 0.364175 0.583778 0.158638
O O10 0.508319 0.993411 0.085128
O O11 0.919901 0.206078 0.839055
O O12 0.804485 0.008296 0.502454
O O13 0.993809 0.408235 0.422202
O O14 0.455129 0.855689 0.743802
O O15 0.818638 0.911682 0.648331
O O16 0.384248 0.656021 0.478132
O O17 0.683443 0.238905 0.663263
#
# Coordination Sequence:
#
# PCOD9082739 Si02
#       8
#     2   2   2   2   2   2   2   2
#     4   9  21  40  61  86 115 159 214 245 293 353
#     4  12  22  34  57  90 126 154 194 246 309 359
#     4   9  20  38  60  83 118 162 201 247 292 357
#     4  10  19  33  57  86 121 157 197 237 302 360
#     4  11  21  35  59  90 119 159 205 248 289 355
#     4  10  20  34  54  90 124 155 189 246 307 356
#     4  11  19  34  62  87 116 154 207 252 285 354
#     4  10  20  36  57  87 121 162 199 241 304 365
#
# _framework density 24.730719000000001
#
# number of rings (size 3 to 8) (size 9 to 14) (size 15 to 20)
#    0.000    1.750    3.750    1.500    0.000    2.500 
#    0.000    0.000    0.000   16.500    0.000    0.000 
#    0.000    0.000    0.000    0.000    0.000    0.000 
#
# Total GULP energy -89107.361399 kJ/mol
# GULP energy per Si atom -5569.210087 kJ/mol
# Density = 2.467443 g / cm^3
# Si number density = 24.730719 Si / 1000 Ang^3
#
#
#
# Elastic Constant Matrix: (Units=GPa)
#
#
# Indices 1 2 3 4 5 6 
#
# 1 92.6402 36.1781 28.9275 -8.7302 20.8836 2.5479
# 2 36.1781 153.9516 59.7041 48.2058 2.2734 -17.6333
# 3 28.9275 59.7041 75.9807 14.4721 9.5785 1.1695
# 4 -8.7302 48.2058 14.4721 54.6754 -12.4423 -7.1467
# 5 20.8836 2.2734 9.5785 -12.4423 36.8687 10.3526
# 6 2.5479 -17.6333 1.1695 -7.1467 10.3526 39.8922
#
#
#
# Elastic Compliance Matrix: (Units=1/GPa)
#
#
# Indices 1 2 3 4 5 6 
#
# 1 0.015072 -0.004089 -0.002849 0.005451 -0.005636 -0.000247
# 2 -0.004089 0.014555 -0.007589 -0.011205 -0.001909 0.005406
# 3 -0.002849 -0.007589 0.020602 -0.000188 -0.002442 -0.003176
# 4 0.005451 -0.011205 -0.000188 0.030784 0.008607 -0.002014
# 5 -0.005636 -0.001909 -0.002442 0.008607 0.036300 -0.008291
# 6 -0.000247 0.005406 -0.003176 -0.002014 -0.008291 0.029357
#
#
# Mechanical properties :
#
#
# Convention : Reuss Voigt Hill
#
# Bulk Modulus (GPa) = 47.22507 63.57686 55.40097
# Shear Modulus (GPa) = 27.35490 39.47145 33.41317
#
# Velocity S-wave (km/s) = 3.32943 3.99939 3.67969
# Velocity P-wave (km/s) = 5.82386 6.86224 6.36426
#
# Compressibility (1/GPa) = 0.02117519
#
# Stress axis : x y z
#
# Youngs Moduli (GPa) = 66.34893 68.70338 48.53945
#
# Poissons Ratio (x) = 0.28091 0.13830
# Poissons Ratio (y) = 0.27128 0.36836
# Poissons Ratio (z) = 0.18905 0.52138
#
# Static dielectric constant tensor:
#      x y z
#    x 2.084500 -0.078230 -0.025620 
#    y -0.078230 2.097690 0.141960 
#    z -0.025620 0.141960 2.150760 
# 
# From -- ./inp_files/593474.got.cif
#   From: 2010.05.17/outbox.cif.g08.bks.cpg/sg2_297_cif.got.tgz:593474.got - 2010.06.03 11:33:40.
