data_PCOD9082025
_publ_section_title
;
Structure prediction by ZEFSAII (Michael W. Deem and Ramdas Pophale) SiO2 
 PCOD9082025
Probable space group: P -1
;
_chemical_formula_sum "Si O2"
_cell_formula_units_Z 16
_cell_length_a 15.833058
_cell_length_b 7.616491
_cell_length_c 12.290225
_cell_angle_alpha 68.587450
_cell_angle_beta 132.932083
_cell_angle_gamma 73.694934
_cell_volume 636.318654
_symmetry_space_group_name_H-M "P -1"
_symmetry_group_IT_number 2
_symmetry_cell_setting 'triclinic'
loop_
_space_group_symop_operation_xyz
x,y,z
-x,-y,-z
loop_
_atom_site_type_symbol
_atom_site_label
_atom_site_fract_x
_atom_site_fract_y
_atom_site_fract_z
Si Si1 0.219646 0.789497 0.927526
Si Si2 0.033104 0.245865 0.276014
Si Si3 0.554998 0.380220 0.196597
Si Si4 0.657996 0.656157 0.246690
Si Si5 0.379381 0.815640 0.264644
Si Si6 0.970463 0.350217 0.439032
Si Si7 0.243809 0.543763 0.399606
Si Si8 0.085501 0.173529 0.100293
O O1 0.071344 0.820580 0.818421
O O2 0.407269 0.460973 0.121448
O O3 0.267862 0.860387 0.056786
O O4 0.137794 0.006383 0.702944
O O5 0.042121 0.317816 0.147166
O O6 0.950941 0.417903 0.279740
O O7 0.247063 0.958770 0.555603
O O8 0.570644 0.567602 0.220158
O O9 0.500000 0.500000 0.000000
O O10 0.791277 0.476406 0.301506
O O11 0.774119 0.546773 0.481895
O O12 0.500000 0.000000 0.000000
O O13 0.500000 0.500000 0.500000
O O14 0.542723 0.744071 0.383611
O O15 0.234000 0.071806 0.168881
O O16 0.000000 0.500000 0.500000
O O17 0.181615 0.843533 0.286101
O O18 0.101864 0.638899 0.168123
#
# Coordination Sequence:
#
# PCOD9082025 Si02
#       8
#     2   2   2   2   2   2   2   2
#     4  12  21  38  66  95 131 166 207 264 322 383
#     4  12  23  41  63  97 132 160 217 274 323 381
#     4  12  22  38  63  96 129 170 212 265 321 376
#     4  12  24  42  63  96 135 171 214 262 325 396
#     4  10  19  32  60  97 128 159 207 258 318 376
#     4  12  26  42  61  92 127 173 216 262 330 392
#     4  10  19  37  60  97 131 165 213 264 319 379
#     4  10  19  35  63  94 128 166 211 274 315 371
#
# _framework density 25.144635999999998
#
# number of rings (size 3 to 8) (size 9 to 14) (size 15 to 20)
#    0.000    0.750    5.000    5.625    0.000    0.000 
#    0.000    0.000    0.000    3.750    0.000    0.000 
#    0.000    0.000    0.000    0.000    0.000    0.000 
#
# Total GULP energy -89533.931012 kJ/mol
# GULP energy per Si atom -5595.870688 kJ/mol
# Density = 2.508741 g / cm^3
# Si number density = 25.144636 Si / 1000 Ang^3
#
#
#
# Elastic Constant Matrix: (Units=GPa)
#
#
# Indices 1 2 3 4 5 6 
#
# 1 141.3735 49.9141 54.8280 4.9685 -3.4672 -50.5099
# 2 49.9141 80.6075 38.5232 10.0994 5.7149 -41.7299
# 3 54.8280 38.5232 138.4265 15.7790 -11.6705 -33.6501
# 4 4.9685 10.0994 15.7790 28.5930 -17.8839 -1.8978
# 5 -3.4672 5.7149 -11.6705 -17.8839 60.6169 -1.3245
# 6 -50.5099 -41.7299 -33.6501 -1.8978 -1.3245 55.8790
#
#
#
# Elastic Compliance Matrix: (Units=1/GPa)
#
#
# Indices 1 2 3 4 5 6 
#
# 1 0.011310 -0.002522 -0.002092 0.001169 0.000983 0.007144
# 2 -0.002522 0.023361 -0.001518 -0.009221 -0.005058 0.013819
# 3 -0.002092 -0.001518 0.009615 -0.003704 0.000840 0.002659
# 4 0.001169 -0.009221 -0.003704 0.048716 0.014463 -0.006063
# 5 0.000983 -0.005058 0.000840 0.014463 0.021429 -0.001384
# 6 0.007144 0.013819 0.002659 -0.006063 -0.001384 0.036035
#
#
# Mechanical properties :
#
#
# Convention : Reuss Voigt Hill
#
# Bulk Modulus (GPa) = 31.22886 71.88202 51.55544
# Shear Modulus (GPa) = 28.83449 43.49393 36.16421
#
# Velocity S-wave (km/s) = 3.39004 4.16354 3.79654
# Velocity P-wave (km/s) = 5.26970 7.19464 6.30605
#
# Compressibility (1/GPa) = 0.03202166
#
# Stress axis : x y z
#
# Youngs Moduli (GPa) = 88.41405 42.80679 104.00837
#
# Poissons Ratio (x) = 0.10795 0.21757
# Poissons Ratio (y) = 0.22297 0.15793
# Poissons Ratio (z) = 0.18495 0.06500
#
# Static dielectric constant tensor:
#      x y z
#    x 2.095520 0.190190 0.099390 
#    y 0.190190 2.459200 0.235220 
#    z 0.099390 0.235220 2.163960 
# 
# From -- ./inp_files/447210.got.cif
#   From: 2010.05.17/outbox.cif.g08.bks.cpg/sg2_224_cif.got.tgz:447210.got - 2010.06.03 11:33:40.
