data_PCOD9082622
_publ_section_title
;
Structure prediction by ZEFSAII (Michael W. Deem and Ramdas Pophale) SiO2 
 PCOD9082622
Probable space group: P -1
;
_chemical_formula_sum "Si O2"
_cell_formula_units_Z 16
_cell_length_a 9.170383
_cell_length_b 10.925323
_cell_length_c 12.248261
_cell_angle_alpha 141.854840
_cell_angle_beta 63.733913
_cell_angle_gamma 122.624065
_cell_volume 637.962685
_symmetry_space_group_name_H-M "P -1"
_symmetry_group_IT_number 2
_symmetry_cell_setting 'triclinic'
loop_
_space_group_symop_operation_xyz
x,y,z
-x,-y,-z
loop_
_atom_site_type_symbol
_atom_site_label
_atom_site_fract_x
_atom_site_fract_y
_atom_site_fract_z
Si Si1 0.987739 0.879924 0.196286
Si Si2 0.706398 0.190252 0.826095
Si Si3 0.709954 0.845094 0.833558
Si Si4 0.703063 0.247203 0.613271
Si Si5 0.101481 0.276997 0.128270
Si Si6 0.844555 0.287603 0.375073
Si Si7 0.392714 0.399970 0.849909
Si Si8 0.582928 0.190590 0.223474
O O1 0.791759 0.791834 0.244082
O O2 0.108647 0.794889 0.173751
O O3 0.936534 0.791676 0.029734
O O4 0.130574 0.108665 0.273061
O O5 0.700903 0.162317 0.676640
O O6 0.557966 0.991708 0.788218
O O7 0.660419 0.396947 0.019074
O O8 0.745222 0.748454 0.867050
O O9 0.528562 0.710598 0.744727
O O10 0.679963 0.067008 0.028825
O O11 0.854518 0.474144 0.725157
O O12 0.750975 0.159789 0.422166
O O13 0.528815 0.299300 0.686271
O O14 0.935644 0.166222 0.181724
O O15 0.710791 0.335212 0.371170
O O16 0.000000 0.500000 0.500000
O O17 0.500000 0.500000 0.000000
#
# Coordination Sequence:
#
# PCOD9082622 Si02
#       8
#     2   2   2   2   2   2   2   2
#     4  11  20  34  59  92 117 147 187 254 299 334
#     4  10  21  35  59  89 117 151 194 248 297 333
#     4  10  22  36  60  94 117 145 195 252 298 333
#     4  10  22  39  55  84 120 157 199 229 289 356
#     4  11  20  37  61  88 116 150 197 243 293 344
#     4  10  23  41  60  83 120 162 196 228 288 362
#     4  10  19  33  56  86 116 150 193 242 288 337
#     4  10  21  38  60  88 121 151 189 246 296 342
#
# _framework density 25.079836
#
# number of rings (size 3 to 8) (size 9 to 14) (size 15 to 20)
#    0.000    1.750    3.750    1.500    1.750    0.500 
#    0.000    3.750    0.000    3.000    0.000    0.000 
#    0.000    0.000    0.000    0.000    0.000    0.000 
#
# Total GULP energy -89124.054392 kJ/mol
# GULP energy per Si atom -5570.253400 kJ/mol
# Density = 2.502275 g / cm^3
# Si number density = 25.079836 Si / 1000 Ang^3
#
#
#
# Elastic Constant Matrix: (Units=GPa)
#
#
# Indices 1 2 3 4 5 6 
#
# 1 174.9849 45.6343 44.6888 -8.4350 31.4896 1.4069
# 2 45.6343 66.7379 27.5107 -24.2540 3.7846 6.9798
# 3 44.6888 27.5107 59.5882 -28.0051 10.4089 -7.3941
# 4 -8.4350 -24.2540 -28.0051 42.3294 9.4096 1.3539
# 5 31.4896 3.7846 10.4089 9.4096 39.6745 -3.3716
# 6 1.4069 6.9798 -7.3941 1.3539 -3.3716 41.5601
#
#
#
# Elastic Compliance Matrix: (Units=1/GPa)
#
#
# Indices 1 2 3 4 5 6 
#
# 1 0.009039 -0.004898 -0.005556 -0.003672 -0.004439 -0.000712
# 2 -0.004898 0.024097 -0.002445 0.011570 -0.000918 -0.004767
# 3 -0.005556 -0.002445 0.034996 0.022573 -0.009440 0.005324
# 4 -0.003672 0.011570 0.022573 0.047929 -0.015532 -0.000624
# 5 -0.004439 -0.000918 -0.009440 -0.015532 0.035145 0.001982
# 6 -0.000712 -0.004767 0.005324 -0.000624 0.001982 0.026015
#
#
# Mechanical properties :
#
#
# Convention : Reuss Voigt Hill
#
# Bulk Modulus (GPa) = 23.62221 59.66427 41.64324
# Shear Modulus (GPa) = 23.02783 36.94461 29.98622
#
# Velocity S-wave (km/s) = 3.03344 3.84224 3.46154
# Velocity P-wave (km/s) = 4.65921 6.59735 5.71110
#
# Compressibility (1/GPa) = 0.04233304
#
# Stress axis : x y z
#
# Youngs Moduli (GPa) = 110.63610 41.49933 28.57493
#
# Poissons Ratio (x) = 0.20328 0.15876
# Poissons Ratio (y) = 0.54195 0.06986
# Poissons Ratio (z) = 0.61467 0.10146
#
# Static dielectric constant tensor:
#      x y z
#    x 2.083050 0.042330 -0.069670 
#    y 0.042330 2.092510 0.024820 
#    z -0.069670 0.024820 2.286880 
# 
# From -- ./inp_files/388171.got.cif
#   From: 2010.05.17/outbox.cif.g08.bks.cpg/sg2_195_cif.got.tgz:388171.got - 2010.06.03 11:33:40.
