data_PCOD9082810
_publ_section_title
;
Structure prediction by ZEFSAII (Michael W. Deem and Ramdas Pophale) SiO2 
 PCOD9082810
Probable space group: P -1
;
_chemical_formula_sum "Si O2"
_cell_formula_units_Z 16
_cell_length_a 9.928815
_cell_length_b 17.227440
_cell_length_c 5.300017
_cell_angle_alpha 78.717621
_cell_angle_beta 136.537236
_cell_angle_gamma 96.379212
_cell_volume 610.912671
_symmetry_space_group_name_H-M "P -1"
_symmetry_group_IT_number 2
_symmetry_cell_setting 'triclinic'
loop_
_space_group_symop_operation_xyz
x,y,z
-x,-y,-z
loop_
_atom_site_type_symbol
_atom_site_label
_atom_site_fract_x
_atom_site_fract_y
_atom_site_fract_z
Si Si1 0.075111 0.292003 0.869205
Si Si2 0.848853 0.948839 0.169653
Si Si3 0.594839 0.436727 0.369734
Si Si4 0.827037 0.165859 0.461452
Si Si5 0.628407 0.108246 0.717477
Si Si6 0.584457 0.691221 0.051516
Si Si7 0.299441 0.174757 0.550987
Si Si8 0.224916 0.431017 0.240569
O O1 0.109093 0.230718 0.186413
O O2 0.071857 0.383247 0.896018
O O3 0.280806 0.278973 0.008269
O O4 0.907746 0.253727 0.505396
O O5 0.749973 0.888560 0.264759
O O6 0.985684 0.896516 0.200311
O O7 0.695011 0.016866 0.824679
O O8 0.000000 0.000000 0.500000
O O9 0.427346 0.425924 0.358359
O O10 0.778254 0.477867 0.726163
O O11 0.500000 0.500000 0.000000
O O12 0.600203 0.353161 0.284094
O O13 0.745582 0.139345 0.099693
O O14 0.686949 0.153421 0.516806
O O15 0.408254 0.128021 0.501047
O O16 0.560221 0.758706 0.184849
O O17 0.727762 0.623482 0.418975
#
# Coordination Sequence:
#
# PCOD9082810 Si02
#       8
#     2   2   2   2   2   2   2   2
#     4  10  19  33  58  80 114 153 195 242 291 348
#     4  10  21  42  62  84 113 154 197 248 299 354
#     4   8  13  25  43  76 117 146 178 234 291 334
#     4  11  23  42  61  85 116 156 200 245 298 355
#     4  11  26  40  60  86 119 153 199 248 303 355
#     4   9  17  29  51  78 113 147 190 235 297 335
#     4  11  22  38  57  87 117 152 197 246 299 356
#     4   8  15  25  46  79 114 144 187 235 289 330
#
# _framework density 26.190325000000001
#
# number of rings (size 3 to 8) (size 9 to 14) (size 15 to 20)
#    0.000    2.250    1.250    2.250    3.500    1.000 
#    0.000    3.750    0.000    0.000    0.000    1.750 
#    0.000    0.000    0.000    0.000    0.000    0.000 
#
# Total GULP energy -89418.896372 kJ/mol
# GULP energy per Si atom -5588.681023 kJ/mol
# Density = 2.613071 g / cm^3
# Si number density = 26.190325 Si / 1000 Ang^3
#
#
#
# Elastic Constant Matrix: (Units=GPa)
#
#
# Indices 1 2 3 4 5 6 
#
# 1 98.9570 32.0215 5.5686 5.5087 -12.1100 -15.3696
# 2 32.0215 123.7633 11.2460 50.7256 -4.8021 -5.9437
# 3 5.5686 11.2460 78.3624 33.4853 -4.7864 8.1707
# 4 5.5087 50.7256 33.4853 58.4094 2.5847 -8.7290
# 5 -12.1100 -4.8021 -4.7864 2.5847 32.2761 -0.7262
# 6 -15.3696 -5.9437 8.1707 -8.7290 -0.7262 52.4673
#
#
#
# Elastic Compliance Matrix: (Units=1/GPa)
#
#
# Indices 1 2 3 4 5 6 
#
# 1 0.012584 -0.004662 -0.002542 0.004829 0.003363 0.004404
# 2 -0.004662 0.015797 0.005996 -0.017342 0.002804 -0.003356
# 3 -0.002542 0.005996 0.020649 -0.017922 0.004296 -0.006203
# 4 0.004829 -0.017342 -0.017922 0.043705 -0.006714 0.009419
# 5 0.003363 0.002804 0.004296 -0.006714 0.033836 -0.000015
# 6 0.004404 -0.003356 -0.006203 0.009419 -0.000015 0.022502
#
#
# Mechanical properties :
#
#
# Convention : Reuss Voigt Hill
#
# Bulk Modulus (GPa) = 21.45324 44.30608 32.87966
# Shear Modulus (GPa) = 29.93528 45.44700 37.69114
#
# Velocity S-wave (km/s) = 3.38448 4.17016 3.79770
# Velocity P-wave (km/s) = 4.84582 6.33567 5.64016
#
# Compressibility (1/GPa) = 0.04661301
#
# Stress axis : x y z
#
# Youngs Moduli (GPa) = 79.46744 63.30476 48.42832
#
# Poissons Ratio (x) = 0.29512 0.12312
# Poissons Ratio (y) = 0.37046 -0.29037
# Poissons Ratio (z) = 0.20202 -0.37957
#
# Static dielectric constant tensor:
#      x y z
#    x 2.097520 0.011230 0.019770 
#    y 0.011230 2.088450 0.035640 
#    z 0.019770 0.035640 2.165110 
# 
# From -- ./inp_files/44774.got.cif
#   From: 2010.05.17/outbox.cif.g08.bks.cpg/sg2_23_cif.got.tgz:44774.got - 2010.06.03 11:33:40.
