data_PCOD9082521
_publ_section_title
;
Structure prediction by ZEFSAII (Michael W. Deem and Ramdas Pophale) SiO2 
 PCOD9082521
Probable space group: P -1
;
_chemical_formula_sum "Si O2"
_cell_formula_units_Z 14
_cell_length_a 9.358376
_cell_length_b 14.360443
_cell_length_c 11.691450
_cell_angle_alpha 30.152226
_cell_angle_beta 132.454323
_cell_angle_gamma 125.219806
_cell_volume 582.197738
_symmetry_space_group_name_H-M "P -1"
_symmetry_group_IT_number 2
_symmetry_cell_setting 'triclinic'
loop_
_space_group_symop_operation_xyz
x,y,z
-x,-y,-z
loop_
_atom_site_type_symbol
_atom_site_label
_atom_site_fract_x
_atom_site_fract_y
_atom_site_fract_z
Si Si1 0.696231 0.246196 0.331742
Si Si2 0.690495 0.888330 0.177775
Si Si3 0.102488 0.373311 0.926141
Si Si4 0.491827 0.769413 0.974391
Si Si5 0.819603 0.975704 0.506373
Si Si6 0.697082 0.509189 0.670652
Si Si7 0.933133 0.952608 0.889261
O O1 0.505742 0.258360 0.133881
O O2 0.771323 0.442793 0.202210
O O3 0.742153 0.085895 0.620743
O O4 0.833510 0.152325 0.410493
O O5 0.730150 0.727421 0.463055
O O6 0.879969 0.007408 0.132860
O O7 0.656944 0.788418 0.140355
O O8 0.500000 0.000000 0.000000
O O9 0.886523 0.424440 0.800676
O O10 0.186097 0.216227 0.225351
O O11 0.096366 0.264085 0.919256
O O12 0.382143 0.968318 0.719974
O O13 0.355246 0.605482 0.122757
O O14 0.000000 0.000000 0.500000
O O15 0.500000 0.500000 0.500000
O O16 0.000000 0.000000 0.000000
#
# Coordination Sequence:
#
# PCOD9082521 Si02
#       7
#     2   2   2   2   2   2   2
#     4   9  21  37  56  86 118 159 211 251 291 370
#     4  11  23  39  61  93 132 161 200 258 310 365
#     4  11  19  37  59  84 121 161 209 251 303 367
#     4   9  20  35  56  88 125 159 200 251 303 367
#     4   9  18  30  53  87 121 156 198 245 303 357
#     4  10  19  33  55  89 126 161 195 249 309 365
#     4  11  24  42  63  90 122 164 211 255 308 369
#
# _framework density 24.046811999999999
#
# number of rings (size 3 to 8) (size 9 to 14) (size 15 to 20)
#    0.857    1.143    2.857    1.714    2.000    4.000 
#    0.000    0.714    0.000    0.857    0.000    0.000 
#    0.000    0.000    0.000    0.000    0.000    0.000 
#
# Total GULP energy -77945.017627 kJ/mol
# GULP energy per Si atom -5567.501259 kJ/mol
# Density = 2.399208 g / cm^3
# Si number density = 24.046812 Si / 1000 Ang^3
#
#
#
# Elastic Constant Matrix: (Units=GPa)
#
#
# Indices 1 2 3 4 5 6 
#
# 1 83.2380 24.7022 17.5782 -12.8358 9.9627 13.4560
# 2 24.7022 132.0721 36.4382 -20.9124 -8.5843 -0.7982
# 3 17.5782 36.4382 131.8535 -13.7628 7.6886 -7.5993
# 4 -12.8358 -20.9124 -13.7628 53.6583 -4.3127 -2.9823
# 5 9.9627 -8.5843 7.6886 -4.3127 15.9451 3.2435
# 6 13.4560 -0.7982 -7.5993 -2.9823 3.2435 31.9391
#
#
#
# Elastic Compliance Matrix: (Units=1/GPa)
#
#
# Indices 1 2 3 4 5 6 
#
# 1 0.015329 -0.003089 -0.000848 0.001178 -0.009358 -0.005677
# 2 -0.003089 0.009974 -0.002531 0.003267 0.009342 0.000305
# 3 -0.000848 -0.002531 0.008986 0.000839 -0.005564 0.003076
# 4 0.001178 0.003267 0.000839 0.020956 0.006057 0.001127
# 5 -0.009358 0.009342 -0.005564 0.006057 0.078846 -0.004589
# 6 -0.005677 0.000305 0.003076 0.001127 -0.004589 0.035012
#
#
# Mechanical properties :
#
#
# Convention : Reuss Voigt Hill
#
# Bulk Modulus (GPa) = 46.83298 56.06677 51.44988
# Shear Modulus (GPa) = 26.43308 38.20484 32.31896
#
# Velocity S-wave (km/s) = 3.31907 3.99026 3.67004
# Velocity P-wave (km/s) = 5.84862 6.67801 6.27703
#
# Compressibility (1/GPa) = 0.02135247
#
# Stress axis : x y z
#
# Youngs Moduli (GPa) = 65.23540 100.26185 111.28491
#
# Poissons Ratio (x) = 0.30972 0.09442
# Poissons Ratio (y) = 0.20152 0.28162
# Poissons Ratio (z) = 0.05535 0.25373
#
# Static dielectric constant tensor:
#      x y z
#    x 1.569900 -0.168820 0.156660 
#    y -0.168820 1.897780 0.157990 
#    z 0.156660 0.157990 1.943560 
# 
# From -- ./inp_files/350292.got.cif
#   From: 2010.05.17/outbox.cif.g08.bks.cpg/sg2_176_cif.got.tgz:350292.got - 2010.06.03 11:33:40.
