data_PCOD9082388
_publ_section_title
;
Structure prediction by ZEFSAII (Michael W. Deem and Ramdas Pophale) SiO2 
 PCOD9082388
Probable space group: P -1
;
_chemical_formula_sum "Si O2"
_cell_formula_units_Z 14
_cell_length_a 7.772275
_cell_length_b 16.106662
_cell_length_c 14.365343
_cell_angle_alpha 142.567712
_cell_angle_beta 45.661756
_cell_angle_gamma 104.511885
_cell_volume 558.171829
_symmetry_space_group_name_H-M "P -1"
_symmetry_group_IT_number 2
_symmetry_cell_setting 'triclinic'
loop_
_space_group_symop_operation_xyz
x,y,z
-x,-y,-z
loop_
_atom_site_type_symbol
_atom_site_label
_atom_site_fract_x
_atom_site_fract_y
_atom_site_fract_z
Si Si1 0.879731 0.390114 0.274375
Si Si2 0.747202 0.286852 0.589004
Si Si3 0.236506 0.298650 0.328003
Si Si4 0.291529 0.977932 0.253474
Si Si5 0.254973 0.311563 0.883329
Si Si6 0.135451 0.106103 0.630761
Si Si7 0.938714 0.056120 0.965323
O O1 0.500000 0.500000 0.500000
O O2 0.861506 0.503499 0.466614
O O3 0.031411 0.178702 0.029591
O O4 0.033790 0.410787 0.147609
O O5 0.378537 0.404623 0.875217
O O6 0.901776 0.355634 0.540850
O O7 0.003600 0.162657 0.466248
O O8 0.810361 0.136050 0.360498
O O9 0.563357 0.173163 0.166367
O O10 0.389892 0.158184 0.056434
O O11 0.193389 0.858753 0.206163
O O12 0.268064 0.057824 0.432917
O O13 0.079718 0.275851 0.847336
O O14 0.587613 0.093550 0.595165
O O15 0.000000 0.000000 0.000000
#
# Coordination Sequence:
#
# PCOD9082388 Si02
#       7
#     2   2   2   2   2   2   2
#     4  10  21  38  60  83 116 152 184 236 296 345
#     4  10  21  34  54  84 117 152 193 237 278 337
#     4  10  21  37  57  85 123 154 182 232 295 347
#     4   9  17  33  56  83 113 150 193 236 290 337
#     4  10  19  33  54  83 113 149 195 235 282 337
#     4   9  17  31  56  85 110 143 197 250 276 325
#     4  10  20  37  63  89 110 147 200 242 277 331
#
# _framework density 25.081882
#
# number of rings (size 3 to 8) (size 9 to 14) (size 15 to 20)
#    0.000    2.286    0.000    6.000    0.000    5.143 
#    0.000    2.857    0.000   11.143    0.000    0.000 
#    0.000    0.000    0.000    0.000    0.000    0.000 
#
# Total GULP energy -78213.947961 kJ/mol
# GULP energy per Si atom -5586.710569 kJ/mol
# Density = 2.502479 g / cm^3
# Si number density = 25.081882 Si / 1000 Ang^3
#
#
#
# Elastic Constant Matrix: (Units=GPa)
#
#
# Indices 1 2 3 4 5 6 
#
# 1 33.5817 4.1161 19.2268 6.8262 37.7077 -14.1325
# 2 4.1161 64.9738 33.4280 -17.0992 9.1089 11.6485
# 3 19.2268 33.4280 68.1445 -27.5270 5.4547 17.0783
# 4 6.8262 -17.0992 -27.5270 37.8888 3.8108 3.3536
# 5 37.7077 9.1089 5.4547 3.8108 44.1169 1.9196
# 6 -14.1325 11.6485 17.0783 3.3536 1.9196 40.2024
#
#
#
# Elastic Compliance Matrix: (Units=1/GPa)
#
#
# Indices 1 2 3 4 5 6 
#
# 1 -0.043831 -0.005125 0.031085 0.027530 0.033650 -0.031031
# 2 -0.005125 0.021099 -0.003811 0.008287 0.000084 -0.006991
# 3 0.031085 -0.003811 0.007296 -0.000199 -0.027113 0.010243
# 4 0.027530 0.008287 -0.000199 0.027262 -0.027851 0.006417
# 5 0.033650 0.000084 -0.027113 -0.027851 -0.001473 0.025716
# 6 -0.031031 -0.006991 0.010243 0.006417 0.025716 0.009877
#
#
# Mechanical properties :
#
#
# Convention : Reuss Voigt Hill
#
# Bulk Modulus (GPa) = 34.64765 31.13800 32.89283
# Shear Modulus (GPa) = -346.07796 31.77023 -157.15387
#
# Velocity S-wave (km/s) = -11.75920 3.56288 -7.92416
# Velocity P-wave (km/s) = 13.05863 5.41913 8.40122
#
# Compressibility (1/GPa) = 0.02886198
#
# Stress axis : x y z
#
# Youngs Moduli (GPa) = -22.81504 47.39647 137.05815
#
# Poissons Ratio (x) = 0.24292 -4.26046
# Poissons Ratio (y) = -0.11693 0.52230
# Poissons Ratio (z) = 0.70921 0.18062
#
# Static dielectric constant tensor:
#      x y z
#    x 1.988830 0.040140 -0.031620 
#    y 0.040140 1.931540 -0.057640 
#    z -0.031620 -0.057640 1.968210 
# 
# From -- ./inp_files/506721.got.cif
#   From: 2010.05.17/outbox.cif.g08.bks.cpg/sg2_254_cif.got.tgz:506721.got - 2010.06.03 11:33:40.
