data_PCOD9082884
_publ_section_title
;
Structure prediction by ZEFSAII (Michael W. Deem and Ramdas Pophale) SiO2 
 PCOD9082884
Probable space group: P -1
;
_chemical_formula_sum "Si O2"
_cell_formula_units_Z 14
_cell_length_a 15.507606
_cell_length_b 8.136339
_cell_length_c 9.975993
_cell_angle_alpha 108.292860
_cell_angle_beta 143.223015
_cell_angle_gamma 83.222372
_cell_volume 695.538060
_symmetry_space_group_name_H-M "P -1"
_symmetry_group_IT_number 2
_symmetry_cell_setting 'triclinic'
loop_
_space_group_symop_operation_xyz
x,y,z
-x,-y,-z
loop_
_atom_site_type_symbol
_atom_site_label
_atom_site_fract_x
_atom_site_fract_y
_atom_site_fract_z
Si Si1 0.830853 0.511611 0.778924
Si Si2 0.831891 0.815050 0.638658
Si Si3 0.338879 0.278742 0.210696
Si Si4 0.165499 0.928307 0.044500
Si Si5 0.559537 0.235235 0.260477
Si Si6 0.570132 0.209166 0.679781
Si Si7 0.529284 0.813992 0.151532
O O1 0.822811 0.650036 0.684605
O O2 0.767776 0.594139 0.851584
O O3 0.712835 0.333240 0.544963
O O4 0.000000 0.500000 0.000000
O O5 0.695541 0.787723 0.361434
O O6 0.820771 0.975355 0.768311
O O7 0.992653 0.861090 0.784331
O O8 0.420527 0.288048 0.173610
O O9 0.475351 0.310597 0.495824
O O10 0.242897 0.078942 0.072960
O O11 0.257132 0.776794 0.124596
O O12 0.538444 0.024715 0.203326
O O13 0.555307 0.274482 0.107646
O O14 0.542262 0.243670 0.808385
O O15 0.500000 0.000000 0.500000
#
# Coordination Sequence:
#
# PCOD9082884 Si02
#       7
#     2   2   2   2   2   2   2
#     4  11  25  38  60  90 124 154 196 248 302 346
#     4  10  20  36  56  88 113 163 188 242 294 346
#     4  10  19  38  59  90 111 160 199 245 290 343
#     4   9  17  30  62  86 111 143 209 244 270 346
#     4  11  24  38  60  94 123 151 193 252 301 349
#     4  10  15  33  61  85 111 147 211 238 271 351
#     4  11  21  39  63  89 119 157 200 243 295 351
#
# _framework density 20.128304
#
# number of rings (size 3 to 8) (size 9 to 14) (size 15 to 20)
#    0.000    1.714    7.143    0.429    8.000    0.571 
#    0.000    2.143    0.000    1.714    0.000    0.000 
#    0.000    0.000    0.000    0.000    0.000    0.000 
#
# Total GULP energy -78206.295041 kJ/mol
# GULP energy per Si atom -5586.163932 kJ/mol
# Density = 2.008249 g / cm^3
# Si number density = 20.128304 Si / 1000 Ang^3
#
#
#
# Elastic Constant Matrix: (Units=GPa)
#
#
# Indices 1 2 3 4 5 6 
#
# 1 120.0365 24.8219 46.2789 -5.2866 11.1595 -17.8960
# 2 24.8219 58.4990 18.6530 -8.4096 3.6292 -14.1961
# 3 46.2789 18.6530 72.0435 -10.9874 7.3427 -16.3921
# 4 -5.2866 -8.4096 -10.9874 24.5798 0.5275 10.2255
# 5 11.1595 3.6292 7.3427 0.5275 41.8672 -12.7595
# 6 -17.8960 -14.1961 -16.3921 10.2255 -12.7595 25.8499
#
#
#
# Elastic Compliance Matrix: (Units=1/GPa)
#
#
# Indices 1 2 3 4 5 6 
#
# 1 0.011798 -0.002443 -0.006500 -0.002588 -0.000735 0.003365
# 2 -0.002443 0.021013 -0.001722 0.002214 0.001772 0.008756
# 3 -0.006500 -0.001722 0.020527 0.004853 -0.000067 0.005618
# 4 -0.002588 0.002214 0.004853 0.052387 -0.007729 -0.022037
# 5 -0.000735 0.001772 -0.000067 -0.007729 0.029541 0.018061
# 6 0.003365 0.008756 0.005618 -0.022037 0.018061 0.067018
#
#
# Mechanical properties :
#
#
# Convention : Reuss Voigt Hill
#
# Bulk Modulus (GPa) = 31.24285 47.78742 39.51513
# Shear Modulus (GPa) = 21.34159 29.18107 25.26133
#
# Velocity S-wave (km/s) = 3.25972 3.81169 3.54646
# Velocity P-wave (km/s) = 5.45191 6.57000 6.03690
#
# Compressibility (1/GPa) = 0.03200732
#
# Stress axis : x y z
#
# Youngs Moduli (GPa) = 84.75818 47.58941 48.71559
#
# Poissons Ratio (x) = 0.11627 0.31667
# Poissons Ratio (y) = 0.20709 0.08389
# Poissons Ratio (z) = 0.55097 0.08195
#
# Static dielectric constant tensor:
#      x y z
#    x 1.740170 0.027200 0.011520 
#    y 0.027200 1.795150 0.007250 
#    z 0.011520 0.007250 1.690550 
# 
# From -- ./inp_files/190962.got.cif
#   From: 2010.05.17/outbox.cif.g08.bks.cpg/sg2_96_cif.got.tgz:190962.got - 2010.06.03 11:33:40.
