data_PCOD9082367
_publ_section_title
;
Structure prediction by ZEFSAII (Michael W. Deem and Ramdas Pophale) SiO2 
 PCOD9082367
Probable space group: P -1
;
_chemical_formula_sum "Si O2"
_cell_formula_units_Z 16
_cell_length_a 8.123549
_cell_length_b 11.989665
_cell_length_c 9.901796
_cell_angle_alpha 51.211560
_cell_angle_beta 113.893995
_cell_angle_gamma 107.738707
_cell_volume 685.548134
_symmetry_space_group_name_H-M "P -1"
_symmetry_group_IT_number 2
_symmetry_cell_setting 'triclinic'
loop_
_space_group_symop_operation_xyz
x,y,z
-x,-y,-z
loop_
_atom_site_type_symbol
_atom_site_label
_atom_site_fract_x
_atom_site_fract_y
_atom_site_fract_z
Si Si1 0.575294 0.391227 0.361112
Si Si2 0.144286 0.491841 0.869576
Si Si3 0.342459 0.644809 0.042181
Si Si4 0.844854 0.520443 0.547677
Si Si5 0.294599 0.887451 0.351234
Si Si6 0.690309 0.090908 0.980141
Si Si7 0.887965 0.824704 0.256700
Si Si8 0.289206 0.209973 0.073397
O O1 0.709819 0.452443 0.239858
O O2 0.413002 0.493667 0.228672
O O3 0.677478 0.421263 0.514418
O O4 0.559193 0.219708 0.469545
O O5 0.197945 0.330452 0.037828
O O6 0.947058 0.490287 0.741200
O O7 0.179641 0.599884 0.921973
O O8 0.301306 0.761738 0.049697
O O9 0.514108 0.723422 0.958797
O O10 0.789577 0.683816 0.397057
O O11 0.000000 0.500000 0.500000
O O12 0.288281 0.886564 0.187887
O O13 0.095442 0.818692 0.371955
O O14 0.309384 0.055361 0.263267
O O15 0.500000 0.000000 0.000000
O O16 0.831395 0.980124 0.161317
O O17 0.835376 0.810441 0.089925
#
# Coordination Sequence:
#
# PCOD9082367 Si02
#       8
#     2   2   2   2   2   2   2   2
#     4  10  18  35  60  88 110 144 204 240 274 326
#     4  10  19  33  57  83 116 150 191 229 287 348
#     4  11  21  37  55  83 118 160 181 223 300 356
#     4  10  15  31  59  84 110 141 194 245 267 326
#     4  11  21  32  61  92 108 142 200 253 273 316
#     4  11  21  37  56  82 122 153 185 232 293 349
#     4  11  18  34  60  89 108 142 200 243 277 320
#     4  10  17  32  54  83 109 144 183 236 278 331
#
# _framework density 23.338988000000001
#
# number of rings (size 3 to 8) (size 9 to 14) (size 15 to 20)
#    0.000    1.500    8.750    3.000    0.000    0.500 
#    0.000    3.125    0.000    6.750    0.000    0.000 
#    0.000    0.000    0.000    0.000    0.000    0.000 
#
# Total GULP energy -89442.508816 kJ/mol
# GULP energy per Si atom -5590.156801 kJ/mol
# Density = 2.328587 g / cm^3
# Si number density = 23.338988 Si / 1000 Ang^3
#
#
#
# Elastic Constant Matrix: (Units=GPa)
#
#
# Indices 1 2 3 4 5 6 
#
# 1 33.8878 13.7611 7.3036 -1.1766 8.7288 -3.6706
# 2 13.7611 150.3086 63.0342 -12.9912 7.7177 -7.2937
# 3 7.3036 63.0342 88.0461 -43.2699 12.3200 -6.8817
# 4 -1.1766 -12.9912 -43.2699 58.8344 1.2491 6.3031
# 5 8.7288 7.7177 12.3200 1.2491 17.8022 -5.8862
# 6 -3.6706 -7.2937 -6.8817 6.3031 -5.8862 25.0895
#
#
#
# Elastic Compliance Matrix: (Units=1/GPa)
#
#
# Indices 1 2 3 4 5 6 
#
# 1 0.034996 -0.003548 0.003696 0.003022 -0.018381 0.000031
# 2 -0.003548 0.011024 -0.011433 -0.006458 0.006194 0.002625
# 3 0.003696 -0.011433 0.033531 0.023228 -0.023308 -0.004889
# 4 0.003022 -0.006458 0.023228 0.034023 -0.019881 -0.008276
# 5 -0.018381 0.006194 -0.023308 -0.019881 0.085935 0.017874
# 6 0.000031 0.002625 -0.004889 -0.008276 0.017874 0.045556
#
#
# Mechanical properties :
#
#
# Convention : Reuss Voigt Hill
#
# Bulk Modulus (GPa) = 17.54937 48.93783 33.24360
# Shear Modulus (GPa) = 17.44421 32.88813 25.16617
#
# Velocity S-wave (km/s) = 2.73688 3.75794 3.28729
# Velocity P-wave (km/s) = 4.18605 6.31215 5.35566
#
# Compressibility (1/GPa) = 0.05698211
#
# Stress axis : x y z
#
# Youngs Moduli (GPa) = 28.57470 90.71473 29.82322
#
# Poissons Ratio (x) = 0.32182 -0.11024
# Poissons Ratio (y) = 0.10137 0.34097
# Poissons Ratio (z) = -0.10562 1.03714
#
# Static dielectric constant tensor:
#      x y z
#    x 1.924280 -0.036730 -0.002410 
#    y -0.036730 1.846540 -0.008900 
#    z -0.002410 -0.008900 1.909210 
# 
# From -- ./inp_files/392175.got.cif
#   From: 2010.05.17/outbox.cif.g08.bks.cpg/sg2_197_cif.got.tgz:392175.got - 2010.06.03 11:33:40.
