data_PCOD9082525
_publ_section_title
;
Structure prediction by ZEFSAII (Michael W. Deem and Ramdas Pophale) SiO2 
 PCOD9082525
Probable space group: P -1
;
_chemical_formula_sum "Si O2"
_cell_formula_units_Z 16
_cell_length_a 15.971049
_cell_length_b 11.442041
_cell_length_c 7.389754
_cell_angle_alpha 53.240573
_cell_angle_beta 70.394045
_cell_angle_gamma 40.305273
_cell_volume 680.541485
_symmetry_space_group_name_H-M "P -1"
_symmetry_group_IT_number 2
_symmetry_cell_setting 'triclinic'
loop_
_space_group_symop_operation_xyz
x,y,z
-x,-y,-z
loop_
_atom_site_type_symbol
_atom_site_label
_atom_site_fract_x
_atom_site_fract_y
_atom_site_fract_z
Si Si1 0.061436 0.438934 0.812865
Si Si2 0.192796 0.884437 0.856107
Si Si3 0.658982 0.680578 0.530410
Si Si4 0.309606 0.019891 0.819460
Si Si5 0.790828 0.463993 0.289703
Si Si6 0.126053 0.559963 0.120194
Si Si7 0.556564 0.578435 0.969103
Si Si8 0.071260 0.939825 0.250157
O O1 0.196508 0.187464 0.896996
O O2 0.105877 0.550770 0.674126
O O3 0.000000 0.500000 0.000000
O O4 0.942508 0.510511 0.720554
O O5 0.242586 0.990320 0.748047
O O6 0.044951 0.028524 0.761672
O O7 0.295140 0.659954 0.874436
O O8 0.183505 0.836375 0.114050
O O9 0.648713 0.868186 0.377654
O O10 0.666717 0.626307 0.365296
O O11 0.562775 0.695391 0.701601
O O12 0.798175 0.482619 0.718805
O O13 0.446884 0.772498 0.007859
O O14 0.774397 0.551390 0.020825
O O15 0.856007 0.224977 0.482233
O O16 0.007667 0.811412 0.908731
O O17 0.500000 0.500000 0.000000
#
# Coordination Sequence:
#
# PCOD9082525 Si02
#       8
#     2   2   2   2   2   2   2   2
#     4   9  20  36  53  86 121 148 188 240 289 347
#     4  10  19  33  55  91 113 150 197 242 282 352
#     4  11  21  38  60  88 113 154 199 243 287 356
#     4  10  21  33  60  84 115 159 198 233 297 343
#     4  10  22  34  57  90 119 154 187 240 300 351
#     4  11  21  36  58  89 121 150 192 244 296 345
#     4  10  20  37  57  87 117 151 198 244 286 351
#     4  11  18  33  55  83 121 147 193 239 296 338
#
# _framework density 23.51069
#
# number of rings (size 3 to 8) (size 9 to 14) (size 15 to 20)
#    0.000    1.750    3.750    1.500    1.750    1.000 
#    0.000    0.000    0.000   12.750    0.000    0.000 
#    0.000    0.000    0.000    0.000    0.000    0.000 
#
# Total GULP energy -89116.166993 kJ/mol
# GULP energy per Si atom -5569.760437 kJ/mol
# Density = 2.345718 g / cm^3
# Si number density = 23.510690 Si / 1000 Ang^3
#
#
#
# Elastic Constant Matrix: (Units=GPa)
#
#
# Indices 1 2 3 4 5 6 
#
# 1 70.7325 14.1839 20.4950 1.5219 -25.0844 6.3090
# 2 14.1839 150.0142 43.1711 -8.6660 -6.0988 -6.6152
# 3 20.4950 43.1711 80.4711 5.1979 -10.2453 3.2940
# 4 1.5219 -8.6660 5.1979 39.3812 7.4748 -8.7910
# 5 -25.0844 -6.0988 -10.2453 7.4748 26.1771 -3.1685
# 6 6.3090 -6.6152 3.2940 -8.7910 -3.1685 26.5645
#
#
#
# Elastic Compliance Matrix: (Units=1/GPa)
#
#
# Indices 1 2 3 4 5 6 
#
# 1 0.023631 -0.001413 -0.001717 -0.006493 0.022871 -0.005172
# 2 -0.001413 0.008529 -0.004871 0.003849 -0.001875 0.004114
# 3 -0.001717 -0.004871 0.016548 -0.004949 0.004632 -0.003943
# 4 -0.006493 0.003849 -0.004949 0.032727 -0.015138 0.012139
# 5 0.022871 -0.001875 0.004632 -0.015138 0.065371 -0.003686
# 6 -0.005172 0.004114 -0.003943 0.012139 -0.003686 0.043963
#
#
# Mechanical properties :
#
#
# Convention : Reuss Voigt Hill
#
# Bulk Modulus (GPa) = 30.57713 50.76866 40.67289
# Shear Modulus (GPa) = 22.97005 33.31574 28.14289
#
# Velocity S-wave (km/s) = 3.12910 3.76845 3.46356
# Velocity P-wave (km/s) = 5.10773 6.36991 5.77341
#
# Compressibility (1/GPa) = 0.03270418
#
# Stress axis : x y z
#
# Youngs Moduli (GPa) = 42.31766 117.24619 60.42890
#
# Poissons Ratio (x) = 0.16573 0.10377
# Poissons Ratio (y) = 0.05982 0.29437
# Poissons Ratio (z) = 0.07267 0.57115
#
# Static dielectric constant tensor:
#      x y z
#    x 1.966110 -0.024140 -0.048490 
#    y -0.024140 2.025160 -0.015450 
#    z -0.048490 -0.015450 1.917880 
# 
# From -- ./inp_files/282612.got.cif
#   From: 2010.05.17/outbox.cif.g08.bks.cpg/sg2_142_cif.got.tgz:282612.got - 2010.06.03 11:33:40.
