data_PCOD9082855
_publ_section_title
;
Structure prediction by ZEFSAII (Michael W. Deem and Ramdas Pophale) SiO2 
 PCOD9082855
Probable space group: P -1
;
_chemical_formula_sum "Si O2"
_cell_formula_units_Z 14
_cell_length_a 12.718831
_cell_length_b 13.197904
_cell_length_c 8.752688
_cell_angle_alpha 86.103361
_cell_angle_beta 71.546513
_cell_angle_gamma 147.767925
_cell_volume 556.100687
_symmetry_space_group_name_H-M "P -1"
_symmetry_group_IT_number 2
_symmetry_cell_setting 'triclinic'
loop_
_space_group_symop_operation_xyz
x,y,z
-x,-y,-z
loop_
_atom_site_type_symbol
_atom_site_label
_atom_site_fract_x
_atom_site_fract_y
_atom_site_fract_z
Si Si1 0.256528 0.176671 0.768436
Si Si2 0.158387 0.239760 0.567566
Si Si3 0.844031 0.229103 0.235949
Si Si4 0.592355 0.253555 0.637461
Si Si5 0.149942 0.419490 0.767579
Si Si6 0.643481 0.226145 0.955557
Si Si7 0.285259 0.031219 0.406188
O O1 0.164764 0.133657 0.645489
O O2 0.531426 0.471304 0.655316
O O3 0.363037 0.151417 0.738823
O O4 0.000000 0.000000 0.000000
O O5 0.104013 0.270152 0.733787
O O6 0.938362 0.084572 0.558674
O O7 0.518464 0.944340 0.368410
O O8 0.853294 0.159806 0.384024
O O9 0.963141 0.290892 0.009953
O O10 0.044229 0.492280 0.152098
O O11 0.849382 0.510132 0.392969
O O12 0.648820 0.288275 0.784782
O O13 0.458101 0.695441 0.661762
O O14 0.440391 0.102265 0.189604
O O15 0.500000 0.000000 0.000000
#
# Coordination Sequence:
#
# PCOD9082855 Si02
#       7
#     2   2   2   2   2   2   2
#     4  10  19  33  58  87 113 151 195 230 279 336
#     4  10  20  36  58  84 118 154 190 235 277 328
#     4  10  20  38  60  83 115 152 187 235 289 338
#     4  10  21  39  60  81 115 154 188 235 287 339
#     4   9  19  36  59  85 115 153 193 229 281 341
#     4  11  24  40  61  88 113 145 193 241 289 346
#     4  10  21  38  60  87 117 151 191 232 284 342
#
# _framework density 25.175298000000002
#
# number of rings (size 3 to 8) (size 9 to 14) (size 15 to 20)
#    0.000    2.000    0.000    4.286    0.000    2.286 
#    0.000   19.286    0.000   30.857    0.000    0.000 
#    0.000    0.000    0.000    0.000    0.000    0.000 
#
# Total GULP energy -78213.215406 kJ/mol
# GULP energy per Si atom -5586.658243 kJ/mol
# Density = 2.511800 g / cm^3
# Si number density = 25.175298 Si / 1000 Ang^3
#
#
#
# Elastic Constant Matrix: (Units=GPa)
#
#
# Indices 1 2 3 4 5 6 
#
# 1 71.2374 21.3696 35.1859 12.8149 24.6675 3.0472
# 2 21.3696 133.0078 29.6805 11.2780 15.6346 -1.2789
# 3 35.1859 29.6805 152.4841 16.2619 22.7919 -0.8883
# 4 12.8149 11.2780 16.2619 53.6626 3.6008 -3.3967
# 5 24.6675 15.6346 22.7919 3.6008 41.0911 8.0591
# 6 3.0472 -1.2789 -0.8883 -3.3967 8.0591 39.0127
#
#
#
# Elastic Compliance Matrix: (Units=1/GPa)
#
#
# Indices 1 2 3 4 5 6 
#
# 1 0.019499 -0.001187 -0.002511 -0.002994 -0.009620 0.000108
# 2 -0.001187 0.008236 -0.000928 -0.000994 -0.001948 0.000657
# 3 -0.002511 -0.000928 0.007844 -0.001366 -0.002517 0.000745
# 4 -0.002994 -0.000994 -0.001366 0.020027 0.000837 0.001741
# 5 -0.009620 -0.001948 -0.002517 0.000837 0.033390 -0.006195
# 6 0.000108 0.000657 0.000745 0.001741 -0.006195 0.027094
#
#
# Mechanical properties :
#
#
# Convention : Reuss Voigt Hill
#
# Bulk Modulus (GPa) = 37.98281 58.80013 48.39147
# Shear Modulus (GPa) = 37.28091 44.78616 41.03353
#
# Velocity S-wave (km/s) = 3.85236 4.22236 4.04160
# Velocity P-wave (km/s) = 5.90827 6.86863 6.40647
#
# Compressibility (1/GPa) = 0.02632770
#
# Stress axis : x y z
#
# Youngs Moduli (GPa) = 51.28549 121.42184 127.48023
#
# Poissons Ratio (x) = 0.14411 0.32004
# Poissons Ratio (y) = 0.06087 0.11833
# Poissons Ratio (z) = 0.12875 0.11270
#
# Static dielectric constant tensor:
#      x y z
#    x 2.054140 -0.034030 -0.008280 
#    y -0.034030 1.984120 -0.000650 
#    z -0.008280 -0.000650 2.052590 
# 
# From -- ./inp_files/315072.got.cif
#   From: 2010.05.17/outbox.cif.g08.bks.cpg/sg2_158_cif.got.tgz:315072.got - 2010.06.03 11:33:40.
