data_PCOD9082250
_publ_section_title
;
Structure prediction by ZEFSAII (Michael W. Deem and Ramdas Pophale) SiO2 
 PCOD9082250
Probable space group: P -1
;
_chemical_formula_sum "Si O2"
_cell_formula_units_Z 16
_cell_length_a 7.232195
_cell_length_b 20.870632
_cell_length_c 11.731454
_cell_angle_alpha 29.258445
_cell_angle_beta 58.228114
_cell_angle_gamma 68.205491
_cell_volume 719.043698
_symmetry_space_group_name_H-M "P -1"
_symmetry_group_IT_number 2
_symmetry_cell_setting 'triclinic'
loop_
_space_group_symop_operation_xyz
x,y,z
-x,-y,-z
loop_
_atom_site_type_symbol
_atom_site_label
_atom_site_fract_x
_atom_site_fract_y
_atom_site_fract_z
Si Si1 0.140792 0.765006 0.402206
Si Si2 0.259383 0.618006 0.400981
Si Si3 0.858588 0.727587 0.248043
Si Si4 0.028931 0.679947 0.037673
Si Si5 0.209286 0.455679 0.062276
Si Si6 0.301660 0.747630 0.634506
Si Si7 0.325949 0.054036 0.889913
Si Si8 0.570217 0.428768 0.811257
O O1 0.310966 0.697981 0.377388
O O2 0.204918 0.765810 0.512675
O O3 0.901360 0.662821 0.632508
O O4 0.159947 0.916574 0.121583
O O5 0.442833 0.613702 0.251694
O O6 0.080214 0.693245 0.284957
O O7 0.129789 0.466198 0.704345
O O8 0.782094 0.845381 0.156303
O O9 0.682094 0.586550 0.532118
O O10 0.913507 0.754298 0.055187
O O11 0.250946 0.645798 0.075005
O O12 0.117933 0.755815 0.776138
O O13 0.336074 0.593755 0.865983
O O14 0.353663 0.407415 0.992110
O O15 0.000000 0.500000 0.000000
O O16 0.528905 0.859085 0.391520
O O17 0.500000 0.000000 0.000000
#
# Coordination Sequence:
#
# PCOD9082250 Si02
#       8
#     2   2   2   2   2   2   2   2
#     4  10  21  35  52  80 118 143 177 227 274 322
#     4   9  18  34  56  84 113 139 178 228 279 323
#     4   9  18  35  57  81 109 146 184 220 271 329
#     4   9  18  33  58  85 108 139 183 231 270 320
#     4  10  19  33  53  80 111 136 182 228 268 312
#     4  10  19  35  55  80 110 144 187 221 264 329
#     4  10  21  37  54  76 111 152 186 218 264 333
#     4   9  18  34  57  84 110 140 181 228 275 323
#
# _framework density 22.251776
#
# number of rings (size 3 to 8) (size 9 to 14) (size 15 to 20)
#    0.000    2.500    2.500    1.500    0.000    2.000 
#    0.000   11.250    0.000    3.000    0.000    0.000 
#    0.000    0.000    0.000    0.000    0.000    0.000 
#
# Total GULP energy -89403.502860 kJ/mol
# GULP energy per Si atom -5587.718929 kJ/mol
# Density = 2.220113 g / cm^3
# Si number density = 22.251776 Si / 1000 Ang^3
#
#
#
# Elastic Constant Matrix: (Units=GPa)
#
#
# Indices 1 2 3 4 5 6 
#
# 1 48.1501 16.5370 0.6670 -2.7287 14.0003 -8.8108
# 2 16.5370 122.8404 43.1877 32.0163 -15.9223 -1.8543
# 3 0.6670 43.1877 127.7744 1.4655 -28.6437 11.5270
# 4 -2.7287 32.0163 1.4655 38.6930 2.9152 7.5405
# 5 14.0003 -15.9223 -28.6437 2.9152 18.8404 5.4103
# 6 -8.8108 -1.8543 11.5270 7.5405 5.4103 32.7036
#
#
#
# Elastic Compliance Matrix: (Units=1/GPa)
#
#
# Indices 1 2 3 4 5 6 
#
# 1 0.088146 -0.029380 -0.030688 0.033545 -0.156855 0.051113
# 2 -0.029380 0.023221 0.007278 -0.023418 0.060080 -0.013704
# 3 -0.030688 0.007278 0.025294 -0.009615 0.076722 -0.027246
# 4 0.033545 -0.023418 -0.009615 0.051119 -0.070392 0.010957
# 5 -0.156855 0.060080 0.076722 -0.070392 0.380272 -0.112574
# 6 0.051113 -0.013704 -0.027246 0.010957 -0.112574 0.069272
#
#
# Mechanical properties :
#
#
# Convention : Reuss Voigt Hill
#
# Bulk Modulus (GPa) = 32.17507 46.61648 39.39578
# Shear Modulus (GPa) = 6.63777 33.93894 20.28836
#
# Velocity S-wave (km/s) = 1.72902 3.90965 3.02282
# Velocity P-wave (km/s) = 4.29848 6.43238 5.47049
#
# Compressibility (1/GPa) = 0.03107996
#
# Stress axis : x y z
#
# Youngs Moduli (GPa) = 11.34486 43.06436 39.53520
#
# Poissons Ratio (x) = 1.26522 1.21327
# Poissons Ratio (y) = 0.33331 -0.28773
# Poissons Ratio (z) = 0.34816 -0.31341
#
# Static dielectric constant tensor:
#      x y z
#    x 2.217290 0.042780 -0.044110 
#    y 0.042780 1.825560 0.016920 
#    z -0.044110 0.016920 1.861930 
# 
# From -- ./inp_files/273498.got.cif
#   From: 2010.05.17/outbox.cif.g08.bks.cpg/sg2_137_cif.got.tgz:273498.got - 2010.06.03 11:33:40.
