data_PCOD9082831
_publ_section_title
;
Structure prediction by ZEFSAII (Michael W. Deem and Ramdas Pophale) SiO2 
 PCOD9082831
Probable space group: P -1
;
_chemical_formula_sum "Si O2"
_cell_formula_units_Z 14
_cell_length_a 8.137317
_cell_length_b 16.751013
_cell_length_c 8.999086
_cell_angle_alpha 37.754254
_cell_angle_beta 105.776125
_cell_angle_gamma 86.713752
_cell_volume 640.955600
_symmetry_space_group_name_H-M "P -1"
_symmetry_group_IT_number 2
_symmetry_cell_setting 'triclinic'
loop_
_space_group_symop_operation_xyz
x,y,z
-x,-y,-z
loop_
_atom_site_type_symbol
_atom_site_label
_atom_site_fract_x
_atom_site_fract_y
_atom_site_fract_z
Si Si1 0.462646 0.839783 0.602136
Si Si2 0.373003 0.156343 0.816382
Si Si3 0.842056 0.165931 0.678300
Si Si4 0.926505 0.761292 0.612724
Si Si5 0.894724 0.614590 0.092256
Si Si6 0.008244 0.294388 0.717628
Si Si7 0.651303 0.052651 0.271339
O O1 0.346579 0.827969 0.449779
O O2 0.338793 0.881119 0.664263
O O3 0.527181 0.965233 0.402334
O O4 0.664474 0.695715 0.893294
O O5 0.245301 0.247597 0.510871
O O6 0.201200 0.176634 0.856525
O O7 0.526653 0.172575 0.938521
O O8 0.500000 0.000000 0.000000
O O9 0.920375 0.238085 0.465808
O O10 0.837750 0.255502 0.693199
O O11 0.000000 0.000000 0.000000
O O12 0.840066 0.920993 0.439094
O O13 0.990203 0.636025 0.935265
O O14 0.945012 0.699761 0.108731
O O15 0.964696 0.450448 0.405949
#
# Coordination Sequence:
#
# PCOD9082831 Si02
#       7
#     2   2   2   2   2   2   2
#     4  10  19  33  58  84 115 158 194 244 293 354
#     4   9  16  31  53  84 112 143 189 248 282 331
#     4  11  24  37  56  90 127 154 187 256 314 340
#     4   9  20  34  58  87 116 152 201 241 297 352
#     4  10  21  39  65  86 111 169 205 237 287 358
#     4  10  21  39  61  85 122 156 203 246 291 362
#     4   9  17  32  57  82 115 150 203 238 282 360
#
# _framework density 21.842383999999999
#
# number of rings (size 3 to 8) (size 9 to 14) (size 15 to 20)
#    0.000    2.286    1.429    1.714    4.000    4.571 
#    0.000    0.000    0.000    8.571    0.000    0.000 
#    0.000    0.000    0.000    0.000    0.000    0.000 
#
# Total GULP energy -78025.898437 kJ/mol
# GULP energy per Si atom -5573.278460 kJ/mol
# Density = 2.179267 g / cm^3
# Si number density = 21.842384 Si / 1000 Ang^3
#
#
#
# Elastic Constant Matrix: (Units=GPa)
#
#
# Indices 1 2 3 4 5 6 
#
# 1 45.6884 22.0735 17.7146 7.7409 8.5461 9.5416
# 2 22.0735 89.8799 8.2021 18.6117 12.0265 12.9288
# 3 17.7146 8.2021 85.4000 16.8134 3.8452 6.4741
# 4 7.7409 18.6117 16.8134 25.8139 -0.7679 5.5932
# 5 8.5461 12.0265 3.8452 -0.7679 27.4990 7.3499
# 6 9.5416 12.9288 6.4741 5.5932 7.3499 28.1351
#
#
#
# Elastic Compliance Matrix: (Units=1/GPa)
#
#
# Indices 1 2 3 4 5 6 
#
# 1 0.028103 -0.004973 -0.004591 -0.000954 -0.004666 -0.004780
# 2 -0.004973 0.015379 0.002047 -0.010559 -0.005116 -0.002416
# 3 -0.004591 0.002047 0.014432 -0.009463 -0.001645 -0.000393
# 4 -0.000954 -0.010559 -0.009463 0.054355 0.009330 -0.005890
# 5 -0.004666 -0.005116 -0.001645 0.009330 0.042880 -0.008745
# 6 -0.004780 -0.002416 -0.000393 -0.005890 -0.008745 0.041820
#
#
# Mechanical properties :
#
#
# Convention : Reuss Voigt Hill
#
# Bulk Modulus (GPa) = 23.32168 35.21652 29.26910
# Shear Modulus (GPa) = 22.09474 27.82148 24.95811
#
# Velocity S-wave (km/s) = 3.18394 3.57282 3.38397
# Velocity P-wave (km/s) = 4.92109 5.76004 5.35701
#
# Compressibility (1/GPa) = 0.04287855
#
# Stress axis : x y z
#
# Youngs Moduli (GPa) = 35.58329 65.02372 69.28874
#
# Poissons Ratio (x) = 0.32338 0.31814
# Poissons Ratio (y) = 0.17697 -0.14182
# Poissons Ratio (z) = 0.16338 -0.13309
#
# Static dielectric constant tensor:
#      x y z
#    x 1.843940 0.002360 -0.005910 
#    y 0.002360 1.879790 0.046370 
#    z -0.005910 0.046370 1.843410 
# 
# From -- ./inp_files/211719.got.cif
#   From: 2010.05.17/outbox.cif.g08.bks.cpg/sg2_106_cif.got.tgz:211719.got - 2010.06.03 11:33:40.
