data_PCOD9082725
_publ_section_title
;
Structure prediction by ZEFSAII (Michael W. Deem and Ramdas Pophale) SiO2 
 PCOD9082725
Probable space group: P -1
;
_chemical_formula_sum "Si O2"
_cell_formula_units_Z 12
_cell_length_a 8.577954
_cell_length_b 5.225919
_cell_length_c 16.267957
_cell_angle_alpha 54.134414
_cell_angle_beta 122.334260
_cell_angle_gamma 95.411610
_cell_volume 473.104884
_symmetry_space_group_name_H-M "P -1"
_symmetry_group_IT_number 2
_symmetry_cell_setting 'triclinic'
loop_
_space_group_symop_operation_xyz
x,y,z
-x,-y,-z
loop_
_atom_site_type_symbol
_atom_site_label
_atom_site_fract_x
_atom_site_fract_y
_atom_site_fract_z
Si Si1 0.174235 0.110013 0.380277
Si Si2 0.223307 0.436266 0.598957
Si Si3 0.798441 0.059626 0.984850
Si Si4 0.449900 0.854997 0.373309
Si Si5 0.228954 0.286085 0.102521
Si Si6 0.920686 0.802312 0.249280
O O1 0.081612 0.449538 0.338239
O O2 0.245425 0.797237 0.521163
O O3 0.349851 0.110899 0.369294
O O4 0.016535 0.027081 0.290069
O O5 0.362934 0.181405 0.622740
O O6 0.237082 0.291515 0.721126
O O7 0.000000 0.500000 0.500000
O O8 0.681129 0.451208 0.880266
O O9 0.707528 0.827173 0.950260
O O10 0.839487 0.957959 0.109817
O O11 0.000000 0.000000 0.000000
O O12 0.500000 0.500000 0.500000
O O13 0.283451 0.959752 0.235876
O O14 0.000000 0.500000 0.000000
#
# Coordination Sequence:
#
# PCOD9082725 Si02
#       6
#     2   2   2   2   2   2
#     4  10  20  37  62  91 121 161 210 258 305 367
#     4   9  21  40  61  91 129 166 205 258 317 370
#     4  10  19  33  57  85 117 158 202 247 300 364
#     4  10  21  41  66  96 125 163 212 259 308 371
#     4  10  20  37  59  89 121 156 202 255 302 358
#     4  11  20  38  62  90 124 166 206 255 313 368
#
# _framework density 25.364352
#
# number of rings (size 3 to 8) (size 9 to 14) (size 15 to 20)
#    0.000    2.000    0.000    5.500    0.000    0.000 
#    0.000   32.500    0.000    0.000    0.000    0.000 
#    0.000    0.000    0.000    0.000    0.000    0.000 
#
# Total GULP energy -67024.126433 kJ/mol
# GULP energy per Si atom -5585.343869 kJ/mol
# Density = 2.530662 g / cm^3
# Si number density = 25.364352 Si / 1000 Ang^3
#
#
#
# Elastic Constant Matrix: (Units=GPa)
#
#
# Indices 1 2 3 4 5 6 
#
# 1 121.1615 31.2435 39.1017 2.0217 -19.4631 -42.4515
# 2 31.2435 166.0695 34.5344 1.1986 -6.0574 -9.2058
# 3 39.1017 34.5344 150.9193 17.4521 -27.4446 -8.3393
# 4 2.0217 1.1986 17.4521 41.3880 -14.1064 -2.3845
# 5 -19.4631 -6.0574 -27.4446 -14.1064 47.8319 6.6901
# 6 -42.4515 -9.2058 -8.3393 -2.3845 6.6901 36.6949
#
#
#
# Elastic Compliance Matrix: (Units=1/GPa)
#
#
# Indices 1 2 3 4 5 6 
#
# 1 0.015862 -0.001414 -0.002553 0.002392 0.003138 0.016999
# 2 -0.001414 0.006518 -0.001231 0.000269 -0.000349 -0.000199
# 3 -0.002553 -0.001231 0.008303 -0.002385 0.003161 -0.002106
# 4 0.002392 0.000269 -0.002385 0.027735 0.007435 0.002739
# 5 0.003138 -0.000349 0.003161 0.007435 0.026149 -0.000023
# 6 0.016999 -0.000199 -0.002106 0.002739 -0.000023 0.046571
#
#
# Mechanical properties :
#
#
# Convention : Reuss Voigt Hill
#
# Bulk Modulus (GPa) = 49.28887 71.98995 60.63941
# Shear Modulus (GPa) = 33.71670 47.40099 40.55885
#
# Velocity S-wave (km/s) = 3.64990 4.32766 4.00315
# Velocity P-wave (km/s) = 6.10221 7.30859 6.73247
#
# Compressibility (1/GPa) = 0.02028856
#
# Stress axis : x y z
#
# Youngs Moduli (GPa) = 63.04392 153.42640 120.43466
#
# Poissons Ratio (x) = 0.21692 0.30743
# Poissons Ratio (y) = 0.08913 0.14821
# Poissons Ratio (z) = 0.16093 0.18882
#
# Static dielectric constant tensor:
#      x y z
#    x 2.106720 0.148230 0.028510 
#    y 0.148230 2.087090 0.068900 
#    z 0.028510 0.068900 2.094390 
# 
# From -- ./inp_files/28990.got.cif
#   From: 2010.05.17/outbox.cif.g08.bks.cpg/sg2_15_cif.got.tgz:28990.got - 2010.06.03 11:33:40.
