data_PCOD9082778
_publ_section_title
;
Structure prediction by ZEFSAII (Michael W. Deem and Ramdas Pophale) SiO2 
 PCOD9082778
Probable space group: P -1
;
_chemical_formula_sum "Si O2"
_cell_formula_units_Z 16
_cell_length_a 19.169193
_cell_length_b 8.211865
_cell_length_c 9.744865
_cell_angle_alpha 74.842311
_cell_angle_beta 129.770438
_cell_angle_gamma 67.073742
_cell_volume 752.016616
_symmetry_space_group_name_H-M "P -1"
_symmetry_group_IT_number 2
_symmetry_cell_setting 'triclinic'
loop_
_space_group_symop_operation_xyz
x,y,z
-x,-y,-z
loop_
_atom_site_type_symbol
_atom_site_label
_atom_site_fract_x
_atom_site_fract_y
_atom_site_fract_z
Si Si1 0.913421 0.409962 0.987157
Si Si2 0.860426 0.143786 0.878405
Si Si3 0.268884 0.135504 0.840232
Si Si4 0.812024 0.829496 0.569855
Si Si5 0.447728 0.424766 0.729767
Si Si6 0.437437 0.808082 0.622034
Si Si7 0.581738 0.776632 0.034559
Si Si8 0.196243 0.156804 0.041926
O O1 0.877790 0.590529 0.023697
O O2 0.076830 0.190774 0.238017
O O3 0.859988 0.295870 0.956458
O O4 0.857257 0.582811 0.741345
O O5 0.706612 0.374279 0.568936
O O6 0.862995 0.946208 0.975226
O O7 0.000000 0.000000 0.000000
O O8 0.212622 0.135281 0.629705
O O9 0.275084 0.327525 0.777722
O O10 0.192313 0.193024 0.868027
O O11 0.429988 0.857634 0.119647
O O12 0.677074 0.057387 0.434089
O O13 0.506192 0.530867 0.760068
O O14 0.425060 0.395333 0.864076
O O15 0.524182 0.834937 0.795100
O O16 0.351942 0.954060 0.343294
O O17 0.500000 0.000000 0.000000
#
# Coordination Sequence:
#
# PCOD9082778 Si02
#       8
#     2   2   2   2   2   2   2   2
#     4  10  21  40  65  88 115 168 203 246 297 356
#     4  11  22  41  65  92 118 159 211 247 294 363
#     4  11  23  39  57  91 128 156 192 254 310 354
#     4  10  19  37  65  87 120 153 208 252 294 356
#     4  10  21  36  63  90 120 155 200 257 299 348
#     4  10  19  36  58  87 120 155 203 246 297 358
#     4  10  19  33  57  90 116 153 202 245 297 362
#     4  10  25  41  58  91 128 159 198 251 302 364
#
# _framework density 21.276128
#
# number of rings (size 3 to 8) (size 9 to 14) (size 15 to 20)
#    0.000    1.750    2.500    4.125    5.250    3.000 
#    2.250    0.625    0.000    0.000    0.000    0.000 
#    0.000    0.000    0.000    0.000    0.000    0.000 
#
# Total GULP energy -89100.635655 kJ/mol
# GULP energy per Si atom -5568.789728 kJ/mol
# Density = 2.122770 g / cm^3
# Si number density = 21.276128 Si / 1000 Ang^3
#
#
#
# Elastic Constant Matrix: (Units=GPa)
#
#
# Indices 1 2 3 4 5 6 
#
# 1 65.4477 27.1522 22.9058 17.4667 -6.4061 -6.8075
# 2 27.1522 77.9120 24.2050 20.1368 -0.4696 11.8236
# 3 22.9058 24.2050 45.4915 8.0190 1.4022 -7.6648
# 4 17.4667 20.1368 8.0190 24.0688 -7.7195 1.5285
# 5 -6.4061 -0.4696 1.4022 -7.7195 22.9854 15.9466
# 6 -6.8075 11.8236 -7.6648 1.5285 15.9466 31.7571
#
#
#
# Elastic Compliance Matrix: (Units=1/GPa)
#
#
# Indices 1 2 3 4 5 6 
#
# 1 0.022772 -0.003837 -0.006121 -0.012298 -0.001921 0.006390
# 2 -0.003837 0.022255 -0.011209 -0.008628 0.007795 -0.015313
# 3 -0.006121 -0.011209 0.037093 -0.007521 -0.023282 0.023867
# 4 -0.012298 -0.008628 -0.007521 0.074064 0.038461 -0.024117
# 5 -0.001921 0.007795 -0.023282 0.038461 0.099672 -0.060834
# 6 0.006390 -0.015313 0.023867 -0.024117 -0.060834 0.076028
#
#
# Mechanical properties :
#
#
# Convention : Reuss Voigt Hill
#
# Bulk Modulus (GPa) = 25.13418 37.48636 31.31027
# Shear Modulus (GPa) = 12.90390 23.40148 18.15269
#
# Velocity S-wave (km/s) = 2.46539 3.32006 2.92412
# Velocity P-wave (km/s) = 4.46578 5.68809 5.11358
#
# Compressibility (1/GPa) = 0.03978646
#
# Stress axis : x y z
#
# Youngs Moduli (GPa) = 43.91314 44.93343 26.95943
#
# Poissons Ratio (x) = 0.17242 0.16502
# Poissons Ratio (y) = 0.16850 0.30218
# Poissons Ratio (z) = 0.26879 0.50365
#
# Static dielectric constant tensor:
#      x y z
#    x 1.845060 0.080590 0.027110 
#    y 0.080590 1.897710 -0.009740 
#    z 0.027110 -0.009740 1.845780 
# 
# From -- ./inp_files/343566.got.cif
#   From: 2010.05.17/outbox.cif.g08.bks.cpg/sg2_172_cif.got.tgz:343566.got - 2010.06.03 11:33:40.
