data_PCOD9082039
_publ_section_title
;
Structure prediction by ZEFSAII (Michael W. Deem and Ramdas Pophale) SiO2 
 PCOD9082039
Probable space group: P -1
;
_chemical_formula_sum "Si O2"
_cell_formula_units_Z 16
_cell_length_a 8.573230
_cell_length_b 11.636032
_cell_length_c 15.870201
_cell_angle_alpha 28.994527
_cell_angle_beta 64.602083
_cell_angle_gamma 70.883734
_cell_volume 689.123065
_symmetry_space_group_name_H-M "P -1"
_symmetry_group_IT_number 2
_symmetry_cell_setting 'triclinic'
loop_
_space_group_symop_operation_xyz
x,y,z
-x,-y,-z
loop_
_atom_site_type_symbol
_atom_site_label
_atom_site_fract_x
_atom_site_fract_y
_atom_site_fract_z
Si Si1 0.357211 0.196602 0.485170
Si Si2 0.265536 0.720100 0.734157
Si Si3 0.331270 0.095766 0.885223
Si Si4 0.805566 0.442322 0.437740
Si Si5 0.295826 0.674759 0.279105
Si Si6 0.475185 0.961160 0.285054
Si Si7 0.305176 0.401901 0.084685
Si Si8 0.999169 0.724112 0.651901
O O1 0.532853 0.271694 0.343794
O O2 0.286639 0.435370 0.380137
O O3 0.415586 0.057187 0.644086
O O4 0.242569 0.993068 0.590120
O O5 0.147677 0.639468 0.733736
O O6 0.233359 0.548497 0.931302
O O7 0.209955 0.283986 0.756335
O O8 0.501218 0.239458 0.798704
O O9 0.409510 0.967765 0.868641
O O10 0.242407 0.898902 0.095473
O O11 0.809601 0.384681 0.572442
O O12 0.621935 0.299281 0.543117
O O13 0.948641 0.339605 0.412751
O O14 0.327031 0.134343 0.221400
O O15 0.184082 0.402030 0.193554
O O16 0.500000 0.500000 0.000000
O O17 0.000000 0.000000 0.500000
#
# Coordination Sequence:
#
# PCOD9082039 Si02
#       8
#     2   2   2   2   2   2   2   2
#     4  11  19  37  65  98 139 177 223 277 340 396
#     4  11  24  39  66 100 138 181 223 280 338 409
#     4  10  19  32  61  98 130 174 226 276 332 397
#     4  11  20  38  64  90 138 178 221 278 337 396
#     4  10  19  34  59  98 131 177 228 276 330 404
#     4  11  18  37  62  97 135 175 222 279 332 397
#     4  12  25  42  68 101 133 178 233 281 334 407
#     4  12  25  46  66  98 136 183 220 279 351 398
#
# _framework density 23.217911999999998
#
# number of rings (size 3 to 8) (size 9 to 14) (size 15 to 20)
#    0.000    1.000    6.250    1.875    1.750    2.000 
#    2.250    0.000    0.000    3.750    0.000    0.000 
#    0.000    0.000    0.000    0.000    0.000    0.000 
#
# Total GULP energy -89565.808453 kJ/mol
# GULP energy per Si atom -5597.863028 kJ/mol
# Density = 2.316507 g / cm^3
# Si number density = 23.217912 Si / 1000 Ang^3
#
#
#
# Elastic Constant Matrix: (Units=GPa)
#
#
# Indices 1 2 3 4 5 6 
#
# 1 58.5334 25.8970 36.5603 9.6126 -3.3306 2.1364
# 2 25.8970 154.7592 74.2032 17.7968 2.2594 -16.8710
# 3 36.5603 74.2032 154.7097 18.5222 28.5201 -17.7520
# 4 9.6126 17.7968 18.5222 33.5370 1.2174 -0.2523
# 5 -3.3306 2.2594 28.5201 1.2174 22.7635 -4.1914
# 6 2.1364 -16.8710 -17.7520 -0.2523 -4.1914 29.5521
#
#
#
# Elastic Compliance Matrix: (Units=1/GPa)
#
#
# Indices 1 2 3 4 5 6 
#
# 1 0.023593 -0.000607 -0.007870 -0.002588 0.012588 -0.005017
# 2 -0.000607 0.009387 -0.004733 -0.002373 0.005652 0.003341
# 3 -0.007870 -0.004733 0.014755 -0.002688 -0.018267 0.004117
# 4 -0.002588 -0.002373 -0.002688 0.033249 0.001012 -0.002355
# 5 0.012588 0.005652 -0.018267 0.001012 0.068233 0.001030
# 6 -0.005017 0.003341 0.004117 -0.002355 0.001030 0.038708
#
#
# Mechanical properties :
#
#
# Convention : Reuss Voigt Hill
#
# Bulk Modulus (GPa) = 46.91801 71.25814 59.08808
# Shear Modulus (GPa) = 22.57825 32.59329 27.58577
#
# Velocity S-wave (km/s) = 3.12180 3.75080 3.45066
# Velocity P-wave (km/s) = 5.76591 7.03673 6.43278
#
# Compressibility (1/GPa) = 0.02131378
#
# Stress axis : x y z
#
# Youngs Moduli (GPa) = 42.38489 106.52522 67.77189
#
# Poissons Ratio (x) = 0.06471 0.53339
# Poissons Ratio (y) = 0.02575 0.32078
# Poissons Ratio (z) = 0.33359 0.50422
#
# Static dielectric constant tensor:
#      x y z
#    x 1.872850 0.009380 0.011640 
#    y 0.009380 1.874440 -0.038260 
#    z 0.011640 -0.038260 1.891390 
# 
# From -- ./inp_files/499668.got.cif
#   From: 2010.05.17/outbox.cif.g08.bks.cpg/sg2_250_cif.got.tgz:499668.got - 2010.06.03 11:33:40.
