data_PCOD9082472
_publ_section_title
;
Structure prediction by ZEFSAII (Michael W. Deem and Ramdas Pophale) SiO2 
 PCOD9082472
Probable space group: P -1
;
_chemical_formula_sum "Si O2"
_cell_formula_units_Z 16
_cell_length_a 11.721618
_cell_length_b 13.941501
_cell_length_c 12.296897
_cell_angle_alpha 73.919378
_cell_angle_beta 104.993133
_cell_angle_gamma 159.280830
_cell_volume 683.126561
_symmetry_space_group_name_H-M "P -1"
_symmetry_group_IT_number 2
_symmetry_cell_setting 'triclinic'
loop_
_space_group_symop_operation_xyz
x,y,z
-x,-y,-z
loop_
_atom_site_type_symbol
_atom_site_label
_atom_site_fract_x
_atom_site_fract_y
_atom_site_fract_z
Si Si1 0.871430 0.804057 0.966877
Si Si2 0.951334 0.683220 0.172861
Si Si3 0.853406 0.283227 0.354600
Si Si4 0.920228 0.081987 0.249095
Si Si5 0.768163 0.475090 0.825778
Si Si6 0.871299 0.301657 0.968709
Si Si7 0.565107 0.837252 0.447294
Si Si8 0.572543 0.855194 0.686741
O O1 0.018565 0.822714 0.057706
O O2 0.500000 0.500000 0.000000
O O3 0.937824 0.866697 0.834350
O O4 0.000000 0.000000 0.000000
O O5 0.596412 0.364716 0.215308
O O6 0.106046 0.706137 0.149513
O O7 0.122571 0.857548 0.268131
O O8 0.671998 0.241989 0.353593
O O9 0.967290 0.374229 0.228312
O O10 0.185790 0.528822 0.425270
O O11 0.646173 0.019375 0.398487
O O12 0.188929 0.377098 0.248683
O O13 0.575922 0.843982 0.182585
O O14 0.775074 0.942142 0.376038
O O15 0.873562 0.569198 0.946505
O O16 0.000000 0.500000 0.000000
O O17 0.500000 0.000000 0.000000
O O18 0.641485 0.869447 0.579264
#
# Coordination Sequence:
#
# PCOD9082472 Si02
#       8
#     2   2   2   2   2   2   2   2
#     4  12  26  46  72  93 120 159 213 279 343 390
#     4  12  26  41  62  93 134 163 213 265 322 394
#     4  10  19  34  57  91 124 177 223 249 285 357
#     4  10  21  39  64  89 115 154 210 261 317 369
#     4  10  19  33  55  82 126 156 205 252 293 355
#     4  12  23  35  56  87 130 177 198 238 308 379
#     4  10  21  37  63  88 128 176 217 257 290 363
#     4  12  23  39  59  91 135 174 212 255 313 364
#
# _framework density 23.421721000000002
#
# number of rings (size 3 to 8) (size 9 to 14) (size 15 to 20)
#    0.000    1.000    1.250    6.750    1.750    2.000 
#    0.000    0.000    0.000    4.500    0.000    0.000 
#    0.000    0.000    0.000    0.000    0.000    0.000 
#
# Total GULP energy -89238.021904 kJ/mol
# GULP energy per Si atom -5577.376369 kJ/mol
# Density = 2.336841 g / cm^3
# Si number density = 23.421721 Si / 1000 Ang^3
#
#
#
# Elastic Constant Matrix: (Units=GPa)
#
#
# Indices 1 2 3 4 5 6 
#
# 1 68.8169 21.9035 33.8371 -8.9035 -32.4138 -22.3829
# 2 21.9035 111.5761 6.8908 9.3747 -13.3529 -28.8856
# 3 33.8371 6.8908 99.3843 3.3805 -46.0645 -7.9290
# 4 -8.9035 9.3747 3.3805 33.5412 -2.8855 -11.1759
# 5 -32.4138 -13.3529 -46.0645 -2.8855 40.9681 -2.0978
# 6 -22.3829 -28.8856 -7.9290 -11.1759 -2.0978 37.5221
#
#
#
# Elastic Compliance Matrix: (Units=1/GPa)
#
#
# Indices 1 2 3 4 5 6 
#
# 1 0.085365 0.013194 0.026068 0.055516 0.109633 0.089253
# 2 0.013194 0.014882 0.008739 0.009271 0.027072 0.025449
# 3 0.026068 0.008739 0.032177 0.019445 0.062989 0.038390
# 4 0.055516 0.009271 0.019445 0.069796 0.077283 0.069472
# 5 0.109633 0.027072 0.062989 0.077283 0.203099 0.133924
# 6 0.089253 0.025449 0.038390 0.069472 0.133924 0.135776
#
#
# Mechanical properties :
#
#
# Convention : Reuss Voigt Hill
#
# Bulk Modulus (GPa) = 4.37777 45.00445 24.69111
# Shear Modulus (GPa) = 9.59257 36.88267 23.23762
#
# Velocity S-wave (km/s) = 2.02595 3.97258 3.15324
# Velocity P-wave (km/s) = 2.71031 6.34810 4.88079
#
# Compressibility (1/GPa) = 0.22842675
#
# Stress axis : x y z
#
# Youngs Moduli (GPa) = 11.71438 67.19607 31.07764
#
# Poissons Ratio (x) = -0.88661 -0.81014
# Poissons Ratio (y) = -0.15456 -0.27157
# Poissons Ratio (z) = -0.30537 -0.58720
#
# Static dielectric constant tensor:
#      x y z
#    x 1.932300 0.042750 0.053470 
#    y 0.042750 1.814890 -0.008230 
#    z 0.053470 -0.008230 1.948720 
# 
# From -- ./inp_files/433948.got.cif
#   From: 2010.05.17/outbox.cif.g08.bks.cpg/sg2_217_cif.got.tgz:433948.got - 2010.06.03 11:33:40.
