data_PCOD9082154
_publ_section_title
;
Structure prediction by ZEFSAII (Michael W. Deem and Ramdas Pophale) SiO2 
 PCOD9082154
Probable space group: P -1
;
_chemical_formula_sum "Si O2"
_cell_formula_units_Z 14
_cell_length_a 15.830643
_cell_length_b 27.926438
_cell_length_c 27.314587
_cell_angle_alpha 10.229441
_cell_angle_beta 20.816703
_cell_angle_gamma 19.874477
_cell_volume 720.476874
_symmetry_space_group_name_H-M "P -1"
_symmetry_group_IT_number 2
_symmetry_cell_setting 'triclinic'
loop_
_space_group_symop_operation_xyz
x,y,z
-x,-y,-z
loop_
_atom_site_type_symbol
_atom_site_label
_atom_site_fract_x
_atom_site_fract_y
_atom_site_fract_z
Si Si1 0.258863 0.649670 0.447384
Si Si2 0.854047 0.826287 0.075101
Si Si3 0.182729 0.361024 0.189031
Si Si4 0.425535 0.767225 0.807944
Si Si5 0.587335 0.200201 0.609574
Si Si6 0.898174 0.593431 0.014865
Si Si7 0.081434 0.038889 0.240657
O O1 0.500000 0.500000 0.500000
O O2 0.149639 0.419213 0.715059
O O3 0.090277 0.898129 0.324742
O O4 0.308689 0.848205 0.178238
O O5 0.708888 0.754554 0.272933
O O6 0.136913 0.835576 0.912603
O O7 0.418683 0.307717 0.150300
O O8 0.127597 0.482176 0.041890
O O9 0.132616 0.059635 0.518062
O O10 0.973760 0.625188 0.064679
O O11 0.500000 0.000000 0.500000
O O12 0.500000 0.500000 0.000000
O O13 0.686595 0.452803 0.285678
O O14 0.676088 0.125220 0.693576
O O15 0.757078 0.928554 0.760571
O O16 0.000000 0.500000 0.000000
#
# Coordination Sequence:
#
# PCOD9082154 Si02
#       7
#     2   2   2   2   2   2   2
#     4  12  22  32  51  79 115 152 193 231 277 334
#     4  12  24  36  53  81 116 158 194 238 281 330
#     4  10  21  36  57  79 110 152 189 234 279 336
#     4  12  24  40  55  79 120 166 205 226 259 335
#     4  10  21  35  55  85 113 140 180 238 305 345
#     4  10  21  39  64  87 110 139 184 249 310 356
#     4  10  19  33  52  78 110 144 190 230 280 328
#
# _framework density 19.431574000000001
#
# number of rings (size 3 to 8) (size 9 to 14) (size 15 to 20)
#    0.000    1.143    1.429    6.857    4.000    0.000 
#    0.000    0.000    0.000    1.714    0.000    0.000 
#    0.000    0.000    0.000    0.000    0.000    0.000 
#
# Total GULP energy -78027.142631 kJ/mol
# GULP energy per Si atom -5573.367331 kJ/mol
# Density = 1.938735 g / cm^3
# Si number density = 19.431574 Si / 1000 Ang^3
#
#
#
# Elastic Constant Matrix: (Units=GPa)
#
#
# Indices 1 2 3 4 5 6 
#
# 1 100.3109 43.6570 14.0874 5.3994 -10.4195 5.9702
# 2 43.6570 77.5028 16.6847 16.2400 -4.7463 -0.3450
# 3 14.0874 16.6847 112.8671 -3.3286 -12.4275 -4.5040
# 4 5.3994 16.2400 -3.3286 30.7837 0.8749 -11.2643
# 5 -10.4195 -4.7463 -12.4275 0.8749 19.6948 -3.1766
# 6 5.9702 -0.3450 -4.5040 -11.2643 -3.1766 30.3987
#
#
#
# Elastic Compliance Matrix: (Units=1/GPa)
#
#
# Indices 1 2 3 4 5 6 
#
# 1 0.013936 -0.007670 -0.000106 0.000696 0.005096 -0.002049
# 2 -0.007670 0.019854 -0.002468 -0.010300 -0.000782 -0.002532
# 3 -0.000106 -0.002468 0.010157 0.003502 0.006157 0.003439
# 4 0.000696 -0.010300 0.003502 0.044285 0.000832 0.016762
# 5 0.005096 -0.000782 0.006157 0.000832 0.058145 0.006287
# 6 -0.002049 -0.002532 0.003439 0.016762 0.006287 0.040648
#
#
# Mechanical properties :
#
#
# Convention : Reuss Voigt Hill
#
# Bulk Modulus (GPa) = 42.62991 48.83766 45.73378
# Shear Modulus (GPa) = 23.21999 30.59221 26.90610
#
# Velocity S-wave (km/s) = 3.46057 3.97212 3.72514
# Velocity P-wave (km/s) = 6.16064 6.79887 6.48761
#
# Compressibility (1/GPa) = 0.02345771
#
# Stress axis : x y z
#
# Youngs Moduli (GPa) = 71.75727 50.36805 98.45886
#
# Poissons Ratio (x) = 0.38633 0.01040
# Poissons Ratio (y) = 0.55039 0.24304
# Poissons Ratio (z) = 0.00758 0.12433
#
# Static dielectric constant tensor:
#      x y z
#    x 1.708840 -0.014120 0.019500 
#    y -0.014120 1.759380 0.018770 
#    z 0.019500 0.018770 1.737720 
# 
# From -- ./inp_files/434154.got.cif
#   From: 2010.05.17/outbox.cif.g08.bks.cpg/sg2_218_cif.got.tgz:434154.got - 2010.06.03 11:33:40.
