data_PCOD9082747
_publ_section_title
;
Structure prediction by ZEFSAII (Michael W. Deem and Ramdas Pophale) SiO2 
 PCOD9082747
Probable space group: P -1
;
_chemical_formula_sum "Si O2"
_cell_formula_units_Z 16
_cell_length_a 24.873772
_cell_length_b 9.356499
_cell_length_c 22.278017
_cell_angle_alpha 60.726465
_cell_angle_beta 10.624556
_cell_angle_gamma 62.035972
_cell_volume 831.654964
_symmetry_space_group_name_H-M "P -1"
_symmetry_group_IT_number 2
_symmetry_cell_setting 'triclinic'
loop_
_space_group_symop_operation_xyz
x,y,z
-x,-y,-z
loop_
_atom_site_type_symbol
_atom_site_label
_atom_site_fract_x
_atom_site_fract_y
_atom_site_fract_z
Si Si1 0.117610 0.586754 0.946298
Si Si2 0.407756 0.950586 0.679763
Si Si3 0.837059 0.358945 0.562657
Si Si4 0.867990 0.309853 0.676922
Si Si5 0.158779 0.991801 0.390627
Si Si6 0.398638 0.582115 0.938133
Si Si7 0.778846 0.710169 0.186853
Si Si8 0.174526 0.258090 0.662212
O O1 0.458961 0.633478 0.575234
O O2 0.101757 0.411064 0.968187
O O3 0.000127 0.711274 0.999747
O O4 0.911547 0.601673 0.226026
O O5 0.673367 0.881485 0.438277
O O6 0.500000 0.000000 0.500000
O O7 0.282650 0.115365 0.808173
O O8 0.136975 0.815713 0.004690
O O9 0.753540 0.309984 0.733673
O O10 0.566206 0.433633 0.812813
O O11 0.920091 0.199347 0.466449
O O12 0.102752 0.498838 0.249962
O O13 0.000000 0.500000 0.500000
O O14 0.065977 0.152707 0.494834
O O15 0.659731 0.300378 0.965376
O O16 0.000000 0.000000 0.500000
O O17 0.500000 0.000000 0.000000
O O18 0.605069 0.674509 0.644105
#
# Coordination Sequence:
#
# PCOD9082747 Si02
#       8
#     2   2   2   2   2   2   2   2
#     4  10  19  35  53  81 106 140 176 231 270 335
#     4  12  21  37  59  85 108 147 186 238 282 342
#     4  10  20  38  58  81 111 152 198 229 273 332
#     4   9  19  36  60  85 115 148 192 233 271 330
#     4  10  19  33  57  87 110 141 189 239 274 316
#     4  11  23  38  55  83 115 155 185 235 288 337
#     4  10  20  33  57  80 105 134 186 225 276 322
#     4  12  23  37  57  83 117 146 188 232 294 340
#
# _framework density 19.238747
#
# number of rings (size 3 to 8) (size 9 to 14) (size 15 to 20)
#    0.000    1.500    2.500    4.500    0.000    3.000 
#    0.000    2.500    0.000    0.000    0.000    0.000 
#    0.000    0.000    0.000    0.000    0.000    0.000 
#
# Total GULP energy -89187.224224 kJ/mol
# GULP energy per Si atom -5574.201514 kJ/mol
# Density = 1.919496 g / cm^3
# Si number density = 19.238747 Si / 1000 Ang^3
#
#
#
# Elastic Constant Matrix: (Units=GPa)
#
#
# Indices 1 2 3 4 5 6 
#
# 1 41.2597 18.6494 23.6337 9.7797 14.4577 3.6047
# 2 18.6494 104.8944 18.1481 34.6683 21.9844 13.4775
# 3 23.6337 18.1481 75.1287 9.4995 15.7333 8.5815
# 4 9.7797 34.6683 9.4995 40.0306 0.0255 -4.6000
# 5 14.4577 21.9844 15.7333 0.0255 47.2031 4.8966
# 6 3.6047 13.4775 8.5815 -4.6000 4.8966 17.0565
#
#
#
# Elastic Compliance Matrix: (Units=1/GPa)
#
#
# Indices 1 2 3 4 5 6 
#
# 1 0.033041 -0.001040 -0.007811 -0.005515 -0.006847 -0.001753
# 2 -0.001040 0.020086 0.001828 -0.019839 -0.007587 -0.019743
# 3 -0.007811 0.001828 0.017695 -0.004910 -0.003416 -0.009040
# 4 -0.005515 -0.019839 -0.004910 0.048065 0.009474 0.029555
# 5 -0.006847 -0.007587 -0.003416 0.009474 0.027554 0.003805
# 6 -0.001753 -0.019743 -0.009040 0.029555 0.003805 0.086026
#
#
# Mechanical properties :
#
#
# Convention : Reuss Voigt Hill
#
# Bulk Modulus (GPa) = 17.61367 38.01614 27.81491
# Shear Modulus (GPa) = 18.83678 31.58148 25.20913
#
# Velocity S-wave (km/s) = 3.13246 4.05601 3.62378
# Velocity P-wave (km/s) = 4.71787 6.46050 5.65669
#
# Compressibility (1/GPa) = 0.05677409
#
# Stress axis : x y z
#
# Youngs Moduli (GPa) = 30.26579 49.78683 56.51302
#
# Poissons Ratio (x) = 0.05178 0.44143
# Poissons Ratio (y) = 0.03148 -0.10328
# Poissons Ratio (z) = 0.23641 -0.09099
#
# Static dielectric constant tensor:
#      x y z
#    x 1.679310 0.025440 -0.007250 
#    y 0.025440 1.747000 0.005010 
#    z -0.007250 0.005010 1.678840 
# 
# From -- ./inp_files/601939.got.cif
#   From: 2010.05.17/outbox.cif.g08.bks.cpg/sg2_301_cif.got.tgz:601939.got - 2010.06.03 11:33:40.
