data_PCOD9082783
_publ_section_title
;
Structure prediction by ZEFSAII (Michael W. Deem and Ramdas Pophale) SiO2 
 PCOD9082783
Probable space group: P -1
;
_chemical_formula_sum "Si O2"
_cell_formula_units_Z 16
_cell_length_a 11.505855
_cell_length_b 16.345042
_cell_length_c 10.594694
_cell_angle_alpha 35.534218
_cell_angle_beta 37.581088
_cell_angle_gamma 30.425693
_cell_volume 557.840734
_symmetry_space_group_name_H-M "P -1"
_symmetry_group_IT_number 2
_symmetry_cell_setting 'triclinic'
loop_
_space_group_symop_operation_xyz
x,y,z
-x,-y,-z
loop_
_atom_site_type_symbol
_atom_site_label
_atom_site_fract_x
_atom_site_fract_y
_atom_site_fract_z
Si Si1 0.651593 0.576736 0.783603
Si Si2 0.259661 0.284490 0.893341
Si Si3 0.704639 0.524009 0.071233
Si Si4 0.820192 0.870192 0.632545
Si Si5 0.106105 0.106096 0.742942
Si Si6 0.713347 0.418828 0.537225
Si Si7 0.255891 0.806372 0.660752
Si Si8 0.871889 0.806151 0.126054
O O1 0.516685 0.719058 0.611330
O O2 0.931005 0.408214 0.751705
O O3 0.500000 0.500000 0.000000
O O4 0.610139 0.649170 0.870956
O O5 0.320981 0.185440 0.098817
O O6 0.974750 0.452525 0.945395
O O7 0.372170 0.381850 0.638152
O O8 0.268004 0.176279 0.902042
O O9 0.495182 0.603119 0.253218
O O10 0.731199 0.346779 0.230438
O O11 0.764484 0.937728 0.450005
O O12 0.097651 0.696256 0.592475
O O13 0.816624 0.006733 0.556669
O O14 0.871846 0.313052 0.658528
O O15 0.235957 0.107017 0.754312
O O16 0.000000 0.000000 0.000000
O O17 0.040296 0.863957 0.872067
#
# Coordination Sequence:
#
# PCOD9082783 Si02
#       8
#     2   2   2   2   2   2   2   2
#     4   7  13  25  52  79 107 136 192 231 276 329
#     4  10  22  39  56  92 117 154 199 239 290 351
#     4   9  19  33  62  86 110 153 204 241 280 349
#     4  10  22  33  59  83 126 157 186 244 302 349
#     4  10  19  33  57  91 116 153 197 238 300 348
#     4  10  21  37  63  83 120 155 196 244 289 348
#     4   9  15  31  54  84 114 154 190 236 294 347
#     4   9  16  32  56  85 114 147 203 244 276 352
#
# _framework density 28.682023000000001
#
# number of rings (size 3 to 8) (size 9 to 14) (size 15 to 20)
#    0.750    2.500    1.250    2.625    0.000    3.000 
#    0.000    0.625    0.000   11.250    0.000    0.000 
#    0.000    0.000    0.000    0.000    0.000    0.000 
#
# Total GULP energy -89392.839215 kJ/mol
# GULP energy per Si atom -5587.052451 kJ/mol
# Density = 2.861674 g / cm^3
# Si number density = 28.682023 Si / 1000 Ang^3
#
#
#
# Elastic Constant Matrix: (Units=GPa)
#
#
# Indices 1 2 3 4 5 6 
#
# 1 146.3441 30.9746 42.7462 8.8568 24.6293 31.6356
# 2 30.9746 68.1089 15.2038 12.3208 1.2394 11.2384
# 3 42.7462 15.2038 160.0031 12.9443 12.7985 15.2302
# 4 8.8568 12.3208 12.9443 41.4433 5.6156 -3.5403
# 5 24.6293 1.2394 12.7985 5.6156 38.6132 7.9492
# 6 31.6356 11.2384 15.2302 -3.5403 7.9492 41.0791
#
#
#
# Elastic Compliance Matrix: (Units=1/GPa)
#
#
# Indices 1 2 3 4 5 6 
#
# 1 0.009867 -0.003089 -0.001418 -0.000596 -0.004525 -0.005404
# 2 -0.003089 0.017590 -0.000350 -0.005143 0.002953 -0.003318
# 3 -0.001418 -0.000350 0.007008 -0.001785 -0.000860 -0.001398
# 4 -0.000596 -0.005143 -0.001785 0.027370 -0.004010 0.005662
# 5 -0.004525 0.002953 -0.000860 -0.004010 0.030216 -0.003197
# 6 -0.005404 -0.003318 -0.001398 0.005662 -0.003197 0.031037
#
#
# Mechanical properties :
#
#
# Convention : Reuss Voigt Hill
#
# Bulk Modulus (GPa) = 40.40418 61.36724 50.88571
# Shear Modulus (GPa) = 35.44775 43.26255 39.35515
#
# Velocity S-wave (km/s) = 3.51933 3.88796 3.70823
# Velocity P-wave (km/s) = 5.53460 6.44959 6.00953
#
# Compressibility (1/GPa) = 0.02474992
#
# Stress axis : x y z
#
# Youngs Moduli (GPa) = 101.34823 56.85179 142.68957
#
# Poissons Ratio (x) = 0.17562 0.20233
# Poissons Ratio (y) = 0.31307 0.05000
# Poissons Ratio (z) = 0.14371 0.01992
#
# Static dielectric constant tensor:
#      x y z
#    x 2.330990 0.029850 0.133610 
#    y 0.029850 2.272910 0.022480 
#    z 0.133610 0.022480 2.232750 
# 
# From -- ./inp_files/435285.got.cif
#   From: 2010.05.17/outbox.cif.g08.bks.cpg/sg2_218_cif.got.tgz:435285.got - 2010.06.03 11:33:40.
