data_PCOD9082075
_publ_section_title
;
Structure prediction by ZEFSAII (Michael W. Deem and Ramdas Pophale) SiO2 
 PCOD9082075
Probable space group: P -1
;
_chemical_formula_sum "Si O2"
_cell_formula_units_Z 14
_cell_length_a 9.993405
_cell_length_b 9.424302
_cell_length_c 13.951962
_cell_angle_alpha 52.474276
_cell_angle_beta 114.374103
_cell_angle_gamma 71.375957
_cell_volume 581.903282
_symmetry_space_group_name_H-M "P -1"
_symmetry_group_IT_number 2
_symmetry_cell_setting 'triclinic'
loop_
_space_group_symop_operation_xyz
x,y,z
-x,-y,-z
loop_
_atom_site_type_symbol
_atom_site_label
_atom_site_fract_x
_atom_site_fract_y
_atom_site_fract_z
Si Si1 0.024885 0.251943 0.497327
Si Si2 0.611359 0.037912 0.773724
Si Si3 0.941433 0.756259 0.264677
Si Si4 0.889277 0.561320 0.838669
Si Si5 0.238954 0.735234 0.242439
Si Si6 0.530277 0.645397 0.223633
Si Si7 0.420232 0.928232 0.612514
O O1 0.069353 0.185528 0.650416
O O2 0.250727 0.980323 0.611107
O O3 0.975192 0.512068 0.360516
O O4 0.775610 0.393073 0.344158
O O5 0.695755 0.154926 0.717231
O O6 0.506484 0.011390 0.672685
O O7 0.440571 0.229607 0.735778
O O8 0.864667 0.726226 0.022028
O O9 0.162401 0.643011 0.322152
O O10 0.693766 0.072143 0.019599
O O11 0.746931 0.843183 0.617924
O O12 0.679297 0.620405 0.774886
O O13 0.000000 0.500000 0.000000
O O14 0.452261 0.551059 0.303894
O O15 0.000000 0.000000 0.000000
#
# Coordination Sequence:
#
# PCOD9082075 Si02
#       7
#     2   2   2   2   2   2   2
#     4  11  21  30  50  79 113 139 164 218 269 309
#     4   9  17  33  53  75 104 136 176 219 250 295
#     4  10  19  33  48  75 113 144 176 205 253 320
#     4   9  19  35  55  73  99 135 178 224 265 301
#     4   8  18  34  51  76 109 144 185 202 247 314
#     4   9  19  33  50  77 109 142 173 208 261 306
#     4  10  20  33  50  81 104 133 176 218 265 312
#
# _framework density 24.058980999999999
#
# number of rings (size 3 to 8) (size 9 to 14) (size 15 to 20)
#    0.857    1.714    0.000    3.000    0.000    2.857 
#    0.000    0.000    0.000    0.857    0.000   13.000 
#    0.000    0.000    0.000    0.000    0.000    0.000 
#
# Total GULP energy -78056.584998 kJ/mol
# GULP energy per Si atom -5575.470357 kJ/mol
# Density = 2.400422 g / cm^3
# Si number density = 24.058981 Si / 1000 Ang^3
#
#
#
# Elastic Constant Matrix: (Units=GPa)
#
#
# Indices 1 2 3 4 5 6 
#
# 1 124.9753 26.6370 35.7770 3.3035 16.2625 -28.7717
# 2 26.6370 39.2559 19.0504 2.1160 15.2925 -14.2336
# 3 35.7770 19.0504 143.3218 10.1999 11.4890 -13.6020
# 4 3.3035 2.1160 10.1999 26.6512 -11.6360 14.5035
# 5 16.2625 15.2925 11.4890 -11.6360 36.2256 -2.3592
# 6 -28.7717 -14.2336 -13.6020 14.5035 -2.3592 58.3163
#
#
#
# Elastic Compliance Matrix: (Units=1/GPa)
#
#
# Indices 1 2 3 4 5 6 
#
# 1 0.011035 -0.002451 -0.000989 -0.006343 -0.005254 0.005981
# 2 -0.002451 0.041379 -0.000626 -0.018953 -0.021437 0.012591
# 3 -0.000989 -0.000626 0.008285 -0.006051 -0.003691 0.002647
# 4 -0.006343 -0.018953 -0.006051 0.070712 0.033828 -0.025385
# 5 -0.005254 -0.021437 -0.003691 0.033828 0.050068 -0.015073
# 6 0.005981 0.012591 0.002647 -0.025385 -0.015073 0.029493
#
#
# Mechanical properties :
#
#
# Convention : Reuss Voigt Hill
#
# Bulk Modulus (GPa) = 19.02316 52.27577 35.64946
# Shear Modulus (GPa) = 21.13042 39.31120 30.22081
#
# Velocity S-wave (km/s) = 2.96679 4.04660 3.54801
# Velocity P-wave (km/s) = 4.43394 6.60368 5.62443
#
# Compressibility (1/GPa) = 0.05256750
#
# Stress axis : x y z
#
# Youngs Moduli (GPa) = 90.61896 24.16700 120.69983
#
# Poissons Ratio (x) = 0.05923 0.11934
# Poissons Ratio (y) = 0.22211 0.07555
# Poissons Ratio (z) = 0.08960 0.01513
#
# Static dielectric constant tensor:
#      x y z
#    x 1.949340 0.006430 0.007420 
#    y 0.006430 2.057240 -0.059500 
#    z 0.007420 -0.059500 1.960270 
# 
# From -- ./inp_files/503831.got.cif
#   From: 2010.05.17/outbox.cif.g08.bks.cpg/sg2_252_cif.got.tgz:503831.got - 2010.06.03 11:33:40.
