data_PCOD9082276
_publ_section_title
;
Structure prediction by ZEFSAII (Michael W. Deem and Ramdas Pophale) SiO2 
 PCOD9082276
Probable space group: P -1
;
_chemical_formula_sum "Si O2"
_cell_formula_units_Z 16
_cell_length_a 11.399552
_cell_length_b 9.802967
_cell_length_c 7.599145
_cell_angle_alpha 83.395632
_cell_angle_beta 66.866144
_cell_angle_gamma 117.381337
_cell_volume 646.361155
_symmetry_space_group_name_H-M "P -1"
_symmetry_group_IT_number 2
_symmetry_cell_setting 'triclinic'
loop_
_space_group_symop_operation_xyz
x,y,z
-x,-y,-z
loop_
_atom_site_type_symbol
_atom_site_label
_atom_site_fract_x
_atom_site_fract_y
_atom_site_fract_z
Si Si1 0.312689 0.179306 0.015866
Si Si2 0.574622 0.152315 0.688317
Si Si3 0.997183 0.119653 0.856815
Si Si4 0.570028 0.202529 0.262894
Si Si5 0.842693 0.505788 0.499327
Si Si6 0.855302 0.808520 0.578101
Si Si7 0.084629 0.644914 0.064357
Si Si8 0.640847 0.528835 0.299042
O O1 0.286974 0.227277 0.218238
O O2 0.167378 0.990130 0.123309
O O3 0.455251 0.174711 0.865593
O O4 0.300594 0.306136 0.875149
O O5 0.551298 0.165766 0.490148
O O6 0.737998 0.311120 0.625164
O O7 0.547115 0.971117 0.741146
O O8 0.978591 0.243537 0.960526
O O9 0.139885 0.179078 0.636267
O O10 0.000000 0.000000 0.000000
O O11 0.581383 0.374228 0.224234
O O12 0.735681 0.254590 0.084941
O O13 0.863382 0.644384 0.606337
O O14 0.748999 0.515005 0.381510
O O15 0.008969 0.571307 0.310067
O O16 0.000000 0.000000 0.500000
O O17 0.000000 0.500000 0.000000
O O18 0.500000 0.500000 0.500000
#
# Coordination Sequence:
#
# PCOD9082276 Si02
#       8
#     2   2   2   2   2   2   2   2
#     4  11  19  35  58  81 118 155 189 241 292 338
#     4  10  19  33  53  84 111 155 187 232 291 348
#     4  10  21  36  59  87 115 143 198 244 286 341
#     4  10  20  34  54  84 123 150 192 241 292 339
#     4  10  20  36  59  83 116 148 203 236 284 348
#     4   9  21  37  56  86 119 151 191 244 293 347
#     4  11  18  33  55  84 114 149 188 242 289 337
#     4  11  20  35  56  90 120 149 194 243 283 339
#
# _framework density 24.753964
#
# number of rings (size 3 to 8) (size 9 to 14) (size 15 to 20)
#    0.000    1.750    6.250    1.500    0.000    0.500 
#    0.000    0.000    0.000    6.750    0.000    0.000 
#    0.000    0.000    0.000    0.000    0.000    0.000 
#
# Total GULP energy -89107.791699 kJ/mol
# GULP energy per Si atom -5569.236981 kJ/mol
# Density = 2.469762 g / cm^3
# Si number density = 24.753964 Si / 1000 Ang^3
#
#
#
# Elastic Constant Matrix: (Units=GPa)
#
#
# Indices 1 2 3 4 5 6 
#
# 1 57.0251 22.8581 38.1689 10.0167 -11.4747 15.0025
# 2 22.8581 233.6748 50.2630 18.4245 -9.6566 6.0923
# 3 38.1689 50.2630 164.6807 24.3565 -35.2499 -12.6841
# 4 10.0167 18.4245 24.3565 44.8154 -5.5522 -12.0405
# 5 -11.4747 -9.6566 -35.2499 -5.5522 29.0402 -1.0474
# 6 15.0025 6.0923 -12.6841 -12.0405 -1.0474 26.9154
#
#
#
# Elastic Compliance Matrix: (Units=1/GPa)
#
#
# Indices 1 2 3 4 5 6 
#
# 1 0.030985 0.000033 -0.007678 -0.009493 0.000213 -0.025135
# 2 0.000033 0.004807 -0.001557 -0.001970 -0.000754 -0.002751
# 3 -0.007678 -0.001557 0.011384 0.000334 0.010712 0.010563
# 4 -0.009493 -0.001970 0.000334 0.030681 0.002577 0.019720
# 5 0.000213 -0.000754 0.010712 0.002577 0.048056 0.008123
# 6 -0.025135 -0.002751 0.010563 0.019720 0.008123 0.065902
#
#
# Mechanical properties :
#
#
# Convention : Reuss Voigt Hill
#
# Bulk Modulus (GPa) = 34.75506 75.32896 55.04201
# Shear Modulus (GPa) = 22.74701 43.09360 32.92030
#
# Velocity S-wave (km/s) = 3.03466 4.17691 3.65074
# Velocity P-wave (km/s) = 5.13319 7.33207 6.32886
#
# Compressibility (1/GPa) = 0.02877278
#
# Stress axis : x y z
#
# Youngs Moduli (GPa) = 32.27374 208.03237 87.84181
#
# Poissons Ratio (x) = -0.00690 0.67445
# Poissons Ratio (y) = -0.00107 0.13674
# Poissons Ratio (z) = 0.24780 0.32385
#
# Static dielectric constant tensor:
#      x y z
#    x 2.088220 0.096800 0.038020 
#    y 0.096800 2.235230 0.052840 
#    z 0.038020 0.052840 2.225460 
# 
# From -- ./inp_files/295419.got.cif
#   From: 2010.05.17/outbox.cif.g08.bks.cpg/sg2_148_cif.got.tgz:295419.got - 2010.06.03 11:33:40.
