data_PCOD9082890
_publ_section_title
;
Structure prediction by ZEFSAII (Michael W. Deem and Ramdas Pophale) SiO2 
 PCOD9082890
Probable space group: P -1
;
_chemical_formula_sum "Si O2"
_cell_formula_units_Z 14
_cell_length_a 7.631245
_cell_length_b 14.606480
_cell_length_c 8.008251
_cell_angle_alpha 117.026806
_cell_angle_beta 55.297096
_cell_angle_gamma 123.717995
_cell_volume 597.779353
_symmetry_space_group_name_H-M "P -1"
_symmetry_group_IT_number 2
_symmetry_cell_setting 'triclinic'
loop_
_space_group_symop_operation_xyz
x,y,z
-x,-y,-z
loop_
_atom_site_type_symbol
_atom_site_label
_atom_site_fract_x
_atom_site_fract_y
_atom_site_fract_z
Si Si1 0.413980 0.117096 0.182676
Si Si2 0.736014 0.247921 0.706152
Si Si3 0.993896 0.380010 0.361270
Si Si4 0.716718 0.748089 0.859959
Si Si5 0.070270 0.721170 0.049572
Si Si6 0.990199 0.906609 0.102819
Si Si7 0.221379 0.990160 0.479475
O O1 0.308955 0.208781 0.274230
O O2 0.670999 0.180293 0.028245
O O3 0.423511 0.077869 0.331315
O O4 0.242682 0.006574 0.082465
O O5 0.804702 0.295168 0.522234
O O6 0.751631 0.126089 0.611415
O O7 0.499271 0.255663 0.910909
O O8 0.929672 0.323331 0.801969
O O9 0.957260 0.354460 0.161252
O O10 0.000000 0.500000 0.500000
O O11 0.229827 0.361337 0.256688
O O12 0.941483 0.846762 0.902605
O O13 0.925892 0.797544 0.167845
O O14 0.806704 0.959534 0.288663
O O15 0.000000 0.000000 0.500000
#
# Coordination Sequence:
#
# PCOD9082890 Si02
#       7
#     2   2   2   2   2   2   2
#     4  10  19  35  57  91 133 161 199 238 301 385
#     4  11  23  43  63  95 132 161 215 258 305 386
#     4  11  26  48  67  87 120 164 219 283 326 356
#     4  10  24  38  62  96 126 167 212 258 311 376
#     4  10  22  39  64  93 123 170 209 254 313 379
#     4  10  19  34  55  92 134 172 198 240 300 378
#     4  10  19  33  58  91 129 174 195 233 306 378
#
# _framework density 23.420013999999998
#
# number of rings (size 3 to 8) (size 9 to 14) (size 15 to 20)
#    0.000    1.714    2.857    2.571    4.000    2.857 
#    0.000    2.857    0.000    0.000    0.000    0.000 
#    0.000    0.000    0.000    0.000    0.000    0.000 
#
# Total GULP energy -77995.689977 kJ/mol
# GULP energy per Si atom -5571.120713 kJ/mol
# Density = 2.336671 g / cm^3
# Si number density = 23.420014 Si / 1000 Ang^3
#
#
#
# Elastic Constant Matrix: (Units=GPa)
#
#
# Indices 1 2 3 4 5 6 
#
# 1 54.9179 30.8035 15.7594 19.9414 -6.2223 -17.5873
# 2 30.8035 83.3708 46.6925 34.9608 -4.7334 -27.5069
# 3 15.7594 46.6925 99.5047 36.0376 -13.3215 -7.3491
# 4 19.9414 34.9608 36.0376 43.5041 -5.4956 -11.6918
# 5 -6.2223 -4.7334 -13.3215 -5.4956 41.4367 4.8109
# 6 -17.5873 -27.5069 -7.3491 -11.6918 4.8109 18.4170
#
#
#
# Elastic Compliance Matrix: (Units=1/GPa)
#
#
# Indices 1 2 3 4 5 6 
#
# 1 0.027817 -0.000101 -0.000329 -0.006387 0.000652 0.022056
# 2 -0.000101 0.037474 -0.011912 -0.008210 -0.006170 0.047520
# 3 -0.000329 -0.011912 0.018685 -0.010023 0.005407 -0.018424
# 4 -0.006387 -0.008210 -0.010023 0.041961 -0.000052 0.004292
# 5 0.000652 -0.006170 0.005407 -0.000052 0.026822 -0.013475
# 6 0.022056 0.047520 -0.018424 0.004292 -0.013475 0.145227
#
#
# Mechanical properties :
#
#
# Convention : Reuss Voigt Hill
#
# Bulk Modulus (GPa) = 16.86556 47.14491 32.00523
# Shear Modulus (GPa) = 14.60145 30.30742 22.45443
#
# Velocity S-wave (km/s) = 2.49963 3.60124 3.09976
# Velocity P-wave (km/s) = 3.94307 6.12093 5.14848
#
# Compressibility (1/GPa) = 0.05929244
#
# Stress axis : x y z
#
# Youngs Moduli (GPa) = 35.94986 26.68518 53.52016
#
# Poissons Ratio (x) = 0.00269 0.01759
# Poissons Ratio (y) = 0.00363 0.63752
# Poissons Ratio (z) = 0.01182 0.31787
#
# Static dielectric constant tensor:
#      x y z
#    x 2.104340 -0.070640 0.029910 
#    y -0.070640 1.908530 -0.058350 
#    z 0.029910 -0.058350 2.041750 
# 
# From -- ./inp_files/181172.got.cif
#   From: 2010.05.17/outbox.cif.g08.bks.cpg/sg2_91_cif.got.tgz:181172.got - 2010.06.03 11:33:40.
