data_PCOD9082873
_publ_section_title
;
Structure prediction by ZEFSAII (Michael W. Deem and Ramdas Pophale) SiO2 
 PCOD9082873
Probable space group: P -1
;
_chemical_formula_sum "Si O2"
_cell_formula_units_Z 16
_cell_length_a 9.283093
_cell_length_b 5.009887
_cell_length_c 19.737511
_cell_angle_alpha 117.431322
_cell_angle_beta 81.577935
_cell_angle_gamma 99.918459
_cell_volume 800.182832
_symmetry_space_group_name_H-M "P -1"
_symmetry_group_IT_number 2
_symmetry_cell_setting 'triclinic'
loop_
_space_group_symop_operation_xyz
x,y,z
-x,-y,-z
loop_
_atom_site_type_symbol
_atom_site_label
_atom_site_fract_x
_atom_site_fract_y
_atom_site_fract_z
Si Si1 0.353702 0.663353 0.039525
Si Si2 0.830772 0.162444 0.464810
Si Si3 0.560828 0.898906 0.665477
Si Si4 0.962355 0.643359 0.948725
Si Si5 0.736416 0.479358 0.116004
Si Si6 0.443969 0.966363 0.831181
Si Si7 0.837279 0.834876 0.566691
Si Si8 0.446789 0.220170 0.587639
O O1 0.210932 0.471008 0.061968
O O2 0.420304 0.931595 0.115483
O O3 0.500000 0.500000 0.000000
O O4 0.303678 0.726913 0.973347
O O5 0.785466 0.498755 0.501517
O O6 0.994249 0.169301 0.426930
O O7 0.830935 0.074130 0.534299
O O8 0.723031 0.902122 0.407188
O O9 0.508050 0.946367 0.749845
O O10 0.733488 0.890150 0.642155
O O11 0.482544 0.570345 0.608613
O O12 0.522062 0.150231 0.644647
O O13 0.091354 0.527987 0.880477
O O14 0.000000 0.500000 0.000000
O O15 0.000000 0.000000 0.000000
O O16 0.639965 0.338389 0.168042
O O17 0.678207 0.795219 0.136056
O O18 0.500000 0.000000 0.500000
#
# Coordination Sequence:
#
# PCOD9082873 Si02
#       8
#     2   2   2   2   2   2   2   2
#     4   9  19  36  61  86 112 149 197 234 271 336
#     4  10  20  33  58  82 108 136 184 227 287 325
#     4  12  23  37  57  83 119 146 192 235 292 338
#     4  10  19  33  58  89 111 142 187 243 280 317
#     4  10  20  38  59  83 117 149 197 233 280 333
#     4  11  23  38  55  83 116 159 184 238 288 337
#     4  10  19  35  54  83 109 140 174 236 278 342
#     4  12  21  37  60  86 105 146 190 240 278 344
#
# _framework density 19.995429000000001
#
# number of rings (size 3 to 8) (size 9 to 14) (size 15 to 20)
#    0.000    1.500    2.500    4.500    0.000    3.000 
#    0.000    2.500    0.000    0.000    0.000    0.000 
#    0.000    0.000    0.000    0.000    0.000    0.000 
#
# Total GULP energy -89204.992781 kJ/mol
# GULP energy per Si atom -5575.312049 kJ/mol
# Density = 1.994992 g / cm^3
# Si number density = 19.995429 Si / 1000 Ang^3
#
#
#
# Elastic Constant Matrix: (Units=GPa)
#
#
# Indices 1 2 3 4 5 6 
#
# 1 108.6616 9.0481 15.6589 -2.7600 -19.2762 28.6436
# 2 9.0481 69.9321 -18.3245 -7.3214 -5.8249 0.7121
# 3 15.6589 -18.3245 62.9258 -16.5360 -15.5861 5.2049
# 4 -2.7600 -7.3214 -16.5360 25.6725 3.2722 -1.9765
# 5 -19.2762 -5.8249 -15.5861 3.2722 18.2359 -9.1726
# 6 28.6436 0.7121 5.2049 -1.9765 -9.1726 37.1946
#
#
#
# Elastic Compliance Matrix: (Units=1/GPa)
#
#
# Indices 1 2 3 4 5 6 
#
# 1 0.013046 -0.001379 -0.001264 -0.001504 0.008616 -0.007798
# 2 -0.001379 0.020557 0.013277 0.012499 0.015925 0.003402
# 3 -0.001264 0.013277 0.032489 0.021210 0.029121 0.004481
# 4 -0.001504 0.012499 0.021210 0.054702 0.012725 0.003996
# 5 0.008616 0.015925 0.029121 0.012725 0.098677 0.013996
# 6 -0.007798 0.003402 0.004481 0.003996 0.013996 0.035863
#
#
# Mechanical properties :
#
#
# Convention : Reuss Voigt Hill
#
# Bulk Modulus (GPa) = 11.44695 28.25382 19.85038
# Shear Modulus (GPa) = 18.99791 31.89641 25.44716
#
# Velocity S-wave (km/s) = 3.08573 3.99831 3.57129
# Velocity P-wave (km/s) = 4.29335 5.95618 5.19177
#
# Compressibility (1/GPa) = 0.08735953
#
# Stress axis : x y z
#
# Youngs Moduli (GPa) = 76.65235 48.64420 30.77985
#
# Poissons Ratio (x) = 0.06710 0.03891
# Poissons Ratio (y) = 0.10574 -0.40867
# Poissons Ratio (z) = 0.09689 -0.64586
#
# Static dielectric constant tensor:
#      x y z
#    x 1.786770 0.018650 -0.019710 
#    y 0.018650 1.723310 0.012550 
#    z -0.019710 0.012550 1.699800 
# 
# From -- ./inp_files/585379.got.cif
#   From: 2010.05.17/outbox.cif.g08.bks.cpg/sg2_293_cif.got.tgz:585379.got - 2010.06.03 11:33:40.
