data_PCOD9082196
_publ_section_title
;
Structure prediction by ZEFSAII (Michael W. Deem and Ramdas Pophale) SiO2 
 PCOD9082196
Probable space group: P -1
;
_chemical_formula_sum "Si O2"
_cell_formula_units_Z 14
_cell_length_a 8.377273
_cell_length_b 13.788142
_cell_length_c 20.139210
_cell_angle_alpha 32.714874
_cell_angle_beta 131.735936
_cell_angle_gamma 146.227086
_cell_volume 694.487909
_symmetry_space_group_name_H-M "P -1"
_symmetry_group_IT_number 2
_symmetry_cell_setting 'triclinic'
loop_
_space_group_symop_operation_xyz
x,y,z
-x,-y,-z
loop_
_atom_site_type_symbol
_atom_site_label
_atom_site_fract_x
_atom_site_fract_y
_atom_site_fract_z
Si Si1 0.026550 0.472991 0.275005
Si Si2 0.467476 0.649379 0.722322
Si Si3 0.319448 0.187880 0.738560
Si Si4 0.284426 0.560211 0.570586
Si Si5 0.198839 0.950525 0.645542
Si Si6 0.988964 0.145592 0.552627
Si Si7 0.001167 0.293196 0.134919
O O1 0.787618 0.488135 0.215152
O O2 0.924573 0.275907 0.304263
O O3 0.359908 0.705912 0.222398
O O4 0.022573 0.354954 0.409659
O O5 0.344766 0.605663 0.639573
O O6 0.681457 0.599917 0.817374
O O7 0.691612 0.943004 0.626204
O O8 0.272859 0.338468 0.682988
O O9 0.253793 0.240685 0.617858
O O10 0.103271 0.896525 0.844406
O O11 0.000000 0.500000 0.500000
O O12 0.532042 0.799216 0.458083
O O13 0.217850 0.869270 0.770536
O O14 0.988001 0.998536 0.577538
O O15 0.000000 0.500000 0.000000
#
# Coordination Sequence:
#
# PCOD9082196 Si02
#       7
#     2   2   2   2   2   2   2
#     4  12  19  34  56  95 125 154 193 243 314 368
#     4  10  23  35  60  89 126 162 195 244 305 362
#     4  10  22  35  62  88 121 162 201 245 304 360
#     4  12  23  35  60 103 135 152 191 245 312 381
#     4  10  22  35  61  86 129 161 192 241 315 359
#     4  10  19  33  52  85 129 164 187 227 305 379
#     4  10  25  48  63  79 117 169 218 253 291 350
#
# _framework density 20.158740000000002
#
# number of rings (size 3 to 8) (size 9 to 14) (size 15 to 20)
#    0.000    1.714    2.857    3.857   10.000    0.000 
#    0.000    4.286    0.000    0.000    0.000    0.000 
#    0.000    0.000    0.000    0.000    0.000    0.000 
#
# Total GULP energy -77989.369334 kJ/mol
# GULP energy per Si atom -5570.669238 kJ/mol
# Density = 2.011286 g / cm^3
# Si number density = 20.158740 Si / 1000 Ang^3
#
#
#
# Elastic Constant Matrix: (Units=GPa)
#
#
# Indices 1 2 3 4 5 6 
#
# 1 89.9685 44.0876 10.0703 -0.6299 17.5678 4.5610
# 2 44.0876 94.2954 9.8167 -2.2996 15.3596 8.4000
# 3 10.0703 9.8167 76.9381 -9.7348 20.0359 1.4224
# 4 -0.6299 -2.2996 -9.7348 18.4233 1.5701 9.1617
# 5 17.5678 15.3596 20.0359 1.5701 16.9375 4.4282
# 6 4.5610 8.4000 1.4224 9.1617 4.4282 30.0298
#
#
#
# Elastic Compliance Matrix: (Units=1/GPa)
#
#
# Indices 1 2 3 4 5 6 
#
# 1 0.016605 -0.005390 0.003120 0.002731 -0.016389 0.000421
# 2 -0.005390 0.015021 0.002220 0.005564 -0.010211 -0.003680
# 3 0.003120 0.002220 0.023225 0.016678 -0.033663 -0.002319
# 4 0.002731 0.005564 0.016678 0.077330 -0.029004 -0.022077
# 5 -0.016389 -0.010211 -0.033663 -0.029004 0.128641 -0.003181
# 6 0.000421 -0.003680 -0.002319 -0.022077 -0.003181 0.041580
#
#
# Mechanical properties :
#
#
# Convention : Reuss Voigt Hill
#
# Bulk Modulus (GPa) = 18.26431 43.23904 30.75168
# Shear Modulus (GPa) = 15.58836 26.22660 20.90748
#
# Velocity S-wave (km/s) = 2.78381 3.61086 3.22396
# Velocity P-wave (km/s) = 4.40599 6.23540 5.39875
#
# Compressibility (1/GPa) = 0.05475159
#
# Stress axis : x y z
#
# Youngs Moduli (GPa) = 60.22292 66.57552 43.05635
#
# Poissons Ratio (x) = 0.35882 -0.13434
# Poissons Ratio (y) = 0.32459 -0.09558
# Poissons Ratio (z) = -0.18790 -0.14780
#
# Static dielectric constant tensor:
#      x y z
#    x 1.815470 -0.005280 -0.001530 
#    y -0.005280 1.795490 -0.006730 
#    z -0.001530 -0.006730 1.712740 
# 
# From -- ./inp_files/493386.got.cif
#   From: 2010.05.17/outbox.cif.g08.bks.cpg/sg2_247_cif.got.tgz:493386.got - 2010.06.03 11:33:40.
