data_PCOD9082239
_publ_section_title
;
Structure prediction by ZEFSAII (Michael W. Deem and Ramdas Pophale) SiO2 
 PCOD9082239
Probable space group: P -1
;
_chemical_formula_sum "Si O2"
_cell_formula_units_Z 16
_cell_length_a 8.115994
_cell_length_b 9.527203
_cell_length_c 10.051598
_cell_angle_alpha 118.479874
_cell_angle_beta 96.908078
_cell_angle_gamma 64.832837
_cell_volume 614.975418
_symmetry_space_group_name_H-M "P -1"
_symmetry_group_IT_number 2
_symmetry_cell_setting 'triclinic'
loop_
_space_group_symop_operation_xyz
x,y,z
-x,-y,-z
loop_
_atom_site_type_symbol
_atom_site_label
_atom_site_fract_x
_atom_site_fract_y
_atom_site_fract_z
Si Si1 0.463245 0.882893 0.155774
Si Si2 0.888823 0.598120 0.709376
Si Si3 0.961311 0.690230 0.017180
Si Si4 0.296193 0.335888 0.690790
Si Si5 0.880876 0.297689 0.429508
Si Si6 0.293341 0.943689 0.715765
Si Si7 0.634032 0.384965 0.079311
Si Si8 0.765605 0.963877 0.548806
O O1 0.638081 0.745448 0.194056
O O2 0.523143 0.040519 0.209098
O O3 0.411293 0.783167 0.989081
O O4 0.307958 0.928142 0.275096
O O5 0.079328 0.440657 0.706393
O O6 0.970103 0.691520 0.655068
O O7 0.791659 0.490016 0.577324
O O8 0.825633 0.709519 0.887214
O O9 0.156551 0.676204 0.975649
O O10 0.872727 0.871669 0.172244
O O11 0.000000 0.500000 0.000000
O O12 0.329958 0.172923 0.526545
O O13 0.384922 0.473442 0.743162
O O14 0.017199 0.148258 0.474218
O O15 0.749524 0.219046 0.318893
O O16 0.291597 0.937325 0.551625
O O17 0.500000 0.500000 0.000000
#
# Coordination Sequence:
#
# PCOD9082239 Si02
#       8
#     2   2   2   2   2   2   2   2
#     4  10  19  33  53  79 109 140 175 223 277 323
#     4   9  20  36  55  78 109 144 177 222 277 323
#     4  11  20  34  57  84 111 138 181 232 269 316
#     4   8  15  30  51  73  98 132 175 211 257 317
#     4  10  20  36  57  79 107 143 184 223 266 325
#     4  11  21  33  53  84 111 137 183 231 266 317
#     4   9  17  30  49  74 106 139 167 208 270 320
#     4  10  19  34  55  80 108 139 177 224 276 320
#
# _framework density 26.017302000000001
#
# number of rings (size 3 to 8) (size 9 to 14) (size 15 to 20)
#    0.000    2.250    0.000    7.125    0.000    1.500 
#    0.000    1.250    0.000   23.250    0.000    0.000 
#    0.000    0.000    0.000    0.000    0.000    0.000 
#
# Total GULP energy -89256.005029 kJ/mol
# GULP energy per Si atom -5578.500314 kJ/mol
# Density = 2.595809 g / cm^3
# Si number density = 26.017302 Si / 1000 Ang^3
#
#
#
# Elastic Constant Matrix: (Units=GPa)
#
#
# Indices 1 2 3 4 5 6 
#
# 1 98.1332 25.2037 35.1920 17.4051 29.6302 27.4211
# 2 25.2037 78.4874 27.8169 6.0036 15.6869 26.3206
# 3 35.1920 27.8169 111.9545 18.7097 39.6743 25.7855
# 4 17.4051 6.0036 18.7097 31.6533 11.9424 15.7724
# 5 29.6302 15.6869 39.6743 11.9424 50.4851 22.8583
# 6 27.4211 26.3206 25.7855 15.7724 22.8583 40.7000
#
#
#
# Elastic Compliance Matrix: (Units=1/GPa)
#
#
# Indices 1 2 3 4 5 6 
#
# 1 0.013969 -0.001669 -0.000984 -0.003123 -0.004325 -0.004069
# 2 -0.001669 0.017161 -0.002450 0.003913 0.001538 -0.010801
# 3 -0.000984 -0.002450 0.013444 -0.003732 -0.008259 -0.000184
# 4 -0.003123 0.003913 -0.003732 0.041880 0.000153 -0.014377
# 5 -0.004325 0.001538 -0.008259 0.000153 0.033675 -0.011820
# 6 -0.004069 -0.010801 -0.000184 -0.014377 -0.011820 0.046623
#
#
# Mechanical properties :
#
#
# Convention : Reuss Voigt Hill
#
# Bulk Modulus (GPa) = 29.09907 51.66671 40.38289
# Shear Modulus (GPa) = 26.53748 37.92520 32.23134
#
# Velocity S-wave (km/s) = 3.19720 3.82211 3.52354
# Velocity P-wave (km/s) = 4.98380 6.27533 5.66648
#
# Compressibility (1/GPa) = 0.03436536
#
# Stress axis : x y z
#
# Youngs Moduli (GPa) = 71.58868 58.27274 74.38494
#
# Poissons Ratio (x) = 0.09725 0.07323
# Poissons Ratio (y) = 0.11947 0.18228
# Poissons Ratio (z) = 0.07048 0.14279
#
# Static dielectric constant tensor:
#      x y z
#    x 2.078790 0.012790 -0.008680 
#    y 0.012790 2.153400 0.030710 
#    z -0.008680 0.030710 2.137450 
# 
# From -- ./inp_files/388411.got.cif
#   From: 2010.05.17/outbox.cif.g08.bks.cpg/sg2_195_cif.got.tgz:388411.got - 2010.06.03 11:33:40.
