data_PCOD9082876
_publ_section_title
;
Structure prediction by ZEFSAII (Michael W. Deem and Ramdas Pophale) SiO2 
 PCOD9082876
Probable space group: P -1
;
_chemical_formula_sum "Si O2"
_cell_formula_units_Z 14
_cell_length_a 10.135110
_cell_length_b 19.609538
_cell_length_c 16.016911
_cell_angle_alpha 161.851194
_cell_angle_beta 34.201057
_cell_angle_gamma 147.981151
_cell_volume 521.293238
_symmetry_space_group_name_H-M "P -1"
_symmetry_group_IT_number 2
_symmetry_cell_setting 'triclinic'
loop_
_space_group_symop_operation_xyz
x,y,z
-x,-y,-z
loop_
_atom_site_type_symbol
_atom_site_label
_atom_site_fract_x
_atom_site_fract_y
_atom_site_fract_z
Si Si1 0.069872 0.319867 0.616987
Si Si2 0.745875 0.210497 0.002477
Si Si3 0.951080 0.743313 0.761863
Si Si4 0.802446 0.971579 0.469190
Si Si5 0.218259 0.905121 0.976665
Si Si6 0.557788 0.308728 0.803916
Si Si7 0.584946 0.397950 0.648109
O O1 0.839851 0.319474 0.676894
O O2 0.263456 0.580586 0.807118
O O3 0.175858 0.126997 0.301178
O O4 0.968994 0.239567 0.670370
O O5 0.480881 0.999818 0.900697
O O6 0.988476 0.149430 0.781100
O O7 0.785102 0.267384 0.146961
O O8 0.171878 0.660307 0.515805
O O9 0.688022 0.522950 0.649598
O O10 0.011639 0.802496 0.896775
O O11 0.000000 0.000000 0.000000
O O12 0.622304 0.913467 0.412466
O O13 0.633647 0.845546 0.489827
O O14 0.500000 0.500000 0.000000
O O15 0.491348 0.398150 0.030720
#
# Coordination Sequence:
#
# PCOD9082876 Si02
#       7
#     2   2   2   2   2   2   2
#     4  11  20  33  62  93 117 151 191 251 302 343
#     4  10  20  41  61  90 122 150 192 252 295 347
#     4  11  26  39  59  83 120 165 196 238 286 358
#     4  10  21  34  61  93 116 151 192 252 302 341
#     4  10  24  39  60  90 121 156 199 236 297 349
#     4  10  19  33  58  89 121 147 189 251 300 336
#     4  10  22  40  55  85 119 154 195 240 298 341
#
# _framework density 26.856286999999998
#
# number of rings (size 3 to 8) (size 9 to 14) (size 15 to 20)
#    0.000    1.714    2.857    2.571    8.000    1.143 
#    0.000    0.714    0.000    1.714    0.000    0.000 
#    0.000    0.000    0.000    0.000    0.000    0.000 
#
# Total GULP energy -78079.153028 kJ/mol
# GULP energy per Si atom -5577.082359 kJ/mol
# Density = 2.679516 g / cm^3
# Si number density = 26.856287 Si / 1000 Ang^3
#
#
#
# Elastic Constant Matrix: (Units=GPa)
#
#
# Indices 1 2 3 4 5 6 
#
# 1 66.5717 29.7447 12.8981 4.8030 -9.1998 -5.9144
# 2 29.7447 255.1820 59.7580 14.8026 -13.8286 -28.0089
# 3 12.8981 59.7580 94.9890 0.6948 -20.9642 -14.7552
# 4 4.8030 14.8026 0.6948 69.6551 -5.7905 -16.3445
# 5 -9.1998 -13.8286 -20.9642 -5.7905 30.7801 -0.8318
# 6 -5.9144 -28.0089 -14.7552 -16.3445 -0.8318 31.5783
#
#
#
# Elastic Compliance Matrix: (Units=1/GPa)
#
#
# Indices 1 2 3 4 5 6 
#
# 1 0.016444 -0.001462 -0.000094 -0.000041 0.004236 0.001830
# 2 -0.001462 0.005007 -0.002463 -0.000246 0.000167 0.002893
# 3 -0.000094 -0.002463 0.015307 0.002767 0.009991 0.006645
# 4 -0.000041 -0.000246 0.002767 0.017193 0.005270 0.010105
# 5 0.004236 0.000167 0.009991 0.005270 0.041881 0.009440
# 6 0.001830 0.002893 0.006645 0.010105 0.009440 0.043160
#
#
# Mechanical properties :
#
#
# Convention : Reuss Voigt Hill
#
# Bulk Modulus (GPa) = 34.81950 69.06048 51.93999
# Shear Modulus (GPa) = 31.92794 47.35883 39.64338
#
# Velocity S-wave (km/s) = 3.45170 4.20386 3.84621
# Velocity P-wave (km/s) = 5.37391 7.02381 6.25351
#
# Compressibility (1/GPa) = 0.02871954
#
# Stress axis : x y z
#
# Youngs Moduli (GPa) = 60.81370 199.72402 65.32964
#
# Poissons Ratio (x) = 0.29200 0.00612
# Poissons Ratio (y) = 0.08891 0.16093
# Poissons Ratio (z) = 0.00569 0.49199
#
# Static dielectric constant tensor:
#      x y z
#    x 2.189890 0.048870 0.144270 
#    y 0.048870 2.216900 0.113470 
#    z 0.144270 0.113470 2.241300 
# 
# From -- ./inp_files/472457.got.cif
#   From: 2010.05.17/outbox.cif.g08.bks.cpg/sg2_237_cif.got.tgz:472457.got - 2010.06.03 11:33:40.
