data_PCOD9082432
_publ_section_title
;
Structure prediction by ZEFSAII (Michael W. Deem and Ramdas Pophale) SiO2 
 PCOD9082432
Probable space group: P -1
;
_chemical_formula_sum "Si O2"
_cell_formula_units_Z 16
_cell_length_a 9.994416
_cell_length_b 8.621088
_cell_length_c 13.923543
_cell_angle_alpha 116.036786
_cell_angle_beta 143.008343
_cell_angle_gamma 62.786262
_cell_volume 635.832830
_symmetry_space_group_name_H-M "P -1"
_symmetry_group_IT_number 2
_symmetry_cell_setting 'triclinic'
loop_
_space_group_symop_operation_xyz
x,y,z
-x,-y,-z
loop_
_atom_site_type_symbol
_atom_site_label
_atom_site_fract_x
_atom_site_fract_y
_atom_site_fract_z
Si Si1 0.852603 0.775319 0.659171
Si Si2 0.844021 0.978534 0.100567
Si Si3 0.508920 0.153340 0.831826
Si Si4 0.068330 0.365010 0.858498
Si Si5 0.034471 0.400943 0.618241
Si Si6 0.237078 0.865083 0.588792
Si Si7 0.400654 0.684406 0.438964
Si Si8 0.926697 0.249707 0.006803
O O1 0.591745 0.756900 0.509756
O O2 0.976296 0.607528 0.622445
O O3 0.935014 0.766755 0.816563
O O4 0.938745 0.946036 0.717824
O O5 0.782659 0.828522 0.092304
O O6 0.920032 0.866483 0.016164
O O7 0.656918 0.152843 0.014484
O O8 0.285453 0.292993 0.711807
O O9 0.426493 0.971293 0.756092
O O10 0.698078 0.174118 0.867963
O O11 0.039350 0.390770 0.735121
O O12 0.135230 0.539323 0.985814
O O13 0.819366 0.351302 0.751817
O O14 0.825470 0.307523 0.444916
O O15 0.310148 0.815067 0.508914
O O16 0.000000 0.000000 0.500000
O O17 0.500000 0.500000 0.500000
#
# Coordination Sequence:
#
# PCOD9082432 Si02
#       8
#     2   2   2   2   2   2   2   2
#     4  10  19  33  55  78 101 135 188 218 251 312
#     4  11  22  33  49  81 110 139 168 219 267 318
#     4  10  20  33  58  76 105 139 175 223 260 308
#     4  10  22  34  52  77 110 135 174 216 265 323
#     4   9  19  36  54  80 100 137 183 218 260 308
#     4   9  17  31  53  82 102 125 179 225 255 303
#     4  11  17  33  58  77  99 144 174 221 263 304
#     4  10  19  35  51  75 105 139 179 213 258 318
#
# _framework density 25.163848000000002
#
# number of rings (size 3 to 8) (size 9 to 14) (size 15 to 20)
#    0.000    2.000    3.750    3.375    0.000    5.500 
#    0.000    0.000    0.000    0.000    0.000   11.375 
#    0.000    0.000    0.000    0.000    0.000    0.000 
#
# Total GULP energy -89274.511225 kJ/mol
# GULP energy per Si atom -5579.656952 kJ/mol
# Density = 2.510657 g / cm^3
# Si number density = 25.163848 Si / 1000 Ang^3
#
#
#
# Elastic Constant Matrix: (Units=GPa)
#
#
# Indices 1 2 3 4 5 6 
#
# 1 62.3268 16.4397 29.6652 0.6237 29.5334 -4.0078
# 2 16.4397 107.2405 6.9935 14.7754 8.6221 9.5643
# 3 29.6652 6.9935 72.4100 6.9408 29.1044 3.6637
# 4 0.6237 14.7754 6.9408 42.6331 3.2916 4.8020
# 5 29.5334 8.6221 29.1044 3.2916 31.5043 -1.1942
# 6 -4.0078 9.5643 3.6637 4.8020 -1.1942 29.4087
#
#
#
# Elastic Compliance Matrix: (Units=1/GPa)
#
#
# Indices 1 2 3 4 5 6 
#
# 1 0.030297 -0.003148 -0.002287 0.002543 -0.025542 0.003985
# 2 -0.003148 0.010565 0.001040 -0.003340 -0.000685 -0.003477
# 3 -0.002287 0.001040 0.022699 -0.002113 -0.019038 -0.003906
# 4 0.002543 -0.003340 -0.002113 0.025381 -0.002266 -0.002540
# 5 -0.025542 -0.000685 -0.019038 -0.002266 0.073791 0.002480
# 6 0.003985 -0.003477 -0.003906 -0.002540 0.002480 0.036679
#
#
# Mechanical properties :
#
#
# Convention : Reuss Voigt Hill
#
# Bulk Modulus (GPa) = 18.25750 38.68600 28.47175
# Shear Modulus (GPa) = 22.07902 33.30116 27.69009
#
# Velocity S-wave (km/s) = 2.96532 3.64177 3.32081
# Velocity P-wave (km/s) = 4.35837 5.75242 5.10322
#
# Compressibility (1/GPa) = 0.05477203
#
# Stress axis : x y z
#
# Youngs Moduli (GPa) = 33.00645 94.65343 44.05494
#
# Poissons Ratio (x) = 0.29793 0.10077
# Poissons Ratio (y) = 0.10389 -0.04584
# Poissons Ratio (z) = 0.07550 -0.09848
#
# Static dielectric constant tensor:
#      x y z
#    x 2.008840 0.032600 -0.005910 
#    y 0.032600 2.084890 -0.020070 
#    z -0.005910 -0.020070 2.054700 
# 
# From -- ./inp_files/239873.got.cif
#   From: 2010.05.17/outbox.cif.g08.bks.cpg/sg2_120_cif.got.tgz:239873.got - 2010.06.03 11:33:40.
