data_PCOD9082427
_publ_section_title
;
Structure prediction by ZEFSAII (Michael W. Deem and Ramdas Pophale) SiO2 
 PCOD9082427
Probable space group: P -1
;
_chemical_formula_sum "Si O2"
_cell_formula_units_Z 16
_cell_length_a 14.078924
_cell_length_b 7.582399
_cell_length_c 18.135298
_cell_angle_alpha 125.304973
_cell_angle_beta 28.845279
_cell_angle_gamma 109.484084
_cell_volume 685.009964
_symmetry_space_group_name_H-M "P -1"
_symmetry_group_IT_number 2
_symmetry_cell_setting 'triclinic'
loop_
_space_group_symop_operation_xyz
x,y,z
-x,-y,-z
loop_
_atom_site_type_symbol
_atom_site_label
_atom_site_fract_x
_atom_site_fract_y
_atom_site_fract_z
Si Si1 0.757510 0.208233 0.303818
Si Si2 0.747594 0.154153 0.125701
Si Si3 0.961815 0.544805 0.304686
Si Si4 0.372778 0.277271 0.873978
Si Si5 0.300665 0.126869 0.219913
Si Si6 0.771714 0.046365 0.627434
Si Si7 0.907332 0.350520 0.443398
Si Si8 0.505577 0.326908 0.640116
O O1 0.706917 0.230148 0.257323
O O2 0.813962 0.428594 0.341183
O O3 0.567513 0.213738 0.488732
O O4 0.990673 0.972485 0.097328
O O5 0.623338 0.386119 0.216112
O O6 0.665505 0.947983 0.124687
O O7 0.827053 0.821750 0.481782
O O8 0.027792 0.417728 0.309944
O O9 0.163561 0.498773 0.103154
O O10 0.382651 0.265741 0.775553
O O11 0.596400 0.267524 0.753727
O O12 0.355534 0.970060 0.217721
O O13 0.234354 0.398672 0.357749
O O14 0.080553 0.162190 0.334952
O O15 0.500000 0.000000 0.000000
O O16 0.000000 0.000000 0.500000
O O17 0.744869 0.262048 0.494814
#
# Coordination Sequence:
#
# PCOD9082427 Si02
#       8
#     2   2   2   2   2   2   2   2
#     4   9  20  40  64  87 118 154 194 244 294 353
#     4  10  21  41  63  88 120 156 195 239 298 354
#     4   9  20  39  58  81 119 157 190 244 298 345
#     4  11  23  38  60  89 118 155 200 240 290 355
#     4  10  19  33  55  77 103 148 196 239 287 338
#     4  11  23  37  54  82 120 156 194 244 294 343
#     4   9  19  34  52  79 110 145 193 238 287 344
#     4  11  22  36  59  87 118 155 193 241 293 346
#
# _framework density 23.357323999999998
#
# number of rings (size 3 to 8) (size 9 to 14) (size 15 to 20)
#    0.000    2.000    0.000    4.125    0.000    5.000 
#    0.000    5.625    0.000    0.000    0.000    0.000 
#    0.000    0.000    0.000    0.000    0.000    0.000 
#
# Total GULP energy -89375.666314 kJ/mol
# GULP energy per Si atom -5585.979145 kJ/mol
# Density = 2.330416 g / cm^3
# Si number density = 23.357324 Si / 1000 Ang^3
#
#
#
# Elastic Constant Matrix: (Units=GPa)
#
#
# Indices 1 2 3 4 5 6 
#
# 1 71.7553 0.4888 21.3563 1.7088 4.9830 -9.3009
# 2 0.4888 45.7632 12.0011 -16.1133 3.5376 -24.3641
# 3 21.3563 12.0011 136.7576 -24.0923 29.2920 -16.9049
# 4 1.7088 -16.1133 -24.0923 19.8433 -7.8672 7.6712
# 5 4.9830 3.5376 29.2920 -7.8672 39.8983 0.2594
# 6 -9.3009 -24.3641 -16.9049 7.6712 0.2594 33.9573
#
#
#
# Elastic Compliance Matrix: (Units=1/GPa)
#
#
# Indices 1 2 3 4 5 6 
#
# 1 0.015653 0.001276 -0.002707 -0.006157 -0.001329 0.005257
# 2 0.001276 0.048551 0.005696 0.033576 -0.002223 0.030451
# 3 -0.002707 0.005696 0.011822 0.014503 -0.006026 0.006000
# 4 -0.006157 0.033576 0.014503 0.094963 0.005816 0.008127
# 5 -0.001329 -0.002223 -0.006026 0.005816 0.031040 -0.006510
# 6 0.005257 0.030451 0.006000 0.008127 -0.006510 0.053938
#
#
# Mechanical properties :
#
#
# Convention : Reuss Voigt Hill
#
# Bulk Modulus (GPa) = 11.82644 35.77429 23.80036
# Shear Modulus (GPa) = 18.14071 33.43510 25.78791
#
# Velocity S-wave (km/s) = 2.78989 3.78757 3.32635
# Velocity P-wave (km/s) = 3.93093 5.87171 4.99646
#
# Compressibility (1/GPa) = 0.08455629
#
# Stress axis : x y z
#
# Youngs Moduli (GPa) = 63.88376 20.59707 84.58461
#
# Poissons Ratio (x) = -0.02628 0.22894
# Poissons Ratio (y) = -0.08151 -0.48176
# Poissons Ratio (z) = 0.17291 -0.11731
#
# Static dielectric constant tensor:
#      x y z
#    x 1.927400 0.028350 -0.025990 
#    y 0.028350 1.939320 -0.056640 
#    z -0.025990 -0.056640 1.904030 
# 
# From -- ./inp_files/572887.got.cif
#   From: 2010.05.17/outbox.cif.g08.bks.cpg/sg2_287_cif.got.tgz:572887.got - 2010.06.03 11:33:40.
