data_PCOD9082286
_publ_section_title
;
Structure prediction by ZEFSAII (Michael W. Deem and Ramdas Pophale) SiO2 
 PCOD9082286
Probable space group: P -1
;
_chemical_formula_sum "Si O2"
_cell_formula_units_Z 16
_cell_length_a 10.842481
_cell_length_b 29.771076
_cell_length_c 13.936297
_cell_angle_alpha 159.631357
_cell_angle_beta 31.305076
_cell_angle_gamma 146.990367
_cell_volume 795.789346
_symmetry_space_group_name_H-M "P -1"
_symmetry_group_IT_number 2
_symmetry_cell_setting 'triclinic'
loop_
_space_group_symop_operation_xyz
x,y,z
-x,-y,-z
loop_
_atom_site_type_symbol
_atom_site_label
_atom_site_fract_x
_atom_site_fract_y
_atom_site_fract_z
Si Si1 0.558429 0.071185 0.366231
Si Si2 0.151611 0.147422 0.671104
Si Si3 0.054437 0.812376 0.792154
Si Si4 0.133220 0.458493 0.733980
Si Si5 0.366868 0.617647 0.728109
Si Si6 0.318389 0.775192 0.890100
Si Si7 0.536766 0.863752 0.245412
Si Si8 0.515799 0.157515 0.291829
O O1 0.384562 0.155632 0.599205
O O2 0.786321 0.074350 0.152787
O O3 0.623537 0.144979 0.570170
O O4 0.412128 0.919699 0.167864
O O5 0.271788 0.173431 0.538930
O O6 0.000000 0.000000 0.500000
O O7 0.955486 0.235753 0.987198
O O8 0.234046 0.784228 0.700414
O O9 0.982795 0.687997 0.519710
O O10 0.813312 0.858052 0.079194
O O11 0.152897 0.542435 0.789401
O O12 0.415354 0.462153 0.580540
O O13 0.000000 0.500000 0.000000
O O14 0.322120 0.663445 0.742252
O O15 0.463652 0.750189 0.989679
O O16 0.470036 0.789154 0.718623
O O17 0.500000 0.000000 0.500000
O O18 0.500000 0.000000 0.000000
#
# Coordination Sequence:
#
# PCOD9082286 Si02
#       8
#     2   2   2   2   2   2   2   2
#     4  10  19  33  53  85 121 152 184 226 289 354
#     4   9  18  30  52  78 115 157 184 211 278 354
#     4  10  22  37  59  86 113 156 198 233 288 350
#     4  10  22  45  65  76 110 158 209 248 285 331
#     4  10  23  40  59  88 112 152 202 243 290 347
#     4  11  20  34  55  87 122 150 187 231 289 353
#     4  11  21  34  54  87 122 146 183 242 298 350
#     4  11  19  33  55  86 122 155 184 229 290 356
#
# _framework density 20.105823000000001
#
# number of rings (size 3 to 8) (size 9 to 14) (size 15 to 20)
#    0.000    1.750    5.000    1.500    1.750    1.500 
#    2.250    0.625    0.000    3.750    0.000    0.000 
#    0.000    0.000    0.000    0.000    0.000    0.000 
#
# Total GULP energy -89092.649717 kJ/mol
# GULP energy per Si atom -5568.290607 kJ/mol
# Density = 2.006006 g / cm^3
# Si number density = 20.105823 Si / 1000 Ang^3
#
#
#
# Elastic Constant Matrix: (Units=GPa)
#
#
# Indices 1 2 3 4 5 6 
#
# 1 56.5439 28.9521 4.7629 -0.9876 3.1229 -32.7689
# 2 28.9521 98.2692 25.4505 -15.4845 -3.8423 -33.6299
# 3 4.7629 25.4505 48.8028 -10.5686 5.8305 -14.0707
# 4 -0.9876 -15.4845 -10.5686 26.2669 -11.2679 7.6827
# 5 3.1229 -3.8423 5.8305 -11.2679 22.1543 0.8418
# 6 -32.7689 -33.6299 -14.0707 7.6827 0.8418 44.7448
#
#
#
# Elastic Compliance Matrix: (Units=1/GPa)
#
#
# Indices 1 2 3 4 5 6 
#
# 1 0.036527 -0.006072 0.006151 -0.014584 -0.016262 0.026931
# 2 -0.006072 0.017188 -0.006015 0.010756 0.010719 0.004531
# 3 0.006151 -0.006015 0.026741 0.001324 -0.008591 0.008327
# 4 -0.014584 0.010756 0.001324 0.064237 0.036773 -0.013901
# 5 -0.016262 0.010719 -0.008591 0.036773 0.070793 -0.014201
# 6 0.026931 0.004531 0.008327 -0.013901 -0.014201 0.050750
#
#
# Mechanical properties :
#
#
# Convention : Reuss Voigt Hill
#
# Bulk Modulus (GPa) = 14.58092 35.77187 25.17640
# Shear Modulus (GPa) = 16.61296 28.26321 22.43809
#
# Velocity S-wave (km/s) = 2.87762 3.75336 3.34428
# Velocity P-wave (km/s) = 4.27887 6.05096 5.24036
#
# Compressibility (1/GPa) = 0.06858276
#
# Stress axis : x y z
#
# Youngs Moduli (GPa) = 27.37684 58.18134 37.39548
#
# Poissons Ratio (x) = 0.35328 -0.23002
# Poissons Ratio (y) = 0.16623 0.22495
# Poissons Ratio (z) = -0.16839 0.34999
#
# Static dielectric constant tensor:
#      x y z
#    x 1.783360 -0.018380 0.011060 
#    y -0.018380 1.811920 -0.028720 
#    z 0.011060 -0.028720 1.743440 
# 
# From -- ./inp_files/432821.got.cif
#   From: 2010.05.17/outbox.cif.g08.bks.cpg/sg2_217_cif.got.tgz:432821.got - 2010.06.03 11:33:40.
