data_PCOD9082278
_publ_section_title
;
Structure prediction by ZEFSAII (Michael W. Deem and Ramdas Pophale) SiO2 
 PCOD9082278
Probable space group: P -1
;
_chemical_formula_sum "Si O2"
_cell_formula_units_Z 16
_cell_length_a 13.171449
_cell_length_b 18.444907
_cell_length_c 6.560202
_cell_angle_alpha 126.789723
_cell_angle_beta 41.715051
_cell_angle_gamma 133.494529
_cell_volume 757.309141
_symmetry_space_group_name_H-M "P -1"
_symmetry_group_IT_number 2
_symmetry_cell_setting 'triclinic'
loop_
_space_group_symop_operation_xyz
x,y,z
-x,-y,-z
loop_
_atom_site_type_symbol
_atom_site_label
_atom_site_fract_x
_atom_site_fract_y
_atom_site_fract_z
Si Si1 0.044191 0.696165 0.795591
Si Si2 0.789364 0.360890 0.197771
Si Si3 0.472549 0.860218 0.854857
Si Si4 0.051279 0.868930 0.826282
Si Si5 0.827794 0.896598 0.537294
Si Si6 0.139694 0.419634 0.515537
Si Si7 0.857206 0.748118 0.532296
Si Si8 0.603619 0.991602 0.520517
O O1 0.167004 0.661233 0.674753
O O2 0.123480 0.799265 0.717437
O O3 0.915808 0.613908 0.690601
O O4 0.945060 0.719844 0.165671
O O5 0.636763 0.259807 0.166358
O O6 0.758910 0.459892 0.410417
O O7 0.959138 0.386740 0.850870
O O8 0.660321 0.907666 0.752288
O O9 0.502721 0.888471 0.619393
O O10 0.378720 0.920015 0.198255
O O11 0.203607 0.982043 0.783609
O O12 0.992814 0.826606 0.618552
O O13 0.888212 0.857940 0.180133
O O14 0.774791 0.812007 0.652029
O O15 0.000000 0.000000 0.500000
O O16 0.226321 0.354319 0.378358
O O17 0.500000 0.000000 0.500000
#
# Coordination Sequence:
#
# PCOD9082278 Si02
#       8
#     2   2   2   2   2   2   2   2
#     4   9  16  31  56  82 107 139 180 227 273 324
#     4  10  19  33  53  84 116 141 181 233 278 325
#     4  11  24  37  54  85 116 142 183 233 274 321
#     4  10  20  36  58  80 108 148 187 220 271 336
#     4  11  23  38  57  81 112 150 188 226 270 327
#     4   9  18  33  58  83 108 146 185 224 277 334
#     4   9  19  35  55  78 105 142 188 227 264 322
#     4  11  22  37  56  80 113 147 177 225 283 327
#
# _framework density 21.127434000000001
#
# number of rings (size 3 to 8) (size 9 to 14) (size 15 to 20)
#    0.000    2.000    0.000    4.875    0.000    8.000 
#    0.000    0.625    0.000    6.750    0.000    0.000 
#    0.000    0.000    0.000    0.000    0.000    0.000 
#
# Total GULP energy -89259.645012 kJ/mol
# GULP energy per Si atom -5578.727813 kJ/mol
# Density = 2.107935 g / cm^3
# Si number density = 21.127434 Si / 1000 Ang^3
#
#
#
# Elastic Constant Matrix: (Units=GPa)
#
#
# Indices 1 2 3 4 5 6 
#
# 1 78.0685 8.7748 18.7841 -2.5359 13.8741 -16.8434
# 2 8.7748 95.2982 11.6825 9.8874 0.2332 4.0868
# 3 18.7841 11.6825 49.0953 2.4555 13.8069 1.7114
# 4 -2.5359 9.8874 2.4555 22.6937 1.6473 1.0785
# 5 13.8741 0.2332 13.8069 1.6473 32.2802 3.4395
# 6 -16.8434 4.0868 1.7114 1.0785 3.4395 24.5923
#
#
#
# Elastic Compliance Matrix: (Units=1/GPa)
#
#
# Indices 1 2 3 4 5 6 
#
# 1 0.018919 -0.002056 -0.005298 0.003441 -0.007579 0.014577
# 2 -0.002056 0.011623 -0.002282 -0.005064 0.002385 -0.003292
# 3 -0.005298 -0.002282 0.025427 -0.001580 -0.008095 -0.003818
# 4 0.003441 -0.005064 -0.001580 0.046988 -0.003347 0.001715
# 5 -0.007579 0.002385 -0.008095 -0.003347 0.038952 -0.010325
# 6 0.014577 -0.003292 -0.003818 0.001715 -0.010325 0.052829
#
#
# Mechanical properties :
#
#
# Convention : Reuss Voigt Hill
#
# Bulk Modulus (GPa) = 27.24987 33.43831 30.34409
# Shear Modulus (GPa) = 22.10019 28.12795 25.11407
#
# Velocity S-wave (km/s) = 3.23777 3.65272 3.45149
# Velocity P-wave (km/s) = 5.18685 5.80096 5.50248
#
# Compressibility (1/GPa) = 0.03669743
#
# Stress axis : x y z
#
# Youngs Moduli (GPa) = 52.85728 86.03524 39.32819
#
# Poissons Ratio (x) = 0.17690 0.20836
# Poissons Ratio (y) = 0.10868 0.08974
# Poissons Ratio (z) = 0.28003 0.19631
#
# Static dielectric constant tensor:
#      x y z
#    x 1.770900 -0.049930 0.010770 
#    y -0.049930 1.783720 0.012060 
#    z 0.010770 0.012060 1.782140 
# 
# From -- ./inp_files/52422.got.cif
#   From: 2010.05.17/outbox.cif.g08.bks.cpg/sg2_27_cif.got.tgz:52422.got - 2010.06.03 11:33:40.
