data_PCOD9082865
_publ_section_title
;
Structure prediction by ZEFSAII (Michael W. Deem and Ramdas Pophale) SiO2 
 PCOD9082865
Probable space group: P -1
;
_chemical_formula_sum "Si O2"
_cell_formula_units_Z 16
_cell_length_a 11.869480
_cell_length_b 14.566973
_cell_length_c 11.798550
_cell_angle_alpha 32.873848
_cell_angle_beta 43.191983
_cell_angle_gamma 51.439877
_cell_volume 757.547652
_symmetry_space_group_name_H-M "P -1"
_symmetry_group_IT_number 2
_symmetry_cell_setting 'triclinic'
loop_
_space_group_symop_operation_xyz
x,y,z
-x,-y,-z
loop_
_atom_site_type_symbol
_atom_site_label
_atom_site_fract_x
_atom_site_fract_y
_atom_site_fract_z
Si Si1 0.319270 0.577228 0.005315
Si Si2 0.065550 0.919860 0.214370
Si Si3 0.731823 0.795294 0.616158
Si Si4 0.630415 0.141379 0.778487
Si Si5 0.164153 0.613326 0.306844
Si Si6 0.483725 0.323959 0.906061
Si Si7 0.586985 0.294735 0.419658
Si Si8 0.763117 0.777243 0.347689
O O1 0.342771 0.712972 0.750213
O O2 0.500000 0.500000 0.000000
O O3 0.232433 0.408630 0.200355
O O4 0.208474 0.658378 0.099615
O O5 0.204732 0.901684 0.227561
O O6 0.063512 0.752713 0.307894
O O7 0.883858 0.913941 0.405688
O O8 0.122790 0.076911 0.934316
O O9 0.600320 0.801589 0.810508
O O10 0.697240 0.821710 0.478043
O O11 0.669258 0.204088 0.559267
O O12 0.524219 0.263200 0.813779
O O13 0.500000 0.000000 0.000000
O O14 0.142056 0.408750 0.532903
O O15 0.342294 0.631875 0.214386
O O16 0.395793 0.506166 0.774101
O O17 0.397043 0.241119 0.596824
#
# Coordination Sequence:
#
# PCOD9082865 Si02
#       8
#     2   2   2   2   2   2   2   2
#     4  10  15  33  60  84 113 142 183 233 277 336
#     4  11  23  36  56  88 119 148 188 234 283 341
#     4  10  19  36  60  85 116 144 182 240 292 328
#     4  11  22  37  54  80 115 147 196 237 270 334
#     4   9  18  35  60  85 112 149 190 228 282 334
#     4   9  18  36  60  81 104 151 194 232 278 333
#     4  10  17  34  60  83 104 151 192 227 276 334
#     4  10  18  35  60  82 119 147 183 233 284 339
#
# _framework density 21.120785999999999
#
# number of rings (size 3 to 8) (size 9 to 14) (size 15 to 20)
#    0.000    2.000    6.250    0.750    0.000    2.000 
#    2.250    5.000    2.750    0.000    0.000    0.000 
#    0.000    0.000    0.000    0.000    0.000    0.000 
#
# Total GULP energy -89074.894985 kJ/mol
# GULP energy per Si atom -5567.180937 kJ/mol
# Density = 2.107271 g / cm^3
# Si number density = 21.120786 Si / 1000 Ang^3
#
#
#
# Elastic Constant Matrix: (Units=GPa)
#
#
# Indices 1 2 3 4 5 6 
#
# 1 93.4463 20.3158 51.5577 -0.9725 9.6591 17.6610
# 2 20.3158 25.6364 12.3657 6.5806 0.5153 7.4782
# 3 51.5577 12.3657 155.0136 10.4352 -3.8428 5.3143
# 4 -0.9725 6.5806 10.4352 17.8152 9.3829 0.9422
# 5 9.6591 0.5153 -3.8428 9.3829 39.6542 -1.0779
# 6 17.6610 7.4782 5.3143 0.9422 -1.0779 20.1536
#
#
#
# Elastic Compliance Matrix: (Units=1/GPa)
#
#
# Indices 1 2 3 4 5 6 
#
# 1 0.020956 -0.013477 -0.006763 0.015864 -0.009687 -0.012840
# 2 -0.013477 0.058057 0.002243 -0.027836 0.009100 -0.008537
# 3 -0.006763 0.002243 0.009148 -0.009255 0.004786 0.003370
# 4 0.015864 -0.027836 -0.009255 0.086197 -0.024972 -0.006498
# 5 -0.009687 0.009100 0.004786 -0.024972 0.034018 0.006837
# 6 -0.012840 -0.008537 0.003370 -0.006498 0.006837 0.063819
#
#
# Mechanical properties :
#
#
# Convention : Reuss Voigt Hill
#
# Bulk Modulus (GPa) = 19.16883 49.17496 34.17190
# Shear Modulus (GPa) = 15.35741 28.18173 21.76957
#
# Velocity S-wave (km/s) = 2.69945 3.65679 3.21396
# Velocity P-wave (km/s) = 4.33723 6.41582 5.47605
#
# Compressibility (1/GPa) = 0.05216802
#
# Stress axis : x y z
#
# Youngs Moduli (GPa) = 47.72009 17.22435 109.31932
#
# Poissons Ratio (x) = 0.23213 0.73930
# Poissons Ratio (y) = 0.64310 -0.24522
# Poissons Ratio (z) = 0.32272 -0.03864
#
# Static dielectric constant tensor:
#      x y z
#    x 1.826810 0.031550 -0.003140 
#    y 0.031550 1.935400 -0.000080 
#    z -0.003140 -0.000080 1.867710 
# 
# From -- ./inp_files/432235.got.cif
#   From: 2010.05.17/outbox.cif.g08.bks.cpg/sg2_217_cif.got.tgz:432235.got - 2010.06.03 11:33:40.
