data_PCOD9082003
_publ_section_title
;
Structure prediction by ZEFSAII (Michael W. Deem and Ramdas Pophale) SiO2 
 PCOD9082003
Probable space group: P -1
;
_chemical_formula_sum "Si O2"
_cell_formula_units_Z 16
_cell_length_a 9.078537
_cell_length_b 15.043509
_cell_length_c 9.668664
_cell_angle_alpha 97.701225
_cell_angle_beta 59.905283
_cell_angle_gamma 139.704035
_cell_volume 662.057065
_symmetry_space_group_name_H-M "P -1"
_symmetry_group_IT_number 2
_symmetry_cell_setting 'triclinic'
loop_
_space_group_symop_operation_xyz
x,y,z
-x,-y,-z
loop_
_atom_site_type_symbol
_atom_site_label
_atom_site_fract_x
_atom_site_fract_y
_atom_site_fract_z
Si Si1 0.695009 0.303688 0.983788
Si Si2 0.777426 0.537331 0.042660
Si Si3 0.770611 0.039589 0.503570
Si Si4 0.252850 0.965318 0.160778
Si Si5 0.689010 0.299808 0.675005
Si Si6 0.720406 0.704379 0.156752
Si Si7 0.105928 0.969131 0.837855
Si Si8 0.892391 0.273062 0.343819
O O1 0.402080 0.122414 0.083052
O O2 0.929912 0.356914 0.983493
O O3 0.629503 0.377124 0.076903
O O4 0.812893 0.354962 0.782072
O O5 0.512491 0.315743 0.732387
O O6 0.617627 0.557644 0.177351
O O7 0.814815 0.057685 0.649558
O O8 0.893859 0.022634 0.326363
O O9 0.421243 0.876972 0.615224
O O10 0.905253 0.189553 0.413209
O O11 0.500000 0.000000 0.000000
O O12 0.957357 0.818650 0.189001
O O13 0.448238 0.115009 0.744099
O O14 0.886426 0.355558 0.467004
O O15 0.873600 0.602480 0.855897
O O16 0.912525 0.803888 0.947444
O O17 0.000000 0.000000 0.000000
#
# Coordination Sequence:
#
# PCOD9082003 Si02
#       8
#     2   2   2   2   2   2   2   2
#     4  11  23  39  60  92 123 165 208 256 309 373
#     4  11  23  40  64  88 122 167 214 252 303 381
#     4  10  19  32  59  93 125 153 203 263 310 361
#     4  12  21  36  63  98 125 162 208 262 311 368
#     4  10  22  37  60  89 128 158 202 263 318 368
#     4  11  21  39  64  92 122 164 208 254 318 374
#     4   9  18  34  57  89 119 157 197 256 310 363
#     4  10  19  36  60  91 122 159 206 260 307 369
#
# _framework density 24.167100000000001
#
# number of rings (size 3 to 8) (size 9 to 14) (size 15 to 20)
#    0.000    1.500    5.000    0.750    1.750    1.000 
#    0.000    8.125    0.000    3.000    0.000    0.000 
#    0.000    0.000    0.000    0.000    0.000    0.000 
#
# Total GULP energy -89429.004709 kJ/mol
# GULP energy per Si atom -5589.312794 kJ/mol
# Density = 2.411209 g / cm^3
# Si number density = 24.167100 Si / 1000 Ang^3
#
#
#
# Elastic Constant Matrix: (Units=GPa)
#
#
# Indices 1 2 3 4 5 6 
#
# 1 76.8514 37.8739 46.1004 15.7837 9.2455 -13.6567
# 2 37.8739 104.2812 26.2614 12.4052 -9.9432 -20.1336
# 3 46.1004 26.2614 159.1874 32.4714 24.7856 -0.7829
# 4 15.7837 12.4052 32.4714 35.5125 0.6111 -3.5548
# 5 9.2455 -9.9432 24.7856 0.6111 36.2432 13.7354
# 6 -13.6567 -20.1336 -0.7829 -3.5548 13.7354 44.5608
#
#
#
# Elastic Compliance Matrix: (Units=1/GPa)
#
#
# Indices 1 2 3 4 5 6 
#
# 1 0.020140 -0.005715 -0.003154 -0.003433 -0.006484 0.005260
# 2 -0.005715 0.012979 -0.001040 -0.000870 0.004777 0.002553
# 3 -0.003154 -0.001040 0.009742 -0.007035 -0.006038 0.000034
# 4 -0.003433 -0.000870 -0.007035 0.036319 0.004906 -0.000183
# 5 -0.006484 0.004777 -0.006038 0.004906 0.038983 -0.011560
# 6 0.005260 0.002553 0.000034 -0.000183 -0.011560 0.028756
#
#
# Mechanical properties :
#
#
# Convention : Reuss Voigt Hill
#
# Bulk Modulus (GPa) = 43.39627 62.31014 52.85321
# Shear Modulus (GPa) = 28.66679 38.60224 33.63451
#
# Velocity S-wave (km/s) = 3.44785 4.00097 3.73466
# Velocity P-wave (km/s) = 5.81773 6.86896 6.36508
#
# Compressibility (1/GPa) = 0.02304346
#
# Stress axis : x y z
#
# Youngs Moduli (GPa) = 49.65152 77.04966 102.64590
#
# Poissons Ratio (x) = 0.44032 0.32376
# Poissons Ratio (y) = 0.28375 0.10675
# Poissons Ratio (z) = 0.15661 0.08013
#
# Static dielectric constant tensor:
#      x y z
#    x 1.968740 -0.039190 -0.032880 
#    y -0.039190 2.031980 0.014130 
#    z -0.032880 0.014130 1.935350 
# 
# From -- ./inp_files/276724.got.cif
#   From: 2010.05.17/outbox.cif.g08.bks.cpg/sg2_139_cif.got.tgz:276724.got - 2010.06.03 11:33:40.
