data_PCOD9082712
_publ_section_title
;
Structure prediction by ZEFSAII (Michael W. Deem and Ramdas Pophale) SiO2 
 PCOD9082712
Probable space group: P -1
;
_chemical_formula_sum "Si O2"
_cell_formula_units_Z 16
_cell_length_a 8.322455
_cell_length_b 8.989766
_cell_length_c 21.303363
_cell_angle_alpha 135.647575
_cell_angle_beta 146.076621
_cell_angle_gamma 48.105195
_cell_volume 610.405384
_symmetry_space_group_name_H-M "P -1"
_symmetry_group_IT_number 2
_symmetry_cell_setting 'triclinic'
loop_
_space_group_symop_operation_xyz
x,y,z
-x,-y,-z
loop_
_atom_site_type_symbol
_atom_site_label
_atom_site_fract_x
_atom_site_fract_y
_atom_site_fract_z
Si Si1 0.739673 0.342042 0.917549
Si Si2 0.759145 0.426401 0.819997
Si Si3 0.258493 0.818002 0.998357
Si Si4 0.328692 0.871027 0.798008
Si Si5 0.332116 0.800002 0.399431
Si Si6 0.800782 0.357054 0.426086
Si Si7 0.663853 0.252026 0.475750
Si Si8 0.941412 0.872213 0.795158
O O1 0.578068 0.387091 0.812148
O O2 0.615159 0.311078 0.936699
O O3 0.943341 0.114019 0.893761
O O4 0.924409 0.529427 0.044909
O O5 0.587849 0.660007 0.813762
O O6 0.801182 0.244350 0.725215
O O7 0.513583 0.926656 0.085267
O O8 0.098123 0.724712 0.859328
O O9 0.000000 0.000000 0.000000
O O10 0.190665 0.850289 0.678571
O O11 0.120006 0.840602 0.778877
O O12 0.514908 0.550238 0.393393
O O13 0.214278 0.830223 0.441894
O O14 0.500000 0.000000 0.500000
O O15 0.885437 0.268086 0.495740
O O16 0.000000 0.500000 0.500000
O O17 0.500000 0.500000 0.500000
O O18 0.397278 0.139541 0.330624
#
# Coordination Sequence:
#
# PCOD9082712 Si02
#       8
#     2   2   2   2   2   2   2   2
#     4  10  21  37  58  82 116 154 191 231 295 339
#     4  10  21  36  58  82 118 153 186 240 289 345
#     4  10  19  33  57  84 112 151 194 231 281 339
#     4  11  20  35  58  87 118 148 191 242 285 338
#     4  10  21  37  59  84 117 152 196 233 288 344
#     4  10  21  38  60  87 118 150 192 241 288 338
#     4  10  21  36  60  86 115 150 196 236 286 344
#     4  11  21  35  63  87 116 149 196 237 286 340
#
# _framework density 26.21209
#
# number of rings (size 3 to 8) (size 9 to 14) (size 15 to 20)
#    0.000    1.750    2.500    4.125    3.500    0.000 
#    0.000    1.250    0.000    9.000    0.000    0.000 
#    0.000    0.000    0.000    0.000    0.000    0.000 
#
# Total GULP energy -89192.969925 kJ/mol
# GULP energy per Si atom -5574.560620 kJ/mol
# Density = 2.615243 g / cm^3
# Si number density = 26.212090 Si / 1000 Ang^3
#
#
#
# Elastic Constant Matrix: (Units=GPa)
#
#
# Indices 1 2 3 4 5 6 
#
# 1 134.0920 41.5097 39.6805 -8.2574 -38.2027 37.1861
# 2 41.5097 83.4651 29.0842 2.1867 -22.6874 15.1822
# 3 39.6805 29.0842 131.7964 5.6222 -30.3426 21.0347
# 4 -8.2574 2.1867 5.6222 35.4902 6.5229 -18.0109
# 5 -38.2027 -22.6874 -30.3426 6.5229 47.9348 -5.7756
# 6 37.1861 15.1822 21.0347 -18.0109 -5.7756 55.8688
#
#
#
# Elastic Compliance Matrix: (Units=1/GPa)
#
#
# Indices 1 2 3 4 5 6 
#
# 1 0.012530 -0.002584 -0.000037 -0.002221 0.008138 -0.007498
# 2 -0.002584 0.015530 -0.000906 -0.003768 0.004884 -0.002869
# 3 -0.000037 -0.000906 0.010133 -0.004969 0.006088 -0.004517
# 4 -0.002221 -0.003768 -0.004969 0.038520 -0.010042 0.015753
# 5 0.008138 0.004884 0.006088 -0.010042 0.033822 -0.008777
# 6 -0.007498 -0.002869 -0.004517 0.015753 -0.008777 0.029541
#
#
# Mechanical properties :
#
#
# Convention : Reuss Voigt Hill
#
# Bulk Modulus (GPa) = 32.11498 63.32247 47.71872
# Shear Modulus (GPa) = 31.74419 43.79738 37.77078
#
# Velocity S-wave (km/s) = 3.48379 4.09208 3.80013
# Velocity P-wave (km/s) = 5.33488 6.82180 6.12364
#
# Compressibility (1/GPa) = 0.03113812
#
# Stress axis : x y z
#
# Youngs Moduli (GPa) = 79.81090 64.39028 98.68793
#
# Poissons Ratio (x) = 0.16641 0.00366
# Poissons Ratio (y) = 0.20626 0.08940
# Poissons Ratio (z) = 0.00296 0.05833
#
# Static dielectric constant tensor:
#      x y z
#    x 1.793920 0.008390 -0.026860 
#    y 0.008390 2.296980 -0.143010 
#    z -0.026860 -0.143010 2.141480 
# 
# From -- ./inp_files/587566.got.cif
#   From: 2010.05.17/outbox.cif.g08.bks.cpg/sg2_294_cif.got.tgz:587566.got - 2010.06.03 11:33:40.
