data_PCOD9082714
_publ_section_title
;
Structure prediction by ZEFSAII (Michael W. Deem and Ramdas Pophale) SiO2 
 PCOD9082714
Probable space group: P -1
;
_chemical_formula_sum "Si O2"
_cell_formula_units_Z 16
_cell_length_a 11.936826
_cell_length_b 22.894822
_cell_length_c 5.716088
_cell_angle_alpha 65.719759
_cell_angle_beta 61.124269
_cell_angle_gamma 39.571983
_cell_volume 869.310456
_symmetry_space_group_name_H-M "P -1"
_symmetry_group_IT_number 2
_symmetry_cell_setting 'triclinic'
loop_
_space_group_symop_operation_xyz
x,y,z
-x,-y,-z
loop_
_atom_site_type_symbol
_atom_site_label
_atom_site_fract_x
_atom_site_fract_y
_atom_site_fract_z
Si Si1 0.344925 0.542769 0.278153
Si Si2 0.689604 0.850295 0.955774
Si Si3 0.658196 0.077255 0.048442
Si Si4 0.809760 0.165002 0.723388
Si Si5 0.943250 0.290528 0.977806
Si Si6 0.008602 0.123278 0.090055
Si Si7 0.595886 0.007698 0.593573
Si Si8 0.613814 0.363824 0.529151
O O1 0.363830 0.595495 0.347321
O O2 0.500000 0.500000 0.000000
O O3 0.144492 0.623566 0.238156
O O4 0.414617 0.452463 0.476722
O O5 0.552543 0.858781 0.918512
O O6 0.878952 0.749733 0.996665
O O7 0.736491 0.903898 0.715978
O O8 0.561247 0.915103 0.196888
O O9 0.678069 0.042535 0.347532
O O10 0.724611 0.124913 0.871877
O O11 0.791175 0.981243 0.931207
O O12 0.911818 0.138888 0.410054
O O13 0.656276 0.276114 0.698603
O O14 0.917274 0.132635 0.919042
O O15 0.008225 0.200800 0.938574
O O16 0.776474 0.326965 0.249889
O O17 0.500000 0.000000 0.500000
#
# Coordination Sequence:
#
# PCOD9082714 Si02
#       8
#     2   2   2   2   2   2   2   2
#     4   9  17  33  55  84 108 140 177 240 296 344
#     4  10  21  35  53  79 110 151 193 241 284 332
#     4  11  24  36  54  77 119 158 199 229 282 334
#     4  11  24  39  58  85 117 159 193 238 281 346
#     4  10  19  33  57  84 114 143 191 237 291 340
#     4  11  23  37  58  84 117 156 200 238 280 329
#     4   9  19  34  50  73 104 151 195 236 273 321
#     4   9  19  34  56  82 115 139 185 234 297 339
#
# _framework density 18.405393
#
# number of rings (size 3 to 8) (size 9 to 14) (size 15 to 20)
#    0.000    2.000    1.250    3.000    7.000    2.000 
#    0.000    0.000    0.000    0.750    0.000    8.750 
#    0.000    0.000    0.000    0.000    0.000    0.000 
#
# Total GULP energy -89102.548829 kJ/mol
# GULP energy per Si atom -5568.909302 kJ/mol
# Density = 1.836350 g / cm^3
# Si number density = 18.405393 Si / 1000 Ang^3
#
#
#
# Elastic Constant Matrix: (Units=GPa)
#
#
# Indices 1 2 3 4 5 6 
#
# 1 71.2790 47.7342 16.8096 -11.5315 3.6814 -20.7941
# 2 47.7342 128.6354 22.1095 -16.2905 -3.5820 -26.3285
# 3 16.8096 22.1095 62.3152 -14.5966 -0.0287 -2.7792
# 4 -11.5315 -16.2905 -14.5966 19.1391 2.7764 11.9899
# 5 3.6814 -3.5820 -0.0287 2.7764 22.8723 -4.7889
# 6 -20.7941 -26.3285 -2.7792 11.9899 -4.7889 33.9966
#
#
#
# Elastic Compliance Matrix: (Units=1/GPa)
#
#
# Indices 1 2 3 4 5 6 
#
# 1 0.021074 -0.005711 -0.003011 0.001376 -0.002924 0.007324
# 2 -0.005711 0.011609 -0.002155 0.000735 0.003818 0.005600
# 3 -0.003011 -0.002155 0.021710 0.019180 -0.004053 -0.009071
# 4 0.001376 0.000735 0.019180 0.090606 -0.017669 -0.031465
# 5 -0.002924 0.003818 -0.004053 -0.017669 0.049880 0.014095
# 6 0.007324 0.005600 -0.009071 -0.031465 0.014095 0.050572
#
#
# Mechanical properties :
#
#
# Convention : Reuss Voigt Hill
#
# Bulk Modulus (GPa) = 30.63664 48.39292 39.51478
# Shear Modulus (GPa) = 17.98012 26.90670 22.44341
#
# Velocity S-wave (km/s) = 3.12892 3.82762 3.49577
# Velocity P-wave (km/s) = 5.45299 6.77378 6.14895
#
# Compressibility (1/GPa) = 0.03264065
#
# Stress axis : x y z
#
# Youngs Moduli (GPa) = 47.45167 86.14021 46.06091
#
# Poissons Ratio (x) = 0.49193 0.13869
# Poissons Ratio (y) = 0.27099 0.09925
# Poissons Ratio (z) = 0.14287 0.18561
#
# Static dielectric constant tensor:
#      x y z
#    x 1.660490 -0.044660 0.066950 
#    y -0.044660 1.654820 -0.017550 
#    z 0.066950 -0.017550 1.721450 
# 
# From -- ./inp_files/82516.got.cif
#   From: 2010.05.17/outbox.cif.g08.bks.cpg/sg2_42_cif.got.tgz:82516.got - 2010.06.03 11:33:40.
