data_PCOD9082297
_publ_section_title
;
Structure prediction by ZEFSAII (Michael W. Deem and Ramdas Pophale) SiO2 
 PCOD9082297
Probable space group: P -1
;
_chemical_formula_sum "Si O2"
_cell_formula_units_Z 16
_cell_length_a 8.582484
_cell_length_b 17.542947
_cell_length_c 12.380064
_cell_angle_alpha 123.450783
_cell_angle_beta 48.472778
_cell_angle_gamma 85.038753
_cell_volume 803.737740
_symmetry_space_group_name_H-M "P -1"
_symmetry_group_IT_number 2
_symmetry_cell_setting 'triclinic'
loop_
_space_group_symop_operation_xyz
x,y,z
-x,-y,-z
loop_
_atom_site_type_symbol
_atom_site_label
_atom_site_fract_x
_atom_site_fract_y
_atom_site_fract_z
Si Si1 0.633062 0.629261 0.406329
Si Si2 0.271445 0.779582 0.270397
Si Si3 0.293622 0.377334 0.860515
Si Si4 0.515611 0.517373 0.849798
Si Si5 0.362186 0.213236 0.039505
Si Si6 0.610256 0.957165 0.792034
Si Si7 0.217090 0.289412 0.414400
Si Si8 0.697629 0.433860 0.466063
O O1 0.632987 0.687321 0.341316
O O2 0.677803 0.657709 0.524556
O O3 0.338065 0.661537 0.561361
O O4 0.944271 0.474386 0.123812
O O5 0.497752 0.725507 0.222632
O O6 0.940990 0.889514 0.558179
O O7 0.341686 0.655791 0.094167
O O8 0.361413 0.823125 0.171490
O O9 0.361483 0.466428 0.894450
O O10 0.559967 0.524998 0.707615
O O11 0.853761 0.402605 0.655140
O O12 0.339352 0.246140 0.202514
O O13 0.049681 0.344672 0.230400
O O14 0.397114 0.092083 0.927034
O O15 0.656264 0.834106 0.667742
O O16 0.500000 0.000000 0.000000
O O17 0.500000 0.500000 0.500000
#
# Coordination Sequence:
#
# PCOD9082297 Si02
#       8
#     2   2   2   2   2   2   2   2
#     4  10  20  32  56  85 122 153 194 231 295 348
#     4  12  20  35  65  88 120 147 202 250 286 352
#     4  10  19  33  53  91 121 153 186 240 295 351
#     4  10  20  33  61  93 117 150 197 240 299 340
#     4  10  24  38  60  87 117 161 199 236 293 348
#     4  10  22  40  62  84 115 157 203 247 288 340
#     4  10  19  38  62  89 117 152 201 244 283 356
#     4  10  22  37  55  85 130 158 179 240 299 356
#
# _framework density 19.906988999999999
#
# number of rings (size 3 to 8) (size 9 to 14) (size 15 to 20)
#    0.000    1.750    2.500    2.250    3.500    1.000 
#    0.000    0.625    0.000    1.500    0.000    0.000 
#    0.000    0.000    0.000    0.000    0.000    0.000 
#
# Total GULP energy -89137.299856 kJ/mol
# GULP energy per Si atom -5571.081241 kJ/mol
# Density = 1.986168 g / cm^3
# Si number density = 19.906989 Si / 1000 Ang^3
#
#
#
# Elastic Constant Matrix: (Units=GPa)
#
#
# Indices 1 2 3 4 5 6 
#
# 1 71.2437 0.4266 23.2915 -7.1114 9.6172 -16.7572
# 2 0.4266 72.8939 28.2796 -10.9976 6.5256 -13.3949
# 3 23.2915 28.2796 96.4936 -17.8959 -5.9874 -5.4483
# 4 -7.1114 -10.9976 -17.8959 28.3356 5.9525 -2.4956
# 5 9.6172 6.5256 -5.9874 5.9525 17.7301 -11.3498
# 6 -16.7572 -13.3949 -5.4483 -2.4956 -11.3498 29.1483
#
#
#
# Elastic Compliance Matrix: (Units=1/GPa)
#
#
# Indices 1 2 3 4 5 6 
#
# 1 0.020247 0.005820 -0.005434 0.007110 -0.011248 0.009528
# 2 0.005820 0.019526 -0.005763 0.008182 -0.009846 0.008108
# 3 -0.005434 -0.005763 0.014704 0.003802 0.009364 0.000948
# 4 0.007110 0.008182 0.003802 0.046867 -0.017678 0.005688
# 5 -0.011248 -0.009846 0.009364 -0.017678 0.091029 0.024691
# 6 0.009528 0.008108 0.000948 0.005688 0.024691 0.053789
#
#
# Mechanical properties :
#
#
# Convention : Reuss Voigt Hill
#
# Bulk Modulus (GPa) = 22.87132 38.29184 30.58158
# Shear Modulus (GPa) = 18.41677 27.61836 23.01757
#
# Velocity S-wave (km/s) = 3.04491 3.72878 3.40406
# Velocity P-wave (km/s) = 4.88631 6.14944 5.55390
#
# Compressibility (1/GPa) = 0.04372288
#
# Stress axis : x y z
#
# Youngs Moduli (GPa) = 49.38958 51.21322 68.00941
#
# Poissons Ratio (x) = -0.29807 0.36958
# Poissons Ratio (y) = -0.28746 0.39195
# Poissons Ratio (z) = 0.26839 0.29515
#
# Static dielectric constant tensor:
#      x y z
#    x 1.688420 0.003660 0.013520 
#    y 0.003660 1.782960 -0.008840 
#    z 0.013520 -0.008840 1.726150 
# 
# From -- ./inp_files/177874.got.cif
#   From: 2010.05.17/outbox.cif.g08.bks.cpg/sg2_89_cif.got.tgz:177874.got - 2010.06.03 11:33:40.
