data_PCOD9082537
_publ_section_title
;
Structure prediction by ZEFSAII (Michael W. Deem and Ramdas Pophale) SiO2 
 PCOD9082537
Probable space group: P -1
;
_chemical_formula_sum "Si O2"
_cell_formula_units_Z 14
_cell_length_a 5.473946
_cell_length_b 23.447333
_cell_length_c 9.634034
_cell_angle_alpha 143.966925
_cell_angle_beta 120.148038
_cell_angle_gamma 66.670356
_cell_volume 628.869385
_symmetry_space_group_name_H-M "P -1"
_symmetry_group_IT_number 2
_symmetry_cell_setting 'triclinic'
loop_
_space_group_symop_operation_xyz
x,y,z
-x,-y,-z
loop_
_atom_site_type_symbol
_atom_site_label
_atom_site_fract_x
_atom_site_fract_y
_atom_site_fract_z
Si Si1 0.329299 0.796693 0.212811
Si Si2 0.318444 0.636928 0.121787
Si Si3 0.934959 0.245133 0.242004
Si Si4 0.398082 0.803726 0.675877
Si Si5 0.646846 0.978879 0.645338
Si Si6 0.764536 0.046085 0.304140
Si Si7 0.090369 0.450672 0.785754
O O1 0.347224 0.698703 0.111553
O O2 0.222232 0.780481 0.996303
O O3 0.619152 0.861575 0.428251
O O4 0.134773 0.873333 0.392707
O O5 0.121007 0.541608 0.869151
O O6 0.242660 0.714732 0.371365
O O7 0.612476 0.595785 0.179318
O O8 0.267358 0.220284 0.269216
O O9 0.915110 0.360436 0.496418
O O10 0.772107 0.194639 0.225284
O O11 0.370718 0.893407 0.738312
O O12 0.970180 0.008691 0.786256
O O13 0.457170 0.015739 0.789832
O O14 0.500000 0.000000 0.500000
O O15 0.000000 0.500000 0.000000
#
# Coordination Sequence:
#
# PCOD9082537 Si02
#       7
#     2   2   2   2   2   2   2
#     4   9  23  35  58  85 113 147 184 237 286 327
#     4   9  19  37  53  81 107 148 199 226 271 336
#     4  11  22  35  56  84 117 147 184 239 283 321
#     4  10  20  36  58  81 110 152 193 224 272 338
#     4  10  20  36  62  89 112 143 188 232 274 334
#     4   9  20  36  61  85 106 151 190 227 269 340
#     4  10  19  33  56  78 110 152 191 232 269 331
#
# _framework density 22.262174000000002
#
# number of rings (size 3 to 8) (size 9 to 14) (size 15 to 20)
#    0.857    1.429    1.429    1.286    4.000    0.571 
#    0.000    0.714    0.000    5.143    0.000    0.000 
#    0.000    0.000    0.000    0.000    0.000    0.000 
#
# Total GULP energy -78125.702633 kJ/mol
# GULP energy per Si atom -5580.407331 kJ/mol
# Density = 2.221150 g / cm^3
# Si number density = 22.262174 Si / 1000 Ang^3
#
#
#
# Elastic Constant Matrix: (Units=GPa)
#
#
# Indices 1 2 3 4 5 6 
#
# 1 138.7419 44.5464 39.6342 -0.3738 -16.4752 24.5913
# 2 44.5464 108.0386 36.0768 4.8891 -12.1364 32.1466
# 3 39.6342 36.0768 107.4175 0.0873 -9.9101 18.4385
# 4 -0.3738 4.8891 0.0873 42.2872 14.1019 -0.7132
# 5 -16.4752 -12.1364 -9.9101 14.1019 31.3402 0.5235
# 6 24.5913 32.1466 18.4385 -0.7132 0.5235 36.7783
#
#
#
# Elastic Compliance Matrix: (Units=1/GPa)
#
#
# Indices 1 2 3 4 5 6 
#
# 1 0.009490 -0.001473 -0.001869 -0.001309 0.004487 -0.004210
# 2 -0.001473 0.014675 -0.001905 -0.003988 0.006285 -0.011054
# 3 -0.001869 -0.001905 0.011321 -0.000591 0.002173 -0.002803
# 4 -0.001309 -0.003988 -0.000591 0.029446 -0.015760 0.005453
# 5 0.004487 0.006285 0.002173 -0.015760 0.044655 -0.010524
# 6 -0.004210 -0.011054 -0.002803 0.005453 -0.010524 0.041328
#
#
# Mechanical properties :
#
#
# Convention : Reuss Voigt Hill
#
# Bulk Modulus (GPa) = 40.01190 66.07921 53.04556
# Shear Modulus (GPa) = 29.45701 37.67720 33.56711
#
# Velocity S-wave (km/s) = 3.64151 4.11838 3.88726
# Velocity P-wave (km/s) = 5.97435 7.23612 6.63530
#
# Compressibility (1/GPa) = 0.02499256
#
# Stress axis : x y z
#
# Youngs Moduli (GPa) = 105.37455 68.14393 88.33148
#
# Poissons Ratio (x) = 0.10036 0.16511
# Poissons Ratio (y) = 0.15519 0.16824
# Poissons Ratio (z) = 0.19697 0.12979
#
# Static dielectric constant tensor:
#      x y z
#    x 1.898830 0.032720 0.021380 
#    y 0.032720 1.798430 0.076520 
#    z 0.021380 0.076520 1.877500 
# 
# From -- ./inp_files/104089.got.cif
#   From: 2010.05.17/outbox.cif.g08.bks.cpg/sg2_53_cif.got.tgz:104089.got - 2010.06.03 11:33:40.
