data_PCOD9082659
_publ_section_title
;
Structure prediction by ZEFSAII (Michael W. Deem and Ramdas Pophale) SiO2 
 PCOD9082659
Probable space group: P -1
;
_chemical_formula_sum "Si O2"
_cell_formula_units_Z 16
_cell_length_a 6.420677
_cell_length_b 11.060149
_cell_length_c 14.451573
_cell_angle_alpha 116.427343
_cell_angle_beta 120.912372
_cell_angle_gamma 87.733816
_cell_volume 764.216747
_symmetry_space_group_name_H-M "P -1"
_symmetry_group_IT_number 2
_symmetry_cell_setting 'triclinic'
loop_
_space_group_symop_operation_xyz
x,y,z
-x,-y,-z
loop_
_atom_site_type_symbol
_atom_site_label
_atom_site_fract_x
_atom_site_fract_y
_atom_site_fract_z
Si Si1 0.816592 0.443664 0.638612
Si Si2 0.107401 0.682239 0.905858
Si Si3 0.715333 0.841481 0.799836
Si Si4 0.012711 0.804664 0.501166
Si Si5 0.875790 0.143277 0.866323
Si Si6 0.426626 0.054890 0.600405
Si Si7 0.434454 0.149626 0.032140
Si Si8 0.731278 0.679641 0.566473
O O1 0.815689 0.554159 0.593219
O O2 0.522162 0.380220 0.569667
O O3 0.960115 0.531548 0.786453
O O4 0.942943 0.326266 0.589718
O O5 0.380595 0.732410 0.943513
O O6 0.964451 0.791880 0.865347
O O7 0.114408 0.716703 0.026987
O O8 0.554914 0.798957 0.841048
O O9 0.647151 0.768076 0.660541
O O10 0.757629 0.005825 0.854079
O O11 0.765792 0.848937 0.425107
O O12 0.949971 0.766379 0.581202
O O13 0.257193 0.929585 0.580731
O O14 0.689395 0.127060 0.732582
O O15 0.160357 0.131807 0.918366
O O16 0.500000 0.000000 0.500000
O O17 0.500000 0.000000 0.000000
#
# Coordination Sequence:
#
# PCOD9082659 Si02
#       8
#     2   2   2   2   2   2   2   2
#     4  10  22  39  62  95 132 163 210 263 317 380
#     4  10  21  35  56  90 126 166 203 256 320 381
#     4  10  19  33  56  89 126 160 203 260 317 370
#     4  11  23  43  68  89 125 170 215 264 317 385
#     4  11  21  36  59  87 124 164 205 260 320 367
#     4  11  26  45  65  95 125 163 219 273 319 366
#     4  11  19  35  57  88 131 167 205 254 313 382
#     4  10  22  39  64  96 130 167 207 263 327 376
#
# _framework density 20.936468000000001
#
# number of rings (size 3 to 8) (size 9 to 14) (size 15 to 20)
#    0.000    1.500    2.500    3.375    0.000   11.000 
#    2.250    0.625    0.000    3.750    0.000    0.000 
#    0.000    0.000    0.000    0.000    0.000    0.000 
#
# Total GULP energy -89335.336579 kJ/mol
# GULP energy per Si atom -5583.458536 kJ/mol
# Density = 2.088882 g / cm^3
# Si number density = 20.936468 Si / 1000 Ang^3
#
#
#
# Elastic Constant Matrix: (Units=GPa)
#
#
# Indices 1 2 3 4 5 6 
#
# 1 101.8541 31.1720 54.6370 1.2824 6.1583 -3.0654
# 2 31.1720 52.9813 18.1884 10.7106 -3.8754 -11.2200
# 3 54.6370 18.1884 164.1258 7.1395 4.3442 -10.2298
# 4 1.2824 10.7106 7.1395 22.3827 -7.2580 -2.6160
# 5 6.1583 -3.8754 4.3442 -7.2580 23.5823 7.0568
# 6 -3.0654 -11.2200 -10.2298 -2.6160 7.0568 36.3246
#
#
#
# Elastic Compliance Matrix: (Units=1/GPa)
#
#
# Indices 1 2 3 4 5 6 
#
# 1 0.014723 -0.008511 -0.004137 0.003401 -0.002914 -0.001741
# 2 -0.008511 0.027574 0.000703 -0.011825 0.000899 0.006970
# 3 -0.004137 0.000703 0.007699 -0.002871 -0.001755 0.002170
# 4 0.003401 -0.011825 -0.002871 0.055816 0.015843 -0.003232
# 5 -0.002914 0.000899 -0.001755 0.015843 0.051292 -0.009286
# 6 -0.001741 0.006970 0.002170 -0.003232 -0.009286 0.031718
#
#
# Mechanical properties :
#
#
# Convention : Reuss Voigt Hill
#
# Bulk Modulus (GPa) = 38.30898 58.55066 48.42982
# Shear Modulus (GPa) = 22.58201 30.78885 26.68543
#
# Velocity S-wave (km/s) = 3.28776 3.83898 3.57401
# Velocity P-wave (km/s) = 5.72276 6.90485 6.34141
#
# Compressibility (1/GPa) = 0.02610354
#
# Stress axis : x y z
#
# Youngs Moduli (GPa) = 67.91992 36.26667 129.88811
#
# Poissons Ratio (x) = 0.30868 0.53740
# Poissons Ratio (y) = 0.57810 -0.09128
# Poissons Ratio (z) = 0.28101 -0.02549
#
# Static dielectric constant tensor:
#      x y z
#    x 1.771550 0.010470 -0.014070 
#    y 0.010470 1.757550 -0.008620 
#    z -0.014070 -0.008620 1.802100 
# 
# From -- ./inp_files/118705.got.cif
#   From: 2010.05.17/outbox.cif.g08.bks.cpg/sg2_60_cif.got.tgz:118705.got - 2010.06.03 11:33:40.
