data_PCOD9082591
_publ_section_title
;
Structure prediction by ZEFSAII (Michael W. Deem and Ramdas Pophale) SiO2 
 PCOD9082591
Probable space group: P -1
;
_chemical_formula_sum "Si O2"
_cell_formula_units_Z 16
_cell_length_a 9.371287
_cell_length_b 23.371493
_cell_length_c 11.839651
_cell_angle_alpha 39.481174
_cell_angle_beta 142.329660
_cell_angle_gamma 137.394383
_cell_volume 953.952448
_symmetry_space_group_name_H-M "P -1"
_symmetry_group_IT_number 2
_symmetry_cell_setting 'triclinic'
loop_
_space_group_symop_operation_xyz
x,y,z
-x,-y,-z
loop_
_atom_site_type_symbol
_atom_site_label
_atom_site_fract_x
_atom_site_fract_y
_atom_site_fract_z
Si Si1 0.906757 0.052468 0.158880
Si Si2 0.571538 0.428230 0.071811
Si Si3 0.368187 0.210376 0.289573
Si Si4 0.263903 0.747553 0.752387
Si Si5 0.695139 0.051212 0.448775
Si Si6 0.533838 0.414368 0.803631
Si Si7 0.902110 0.585702 0.632137
Si Si8 0.515936 0.947566 0.263794
O O1 0.091058 0.151269 0.171065
O O2 0.716677 0.000017 0.216667
O O3 0.750996 0.067173 0.932823
O O4 0.073413 0.986698 0.336343
O O5 0.421543 0.320637 0.179358
O O6 0.862069 0.437190 0.238020
O O7 0.500000 0.500000 0.000000
O O8 0.511905 0.437239 0.887710
O O9 0.540280 0.209952 0.289970
O O10 0.446293 0.151220 0.526335
O O11 0.231211 0.835675 0.664281
O O12 0.021921 0.678417 0.643896
O O13 0.376842 0.678314 0.999124
O O14 0.500000 0.000000 0.500000
O O15 0.572564 0.013352 0.309599
O O16 0.741657 0.500050 0.741559
O O17 0.280552 0.398587 0.601507
#
# Coordination Sequence:
#
# PCOD9082591 Si02
#       8
#     2   2   2   2   2   2   2   2
#     4  10  21  38  55  75 109 147 177 213 265 318
#     4  10  21  36  56  84 107 137 178 223 268 307
#     4   9  18  36  55  78 105 143 177 214 265 318
#     4  10  19  33  56  84 107 136 177 220 269 308
#     4  11  20  36  53  85 107 134 179 225 264 306
#     4   9  19  38  58  78 108 143 175 214 267 322
#     4   9  19  38  58  78 108 143 175 214 267 322
#     4  10  21  38  55  75 109 147 177 213 265 318
#
# _framework density 16.772324000000001
#
# number of rings (size 3 to 8) (size 9 to 14) (size 15 to 20)
#    0.000    2.500    2.500    3.000    0.000    6.000 
#    9.000    0.000    0.000    0.000    0.000    0.000 
#    0.000    0.000    0.000    0.000    0.000    0.000 
#
# Total GULP energy -89189.591574 kJ/mol
# GULP energy per Si atom -5574.349473 kJ/mol
# Density = 1.673415 g / cm^3
# Si number density = 16.772324 Si / 1000 Ang^3
#
#
#
# Elastic Constant Matrix: (Units=GPa)
#
#
# Indices 1 2 3 4 5 6 
#
# 1 71.5058 57.7578 57.7425 -0.9558 7.5226 -15.0849
# 2 57.7578 132.7597 99.5470 -5.4250 16.1970 -7.6649
# 3 57.7425 99.5470 153.3546 21.1655 -7.3439 -12.0919
# 4 -0.9558 -5.4250 21.1655 32.5560 3.8759 8.4829
# 5 7.5226 16.1970 -7.3439 3.8759 24.3918 -7.0358
# 6 -15.0849 -7.6649 -12.0919 8.4829 -7.0358 33.2242
#
#
#
# Elastic Compliance Matrix: (Units=1/GPa)
#
#
# Indices 1 2 3 4 5 6 
#
# 1 0.025017 -0.005139 -0.006236 0.002917 -0.004877 0.006125
# 2 -0.005139 0.051117 -0.044409 0.053722 -0.064070 -0.033988
# 3 -0.006236 -0.044409 0.051585 -0.057980 0.066109 0.034501
# 4 0.002917 0.053722 -0.057980 0.100855 -0.084793 -0.051090
# 5 -0.004877 -0.064070 0.066109 -0.084793 0.134950 0.057293
# 6 0.006125 -0.033988 0.034501 -0.051090 0.057293 0.062772
#
#
# Mechanical properties :
#
#
# Convention : Reuss Voigt Hill
#
# Bulk Modulus (GPa) = 61.92621 87.52385 74.72503
# Shear Modulus (GPa) = 9.20388 27.53926 18.37157
#
# Velocity S-wave (km/s) = 2.34509 4.05649 3.31320
# Velocity P-wave (km/s) = 6.65841 8.61609 7.69972
#
# Compressibility (1/GPa) = 0.01614825
#
# Stress axis : x y z
#
# Youngs Moduli (GPa) = 39.97357 19.56281 19.38552
#
# Poissons Ratio (x) = 0.10054 0.12090
# Poissons Ratio (y) = 0.20544 0.86090
# Poissons Ratio (z) = 0.24929 0.86877
#
# Static dielectric constant tensor:
#      x y z
#    x 1.549070 0.005520 -0.003180 
#    y 0.005520 1.575230 -0.004620 
#    z -0.003180 -0.004620 1.568580 
# 
# From -- ./inp_files/284687.got.cif
#   From: 2010.05.17/outbox.cif.g08.bks.cpg/sg2_143_cif.got.tgz:284687.got - 2010.06.03 11:33:40.
