data_PCOD9082842
_publ_section_title
;
Structure prediction by ZEFSAII (Michael W. Deem and Ramdas Pophale) SiO2 
 PCOD9082842
Probable space group: P -1
;
_chemical_formula_sum "Si O2"
_cell_formula_units_Z 14
_cell_length_a 20.459827
_cell_length_b 17.806687
_cell_length_c 8.654247
_cell_angle_alpha 40.739173
_cell_angle_beta 40.216301
_cell_angle_gamma 20.682636
_cell_volume 705.941908
_symmetry_space_group_name_H-M "P -1"
_symmetry_group_IT_number 2
_symmetry_cell_setting 'triclinic'
loop_
_space_group_symop_operation_xyz
x,y,z
-x,-y,-z
loop_
_atom_site_type_symbol
_atom_site_label
_atom_site_fract_x
_atom_site_fract_y
_atom_site_fract_z
Si Si1 0.754826 0.637399 0.087704
Si Si2 0.093420 0.344931 0.717074
Si Si3 0.276812 0.748734 0.032898
Si Si4 0.953439 0.892638 0.356369
Si Si5 0.352125 0.916205 0.746195
Si Si6 0.671489 0.982860 0.730623
Si Si7 0.221413 0.455795 0.462965
O O1 0.778326 0.550153 0.342316
O O2 0.542446 0.814788 0.133570
O O3 0.755072 0.774235 0.909865
O O4 0.924366 0.451519 0.954566
O O5 0.185929 0.360669 0.620228
O O6 0.000000 0.500000 0.500000
O O7 0.241190 0.110445 0.752156
O O8 0.127686 0.792127 0.279039
O O9 0.500000 0.500000 0.000000
O O10 0.272987 0.863344 0.971229
O O11 0.186311 0.882207 0.826767
O O12 0.810559 0.941489 0.621930
O O13 0.059156 0.706161 0.331384
O O14 0.575083 0.699633 0.721155
O O15 0.344157 0.968981 0.499063
#
# Coordination Sequence:
#
# PCOD9082842 Si02
#       7
#     2   2   2   2   2   2   2
#     4  10  20  34  57  81 122 155 191 224 285 356
#     4  12  21  35  53  85 124 152 183 240 296 340
#     4  10  19  35  58  85 114 149 194 247 287 326
#     4  10  19  33  58  86 112 144 197 243 278 330
#     4  10  20  35  55  85 118 149 191 241 291 335
#     4   9  18  35  54  84 113 155 192 228 278 350
#     4  11  21  35  56  88 115 155 191 228 287 360
#
# _framework density 19.831659999999999
#
# number of rings (size 3 to 8) (size 9 to 14) (size 15 to 20)
#    0.000    1.714    4.286    1.714    0.000    0.000 
#    0.000    0.000    0.000    1.714    0.000    0.000 
#    0.000    0.000    0.000    0.000    0.000    0.000 
#
# Total GULP energy -78087.685876 kJ/mol
# GULP energy per Si atom -5577.691848 kJ/mol
# Density = 1.978652 g / cm^3
# Si number density = 19.831660 Si / 1000 Ang^3
#
#
#
# Elastic Constant Matrix: (Units=GPa)
#
#
# Indices 1 2 3 4 5 6 
#
# 1 63.4978 50.2512 32.5140 15.1252 -31.0767 -2.3246
# 2 50.2512 107.2546 36.5536 3.4564 -14.4624 -10.8812
# 3 32.5140 36.5536 68.0267 11.0005 -30.5001 -3.7559
# 4 15.1252 3.4564 11.0005 37.5429 -6.3901 -7.7693
# 5 -31.0767 -14.4624 -30.5001 -6.3901 41.3362 5.6066
# 6 -2.3246 -10.8812 -3.7559 -7.7693 5.6066 31.5949
#
#
#
# Elastic Compliance Matrix: (Units=1/GPa)
#
#
# Indices 1 2 3 4 5 6 
#
# 1 0.049272 -0.020881 0.003854 -0.016286 0.031794 -0.012754
# 2 -0.020881 0.020725 -0.008630 0.008438 -0.014768 0.009271
# 3 0.003854 -0.008630 0.026968 -0.006282 0.019412 -0.004472
# 4 -0.016286 0.008438 -0.006282 0.034891 -0.010069 0.011328
# 5 0.031794 -0.014768 0.019412 -0.010069 0.057473 -0.013114
# 6 -0.012754 0.009271 -0.004472 0.011328 -0.013114 0.038486
#
#
# Mechanical properties :
#
#
# Convention : Reuss Voigt Hill
#
# Bulk Modulus (GPa) = 21.90521 53.04631 37.47576
# Shear Modulus (GPa) = 16.98675 30.05882 23.52278
#
# Velocity S-wave (km/s) = 2.92986 3.89742 3.44775
# Velocity P-wave (km/s) = 4.74499 6.86000 5.89807
#
# Compressibility (1/GPa) = 0.04565124
#
# Stress axis : x y z
#
# Youngs Moduli (GPa) = 20.29537 48.25008 37.08143
#
# Poissons Ratio (x) = 1.00750 -0.14291
# Poissons Ratio (y) = 0.42378 0.32003
# Poissons Ratio (z) = -0.07822 0.41642
#
# Static dielectric constant tensor:
#      x y z
#    x 1.749420 -0.041210 -0.023980 
#    y -0.041210 1.750510 -0.034100 
#    z -0.023980 -0.034100 1.737620 
# 
# From -- ./inp_files/182069.got.cif
#   From: 2010.05.17/outbox.cif.g08.bks.cpg/sg2_92_cif.got.tgz:182069.got - 2010.06.03 11:33:40.
