data_PCOD9082428
_publ_section_title
;
Structure prediction by ZEFSAII (Michael W. Deem and Ramdas Pophale) SiO2 
 PCOD9082428
Probable space group: P -1
;
_chemical_formula_sum "Si O2"
_cell_formula_units_Z 14
_cell_length_a 16.812910
_cell_length_b 16.203217
_cell_length_c 23.151913
_cell_angle_alpha 26.123083
_cell_angle_beta 21.552702
_cell_angle_gamma 17.241469
_cell_volume 684.092120
_symmetry_space_group_name_H-M "P -1"
_symmetry_group_IT_number 2
_symmetry_cell_setting 'triclinic'
loop_
_space_group_symop_operation_xyz
x,y,z
-x,-y,-z
loop_
_atom_site_type_symbol
_atom_site_label
_atom_site_fract_x
_atom_site_fract_y
_atom_site_fract_z
Si Si1 0.885271 0.006384 0.896349
Si Si2 0.793438 0.394149 0.405213
Si Si3 0.215308 0.201656 0.810510
Si Si4 0.001324 0.382502 0.154236
Si Si5 0.445583 0.449051 0.814853
Si Si6 0.494410 0.355169 0.043897
Si Si7 0.705336 0.190298 0.688569
O O1 0.245342 0.743735 0.795112
O O2 0.676619 0.209578 0.856627
O O3 0.784098 0.869778 0.078136
O O4 0.783144 0.197867 0.900505
O O5 0.500000 0.500000 0.500000
O O6 0.685210 0.648025 0.353641
O O7 0.907714 0.168004 0.516401
O O8 0.033362 0.315781 0.243264
O O9 0.848955 0.418608 0.898723
O O10 0.437064 0.901780 0.819518
O O11 0.633891 0.637535 0.221776
O O12 0.139414 0.101647 0.210554
O O13 0.195894 0.443432 0.969949
O O14 0.634478 0.368235 0.679202
O O15 0.500000 0.500000 0.000000
#
# Coordination Sequence:
#
# PCOD9082428 Si02
#       7
#     2   2   2   2   2   2   2
#     4  10  19  33  55  77 106 137 168 218 286 315
#     4  10  22  37  55  77 115 153 188 218 262 321
#     4  10  20  35  55  84 111 143 176 219 282 316
#     4  11  20  36  50  70 102 144 193 237 261 297
#     4  12  20  34  52  73 108 140 184 227 268 316
#     4  10  19  35  59  90 110 127 177 236 284 322
#     4  11  24  33  48  77 101 147 190 225 263 311
#
# _framework density 20.46508
#
# number of rings (size 3 to 8) (size 9 to 14) (size 15 to 20)
#    0.857    0.571    2.857    3.429    2.000    2.286 
#    0.000    0.000    0.000    0.000    0.000    6.000 
#    0.000    0.000    0.000    0.000    0.000    0.000 
#
# Total GULP energy -78069.077012 kJ/mol
# GULP energy per Si atom -5576.362644 kJ/mol
# Density = 2.041850 g / cm^3
# Si number density = 20.465080 Si / 1000 Ang^3
#
#
#
# Elastic Constant Matrix: (Units=GPa)
#
#
# Indices 1 2 3 4 5 6 
#
# 1 92.2084 35.4043 25.4387 -4.9259 2.5058 18.6046
# 2 35.4043 119.7827 6.5946 -15.8223 -7.0211 -0.9148
# 3 25.4387 6.5946 32.3538 -2.2434 8.7630 5.5927
# 4 -4.9259 -15.8223 -2.2434 16.7639 9.3664 0.3908
# 5 2.5058 -7.0211 8.7630 9.3664 25.4087 1.3672
# 6 18.6046 -0.9148 5.5927 0.3908 1.3672 38.0312
#
#
#
# Elastic Compliance Matrix: (Units=1/GPa)
#
#
# Indices 1 2 3 4 5 6 
#
# 1 0.017156 -0.004589 -0.012168 -0.002085 0.002370 -0.006777
# 2 -0.004589 0.010828 0.001924 0.009558 -0.000858 0.002155
# 3 -0.012168 0.001924 0.046691 0.015763 -0.020166 -0.000304
# 4 -0.002085 0.009558 0.015763 0.090187 -0.035797 -0.000708
# 5 0.002370 -0.000858 -0.020166 -0.035797 0.059035 0.000031
# 6 -0.006777 0.002155 -0.000304 -0.000708 0.000031 0.029712
#
#
# Mechanical properties :
#
#
# Convention : Reuss Voigt Hill
#
# Bulk Modulus (GPa) = 22.21869 42.13557 32.17713
# Shear Modulus (GPa) = 16.76288 27.83456 22.29872
#
# Velocity S-wave (km/s) = 2.86509 3.69195 3.30449
# Velocity P-wave (km/s) = 4.67177 6.22959 5.50605
#
# Compressibility (1/GPa) = 0.04500716
#
# Stress axis : x y z
#
# Youngs Moduli (GPa) = 58.28971 92.35683 21.41732
#
# Poissons Ratio (x) = 0.42383 0.26062
# Poissons Ratio (y) = 0.26749 -0.04120
# Poissons Ratio (z) = 0.70930 -0.17768
#
# Static dielectric constant tensor:
#      x y z
#    x 1.752290 0.064080 0.033580 
#    y 0.064080 1.794260 0.002510 
#    z 0.033580 0.002510 1.754980 
# 
# From -- ./inp_files/371532.got.cif
#   From: 2010.05.17/outbox.cif.g08.bks.cpg/sg2_186_cif.got.tgz:371532.got - 2010.06.03 11:33:40.
