data_PCOD9082989
_publ_section_title
;
Structure prediction by ZEFSAII (Michael W. Deem and Ramdas Pophale) SiO2 
 PCOD9082989
Probable space group: P -1
;
_chemical_formula_sum "Si O2"
_cell_formula_units_Z 16
_cell_length_a 12.333105
_cell_length_b 9.001415
_cell_length_c 11.109572
_cell_angle_alpha 122.986233
_cell_angle_beta 60.819642
_cell_angle_gamma 92.128620
_cell_volume 858.219341
_symmetry_space_group_name_H-M "P -1"
_symmetry_group_IT_number 2
_symmetry_cell_setting 'triclinic'
loop_
_space_group_symop_operation_xyz
x,y,z
-x,-y,-z
loop_
_atom_site_type_symbol
_atom_site_label
_atom_site_fract_x
_atom_site_fract_y
_atom_site_fract_z
Si Si1 0.348327 0.524980 0.103154
Si Si2 0.902835 0.693473 0.180335
Si Si3 0.791222 0.063443 0.688749
Si Si4 0.742844 0.403663 0.539841
Si Si5 0.471509 0.769932 0.512418
Si Si6 0.642209 0.807783 0.214521
Si Si7 0.038600 0.943733 0.647973
Si Si8 0.722535 0.722247 0.511726
O O1 0.276513 0.717437 0.155551
O O2 0.302641 0.550241 0.277278
O O3 0.500000 0.500000 0.000000
O O4 0.331617 0.340631 0.971538
O O5 0.772534 0.755751 0.199579
O O6 0.848766 0.678358 0.336912
O O7 0.967156 0.857626 0.206598
O O8 0.000000 0.500000 0.000000
O O9 0.874393 0.064399 0.523127
O O10 0.696971 0.939242 0.657293
O O11 0.894129 0.958858 0.688690
O O12 0.632636 0.338671 0.500020
O O13 0.878425 0.232461 0.397135
O O14 0.753890 0.584618 0.546303
O O15 0.526803 0.788869 0.356862
O O16 0.600080 0.694103 0.492318
O O17 0.397717 0.974093 0.695637
#
# Coordination Sequence:
#
# PCOD9082989 Si02
#       8
#     2   2   2   2   2   2   2   2
#     4  11  20  34  58  86 112 144 191 234 275 327
#     4  10  19  35  59  83 108 144 193 234 273 330
#     4   9  19  35  54  81 112 145 189 231 274 330
#     4  11  21  37  59  83 116 152 184 229 284 337
#     4  10  19  36  59  83 115 148 189 231 277 336
#     4  10  19  33  60  86 107 146 193 235 273 324
#     4   9  18  35  57  79 107 149 191 228 270 332
#     4  10  22  36  58  84 113 152 186 227 287 338
#
# _framework density 18.643253000000001
#
# number of rings (size 3 to 8) (size 9 to 14) (size 15 to 20)
#    0.000    2.000    2.500    1.875    3.500    1.500 
#    0.000    3.125    2.750    0.000    0.000    0.000 
#    0.000    0.000    0.000    0.000    0.000    0.000 
#
# Total GULP energy -89196.058583 kJ/mol
# GULP energy per Si atom -5574.753661 kJ/mol
# Density = 1.860082 g / cm^3
# Si number density = 18.643253 Si / 1000 Ang^3
#
#
#
# Elastic Constant Matrix: (Units=GPa)
#
#
# Indices 1 2 3 4 5 6 
#
# 1 55.4038 19.8729 12.0667 -0.6719 8.0488 1.2501
# 2 19.8729 77.8252 30.7744 10.4257 6.0170 -14.4310
# 3 12.0667 30.7744 88.1972 28.0955 5.5484 -5.0299
# 4 -0.6719 10.4257 28.0955 20.7954 1.6906 1.8935
# 5 8.0488 6.0170 5.5484 1.6906 27.9454 10.0131
# 6 1.2501 -14.4310 -5.0299 1.8935 10.0131 21.9720
#
#
#
# Elastic Compliance Matrix: (Units=1/GPa)
#
#
# Indices 1 2 3 4 5 6 
#
# 1 0.021844 -0.006176 -0.004331 0.010410 -0.002577 -0.006013
# 2 -0.006176 0.020231 -0.001956 -0.008652 -0.007959 0.017564
# 3 -0.004331 -0.001956 0.023298 -0.031102 -0.004273 0.008923
# 4 0.010410 -0.008652 -0.031102 0.096426 0.008346 -0.025509
# 5 -0.002577 -0.007959 -0.004273 0.008346 0.049016 -0.029116
# 6 -0.006013 0.017564 0.008923 -0.025509 -0.029116 0.074900
#
#
# Mechanical properties :
#
#
# Convention : Reuss Voigt Hill
#
# Bulk Modulus (GPa) = 24.72223 38.53935 31.63079
# Shear Modulus (GPa) = 15.42631 24.72337 20.07484
#
# Velocity S-wave (km/s) = 2.87966 3.64556 3.28501
# Velocity P-wave (km/s) = 4.93417 6.19976 5.60281
#
# Compressibility (1/GPa) = 0.04044942
#
# Stress axis : x y z
#
# Youngs Moduli (GPa) = 45.77920 49.42946 42.92165
#
# Poissons Ratio (x) = 0.30526 0.18587
# Poissons Ratio (y) = 0.28272 0.08394
# Poissons Ratio (z) = 0.19825 0.09666
#
# Static dielectric constant tensor:
#      x y z
#    x 1.682580 0.018770 0.027770 
#    y 0.018770 1.652150 0.029900 
#    z 0.027770 0.029900 1.673470 
# 
# From -- ./inp_files/182382.got.cif
#   From: 2010.05.17/outbox.cif.g08.bks.cpg/sg2_92_cif.got.tgz:182382.got - 2010.06.03 11:33:40.
