data_PCOD9082901
_publ_section_title
;
Structure prediction by ZEFSAII (Michael W. Deem and Ramdas Pophale) SiO2 
 PCOD9082901
Probable space group: P -1
;
_chemical_formula_sum "Si O2"
_cell_formula_units_Z 14
_cell_length_a 9.833569
_cell_length_b 14.705646
_cell_length_c 10.050093
_cell_angle_alpha 115.971592
_cell_angle_beta 109.188107
_cell_angle_gamma 36.336534
_cell_volume 773.381297
_symmetry_space_group_name_H-M "P -1"
_symmetry_group_IT_number 2
_symmetry_cell_setting 'triclinic'
loop_
_space_group_symop_operation_xyz
x,y,z
-x,-y,-z
loop_
_atom_site_type_symbol
_atom_site_label
_atom_site_fract_x
_atom_site_fract_y
_atom_site_fract_z
Si Si1 0.734607 0.812764 0.933908
Si Si2 0.185358 0.623898 0.083053
Si Si3 0.851453 0.479944 0.480038
Si Si4 0.708158 0.851238 0.641214
Si Si5 0.418923 0.195615 0.689020
Si Si6 0.120809 0.490765 0.200891
Si Si7 0.508583 0.627106 0.222342
O O1 0.746810 0.794306 0.766908
O O2 0.787030 0.670683 0.913337
O O3 0.931063 0.773568 0.038370
O O4 0.500000 0.000000 0.000000
O O5 0.300914 0.663306 0.197153
O O6 0.178420 0.542678 0.143055
O O7 0.331761 0.505286 0.927845
O O8 0.661497 0.560998 0.360884
O O9 0.000000 0.500000 0.500000
O O10 0.031657 0.287929 0.419030
O O11 0.766741 0.543651 0.642793
O O12 0.591250 0.840154 0.489491
O O13 0.554984 0.035391 0.709810
O O14 0.156292 0.357274 0.759533
O O15 0.553290 0.227009 0.753069
#
# Coordination Sequence:
#
# PCOD9082901 Si02
#       7
#     2   2   2   2   2   2   2
#     4  12  22  35  59  87 120 150 196 244 281 346
#     4  11  24  37  55  90 122 154 192 231 304 347
#     4  11  17  38  64  84 112 152 199 240 279 343
#     4  10  19  33  58  94 105 147 204 239 281 334
#     4  10  19  36  64  84 113 150 200 246 278 343
#     4  11  21  38  61  86 112 155 205 235 283 344
#     4  11  21  39  60  82 123 159 183 243 295 348
#
# _framework density 18.102323999999999
#
# number of rings (size 3 to 8) (size 9 to 14) (size 15 to 20)
#    0.000    1.143    7.143    1.286    2.000    0.571 
#    0.000    2.143    0.000   16.286    0.000    0.000 
#    0.000    0.000    0.000    0.000    0.000    0.000 
#
# Total GULP energy -78032.485895 kJ/mol
# GULP energy per Si atom -5573.748993 kJ/mol
# Density = 1.806112 g / cm^3
# Si number density = 18.102324 Si / 1000 Ang^3
#
#
#
# Elastic Constant Matrix: (Units=GPa)
#
#
# Indices 1 2 3 4 5 6 
#
# 1 106.8844 51.1380 53.0914 -14.3050 22.3210 4.7456
# 2 51.1380 111.0325 35.2698 8.3691 23.6041 8.2256
# 3 53.0914 35.2698 97.6064 -14.5134 6.4875 -1.8766
# 4 -14.3050 8.3691 -14.5134 35.7789 7.1096 -3.9644
# 5 22.3210 23.6041 6.4875 7.1096 29.9705 1.9390
# 6 4.7456 8.2256 -1.8766 -3.9644 1.9390 18.1659
#
#
#
# Elastic Compliance Matrix: (Units=1/GPa)
#
#
# Indices 1 2 3 4 5 6 
#
# 1 0.017794 -0.004627 -0.006215 0.007619 -0.010041 -0.000461
# 2 -0.004627 0.014232 -0.003330 -0.006213 -0.005156 -0.006385
# 3 -0.006215 -0.003330 0.015471 0.004695 0.002434 0.005495
# 4 0.007619 -0.006213 0.004695 0.037828 -0.011469 0.010787
# 5 -0.010041 -0.005156 0.002434 -0.011469 0.047250 -0.002337
# 6 -0.000461 -0.006385 0.005495 0.010787 -0.002337 0.061231
#
#
# Mechanical properties :
#
#
# Convention : Reuss Voigt Hill
#
# Bulk Modulus (GPa) = 52.21042 66.05798 59.13420
# Shear Modulus (GPa) = 21.87849 28.51800 25.19825
#
# Velocity S-wave (km/s) = 3.48027 3.97341 3.73499
# Velocity P-wave (km/s) = 6.71224 7.59087 7.16503
#
# Compressibility (1/GPa) = 0.01915326
#
# Stress axis : x y z
#
# Youngs Moduli (GPa) = 56.19949 70.26206 64.63548
#
# Poissons Ratio (x) = 0.32507 0.40174
# Poissons Ratio (y) = 0.26001 0.21525
# Poissons Ratio (z) = 0.34930 0.23399
#
# Static dielectric constant tensor:
#      x y z
#    x 1.630000 0.013470 -0.021730 
#    y 0.013470 1.649480 0.012170 
#    z -0.021730 0.012170 1.694020 
# 
# From -- ./inp_files/414528.got.cif
#   From: 2010.05.17/outbox.cif.g08.bks.cpg/sg2_208_cif.got.tgz:414528.got - 2010.06.03 11:33:40.
