data_PCOD9082601
_publ_section_title
;
Structure prediction by ZEFSAII (Michael W. Deem and Ramdas Pophale) SiO2 
 PCOD9082601
Probable space group: P -1
;
_chemical_formula_sum "Si O2"
_cell_formula_units_Z 16
_cell_length_a 10.993587
_cell_length_b 8.357072
_cell_length_c 19.473307
_cell_angle_alpha 103.247776
_cell_angle_beta 43.592415
_cell_angle_gamma 134.134225
_cell_volume 735.892141
_symmetry_space_group_name_H-M "P -1"
_symmetry_group_IT_number 2
_symmetry_cell_setting 'triclinic'
loop_
_space_group_symop_operation_xyz
x,y,z
-x,-y,-z
loop_
_atom_site_type_symbol
_atom_site_label
_atom_site_fract_x
_atom_site_fract_y
_atom_site_fract_z
Si Si1 0.676991 0.710344 0.621459
Si Si2 0.166558 0.438614 0.357004
Si Si3 0.772672 0.129743 0.939423
Si Si4 0.546489 0.090799 0.605777
Si Si5 0.562512 0.720687 0.439574
Si Si6 0.736152 0.282310 0.198011
Si Si7 0.574970 0.168498 0.825336
Si Si8 0.952864 0.738512 0.300927
O O1 0.688560 0.618029 0.678626
O O2 0.562515 0.505826 0.587451
O O3 0.490576 0.735394 0.710113
O O4 0.000000 0.000000 0.500000
O O5 0.300490 0.673918 0.378167
O O6 0.249315 0.562308 0.259887
O O7 0.820520 0.181495 0.481576
O O8 0.960183 0.419781 0.918264
O O9 0.973573 0.207095 0.804890
O O10 0.500000 0.000000 0.000000
O O11 0.629611 0.920988 0.038122
O O12 0.432627 0.110637 0.590016
O O13 0.291211 0.812673 0.723579
O O14 0.857413 0.859051 0.361521
O O15 0.328416 0.555806 0.579877
O O16 0.635715 0.069844 0.166579
O O17 0.788087 0.175798 0.762582
#
# Coordination Sequence:
#
# PCOD9082601 Si02
#       8
#     2   2   2   2   2   2   2   2
#     4  11  19  30  56  91 122 139 178 241 288 339
#     4   9  17  31  52  88 113 152 177 229 291 331
#     4  10  22  39  60  80 111 155 198 232 269 337
#     4   9  17  31  55  83 119 141 184 233 284 342
#     4  10  19  33  56  84 118 150 182 226 293 341
#     4  11  20  36  60  90 109 145 193 238 285 328
#     4  10  20  37  62  79 115 151 197 227 272 339
#     4  10  19  34  58  82 110 154 189 220 282 337
#
# _framework density 21.742317
#
# number of rings (size 3 to 8) (size 9 to 14) (size 15 to 20)
#    0.000    2.000    3.750    1.125    0.000    0.000 
#    0.000    1.250   19.250    1.500    0.000    0.000 
#    0.000    0.000    0.000    0.000    0.000    0.000 
#
# Total GULP energy -89235.216625 kJ/mol
# GULP energy per Si atom -5577.201039 kJ/mol
# Density = 2.169283 g / cm^3
# Si number density = 21.742317 Si / 1000 Ang^3
#
#
#
# Elastic Constant Matrix: (Units=GPa)
#
#
# Indices 1 2 3 4 5 6 
#
# 1 119.1857 0.2125 41.8262 -2.6064 25.8573 -25.0706
# 2 0.2125 23.2105 3.9928 4.1729 1.1979 5.7187
# 3 41.8262 3.9928 123.1928 -6.6952 27.0780 -4.0708
# 4 -2.6064 4.1729 -6.6952 28.8187 4.8444 2.1722
# 5 25.8573 1.1979 27.0780 4.8444 38.7737 -6.1057
# 6 -25.0706 5.7187 -4.0708 2.1722 -6.1057 32.6387
#
#
#
# Elastic Compliance Matrix: (Units=1/GPa)
#
#
# Indices 1 2 3 4 5 6 
#
# 1 0.012183 -0.001611 -0.002653 0.000939 -0.005032 0.008306
# 2 -0.001611 0.046835 -0.001677 -0.006656 0.000185 -0.009175
# 3 -0.002653 -0.001677 0.010603 0.003670 -0.006334 -0.001851
# 4 0.000939 -0.006656 0.003670 0.038074 -0.008006 -0.001687
# 5 -0.005032 0.000185 -0.006334 -0.008006 0.034939 0.002381
# 6 0.008306 -0.009175 -0.001851 -0.001687 0.002381 0.038953
#
#
# Mechanical properties :
#
#
# Convention : Reuss Voigt Hill
#
# Bulk Modulus (GPa) = 17.31881 39.73911 28.52896
# Shear Modulus (GPa) = 23.50570 34.68340 29.09455
#
# Velocity S-wave (km/s) = 3.29158 3.99833 3.66205
# Velocity P-wave (km/s) = 4.73590 6.29544 5.57052
#
# Compressibility (1/GPa) = 0.05774068
#
# Stress axis : x y z
#
# Youngs Moduli (GPa) = 82.07872 21.35163 94.31429
#
# Poissons Ratio (x) = 0.03439 0.25020
# Poissons Ratio (y) = 0.13221 0.15814
# Poissons Ratio (z) = 0.21774 0.03580
#
# Static dielectric constant tensor:
#      x y z
#    x 1.804520 0.048960 0.026700 
#    y 0.048960 1.858770 0.037030 
#    z 0.026700 0.037030 1.762160 
# 
# From -- ./inp_files/182715.got.cif
#   From: 2010.05.17/outbox.cif.g08.bks.cpg/sg2_92_cif.got.tgz:182715.got - 2010.06.03 11:33:40.
