data_PCOD9082348
_publ_section_title
;
Structure prediction by ZEFSAII (Michael W. Deem and Ramdas Pophale) SiO2 
 PCOD9082348
Probable space group: P -1
;
_chemical_formula_sum "Si O2"
_cell_formula_units_Z 16
_cell_length_a 13.093599
_cell_length_b 5.364241
_cell_length_c 12.148503
_cell_angle_alpha 74.895214
_cell_angle_beta 49.390858
_cell_angle_gamma 91.520028
_cell_volume 602.590348
_symmetry_space_group_name_H-M "P -1"
_symmetry_group_IT_number 2
_symmetry_cell_setting 'triclinic'
loop_
_space_group_symop_operation_xyz
x,y,z
-x,-y,-z
loop_
_atom_site_type_symbol
_atom_site_label
_atom_site_fract_x
_atom_site_fract_y
_atom_site_fract_z
Si Si1 0.356143 0.525908 0.548997
Si Si2 0.614628 0.169654 0.132949
Si Si3 0.214682 0.081308 0.281084
Si Si4 0.208564 0.610336 0.211686
Si Si5 0.754208 0.991289 0.473759
Si Si6 0.013024 0.756837 0.881375
Si Si7 0.516061 0.684978 0.096812
Si Si8 0.786496 0.844889 0.144944
O O1 0.500000 0.500000 0.500000
O O2 0.352269 0.822833 0.485988
O O3 0.264375 0.444852 0.732553
O O4 0.297503 0.294083 0.523486
O O5 0.543729 0.415291 0.161821
O O6 0.530092 0.922378 0.146052
O O7 0.671556 0.011511 0.205159
O O8 0.755289 0.297562 0.948350
O O9 0.131050 0.302550 0.303910
O O10 0.143364 0.804767 0.303900
O O11 0.236564 0.052009 0.397980
O O12 0.359336 0.199556 0.093096
O O13 0.362147 0.633977 0.158558
O O14 0.898395 0.184006 0.299410
O O15 0.103857 0.996058 0.863631
O O16 0.000000 0.500000 0.000000
O O17 0.858431 0.806308 0.983650
#
# Coordination Sequence:
#
# PCOD9082348 Si02
#       8
#     2   2   2   2   2   2   2   2
#     4  11  24  39  56  89 128 152 189 245 306 369
#     4  10  20  32  56  85 115 147 194 244 291 342
#     4  10  19  33  54  80 112 146 193 240 277 342
#     4  10  19  35  54  83 120 161 195 231 279 360
#     4  11  23  40  62  86 114 163 202 239 304 355
#     4  10  21  43  66  82 114 154 216 263 287 346
#     4  10  20  34  54  84 120 159 197 231 279 360
#     4  10  23  39  62  91 115 157 204 256 300 345
#
# _framework density 26.552033999999999
#
# number of rings (size 3 to 8) (size 9 to 14) (size 15 to 20)
#    0.000    1.750    1.250    4.875    1.750    4.000 
#    0.000    0.000    0.000    6.000    0.000    0.000 
#    0.000    0.000    0.000    0.000    0.000    0.000 
#
# Total GULP energy -89415.706078 kJ/mol
# GULP energy per Si atom -5588.481630 kJ/mol
# Density = 2.649160 g / cm^3
# Si number density = 26.552034 Si / 1000 Ang^3
#
#
#
# Elastic Constant Matrix: (Units=GPa)
#
#
# Indices 1 2 3 4 5 6 
#
# 1 50.4631 14.9060 16.5922 -3.6444 8.1983 -6.7556
# 2 14.9060 171.5469 6.2597 3.4591 3.2874 -20.9453
# 3 16.5922 6.2597 128.0968 21.8952 -0.9451 -6.3949
# 4 -3.6444 3.4591 21.8952 19.6802 -5.2948 12.4854
# 5 8.1983 3.2874 -0.9451 -5.2948 25.1819 -3.3570
# 6 -6.7556 -20.9453 -6.3949 12.4854 -3.3570 32.9494
#
#
#
# Elastic Compliance Matrix: (Units=1/GPa)
#
#
# Indices 1 2 3 4 5 6 
#
# 1 0.023366 -0.002131 -0.004635 0.009311 -0.005756 -0.001578
# 2 -0.002131 0.007074 0.001796 -0.008734 -0.000983 0.007618
# 3 -0.004635 0.001796 0.012786 -0.022928 -0.001573 0.011201
# 4 0.009311 -0.008734 -0.022928 0.115513 0.014824 -0.050353
# 5 -0.005756 -0.000983 -0.001573 0.014824 0.044343 -0.003209
# 6 -0.001578 0.007618 0.011201 -0.050353 -0.003209 0.055795
#
#
# Mechanical properties :
#
#
# Convention : Reuss Voigt Hill
#
# Bulk Modulus (GPa) = 30.04333 47.29141 38.66737
# Shear Modulus (GPa) = 17.86264 36.38557 27.12411
#
# Velocity S-wave (km/s) = 2.59654 3.70584 3.19963
# Velocity P-wave (km/s) = 4.50875 6.01336 5.31457
#
# Compressibility (1/GPa) = 0.03328526
#
# Stress axis : x y z
#
# Youngs Moduli (GPa) = 42.79666 141.36256 78.21183
#
# Poissons Ratio (x) = 0.30130 0.36254
# Poissons Ratio (y) = 0.09122 -0.14049
# Poissons Ratio (z) = 0.19838 -0.25392
#
# Static dielectric constant tensor:
#      x y z
#    x 2.150080 -0.055390 -0.151790 
#    y -0.055390 2.134560 0.048450 
#    z -0.151790 0.048450 2.376060 
# 
# From -- ./inp_files/109025.got.cif
#   From: 2010.05.17/outbox.cif.g08.bks.cpg/sg2_55_cif.got.tgz:109025.got - 2010.06.03 11:33:40.
