data_PCOD9082648
_publ_section_title
;
Structure prediction by ZEFSAII (Michael W. Deem and Ramdas Pophale) SiO2 
 PCOD9082648
Probable space group: P -1
;
_chemical_formula_sum "Si O2"
_cell_formula_units_Z 14
_cell_length_a 14.522004
_cell_length_b 8.991816
_cell_length_c 9.165202
_cell_angle_alpha 92.886392
_cell_angle_beta 37.117656
_cell_angle_gamma 115.901069
_cell_volume 543.042127
_symmetry_space_group_name_H-M "P -1"
_symmetry_group_IT_number 2
_symmetry_cell_setting 'triclinic'
loop_
_space_group_symop_operation_xyz
x,y,z
-x,-y,-z
loop_
_atom_site_type_symbol
_atom_site_label
_atom_site_fract_x
_atom_site_fract_y
_atom_site_fract_z
Si Si1 0.785467 0.332769 0.629047
Si Si2 0.791618 0.909517 0.622309
Si Si3 0.524284 0.964984 0.769212
Si Si4 0.862708 0.636565 0.751814
Si Si5 0.439876 0.325359 0.810873
Si Si6 0.848921 0.737572 0.277021
Si Si7 0.287498 0.060415 0.722178
O O1 0.800754 0.510227 0.676458
O O2 0.005628 0.402375 0.329943
O O3 0.637006 0.190629 0.678888
O O4 0.688811 0.185438 0.886775
O O5 0.661892 0.934424 0.683014
O O6 0.642090 0.754323 0.926821
O O7 0.865825 0.829943 0.416267
O O8 0.980436 0.126410 0.452744
O O9 0.540852 0.916165 0.583403
O O10 0.671499 0.584718 0.073087
O O11 0.674996 0.504396 0.495667
O O12 0.353902 0.143121 0.804836
O O13 0.772579 0.817379 0.266308
O O14 0.077090 0.835023 0.958692
#
# Coordination Sequence:
#
# PCOD9082648 Si02
#       7
#     2   2   2   2   2   2   2
#     4   9  19  35  60  82 108 162 201 242 269 327
#     4  10  20  36  57  88 124 148 186 245 294 354
#     4   9  19  40  60  85 115 149 205 242 282 341
#     4  10  19  33  56  88 116 145 202 237 281 344
#     4  12  22  36  60  94 121 151 182 242 313 348
#     4  10  21  35  53  86 122 156 183 227 301 350
#     4  10  21  37  56  87 123 148 189 247 293 347
#
# _framework density 25.780688999999999
#
# number of rings (size 3 to 8) (size 9 to 14) (size 15 to 20)
#    0.000    2.000    1.429    3.000    2.000    0.000 
#    2.571    0.000    0.000    8.571    0.000    0.000 
#    0.000    0.000    0.000    0.000    0.000    0.000 
#
# Total GULP energy -78365.424747 kJ/mol
# GULP energy per Si atom -5597.530339 kJ/mol
# Density = 2.572201 g / cm^3
# Si number density = 25.780689 Si / 1000 Ang^3
#
#
#
# Elastic Constant Matrix: (Units=GPa)
#
#
# Indices 1 2 3 4 5 6 
#
# 1 45.7718 11.9689 10.8457 -3.6267 4.4934 11.7311
# 2 11.9689 85.5425 7.3793 -6.2378 -2.5381 6.4276
# 3 10.8457 7.3793 78.0057 -11.7069 -2.8256 0.2914
# 4 -3.6267 -6.2378 -11.7069 61.8785 3.5664 -3.6565
# 5 4.4934 -2.5381 -2.8256 3.5664 32.7757 6.8934
# 6 11.7311 6.4276 0.2914 -3.6565 6.8934 28.9790
#
#
#
# Elastic Compliance Matrix: (Units=1/GPa)
#
#
# Indices 1 2 3 4 5 6 
#
# 1 0.025969 -0.002689 -0.003370 0.000182 -0.002111 -0.009357
# 2 -0.002689 0.012368 -0.000616 0.000766 0.001596 -0.001931
# 3 -0.003370 -0.000616 0.013733 0.002362 0.001044 0.001413
# 4 0.000182 0.000766 0.002362 0.016957 -0.002106 0.002373
# 5 -0.002111 0.001596 0.001044 -0.002106 0.032838 -0.007587
# 6 -0.009357 -0.001931 0.001413 0.002373 -0.007587 0.040814
#
#
# Mechanical properties :
#
#
# Convention : Reuss Voigt Hill
#
# Bulk Modulus (GPa) = 25.82688 29.96754 27.89721
# Shear Modulus (GPa) = 29.59671 36.66839 33.13255
#
# Velocity S-wave (km/s) = 3.39192 3.77546 3.58881
# Velocity P-wave (km/s) = 5.03784 5.53667 5.29313
#
# Compressibility (1/GPa) = 0.03871936
#
# Stress axis : x y z
#
# Youngs Moduli (GPa) = 38.50721 80.85471 72.81470
#
# Poissons Ratio (x) = 0.21742 0.24542
# Poissons Ratio (y) = 0.10355 0.04486
# Poissons Ratio (z) = 0.12979 0.04981
#
# Static dielectric constant tensor:
#      x y z
#    x 2.162510 -0.055050 -0.031740 
#    y -0.055050 2.003240 -0.017320 
#    z -0.031740 -0.017320 1.988570 
# 
# From -- ./inp_files/333320.got.cif
#   From: 2010.05.17/outbox.cif.g08.bks.cpg/sg2_167_cif.got.tgz:333320.got - 2010.06.03 11:33:40.
