data_PCOD9082822
_publ_section_title
;
Structure prediction by ZEFSAII (Michael W. Deem and Ramdas Pophale) SiO2 
 PCOD9082822
Probable space group: P -1
;
_chemical_formula_sum "Si O2"
_cell_formula_units_Z 12
_cell_length_a 13.575232
_cell_length_b 20.575802
_cell_length_c 25.496048
_cell_angle_alpha 12.103486
_cell_angle_beta 22.146816
_cell_angle_gamma 23.854127
_cell_volume 559.306441
_symmetry_space_group_name_H-M "P -1"
_symmetry_group_IT_number 2
_symmetry_cell_setting 'triclinic'
loop_
_space_group_symop_operation_xyz
x,y,z
-x,-y,-z
loop_
_atom_site_type_symbol
_atom_site_label
_atom_site_fract_x
_atom_site_fract_y
_atom_site_fract_z
Si Si1 0.362432 0.246321 0.735358
Si Si2 0.856449 0.168315 0.116313
Si Si3 0.187212 0.791472 0.611747
Si Si4 0.026466 0.346376 0.447684
Si Si5 0.501642 0.259131 0.124318
Si Si6 0.130214 0.129000 0.188117
O O1 0.500000 0.500000 0.500000
O O2 0.235017 0.403231 0.621664
O O3 0.595950 0.969198 0.838379
O O4 0.113403 0.173489 0.949823
O O5 0.611799 0.138773 0.221506
O O6 0.916291 0.887075 0.348570
O O7 0.763756 0.499755 0.928578
O O8 0.080952 0.812471 0.707669
O O9 0.448978 0.963333 0.349431
O O10 0.184111 0.425246 0.892212
O O11 0.000000 0.000000 0.500000
O O12 0.277025 0.535537 0.167917
O O13 0.971048 0.129660 0.596053
#
# Coordination Sequence:
#
# PCOD9082822 Si02
#       6
#     2   2   2   2   2   2
#     4   9  19  34  53  82 113 138 178 224 263 318
#     4  10  19  33  58  83 109 142 175 223 275 312
#     4  11  23  38  57  78 108 147 179 220 274 319
#     4  10  20  35  59  84 108 142 179 221 271 316
#     4  10  20  35  55  84 110 136 184 226 259 320
#     4  10  22  37  54  83 112 138 182 225 262 321
#
# _framework density 21.455145999999999
#
# number of rings (size 3 to 8) (size 9 to 14) (size 15 to 20)
#    0.000    2.000    0.000    5.500    0.000    6.667 
#    0.000    3.333    0.000    6.000    0.000    0.000 
#    0.000    0.000    0.000    0.000    0.000    0.000 
#
# Total GULP energy -66923.869557 kJ/mol
# GULP energy per Si atom -5576.989130 kJ/mol
# Density = 2.140631 g / cm^3
# Si number density = 21.455146 Si / 1000 Ang^3
#
#
#
# Elastic Constant Matrix: (Units=GPa)
#
#
# Indices 1 2 3 4 5 6 
#
# 1 77.3940 8.0986 48.0857 0.2899 22.6136 -25.4760
# 2 8.0986 63.3720 24.1695 6.7065 4.4653 -20.2885
# 3 48.0857 24.1695 139.5760 4.1027 3.7064 -20.1891
# 4 0.2899 6.7065 4.1027 20.5219 -15.0023 4.6201
# 5 22.6136 4.4653 3.7064 -15.0023 44.1750 -13.5054
# 6 -25.4760 -20.2885 -20.1891 4.6201 -13.5054 28.7784
#
#
#
# Elastic Compliance Matrix: (Units=1/GPa)
#
#
# Indices 1 2 3 4 5 6 
#
# 1 0.027626 0.008985 -0.007003 -0.016676 -0.013305 0.022311
# 2 0.008985 0.025826 -0.003451 -0.017261 -0.005461 0.023949
# 3 -0.007003 -0.003451 0.009988 0.001986 0.003708 -0.000204
# 4 -0.016676 -0.017261 0.001986 0.082000 0.030508 -0.024385
# 5 -0.013305 -0.005461 0.003708 0.030508 0.040360 0.001016
# 6 0.022311 0.023949 -0.000204 -0.024385 0.001016 0.075631
#
#
# Mechanical properties :
#
#
# Convention : Reuss Voigt Hill
#
# Bulk Modulus (GPa) = 16.52803 49.00550 32.76677
# Shear Modulus (GPa) = 17.57244 32.02762 24.80003
#
# Velocity S-wave (km/s) = 2.86498 3.86783 3.40354
# Velocity P-wave (km/s) = 4.32023 6.54502 5.54534
#
# Compressibility (1/GPa) = 0.06050326
#
# Stress axis : x y z
#
# Youngs Moduli (GPa) = 36.19832 38.71992 100.11647
#
# Poissons Ratio (x) = -0.34791 0.70108
# Poissons Ratio (y) = -0.32526 0.34553
# Poissons Ratio (z) = 0.25348 0.13364
#
# Static dielectric constant tensor:
#      x y z
#    x 1.799810 0.000020 -0.009730 
#    y 0.000020 1.849310 -0.038410 
#    z -0.009730 -0.038410 1.828710 
# 
# From -- ./inp_files/270620.got.cif
#   From: 2010.05.17/outbox.cif.g08.bks.cpg/sg2_136_cif.got.tgz:270620.got - 2010.06.03 11:33:40.
