data_PCOD9082902
_publ_section_title
;
Structure prediction by ZEFSAII (Michael W. Deem and Ramdas Pophale) SiO2 
 PCOD9082902
Probable space group: P -1
;
_chemical_formula_sum "Si O2"
_cell_formula_units_Z 14
_cell_length_a 10.650566
_cell_length_b 21.687442
_cell_length_c 16.789504
_cell_angle_alpha 25.766450
_cell_angle_beta 144.122305
_cell_angle_gamma 161.717027
_cell_volume 499.451936
_symmetry_space_group_name_H-M "P -1"
_symmetry_group_IT_number 2
_symmetry_cell_setting 'triclinic'
loop_
_space_group_symop_operation_xyz
x,y,z
-x,-y,-z
loop_
_atom_site_type_symbol
_atom_site_label
_atom_site_fract_x
_atom_site_fract_y
_atom_site_fract_z
Si Si1 0.400658 0.827676 0.270253
Si Si2 0.260846 0.712532 0.169110
Si Si3 0.735069 0.044876 0.808253
Si Si4 0.217344 0.128052 0.209342
Si Si5 0.972106 0.708631 0.502693
Si Si6 0.977355 0.925439 0.486734
Si Si7 0.414605 0.594769 0.093226
O O1 0.079742 0.636219 0.253500
O O2 0.353463 0.870276 0.281815
O O3 0.530577 0.739752 0.447420
O O4 0.727188 0.131067 0.049670
O O5 0.750766 0.932801 0.176463
O O6 0.053280 0.472973 0.287976
O O7 0.862473 0.170210 0.641425
O O8 0.126841 0.197256 0.879587
O O9 0.384339 0.722905 0.981187
O O10 0.190907 0.942224 0.402048
O O11 0.270708 0.165406 0.289536
O O12 0.510000 0.345003 0.033524
O O13 0.500000 0.500000 0.500000
O O14 0.916439 0.721225 0.692648
O O15 0.000000 0.000000 0.500000
#
# Coordination Sequence:
#
# PCOD9082902 Si02
#       7
#     2   2   2   2   2   2   2
#     4  10  20  34  53  85 118 142 187 234 285 339
#     4   9  17  31  52  84 120 141 171 233 302 335
#     4  10  19  33  58  94 114 138 184 236 298 339
#     4   9  18  35  57  82 107 146 191 231 282 337
#     4   9  17  29  53  84 118 148 171 220 292 351
#     4  11  25  41  56  78 113 162 198 226 275 340
#     4  10  20  35  60  85 115 145 183 238 286 343
#
# _framework density 28.030723999999999
#
# number of rings (size 3 to 8) (size 9 to 14) (size 15 to 20)
#    0.000    2.286    1.429    2.571    4.000    2.857 
#    0.000    0.714    0.000    1.714    0.000    0.000 
#    0.000    0.000    0.000    0.000    0.000    0.000 
#
# Total GULP energy -78194.129215 kJ/mol
# GULP energy per Si atom -5585.294944 kJ/mol
# Density = 2.796692 g / cm^3
# Si number density = 28.030724 Si / 1000 Ang^3
#
#
#
# Elastic Constant Matrix: (Units=GPa)
#
#
# Indices 1 2 3 4 5 6 
#
# 1 153.7819 19.7312 59.7690 3.9554 -3.4458 -18.8252
# 2 19.7312 106.1006 26.5915 3.1707 -15.1838 -4.6402
# 3 59.7690 26.5915 170.7747 4.4182 1.5673 -17.7551
# 4 3.9554 3.1707 4.4182 24.7879 -19.7882 -6.3705
# 5 -3.4458 -15.1838 1.5673 -19.7882 75.9989 15.3187
# 6 -18.8252 -4.6402 -17.7551 -6.3705 15.3187 30.9847
#
#
#
# Elastic Compliance Matrix: (Units=1/GPa)
#
#
# Indices 1 2 3 4 5 6 
#
# 1 0.007922 -0.000821 -0.002257 -0.000273 -0.000559 0.003617
# 2 -0.000821 0.010221 -0.001431 0.000788 0.002404 -0.000815
# 3 -0.002257 -0.001431 0.007226 -0.001113 -0.001440 0.003038
# 4 -0.000273 0.000788 -0.001113 0.051708 0.012914 0.003561
# 5 -0.000559 0.002404 -0.001440 0.012914 0.018473 -0.007282
# 6 0.003617 -0.000815 0.003038 0.003561 -0.007282 0.040423
#
#
# Mechanical properties :
#
#
# Convention : Reuss Voigt Hill
#
# Bulk Modulus (GPa) = 61.15628 71.42673 66.29150
# Shear Modulus (GPa) = 33.23527 47.99201 40.61364
#
# Velocity S-wave (km/s) = 3.44710 4.14227 3.81057
# Velocity P-wave (km/s) = 6.14070 6.95807 6.56213
#
# Compressibility (1/GPa) = 0.01635155
#
# Stress axis : x y z
#
# Youngs Moduli (GPa) = 126.22327 97.83499 138.38506
#
# Poissons Ratio (x) = 0.08035 0.31228
# Poissons Ratio (y) = 0.10367 0.19807
# Poissons Ratio (z) = 0.28483 0.14003
#
# Static dielectric constant tensor:
#      x y z
#    x 2.272130 0.097700 -0.033310 
#    y 0.097700 2.318380 -0.027700 
#    z -0.033310 -0.027700 2.133220 
# 
# From -- ./inp_files/354185.got.cif
#   From: 2010.05.17/outbox.cif.g08.bks.cpg/sg2_178_cif.got.tgz:354185.got - 2010.06.03 11:33:40.
