data_PCOD9082731
_publ_section_title
;
Structure prediction by ZEFSAII (Michael W. Deem and Ramdas Pophale) SiO2 
 PCOD9082731
Probable space group: P -1
;
_chemical_formula_sum "Si O2"
_cell_formula_units_Z 16
_cell_length_a 10.364492
_cell_length_b 21.096598
_cell_length_c 15.610318
_cell_angle_alpha 34.779358
_cell_angle_beta 146.245325
_cell_angle_gamma 161.056943
_cell_volume 603.999650
_symmetry_space_group_name_H-M "P -1"
_symmetry_group_IT_number 2
_symmetry_cell_setting 'triclinic'
loop_
_space_group_symop_operation_xyz
x,y,z
-x,-y,-z
loop_
_atom_site_type_symbol
_atom_site_label
_atom_site_fract_x
_atom_site_fract_y
_atom_site_fract_z
Si Si1 0.573909 0.098393 0.518229
Si Si2 0.727954 0.539192 0.767216
Si Si3 0.389042 0.271697 0.218817
Si Si4 0.446960 0.747085 0.113927
Si Si5 0.629114 0.990686 0.823135
Si Si6 0.317782 0.076350 0.660522
Si Si7 0.380710 0.285124 0.570956
Si Si8 0.447573 0.514199 0.079157
O O1 0.659288 0.264684 0.370582
O O2 0.500000 0.000000 0.500000
O O3 0.822038 0.121012 0.698299
O O4 0.106351 0.918704 0.495536
O O5 0.730304 0.421379 0.855930
O O6 0.540949 0.555069 0.580337
O O7 0.198419 0.763092 0.803156
O O8 0.511451 0.550893 0.174579
O O9 0.350773 0.309637 0.062081
O O10 0.945057 0.072262 0.238562
O O11 0.562203 0.440432 0.185773
O O12 0.583138 0.744691 0.280139
O O13 0.050781 0.666719 0.008211
O O14 0.770985 0.949301 0.012531
O O15 0.544500 0.064507 0.753815
O O16 0.583531 0.283866 0.614617
O O17 0.000000 0.000000 0.500000
#
# Coordination Sequence:
#
# PCOD9082731 Si02
#       8
#     2   2   2   2   2   2   2   2
#     4  10  22  36  60  81 111 145 192 228 270 333
#     4  10  19  35  57  78 113 150 191 221 269 339
#     4  10  19  33  57  86 109 139 191 234 271 313
#     4  11  22  35  55  88 117 141 187 231 286 330
#     4  10  19  34  60  86 101 149 193 227 270 321
#     4  11  16  37  61  81 105 141 197 233 260 335
#     4  10  22  36  59  84 110 149 182 235 285 324
#     4  10  20  34  59  83 111 147 187 231 270 332
#
# _framework density 26.490079999999999
#
# number of rings (size 3 to 8) (size 9 to 14) (size 15 to 20)
#    0.000    1.750    6.250    1.875    5.250    0.500 
#    0.000    0.625    0.000    6.750    0.000    0.000 
#    0.000    0.000    0.000    0.000    0.000    0.000 
#
# Total GULP energy -89468.414875 kJ/mol
# GULP energy per Si atom -5591.775930 kJ/mol
# Density = 2.642979 g / cm^3
# Si number density = 26.490080 Si / 1000 Ang^3
#
#
#
# Elastic Constant Matrix: (Units=GPa)
#
#
# Indices 1 2 3 4 5 6 
#
# 1 121.4951 21.9816 64.8453 -18.3191 -9.1753 -42.3216
# 2 21.9816 47.3025 30.0476 -1.0514 11.8937 -4.4680
# 3 64.8453 30.0476 209.5132 -33.8427 -10.1872 -28.1977
# 4 -18.3191 -1.0514 -33.8427 45.3061 -5.4090 8.8228
# 5 -9.1753 11.8937 -10.1872 -5.4090 63.6066 -9.0692
# 6 -42.3216 -4.4680 -28.1977 8.8228 -9.0692 47.9123
#
#
#
# Elastic Compliance Matrix: (Units=1/GPa)
#
#
# Indices 1 2 3 4 5 6 
#
# 1 0.015377 -0.006325 -0.001385 0.003213 0.005246 0.012579
# 2 -0.006325 0.027979 -0.004012 -0.004697 -0.008041 -0.005996
# 3 -0.001385 -0.004012 0.006873 0.004352 0.002319 0.002085
# 4 0.003213 -0.004697 0.004352 0.026878 0.004446 0.000853
# 5 0.005246 -0.008041 0.002319 0.004446 0.019900 0.008196
# 6 0.012579 -0.005996 0.002085 0.000853 0.008196 0.034045
#
#
# Mechanical properties :
#
#
# Convention : Reuss Voigt Hill
#
# Bulk Modulus (GPa) = 37.33391 68.00664 52.67028
# Shear Modulus (GPa) = 30.59528 48.79410 39.69469
#
# Velocity S-wave (km/s) = 3.40217 4.29648 3.87521
# Velocity P-wave (km/s) = 5.43665 7.09516 6.32054
#
# Compressibility (1/GPa) = 0.02678530
#
# Stress axis : x y z
#
# Youngs Moduli (GPa) = 65.03358 35.74076 145.49013
#
# Poissons Ratio (x) = 0.22607 0.20151
# Poissons Ratio (y) = 0.41135 0.58367
# Poissons Ratio (z) = 0.09008 0.14338
#
# Static dielectric constant tensor:
#      x y z
#    x 2.110920 0.055220 0.015820 
#    y 0.055220 2.167070 -0.006070 
#    z 0.015820 -0.006070 2.161900 
# 
# From -- ./inp_files/570850.got.cif
#   From: 2010.05.17/outbox.cif.g08.bks.cpg/sg2_286_cif.got.tgz:570850.got - 2010.06.03 11:33:40.
