data_PCOD9082120
_publ_section_title
;
Structure prediction by ZEFSAII (Michael W. Deem and Ramdas Pophale) SiO2 
 PCOD9082120
Probable space group: P -1
;
_chemical_formula_sum "Si O2"
_cell_formula_units_Z 16
_cell_length_a 9.900112
_cell_length_b 11.829733
_cell_length_c 16.789417
_cell_angle_alpha 32.584651
_cell_angle_beta 86.684208
_cell_angle_gamma 64.910775
_cell_volume 757.001391
_symmetry_space_group_name_H-M "P -1"
_symmetry_group_IT_number 2
_symmetry_cell_setting 'triclinic'
loop_
_space_group_symop_operation_xyz
x,y,z
-x,-y,-z
loop_
_atom_site_type_symbol
_atom_site_label
_atom_site_fract_x
_atom_site_fract_y
_atom_site_fract_z
Si Si1 0.898387 0.295615 0.780530
Si Si2 0.584206 0.712825 0.430737
Si Si3 0.959999 0.228287 0.650848
Si Si4 0.004538 0.293842 0.235224
Si Si5 0.227896 0.820867 0.749239
Si Si6 0.425208 0.294817 0.179001
Si Si7 0.727586 0.761781 0.643349
Si Si8 0.822671 0.911044 0.825715
O O1 0.694243 0.467293 0.643212
O O2 0.021792 0.226359 0.739400
O O3 0.842012 0.538492 0.699536
O O4 0.000000 0.000000 0.000000
O O5 0.755621 0.559601 0.453919
O O6 0.511365 0.003589 0.302476
O O7 0.401724 0.815668 0.334855
O O8 0.917088 0.025594 0.780674
O O9 0.094178 0.103098 0.644891
O O10 0.163084 0.150915 0.382038
O O11 0.107827 0.191108 0.207061
O O12 0.888705 0.202185 0.292148
O O13 0.872361 0.645693 0.029913
O O14 0.400504 0.777379 0.740551
O O15 0.329521 0.547455 0.967994
O O16 0.265201 0.397173 0.184842
O O17 0.500000 0.000000 0.500000
#
# Coordination Sequence:
#
# PCOD9082120 Si02
#       8
#     2   2   2   2   2   2   2   2
#     4  10  20  32  49  79 108 146 179 217 268 322
#     4  10  19  32  51  81 110 137 178 230 272 320
#     4   9  20  32  51  82 109 140 172 233 274 324
#     4  10  18  30  57  81 105 143 177 234 267 315
#     4  10  21  36  57  83 111 140 183 223 291 324
#     4  11  20  36  57  83 110 144 178 235 273 323
#     4  12  20  36  57  82 109 143 188 223 264 321
#     4  10  15  31  52  81 111 127 181 231 284 308
#
# _framework density 21.136026000000001
#
# number of rings (size 3 to 8) (size 9 to 14) (size 15 to 20)
#    0.750    1.000    3.750    3.375    0.000    0.500 
#    0.000    0.625    0.000    0.000    3.250    3.500 
#    0.000    0.000    0.000    0.000    0.000    0.000 
#
# Total GULP energy -89138.198581 kJ/mol
# GULP energy per Si atom -5571.137411 kJ/mol
# Density = 2.108792 g / cm^3
# Si number density = 21.136026 Si / 1000 Ang^3
#
#
#
# Elastic Constant Matrix: (Units=GPa)
#
#
# Indices 1 2 3 4 5 6 
#
# 1 117.0550 33.3303 17.2695 9.6154 16.2988 9.1140
# 2 33.3303 92.9686 13.7685 -15.1794 4.4119 20.2023
# 3 17.2695 13.7685 85.5397 -10.5138 20.3953 2.4745
# 4 9.6154 -15.1794 -10.5138 13.1386 0.0357 1.3927
# 5 16.2988 4.4119 20.3953 0.0357 26.9354 5.6746
# 6 9.1140 20.2023 2.4745 1.3927 5.6746 24.2315
#
#
#
# Elastic Compliance Matrix: (Units=1/GPa)
#
#
# Indices 1 2 3 4 5 6 
#
# 1 0.014081 -0.009546 -0.003090 -0.024400 -0.005794 0.005737
# 2 -0.009546 0.024445 0.002418 0.039300 0.004160 -0.020269
# 3 -0.003090 0.002418 0.016913 0.018730 -0.011136 -0.001049
# 4 -0.024400 0.039300 0.018730 0.158056 0.001285 -0.034886
# 5 -0.005794 0.004160 -0.011136 0.001285 0.050942 -0.012155
# 6 0.005737 -0.020269 -0.001049 -0.034886 -0.012155 0.060968
#
#
# Mechanical properties :
#
#
# Convention : Reuss Voigt Hill
#
# Bulk Modulus (GPa) = 28.57014 47.14445 37.85729
# Shear Modulus (GPa) = 13.98566 28.27408 21.12987
#
# Velocity S-wave (km/s) = 2.57514 3.66145 3.16525
# Velocity P-wave (km/s) = 4.73164 6.34261 5.59540
#
# Compressibility (1/GPa) = 0.03500158
#
# Stress axis : x y z
#
# Youngs Moduli (GPa) = 71.01561 40.90882 59.12643
#
# Poissons Ratio (x) = 0.39053 0.18269
# Poissons Ratio (y) = 0.67794 -0.14294
# Poissons Ratio (z) = 0.21943 -0.09890
#
# Static dielectric constant tensor:
#      x y z
#    x 1.797420 0.027760 0.003440 
#    y 0.027760 1.803400 0.012470 
#    z 0.003440 0.012470 1.831570 
# 
# From -- ./inp_files/567878.got.cif
#   From: 2010.05.17/outbox.cif.g08.bks.cpg/sg2_284_cif.got.tgz:567878.got - 2010.06.03 11:33:40.
