data_PCOD9082019
_publ_section_title
;
Structure prediction by ZEFSAII (Michael W. Deem and Ramdas Pophale) SiO2 
 PCOD9082019
Probable space group: P -1
;
_chemical_formula_sum "Si O2"
_cell_formula_units_Z 14
_cell_length_a 14.693841
_cell_length_b 12.037105
_cell_length_c 9.674595
_cell_angle_alpha 126.267550
_cell_angle_beta 25.238371
_cell_angle_gamma 122.209945
_cell_volume 588.249270
_symmetry_space_group_name_H-M "P -1"
_symmetry_group_IT_number 2
_symmetry_cell_setting 'triclinic'
loop_
_space_group_symop_operation_xyz
x,y,z
-x,-y,-z
loop_
_atom_site_type_symbol
_atom_site_label
_atom_site_fract_x
_atom_site_fract_y
_atom_site_fract_z
Si Si1 0.187207 0.363337 0.779105
Si Si2 0.383792 0.291411 0.961311
Si Si3 0.312692 0.603641 0.597018
Si Si4 0.742102 0.072949 0.306285
Si Si5 0.244997 0.169136 0.325214
Si Si6 0.882798 0.776779 0.959389
Si Si7 0.229739 0.890446 0.022297
O O1 0.315193 0.484532 0.619078
O O2 0.262113 0.223875 0.496252
O O3 0.196963 0.337481 0.908314
O O4 0.934507 0.386574 0.108140
O O5 0.532656 0.396861 0.749701
O O6 0.514813 0.146656 0.659273
O O7 0.163988 0.279347 0.169776
O O8 0.333160 0.287790 0.189881
O O9 0.355032 0.748768 0.722886
O O10 0.761833 0.924786 0.240022
O O11 0.826571 0.063499 0.025049
O O12 0.882372 0.179061 0.282157
O O13 0.992077 0.151411 0.631604
O O14 0.331204 0.017211 0.058766
#
# Coordination Sequence:
#
# PCOD9082019 Si02
#       7
#     2   2   2   2   2   2   2
#     4  10  20  40  59  84 117 162 186 239 290 348
#     4  11  21  35  62  88 112 153 197 243 281 342
#     4   9  20  37  61  81 116 160 199 222 288 357
#     4  10  20  36  57  89 117 152 191 240 282 352
#     4  10  19  32  60  89 118 144 189 243 307 317
#     4  11  20  34  63  85 114 154 202 229 281 352
#     4   9  17  35  58  87 111 157 185 233 292 348
#
# _framework density 23.799436
#
# number of rings (size 3 to 8) (size 9 to 14) (size 15 to 20)
#    0.000    2.000    5.714    0.429    2.000    1.143 
#    0.000    0.714    9.429    7.714    0.000    0.000 
#    0.000    0.000    0.000    0.000    0.000    0.000 
#
# Total GULP energy -78113.570368 kJ/mol
# GULP energy per Si atom -5579.540741 kJ/mol
# Density = 2.374527 g / cm^3
# Si number density = 23.799436 Si / 1000 Ang^3
#
#
#
# Elastic Constant Matrix: (Units=GPa)
#
#
# Indices 1 2 3 4 5 6 
#
# 1 58.9058 -1.6764 6.9315 5.5395 -2.9895 -5.3822
# 2 -1.6764 118.0331 7.8189 -29.5451 -2.6477 -13.0676
# 3 6.9315 7.8189 58.0199 -24.9627 5.0914 2.5065
# 4 5.5395 -29.5451 -24.9627 36.0609 0.6746 4.0966
# 5 -2.9895 -2.6477 5.0914 0.6746 27.3285 -5.8983
# 6 -5.3822 -13.0676 2.5065 4.0966 -5.8983 28.9210
#
#
#
# Elastic Compliance Matrix: (Units=1/GPa)
#
#
# Indices 1 2 3 4 5 6 
#
# 1 0.019430 -0.000769 -0.006846 -0.009143 0.004880 0.006152
# 2 -0.000769 0.011478 0.003206 0.011346 0.000870 0.003335
# 3 -0.006846 0.003206 0.029463 0.025091 -0.008188 -0.007603
# 4 -0.009143 0.011346 0.025091 0.056900 -0.007793 -0.008399
# 5 0.004880 0.000870 -0.008188 -0.007793 0.041423 0.011563
# 6 0.006152 0.003335 -0.007603 -0.008399 0.011563 0.041436
#
#
# Mechanical properties :
#
#
# Convention : Reuss Voigt Hill
#
# Bulk Modulus (GPa) = 19.39684 29.01189 24.20436
# Shear Modulus (GPa) = 22.11106 33.25439 27.68273
#
# Velocity S-wave (km/s) = 3.05135 3.74207 3.41422
# Velocity P-wave (km/s) = 4.53676 5.55764 5.07295
#
# Compressibility (1/GPa) = 0.05155480
#
# Stress axis : x y z
#
# Youngs Moduli (GPa) = 51.46812 87.12464 33.94039
#
# Poissons Ratio (x) = 0.06697 0.23234
# Poissons Ratio (y) = 0.03956 -0.10882
# Poissons Ratio (z) = 0.35233 -0.27934
#
# Static dielectric constant tensor:
#      x y z
#    x 1.935200 0.061620 -0.010350 
#    y 0.061620 1.969590 -0.016150 
#    z -0.010350 -0.016150 1.939180 
# 
# From -- ./inp_files/307865.got.cif
#   From: 2010.05.17/outbox.cif.g08.bks.cpg/sg2_154_cif.got.tgz:307865.got - 2010.06.03 11:33:40.
