data_PCOD9082156
_publ_section_title
;
Structure prediction by ZEFSAII (Michael W. Deem and Ramdas Pophale) SiO2 
 PCOD9082156
Probable space group: P -1
;
_chemical_formula_sum "Si O2"
_cell_formula_units_Z 16
_cell_length_a 12.037282
_cell_length_b 9.064894
_cell_length_c 15.812418
_cell_angle_alpha 120.430963
_cell_angle_beta 24.896710
_cell_angle_gamma 117.000095
_cell_volume 626.230520
_symmetry_space_group_name_H-M "P -1"
_symmetry_group_IT_number 2
_symmetry_cell_setting 'triclinic'
loop_
_space_group_symop_operation_xyz
x,y,z
-x,-y,-z
loop_
_atom_site_type_symbol
_atom_site_label
_atom_site_fract_x
_atom_site_fract_y
_atom_site_fract_z
Si Si1 0.996687 0.177577 0.786337
Si Si2 0.941276 0.738396 0.963800
Si Si3 0.188441 0.583349 0.147235
Si Si4 0.734815 0.406194 0.717731
Si Si5 0.546391 0.680844 0.379379
Si Si6 0.528835 0.937773 0.214847
Si Si7 0.863522 0.176233 0.411326
Si Si8 0.391113 0.709467 0.773204
O O1 0.282325 0.237870 0.640716
O O2 0.922207 0.240121 0.762684
O O3 0.927792 0.977074 0.791062
O O4 0.805224 0.290458 0.011837
O O5 0.731172 0.708033 0.176352
O O6 0.822085 0.890145 0.032316
O O7 0.940373 0.566385 0.860888
O O8 0.220315 0.751390 0.819561
O O9 0.119851 0.556494 0.284896
O O10 0.504872 0.548520 0.903312
O O11 0.889519 0.335358 0.506430
O O12 0.566335 0.237266 0.813428
O O13 0.274650 0.770576 0.564658
O O14 0.498053 0.480189 0.367368
O O15 0.459414 0.113240 0.267244
O O16 0.346544 0.934969 0.423032
#
# Coordination Sequence:
#
# PCOD9082156 Si02
#       8
#     2   2   2   2   2   2   2   2
#     4  11  19  28  53  77  97 124 169 206 240 282
#     4   9  15  29  49  75  94 124 168 205 231 278
#     4  10  15  31  53  78  87 129 176 206 218 286
#     4   8  18  32  52  69  99 130 167 198 238 284
#     4  10  17  31  49  73  99 131 163 197 241 296
#     4   8  18  32  47  70 105 129 155 199 250 289
#     4   9  19  35  47  70 105 131 160 198 249 288
#     4  11  17  29  53  76  97 124 166 204 240 289
#
# _framework density 25.549699
#
# number of rings (size 3 to 8) (size 9 to 14) (size 15 to 20)
#    0.750    1.750    3.750    1.500    0.000    0.500 
#    0.000    1.250    5.500    0.000    0.000    5.250 
#    0.000    0.000    0.000    0.000    0.000    0.000 
#
# Total GULP energy -89286.053330 kJ/mol
# GULP energy per Si atom -5580.378333 kJ/mol
# Density = 2.549155 g / cm^3
# Si number density = 25.549699 Si / 1000 Ang^3
#
#
#
# Elastic Constant Matrix: (Units=GPa)
#
#
# Indices 1 2 3 4 5 6 
#
# 1 105.5743 16.2100 28.4234 12.9894 -2.5069 -8.9963
# 2 16.2100 88.3962 21.7223 34.2239 -6.8452 -20.8878
# 3 28.4234 21.7223 68.7506 13.8469 11.3786 -3.6901
# 4 12.9894 34.2239 13.8469 43.3832 -7.6339 1.5695
# 5 -2.5069 -6.8452 11.3786 -7.6339 13.6767 5.0376
# 6 -8.9963 -20.8878 -3.6901 1.5695 5.0376 31.4430
#
#
#
# Elastic Compliance Matrix: (Units=1/GPa)
#
#
# Indices 1 2 3 4 5 6 
#
# 1 0.011301 0.000759 -0.005370 -0.001427 0.005262 0.002336
# 2 0.000759 0.022434 -0.002401 -0.018233 -0.002777 0.016194
# 3 -0.005370 -0.002401 0.024803 -0.009922 -0.030246 0.005120
# 4 -0.001427 -0.018233 -0.009922 0.047674 0.033363 -0.021410
# 5 0.005262 -0.002777 -0.030246 0.033363 0.125956 -0.025734
# 6 0.002336 0.016194 0.005120 -0.021410 -0.025734 0.049022
#
#
# Mechanical properties :
#
#
# Convention : Reuss Voigt Hill
#
# Bulk Modulus (GPa) = 22.46480 43.93695 33.20087
# Shear Modulus (GPa) = 16.12633 30.79160 23.45897
#
# Velocity S-wave (km/s) = 2.51505 3.47531 3.03342
# Velocity P-wave (km/s) = 4.15278 5.77388 5.02908
#
# Compressibility (1/GPa) = 0.04451409
#
# Stress axis : x y z
#
# Youngs Moduli (GPa) = 88.48978 44.57456 40.31759
#
# Poissons Ratio (x) = -0.03384 0.21651
# Poissons Ratio (y) = -0.06718 0.09681
# Poissons Ratio (z) = 0.47520 0.10703
#
# Static dielectric constant tensor:
#      x y z
#    x 1.968330 0.005470 -0.000920 
#    y 0.005470 2.128400 0.005310 
#    z -0.000920 0.005310 2.153490 
# 
# From -- ./inp_files/384865.got.cif
#   From: 2010.05.17/outbox.cif.g08.bks.cpg/sg2_193_cif.got.tgz:384865.got - 2010.06.03 11:33:40.
