data_PCOD9082596
_publ_section_title
;
Structure prediction by ZEFSAII (Michael W. Deem and Ramdas Pophale) SiO2 
 PCOD9082596
Probable space group: P -1
;
_chemical_formula_sum "Si O2"
_cell_formula_units_Z 14
_cell_length_a 7.382543
_cell_length_b 8.164306
_cell_length_c 20.552411
_cell_angle_alpha 48.927382
_cell_angle_beta 133.181669
_cell_angle_gamma 142.650842
_cell_volume 529.814249
_symmetry_space_group_name_H-M "P -1"
_symmetry_group_IT_number 2
_symmetry_cell_setting 'triclinic'
loop_
_space_group_symop_operation_xyz
x,y,z
-x,-y,-z
loop_
_atom_site_type_symbol
_atom_site_label
_atom_site_fract_x
_atom_site_fract_y
_atom_site_fract_z
Si Si1 0.670304 0.089290 0.852656
Si Si2 0.530617 0.513939 0.825840
Si Si3 0.098637 0.639411 0.752594
Si Si4 0.963285 0.007723 0.577221
Si Si5 0.992175 0.096517 0.715276
Si Si6 0.805687 0.681280 0.978092
Si Si7 0.227104 0.589354 0.468831
O O1 0.763685 0.354256 0.766005
O O2 0.302351 0.830647 0.816141
O O3 0.838215 0.958773 0.900100
O O4 0.866050 0.214501 0.935247
O O5 0.287718 0.543245 0.794543
O O6 0.716994 0.516537 0.932136
O O7 0.323133 0.255957 0.793580
O O8 0.751733 0.792642 0.765410
O O9 0.077891 0.823540 0.649051
O O10 0.592316 0.827458 0.515846
O O11 0.999359 0.065389 0.648300
O O12 0.166072 0.302376 0.513678
O O13 0.874826 0.284449 0.641281
O O14 0.500000 0.500000 0.000000
O O15 0.000000 0.500000 0.500000
#
# Coordination Sequence:
#
# PCOD9082596 Si02
#       7
#     2   2   2   2   2   2   2
#     4  10  19  33  56  84 114 148 195 238 264 338
#     4  11  22  35  58  90 118 143 187 254 288 322
#     4  11  22  37  57  89 119 151 192 232 293 346
#     4  11  22  40  64  83 113 160 197 226 283 361
#     4  11  22  38  59  87 116 145 195 248 285 323
#     4  10  19  34  59  86 114 152 201 227 278 343
#     4  10  20  39  63  84 109 156 204 231 269 351
#
# _framework density 26.424354999999998
#
# number of rings (size 3 to 8) (size 9 to 14) (size 15 to 20)
#    0.000    1.429    2.857    6.857    2.000    0.000 
#    0.000    4.286    0.000    5.143    0.000    0.000 
#    0.000    0.000    0.000    0.000    0.000    0.000 
#
# Total GULP energy -78389.389275 kJ/mol
# GULP energy per Si atom -5599.242091 kJ/mol
# Density = 2.636421 g / cm^3
# Si number density = 26.424355 Si / 1000 Ang^3
#
#
#
# Elastic Constant Matrix: (Units=GPa)
#
#
# Indices 1 2 3 4 5 6 
#
# 1 60.8715 20.4052 13.0775 7.3817 -7.1802 -2.6330
# 2 20.4052 179.4107 42.4301 10.2743 -18.6399 15.6832
# 3 13.0775 42.4301 101.1725 30.4509 -3.2210 -6.6263
# 4 7.3817 10.2743 30.4509 62.0201 -8.7787 -4.2994
# 5 -7.1802 -18.6399 -3.2210 -8.7787 47.4404 8.4185
# 6 -2.6330 15.6832 -6.6263 -4.2994 8.4185 24.8418
#
#
#
# Elastic Compliance Matrix: (Units=1/GPa)
#
#
# Indices 1 2 3 4 5 6 
#
# 1 0.017605 -0.001725 -0.001093 -0.000937 0.001378 0.002034
# 2 -0.001725 0.007583 -0.003519 0.000734 0.003874 -0.007095
# 3 -0.001093 -0.003519 0.013573 -0.005947 -0.002725 0.005620
# 4 -0.000937 0.000734 -0.005947 0.019513 0.003336 0.000098
# 5 0.001378 0.003874 -0.002725 0.003336 0.025192 -0.010986
# 6 0.002034 -0.007095 0.005620 0.000098 -0.010986 0.050189
#
#
# Mechanical properties :
#
#
# Convention : Reuss Voigt Hill
#
# Bulk Modulus (GPa) = 38.33451 54.80894 46.57172
# Shear Modulus (GPa) = 32.25308 44.56325 38.40816
#
# Velocity S-wave (km/s) = 3.49747 4.11109 3.81663
# Velocity P-wave (km/s) = 5.55414 6.58192 6.08975
#
# Compressibility (1/GPa) = 0.02608615
#
# Stress axis : x y z
#
# Youngs Moduli (GPa) = 56.80127 131.87434 73.67762
#
# Poissons Ratio (x) = 0.22745 0.08055
# Poissons Ratio (y) = 0.09797 0.25930
# Poissons Ratio (z) = 0.06210 0.46411
#
# Static dielectric constant tensor:
#      x y z
#    x 2.162550 -0.103980 0.024940 
#    y -0.103980 2.071870 -0.002530 
#    z 0.024940 -0.002530 2.090130 
# 
# From -- ./inp_files/89794.got.cif
#   From: 2010.05.17/outbox.cif.g08.bks.cpg/sg2_45_cif.got.tgz:89794.got - 2010.06.03 11:33:40.
