data_PCOD9082424
_publ_section_title
;
Structure prediction by ZEFSAII (Michael W. Deem and Ramdas Pophale) SiO2 
 PCOD9082424
Probable space group: P -1
;
_chemical_formula_sum "Si O2"
_cell_formula_units_Z 10
_cell_length_a 6.951052
_cell_length_b 8.205095
_cell_length_c 12.846878
_cell_angle_alpha 133.733159
_cell_angle_beta 49.500020
_cell_angle_gamma 119.696010
_cell_volume 401.142941
_symmetry_space_group_name_H-M "P -1"
_symmetry_group_IT_number 2
_symmetry_cell_setting 'triclinic'
loop_
_space_group_symop_operation_xyz
x,y,z
-x,-y,-z
loop_
_atom_site_type_symbol
_atom_site_label
_atom_site_fract_x
_atom_site_fract_y
_atom_site_fract_z
Si Si1 0.730231 0.384202 0.423776
Si Si2 0.316937 0.888673 0.128717
Si Si3 0.885410 0.922541 0.118960
Si Si4 0.057751 0.525577 0.183688
Si Si5 0.493723 0.624360 0.775186
O O1 0.500000 0.500000 0.500000
O O2 0.974025 0.469949 0.306408
O O3 0.700945 0.469382 0.589138
O O4 0.711526 0.113204 0.302980
O O5 0.096008 0.915542 0.132397
O O6 0.194404 0.769801 0.220305
O O7 0.458607 0.135855 0.197708
O O8 0.492888 0.716683 0.933370
O O9 0.790051 0.665415 0.011555
O O10 0.000000 0.000000 0.000000
O O11 0.784575 0.495892 0.205551
#
# Coordination Sequence:
#
# PCOD9082424 Si02
#       5
#     2   2   2   2   2
#     4   9  18  33  53  74 102 136 166 205 251 294
#     4  10  19  33  55  76 100 134 167 205 250 298
#     4   9  17  31  53  74  99 136 167 200 254 301
#     4   9  18  35  55  74 101 134 166 204 250 299
#     4   9  18  32  52  76 104 130 165 206 250 295
#
# _framework density 24.92877
#
# number of rings (size 3 to 8) (size 9 to 14) (size 15 to 20)
#    0.000    2.800    0.000    3.600    0.000    1.600 
#    0.000    9.000    0.000  102.000    0.000    0.000 
#    0.000    0.000    0.000    0.000    0.000    0.000 
#
# Total GULP energy -55825.010469 kJ/mol
# GULP energy per Si atom -5582.501047 kJ/mol
# Density = 2.487203 g / cm^3
# Si number density = 24.928770 Si / 1000 Ang^3
#
#
#
# Elastic Constant Matrix: (Units=GPa)
#
#
# Indices 1 2 3 4 5 6 
#
# 1 109.2142 -11.0726 21.6012 -2.1486 -5.6973 -2.5413
# 2 -11.0726 133.5604 19.1714 -3.4320 -9.2020 13.6866
# 3 21.6012 19.1714 182.9342 20.3822 -13.5985 -0.8117
# 4 -2.1486 -3.4320 20.3822 14.3429 -6.6987 -2.4916
# 5 -5.6973 -9.2020 -13.5985 -6.6987 28.5500 1.0425
# 6 -2.5413 13.6866 -0.8117 -2.4916 1.0425 16.9487
#
#
#
# Elastic Compliance Matrix: (Units=1/GPa)
#
#
# Indices 1 2 3 4 5 6 
#
# 1 0.009922 0.001317 -0.001736 0.005799 0.002901 0.001016
# 2 0.001317 0.008856 -0.001376 0.004940 0.003859 -0.006531
# 3 -0.001736 -0.001376 0.006996 -0.010559 0.000079 -0.000371
# 4 0.005799 0.004940 -0.010559 0.097936 0.020351 0.009521
# 5 0.002901 0.003859 0.000079 0.020351 0.041744 -0.002253
# 6 0.001016 -0.006531 -0.000371 0.009521 -0.002253 0.065948
#
#
# Mechanical properties :
#
#
# Convention : Reuss Voigt Hill
#
# Bulk Modulus (GPa) = 45.07683 53.90095 49.48889
# Shear Modulus (GPa) = 20.62817 38.36892 29.49854
#
# Velocity S-wave (km/s) = 2.87972 3.92745 3.44366
# Velocity P-wave (km/s) = 5.40172 6.49887 5.97553
#
# Compressibility (1/GPa) = 0.02218434
#
# Stress axis : x y z
#
# Youngs Moduli (GPa) = 100.78481 112.91767 142.93332
#
# Poissons Ratio (x) = -0.14866 0.24807
# Poissons Ratio (y) = -0.13269 0.19668
# Poissons Ratio (z) = 0.17492 0.15538
#
# Static dielectric constant tensor:
#      x y z
#    x 2.051630 -0.021210 -0.019240 
#    y -0.021210 1.940970 0.001250 
#    z -0.019240 0.001250 2.005960 
# 
# From -- ./inp_files/144337.got.cif
#   From: 2010.05.17/outbox.cif.g08.bks.cpg/sg2_73_cif.got.tgz:144337.got - 2010.06.03 11:33:40.
