data_PCOD9082158
_publ_section_title
;
Structure prediction by ZEFSAII (Michael W. Deem and Ramdas Pophale) SiO2 
 PCOD9082158
Probable space group: P -1
;
_chemical_formula_sum "Si O2"
_cell_formula_units_Z 14
_cell_length_a 7.067570
_cell_length_b 7.546054
_cell_length_c 15.260355
_cell_angle_alpha 107.839310
_cell_angle_beta 47.164133
_cell_angle_gamma 113.174643
_cell_volume 547.748032
_symmetry_space_group_name_H-M "P -1"
_symmetry_group_IT_number 2
_symmetry_cell_setting 'triclinic'
loop_
_space_group_symop_operation_xyz
x,y,z
-x,-y,-z
loop_
_atom_site_type_symbol
_atom_site_label
_atom_site_fract_x
_atom_site_fract_y
_atom_site_fract_z
Si Si1 0.080111 0.783650 0.123577
Si Si2 0.706314 0.225750 0.529982
Si Si3 0.079315 0.574823 0.798617
Si Si4 0.546898 0.782915 0.562772
Si Si5 0.310034 0.172509 0.054736
Si Si6 0.151595 0.072634 0.278636
Si Si7 0.881849 0.275059 0.658767
O O1 0.905846 0.566132 0.146373
O O2 0.156204 0.947122 0.050121
O O3 0.960929 0.896164 0.253816
O O4 0.380022 0.777510 0.059162
O O5 0.575918 0.314660 0.505645
O O6 0.980791 0.196655 0.397512
O O7 0.742796 0.335820 0.626964
O O8 0.561873 0.005826 0.571439
O O9 0.870601 0.697666 0.903816
O O10 0.356884 0.701572 0.691564
O O11 0.951791 0.435043 0.735832
O O12 0.843672 0.761714 0.469836
O O13 0.316197 0.184566 0.162065
O O14 0.266399 0.939339 0.288614
#
# Coordination Sequence:
#
# PCOD9082158 Si02
#       7
#     2   2   2   2   2   2   2
#     4   8  17  29  50  77 110 135 181 233 274 317
#     4  10  19  34  55  79 111 154 182 211 272 334
#     4  11  19  32  52  83 113 137 183 234 267 323
#     4  10  19  33  52  78 117 143 184 227 259 322
#     4   9  16  31  50  78 106 143 179 228 276 320
#     4   8  14  30  48  73 107 134 180 223 253 323
#     4  10  21  33  52  82 114 147 182 215 269 333
#
# _framework density 25.559199
#
# number of rings (size 3 to 8) (size 9 to 14) (size 15 to 20)
#    0.857    1.714    1.429    2.571    0.000    0.571 
#    0.000    0.000    0.000    0.000    0.000   20.000 
#    0.000    0.714    0.000    0.000    0.000    0.000 
#
# Total GULP energy -78055.816948 kJ/mol
# GULP energy per Si atom -5575.415496 kJ/mol
# Density = 2.550103 g / cm^3
# Si number density = 25.559199 Si / 1000 Ang^3
#
#
#
# Elastic Constant Matrix: (Units=GPa)
#
#
# Indices 1 2 3 4 5 6 
#
# 1 49.2777 0.8036 15.4802 3.7998 5.2358 -3.7416
# 2 0.8036 106.5330 26.5856 -22.0764 -12.5224 -12.5031
# 3 15.4802 26.5856 95.8232 -18.7601 -4.9425 -1.0223
# 4 3.7998 -22.0764 -18.7601 34.2441 -12.4160 0.4277
# 5 5.2358 -12.5224 -4.9425 -12.4160 17.0039 7.4822
# 6 -3.7416 -12.5031 -1.0223 0.4277 7.4822 18.6825
#
#
#
# Elastic Compliance Matrix: (Units=1/GPa)
#
#
# Indices 1 2 3 4 5 6 
#
# 1 0.038383 -0.010654 -0.015391 -0.045220 -0.069786 0.028698
# 2 -0.010654 0.020124 0.005455 0.035105 0.049230 -0.008887
# 3 -0.015391 0.005455 0.020219 0.033584 0.047048 -0.017937
# 4 -0.045220 0.035105 0.033584 0.140356 0.177569 -0.058053
# 5 -0.069786 0.049230 0.047048 0.177569 0.306146 -0.105129
# 6 0.028698 -0.008887 -0.017937 -0.058053 -0.105129 0.095777
#
#
# Mechanical properties :
#
#
# Convention : Reuss Voigt Hill
#
# Bulk Modulus (GPa) = 26.63465 37.48587 32.06026
# Shear Modulus (GPa) = 7.41069 27.90373 17.65721
#
# Velocity S-wave (km/s) = 1.70462 3.30772 2.63123
# Velocity P-wave (km/s) = 3.78387 5.41167 4.66925
#
# Compressibility (1/GPa) = 0.03754508
#
# Stress axis : x y z
#
# Youngs Moduli (GPa) = 26.05343 49.69170 49.45801
#
# Poissons Ratio (x) = 0.52943 0.76122
# Poissons Ratio (y) = 0.27758 -0.26979
# Poissons Ratio (z) = 0.40099 -0.27107
#
# Static dielectric constant tensor:
#      x y z
#    x 2.083490 0.069700 0.042220 
#    y 0.069700 2.129540 -0.032150 
#    z 0.042220 -0.032150 1.974950 
# 
# From -- ./inp_files/341608.got.cif
#   From: 2010.05.17/outbox.cif.g08.bks.cpg/sg2_171_cif.got.tgz:341608.got - 2010.06.03 11:33:40.
