data_PCOD9082972
_publ_section_title
;
Structure prediction by ZEFSAII (Michael W. Deem and Ramdas Pophale) SiO2 
 PCOD9082972
Probable space group: P -1
;
_chemical_formula_sum "Si O2"
_cell_formula_units_Z 14
_cell_length_a 9.388348
_cell_length_b 9.782424
_cell_length_c 11.370865
_cell_angle_alpha 38.125187
_cell_angle_beta 103.100619
_cell_angle_gamma 105.815589
_cell_volume 620.198065
_symmetry_space_group_name_H-M "P -1"
_symmetry_group_IT_number 2
_symmetry_cell_setting 'triclinic'
loop_
_space_group_symop_operation_xyz
x,y,z
-x,-y,-z
loop_
_atom_site_type_symbol
_atom_site_label
_atom_site_fract_x
_atom_site_fract_y
_atom_site_fract_z
Si Si1 0.094551 0.027255 0.157196
Si Si2 0.738170 0.200611 0.482697
Si Si3 0.969649 0.620512 0.250274
Si Si4 0.672759 0.490630 0.903448
Si Si5 0.407911 0.148953 0.163900
Si Si6 0.851262 0.708637 0.587174
Si Si7 0.853264 0.196930 0.262044
O O1 0.139286 0.952260 0.345406
O O2 0.003445 0.815243 0.219797
O O3 0.262402 0.086793 0.096998
O O4 0.029009 0.248607 0.963123
O O5 0.731052 0.184708 0.352855
O O6 0.816190 0.452457 0.353468
O O7 0.595621 0.084083 0.606304
O O8 0.099097 0.469415 0.372772
O O9 0.544408 0.275574 0.032017
O O10 0.817008 0.392365 0.040916
O O11 0.630044 0.672158 0.865755
O O12 0.710680 0.604168 0.708657
O O13 0.990787 0.752604 0.675115
O O14 0.834237 0.950758 0.369166
#
# Coordination Sequence:
#
# PCOD9082972 Si02
#       7
#     2   2   2   2   2   2   2
#     4   9  19  36  52  84  95 133 169 217 254 298
#     4   9  18  33  50  80 100 127 166 220 240 302
#     4  10  19  33  60  74 102 131 172 209 267 287
#     4  11  20  36  49  77 108 140 162 211 246 313
#     4   9  20  34  53  73 109 132 173 205 254 292
#     4  10  20  33  49  79 102 133 169 214 246 307
#     4  10  20  32  54  75 103 135 170 203 267 293
#
# _framework density 22.573433000000001
#
# number of rings (size 3 to 8) (size 9 to 14) (size 15 to 20)
#    0.857    1.429    1.429    2.571    0.000    4.000 
#    2.571    0.714    0.000    0.857    0.000    0.000 
#    0.000    0.000    0.000    0.000    0.000    0.000 
#
# Total GULP energy -78024.271707 kJ/mol
# GULP energy per Si atom -5573.162265 kJ/mol
# Density = 2.252205 g / cm^3
# Si number density = 22.573433 Si / 1000 Ang^3
#
#
#
# Elastic Constant Matrix: (Units=GPa)
#
#
# Indices 1 2 3 4 5 6 
#
# 1 64.9472 11.7747 10.0806 -16.4220 -31.7350 8.9657
# 2 11.7747 35.7101 20.9310 -22.8570 -9.3320 11.5345
# 3 10.0806 20.9310 101.7387 -11.6171 -20.8716 -2.1358
# 4 -16.4220 -22.8570 -11.6171 32.4933 13.3164 -6.7564
# 5 -31.7350 -9.3320 -20.8716 13.3164 38.4780 -7.7951
# 6 8.9657 11.5345 -2.1358 -6.7564 -7.7951 19.1866
#
#
#
# Elastic Compliance Matrix: (Units=1/GPa)
#
#
# Indices 1 2 3 4 5 6 
#
# 1 0.027120 -0.001645 0.002566 0.004381 0.021628 -0.001069
# 2 -0.001645 0.070856 -0.012841 0.042671 -0.012667 -0.033378
# 3 0.002566 -0.012841 0.014032 -0.004779 0.010422 0.010634
# 4 0.004381 0.042671 -0.004779 0.064414 -0.013127 -0.010882
# 5 0.021628 -0.012667 0.010422 -0.013127 0.054206 0.016069
# 6 -0.001069 -0.033378 0.010634 -0.010882 0.016069 0.076565
#
#
# Mechanical properties :
#
#
# Convention : Reuss Voigt Hill
#
# Bulk Modulus (GPa) = 11.34204 31.99651 21.66928
# Shear Modulus (GPa) = 13.87252 28.67222 21.27237
#
# Velocity S-wave (km/s) = 2.48170 3.56782 3.07312
# Velocity P-wave (km/s) = 3.63967 5.58369 4.71301
#
# Compressibility (1/GPa) = 0.08816756
#
# Stress axis : x y z
#
# Youngs Moduli (GPa) = 36.87267 14.11314 71.26415
#
# Poissons Ratio (x) = 0.02322 -0.18287
# Poissons Ratio (y) = 0.06066 0.91513
# Poissons Ratio (z) = -0.09462 0.18123
#
# Static dielectric constant tensor:
#      x y z
#    x 1.939520 0.007690 -0.013680 
#    y 0.007690 1.836510 0.020390 
#    z -0.013680 0.020390 1.902560 
# 
# From -- ./inp_files/84862.got.cif
#   From: 2010.05.17/outbox.cif.g08.bks.cpg/sg2_43_cif.got.tgz:84862.got - 2010.06.03 11:33:40.
