data_PCOD9082741
_publ_section_title
;
Structure prediction by ZEFSAII (Michael W. Deem and Ramdas Pophale) SiO2 
 PCOD9082741
Probable space group: P -1
;
_chemical_formula_sum "Si O2"
_cell_formula_units_Z 14
_cell_length_a 10.917680
_cell_length_b 8.288662
_cell_length_c 9.007077
_cell_angle_alpha 49.911579
_cell_angle_beta 123.502319
_cell_angle_gamma 100.385416
_cell_volume 499.987942
_symmetry_space_group_name_H-M "P -1"
_symmetry_group_IT_number 2
_symmetry_cell_setting 'triclinic'
loop_
_space_group_symop_operation_xyz
x,y,z
-x,-y,-z
loop_
_atom_site_type_symbol
_atom_site_label
_atom_site_fract_x
_atom_site_fract_y
_atom_site_fract_z
Si Si1 0.050041 0.199608 0.071784
Si Si2 0.572385 0.415239 0.398092
Si Si3 0.162407 0.282043 0.798594
Si Si4 0.655708 0.848543 0.266421
Si Si5 0.805108 0.259674 0.402621
Si Si6 0.788517 0.417528 0.972458
Si Si7 0.468952 0.008304 0.300168
O O1 0.145008 0.374484 0.075421
O O2 0.119478 0.971241 0.335079
O O3 0.066462 0.193336 0.908713
O O4 0.882176 0.298779 0.965253
O O5 0.643665 0.600447 0.399034
O O6 0.639607 0.344303 0.321076
O O7 0.391449 0.509624 0.213119
O O8 0.601912 0.198367 0.645823
O O9 0.198592 0.166186 0.730687
O O10 0.119934 0.545995 0.612024
O O11 0.337300 0.211742 0.030433
O O12 0.628563 0.947270 0.353839
O O13 0.500000 0.000000 0.000000
O O14 0.814640 0.269060 0.226342
O O15 0.500000 0.000000 0.500000
#
# Coordination Sequence:
#
# PCOD9082741 Si02
#       7
#     2   2   2   2   2   2   2
#     4  10  19  37  56  85 127 179 204 256 312 373
#     4  11  21  36  60  95 124 163 206 261 315 367
#     4   9  19  37  58  88 121 163 206 250 306 376
#     4   9  21  39  59  89 129 165 200 260 316 368
#     4  10  19  33  57  86 124 167 212 255 312 363
#     4  10  22  34  54  89 134 162 214 259 311 370
#     4  11  20  35  63  95 123 157 206 258 308 366
#
# _framework density 28.000675000000001
#
# number of rings (size 3 to 8) (size 9 to 14) (size 15 to 20)
#    0.000    2.000    1.429    3.000    0.000    2.286 
#    0.000    0.000    0.000    4.286    0.000    0.000 
#    0.000    0.000    0.000    0.000    0.000    0.000 
#
# Total GULP energy -78558.273875 kJ/mol
# GULP energy per Si atom -5611.305277 kJ/mol
# Density = 2.793694 g / cm^3
# Si number density = 28.000675 Si / 1000 Ang^3
#
#
#
# Elastic Constant Matrix: (Units=GPa)
#
#
# Indices 1 2 3 4 5 6 
#
# 1 230.9564 75.5684 59.3157 0.2880 -25.7517 -49.3754
# 2 75.5684 112.0067 56.1558 -3.2194 -15.6921 -29.8527
# 3 59.3157 56.1558 163.4319 -31.8820 -36.1586 -3.4301
# 4 0.2880 -3.2194 -31.8820 54.6032 4.3698 -15.7814
# 5 -25.7517 -15.6921 -36.1586 4.3698 50.7773 3.2945
# 6 -49.3754 -29.8527 -3.4301 -15.7814 3.2945 78.0118
#
#
#
# Elastic Compliance Matrix: (Units=1/GPa)
#
#
# Indices 1 2 3 4 5 6 
#
# 1 0.006240 -0.002804 -0.000932 -0.000061 0.001460 0.002761
# 2 -0.002804 0.013458 -0.003621 -0.000399 -0.000010 0.003136
# 3 -0.000932 -0.003621 0.009731 0.004851 0.004971 -0.000776
# 4 -0.000061 -0.000399 0.004851 0.022335 0.001086 0.004494
# 5 0.001460 -0.000010 0.004971 0.001086 0.023854 0.000351
# 6 0.002761 0.003136 -0.000776 0.004494 0.000351 0.016627
#
#
# Mechanical properties :
#
#
# Convention : Reuss Voigt Hill
#
# Bulk Modulus (GPa) = 67.95728 98.71944 83.33836
# Shear Modulus (GPa) = 44.69722 57.70214 51.19968
#
# Velocity S-wave (km/s) = 3.99970 4.54446 4.28075
# Velocity P-wave (km/s) = 6.75667 7.92899 7.36619
#
# Compressibility (1/GPa) = 0.01471513
#
# Stress axis : x y z
#
# Youngs Moduli (GPa) = 160.25997 74.30584 102.76410
#
# Poissons Ratio (x) = 0.20833 0.09580
# Poissons Ratio (y) = 0.44932 0.37210
# Poissons Ratio (z) = 0.14940 0.26905
#
# Static dielectric constant tensor:
#      x y z
#    x 2.209660 0.024340 0.018230 
#    y 0.024340 2.276000 0.046990 
#    z 0.018230 0.046990 2.168790 
# 
# From -- ./inp_files/233309.got.cif
#   From: 2010.05.17/outbox.cif.g08.bks.cpg/sg2_117_cif.got.tgz:233309.got - 2010.06.03 11:33:40.
