data_PCOD9082531
_publ_section_title
;
Structure prediction by ZEFSAII (Michael W. Deem and Ramdas Pophale) SiO2 
 PCOD9082531
Probable space group: P -1
;
_chemical_formula_sum "Si O2"
_cell_formula_units_Z 14
_cell_length_a 8.069578
_cell_length_b 10.528080
_cell_length_c 12.594395
_cell_angle_alpha 40.213131
_cell_angle_beta 71.318145
_cell_angle_gamma 84.423799
_cell_volume 635.119901
_symmetry_space_group_name_H-M "P -1"
_symmetry_group_IT_number 2
_symmetry_cell_setting 'triclinic'
loop_
_space_group_symop_operation_xyz
x,y,z
-x,-y,-z
loop_
_atom_site_type_symbol
_atom_site_label
_atom_site_fract_x
_atom_site_fract_y
_atom_site_fract_z
Si Si1 0.945739 0.294829 0.205685
Si Si2 0.560675 0.622127 0.549199
Si Si3 0.215161 0.358782 0.698323
Si Si4 0.568548 0.806053 0.075374
Si Si5 0.691676 0.880477 0.534108
Si Si6 0.277091 0.088601 0.247480
Si Si7 0.974160 0.332499 0.420254
O O1 0.115462 0.198094 0.222533
O O2 0.924000 0.350263 0.296239
O O3 0.778840 0.108238 0.331469
O O4 0.000000 0.500000 0.000000
O O5 0.377970 0.559508 0.558652
O O6 0.725564 0.719775 0.375310
O O7 0.572153 0.403117 0.731077
O O8 0.540154 0.763889 0.560296
O O9 0.252744 0.216022 0.878674
O O10 0.040872 0.451081 0.667850
O O11 0.600240 0.815733 0.936810
O O12 0.500000 0.000000 0.000000
O O13 0.645894 0.889555 0.662122
O O14 0.842458 0.746889 0.571601
O O15 0.176144 0.859187 0.383329
#
# Coordination Sequence:
#
# PCOD9082531 Si02
#       7
#     2   2   2   2   2   2   2
#     4   9  17  32  55  78 106 138 174 216 265 315
#     4   9  20  35  53  75 113 137 180 211 263 307
#     4   9  19  35  54  75 102 150 177 208 260 316
#     4  10  19  33  56  75 103 144 181 209 256 321
#     4   9  19  35  53  84 106 135 173 224 263 307
#     4   9  18  31  54  79 104 138 176 212 265 313
#     4   9  17  33  58  75 103 141 178 211 263 317
#
# _framework density 22.043081000000001
#
# number of rings (size 3 to 8) (size 9 to 14) (size 15 to 20)
#    0.857    2.000    0.000    3.429    0.000    1.143 
#    0.000    5.714    0.000    5.143    0.000    0.000 
#    0.000    0.000    0.000    0.000    0.000    0.000 
#
# Total GULP energy -77941.689382 kJ/mol
# GULP energy per Si atom -5567.263527 kJ/mol
# Density = 2.199291 g / cm^3
# Si number density = 22.043081 Si / 1000 Ang^3
#
#
#
# Elastic Constant Matrix: (Units=GPa)
#
#
# Indices 1 2 3 4 5 6 
#
# 1 47.1133 27.9814 10.5985 -1.8118 12.9753 -18.5788
# 2 27.9814 84.8387 33.1714 10.6103 11.9905 -10.7011
# 3 10.5985 33.1714 104.6406 1.8038 21.5145 0.4279
# 4 -1.8118 10.6103 1.8038 32.0329 -9.6940 9.2474
# 5 12.9753 11.9905 21.5145 -9.6940 16.1884 -6.1478
# 6 -18.5788 -10.7011 0.4279 9.2474 -6.1478 41.0683
#
#
#
# Elastic Compliance Matrix: (Units=1/GPa)
#
#
# Indices 1 2 3 4 5 6 
#
# 1 0.037931 -0.007193 0.005353 -0.009363 -0.033092 0.012384
# 2 -0.007193 0.017994 -0.003179 -0.009292 -0.008004 0.002362
# 3 0.005353 -0.003179 0.015957 -0.007774 -0.028195 -0.001043
# 4 -0.009363 -0.009292 -0.007774 0.053179 0.052504 -0.010691
# 5 -0.033092 -0.008004 -0.028195 0.052504 0.161461 -0.004415
# 6 0.012384 0.002362 -0.001043 -0.010691 -0.004415 0.032325
#
#
# Mechanical properties :
#
#
# Convention : Reuss Voigt Hill
#
# Bulk Modulus (GPa) = 16.16996 42.23281 29.20138
# Shear Modulus (GPa) = 14.30617 28.84732 21.57674
#
# Velocity S-wave (km/s) = 2.55033 3.62149 3.13204
# Velocity P-wave (km/s) = 4.00297 6.05704 5.13379
#
# Compressibility (1/GPa) = 0.06184307
#
# Stress axis : x y z
#
# Youngs Moduli (GPa) = 26.36397 55.57431 62.66699
#
# Poissons Ratio (x) = 0.39976 -0.33547
# Poissons Ratio (y) = 0.18964 0.19924
# Poissons Ratio (z) = -0.14113 0.17669
#
# Static dielectric constant tensor:
#      x y z
#    x 1.907940 -0.030970 -0.023240 
#    y -0.030970 1.839630 -0.044470 
#    z -0.023240 -0.044470 1.675560 
# 
# From -- ./inp_files/416267.got.cif
#   From: 2010.05.17/outbox.cif.g08.bks.cpg/sg2_209_cif.got.tgz:416267.got - 2010.06.03 11:33:40.
