data_PCOD9082974
_publ_section_title
;
Structure prediction by ZEFSAII (Michael W. Deem and Ramdas Pophale) SiO2 
 PCOD9082974
Probable space group: P -1
;
_chemical_formula_sum "Si O2"
_cell_formula_units_Z 16
_cell_length_a 16.015485
_cell_length_b 15.673709
_cell_length_c 9.812569
_cell_angle_alpha 37.350541
_cell_angle_beta 148.900389
_cell_angle_gamma 146.364670
_cell_volume 675.148123
_symmetry_space_group_name_H-M "P -1"
_symmetry_group_IT_number 2
_symmetry_cell_setting 'triclinic'
loop_
_space_group_symop_operation_xyz
x,y,z
-x,-y,-z
loop_
_atom_site_type_symbol
_atom_site_label
_atom_site_fract_x
_atom_site_fract_y
_atom_site_fract_z
Si Si1 0.112159 0.926374 0.914238
Si Si2 0.906557 0.769569 0.569362
Si Si3 0.374085 0.597455 0.065610
Si Si4 0.085285 0.879765 0.249854
Si Si5 0.447509 0.583272 0.482915
Si Si6 0.480916 0.944066 0.698047
Si Si7 0.980320 0.529380 0.596693
Si Si8 0.170115 0.656120 0.113521
O O1 0.940403 0.820123 0.711718
O O2 0.121400 0.099055 0.716630
O O3 0.086374 0.856784 0.116998
O O4 0.307356 0.958674 0.079871
O O5 0.732063 0.595312 0.527789
O O6 0.102261 0.776948 0.806419
O O7 0.488880 0.637708 0.314975
O O8 0.393419 0.456504 0.196033
O O9 0.433234 0.758518 0.862380
O O10 0.171736 0.547876 0.896327
O O11 0.303366 0.949559 0.506449
O O12 0.977972 0.698362 0.391590
O O13 0.000000 0.000000 0.000000
O O14 0.373395 0.692468 0.308887
O O15 0.500000 0.000000 0.500000
O O16 0.000000 0.500000 0.500000
O O17 0.842197 0.392052 0.681174
O O18 0.000000 0.500000 0.000000
#
# Coordination Sequence:
#
# PCOD9082974 Si02
#       8
#     2   2   2   2   2   2   2   2
#     4  10  20  36  57  80 110 152 188 228 282 342
#     4  10  19  33  60  81 110 143 190 234 278 334
#     4  10  19  35  57  85 110 145 195 230 285 338
#     4  10  23  35  57  82 113 149 189 236 282 346
#     4  10  20  34  60  84 109 147 190 241 275 342
#     4   9  19  35  54  77 110 151 188 224 272 348
#     4  11  22  38  59  85 117 150 190 241 292 341
#     4  10  20  35  58  85 112 147 192 234 284 338
#
# _framework density 23.698504
#
# number of rings (size 3 to 8) (size 9 to 14) (size 15 to 20)
#    0.000    2.000    3.750    0.750    3.500    0.000 
#    0.000    1.875    0.000    2.250    0.000    0.000 
#    0.000    0.000    0.000    0.000    0.000    0.000 
#
# Total GULP energy -89096.436428 kJ/mol
# GULP energy per Si atom -5568.527277 kJ/mol
# Density = 2.364456 g / cm^3
# Si number density = 23.698504 Si / 1000 Ang^3
#
#
#
# Elastic Constant Matrix: (Units=GPa)
#
#
# Indices 1 2 3 4 5 6 
#
# 1 81.6243 -9.7620 40.2720 -12.5387 19.2443 4.9781
# 2 -9.7620 26.8329 15.3975 -7.0544 5.9113 4.4091
# 3 40.2720 15.3975 144.6967 -36.0429 28.4006 11.6726
# 4 -12.5387 -7.0544 -36.0429 38.8979 -5.4466 -6.0302
# 5 19.2443 5.9113 28.4006 -5.4466 56.2013 -0.8434
# 6 4.9781 4.4091 11.6726 -6.0302 -0.8434 20.4083
#
#
#
# Elastic Compliance Matrix: (Units=1/GPa)
#
#
# Indices 1 2 3 4 5 6 
#
# 1 0.017358 0.011019 -0.004130 0.002516 -0.004827 -0.003708
# 2 0.011019 0.048344 -0.004948 0.005518 -0.005957 -0.008918
# 3 -0.004130 -0.004948 0.011206 0.007375 -0.003048 -0.002280
# 4 0.002516 0.005518 0.007375 0.034757 -0.001737 0.004174
# 5 -0.004827 -0.005957 -0.003048 -0.001737 0.021513 0.004583
# 6 -0.003708 -0.008918 -0.002280 0.004174 0.004583 0.054558
#
#
# Mechanical properties :
#
#
# Convention : Reuss Voigt Hill
#
# Bulk Modulus (GPa) = 12.37790 38.32987 25.35388
# Shear Modulus (GPa) = 23.72089 36.91793 30.31941
#
# Velocity S-wave (km/s) = 3.16720 3.95120 3.58072
# Velocity P-wave (km/s) = 4.31385 6.08482 5.27420
#
# Compressibility (1/GPa) = 0.08078915
#
# Stress axis : x y z
#
# Youngs Moduli (GPa) = 57.61163 20.68498 89.23655
#
# Poissons Ratio (x) = -0.22793 0.36857
# Poissons Ratio (y) = -0.63483 0.44156
# Poissons Ratio (z) = 0.23795 0.10235
#
# Static dielectric constant tensor:
#      x y z
#    x 2.316400 -0.205120 -0.594200 
#    y -0.205120 2.089680 0.249580 
#    z -0.594200 0.249580 3.244910 
# 
# From -- ./inp_files/312466.got.cif
#   From: 2010.05.17/outbox.cif.g08.bks.cpg/sg2_157_cif.got.tgz:312466.got - 2010.06.03 11:33:40.
