data_PCOD9082406
_publ_section_title
;
Structure prediction by ZEFSAII (Michael W. Deem and Ramdas Pophale) SiO2 
 PCOD9082406
Probable space group: P -1
;
_chemical_formula_sum "Si O2"
_cell_formula_units_Z 16
_cell_length_a 11.876764
_cell_length_b 12.415140
_cell_length_c 6.120261
_cell_angle_alpha 124.801147
_cell_angle_beta 90.520980
_cell_angle_gamma 94.973832
_cell_volume 736.344508
_symmetry_space_group_name_H-M "P -1"
_symmetry_group_IT_number 2
_symmetry_cell_setting 'triclinic'
loop_
_space_group_symop_operation_xyz
x,y,z
-x,-y,-z
loop_
_atom_site_type_symbol
_atom_site_label
_atom_site_fract_x
_atom_site_fract_y
_atom_site_fract_z
Si Si1 0.727128 0.683163 0.783782
Si Si2 0.656050 0.066698 0.241070
Si Si3 0.914429 0.807967 0.587773
Si Si4 0.868914 0.182551 0.135359
Si Si5 0.851462 0.458294 0.692433
Si Si6 0.732058 0.903323 0.418434
Si Si7 0.556104 0.814440 0.692475
Si Si8 0.047005 0.661712 0.067159
O O1 0.824583 0.733014 0.667040
O O2 0.753035 0.543906 0.718949
O O3 0.608771 0.692616 0.665844
O O4 0.738591 0.788792 0.104115
O O5 0.755857 0.094598 0.100361
O O6 0.574744 0.182195 0.366633
O O7 0.707810 0.033365 0.436446
O O8 0.583777 0.931130 0.006997
O O9 0.847206 0.908058 0.565317
O O10 0.024727 0.863694 0.788225
O O11 0.962080 0.708578 0.301593
O O12 0.852521 0.328694 0.397567
O O13 0.901926 0.213548 0.924413
O O14 0.856734 0.406289 0.881753
O O15 0.968151 0.557776 0.798750
O O16 0.629803 0.857256 0.528638
#
# Coordination Sequence:
#
# PCOD9082406 Si02
#       8
#     2   2   2   2   2   2   2   2
#     4  10  19  35  58  85 107 139 187 226 263 319
#     4  10  22  40  56  81 108 141 186 228 271 318
#     4  10  19  33  54  86 112 142 180 216 271 322
#     4  11  22  34  53  82 120 145 174 222 269 322
#     4  10  20  32  55  82 112 146 182 213 265 326
#     4  10  19  36  61  81 104 141 185 226 268 322
#     4   9  21  39  63  78 100 144 188 230 271 317
#     4  10  20  32  53  82 116 151 176 210 263 332
#
# _framework density 21.728960000000001
#
# number of rings (size 3 to 8) (size 9 to 14) (size 15 to 20)
#    0.000    2.000    2.500    0.750    3.500    2.500 
#    0.000    9.375    0.000    1.500    0.000    0.000 
#    0.000    0.000    0.000    0.000    0.000    0.000 
#
# Total GULP energy -89348.941578 kJ/mol
# GULP energy per Si atom -5584.308849 kJ/mol
# Density = 2.167950 g / cm^3
# Si number density = 21.728960 Si / 1000 Ang^3
#
#
#
# Elastic Constant Matrix: (Units=GPa)
#
#
# Indices 1 2 3 4 5 6 
#
# 1 99.7180 58.1699 16.4971 -19.1757 -7.6392 -47.1544
# 2 58.1699 102.9204 25.2675 -17.1132 6.2603 -49.9920
# 3 16.4971 25.2675 57.2607 -5.2863 -8.0657 -17.3131
# 4 -19.1757 -17.1132 -5.2863 34.3799 -1.0121 1.3787
# 5 -7.6392 6.2603 -8.0657 -1.0121 17.2373 0.9419
# 6 -47.1544 -49.9920 -17.3131 1.3787 0.9419 42.3130
#
#
#
# Elastic Compliance Matrix: (Units=1/GPa)
#
#
# Indices 1 2 3 4 5 6 
#
# 1 0.029834 0.001397 0.005318 0.017120 0.014230 0.036199
# 2 0.001397 0.030040 -0.003550 0.013379 -0.013104 0.035451
# 3 0.005318 -0.003550 0.023185 0.004751 0.014187 0.010749
# 4 0.017120 0.013379 0.004751 0.044779 0.005655 0.035245
# 5 0.014230 -0.013104 0.014187 0.005655 0.075814 0.004309
# 6 0.036199 0.035451 0.010749 0.035245 0.004309 0.109013
#
#
# Mechanical properties :
#
#
# Convention : Reuss Voigt Hill
#
# Bulk Modulus (GPa) = 11.18708 51.08535 31.13621
# Shear Modulus (GPa) = 14.87516 29.45035 22.16275
#
# Velocity S-wave (km/s) = 2.61928 3.68550 3.19715
# Velocity P-wave (km/s) = 3.78248 6.45537 5.29051
#
# Compressibility (1/GPa) = 0.08938886
#
# Stress axis : x y z
#
# Youngs Moduli (GPa) = 33.51924 33.28890 43.13111
#
# Poissons Ratio (x) = -0.04649 -0.22939
# Poissons Ratio (y) = -0.04681 0.15311
# Poissons Ratio (z) = -0.17827 0.11817
#
# Static dielectric constant tensor:
#      x y z
#    x 1.792360 -0.051560 0.011150 
#    y -0.051560 1.817170 0.003770 
#    z 0.011150 0.003770 1.829900 
# 
# From -- ./inp_files/69959.got.cif
#   From: 2010.05.17/outbox.cif.g08.bks.cpg/sg2_35_cif.got.tgz:69959.got - 2010.06.03 11:33:40.
