data_PCOD9082448
_publ_section_title
;
Structure prediction by ZEFSAII (Michael W. Deem and Ramdas Pophale) SiO2 
 PCOD9082448
Probable space group: P -1
;
_chemical_formula_sum "Si O2"
_cell_formula_units_Z 16
_cell_length_a 11.845527
_cell_length_b 6.406361
_cell_length_c 10.541340
_cell_angle_alpha 112.100206
_cell_angle_beta 83.467631
_cell_angle_gamma 118.978323
_cell_volume 646.060457
_symmetry_space_group_name_H-M "P -1"
_symmetry_group_IT_number 2
_symmetry_cell_setting 'triclinic'
loop_
_space_group_symop_operation_xyz
x,y,z
-x,-y,-z
loop_
_atom_site_type_symbol
_atom_site_label
_atom_site_fract_x
_atom_site_fract_y
_atom_site_fract_z
Si Si1 0.295837 0.911575 0.635370
Si Si2 0.906998 0.707100 0.121859
Si Si3 0.957277 0.086612 0.399896
Si Si4 0.319883 0.251267 0.958667
Si Si5 0.191051 0.833926 0.068480
Si Si6 0.753919 0.579345 0.593497
Si Si7 0.361567 0.718113 0.200434
Si Si8 0.590316 0.801761 0.569861
O O1 0.330864 0.094368 0.798379
O O2 0.383573 0.083668 0.547887
O O3 0.149554 0.824773 0.583319
O O4 0.292009 0.636130 0.560977
O O5 0.822657 0.768875 0.047216
O O6 0.060234 0.845866 0.111511
O O7 0.884493 0.816288 0.276921
O O8 0.855900 0.406888 0.075391
O O9 0.093428 0.293903 0.371720
O O10 0.000000 0.000000 0.500000
O O11 0.400767 0.556968 0.058286
O O12 0.305072 0.081928 0.045665
O O13 0.240510 0.734530 0.157159
O O14 0.680312 0.440188 0.700060
O O15 0.718081 0.800840 0.611226
O O16 0.447771 0.017535 0.298210
O O17 0.500000 0.500000 0.500000
#
# Coordination Sequence:
#
# PCOD9082448 Si02
#       8
#     2   2   2   2   2   2   2   2
#     4  10  24  38  60  97 125 162 203 241 312 364
#     4   9  20  30  47  82 119 164 208 230 286 356
#     4  11  20  34  58  87 132 162 195 241 301 362
#     4  10  20  36  56  85 123 156 198 252 299 356
#     4  10  19  33  55  79 121 162 201 246 287 355
#     4  11  23  40  63  89 127 162 201 253 301 362
#     4  10  22  38  62  90 114 160 209 242 303 365
#     4  11  24  45  67  88 118 158 206 260 306 359
#
# _framework density 24.765481999999999
#
# number of rings (size 3 to 8) (size 9 to 14) (size 15 to 20)
#    0.000    1.750    1.250    3.000    3.500    8.000 
#    0.000    0.625    0.000    3.750    0.000    0.000 
#    0.000    0.000    0.000    0.000    0.000    0.000 
#
# Total GULP energy -89235.307642 kJ/mol
# GULP energy per Si atom -5577.206728 kJ/mol
# Density = 2.470911 g / cm^3
# Si number density = 24.765482 Si / 1000 Ang^3
#
#
#
# Elastic Constant Matrix: (Units=GPa)
#
#
# Indices 1 2 3 4 5 6 
#
# 1 80.3496 9.5729 38.8992 15.4777 -10.8991 -20.0404
# 2 9.5729 87.1072 51.8292 29.2932 -17.2845 -15.4223
# 3 38.8992 51.8292 126.3762 43.1448 -14.5203 -19.2703
# 4 15.4777 29.2932 43.1448 46.3220 -15.7945 7.6348
# 5 -10.8991 -17.2845 -14.5203 -15.7945 39.5803 13.4369
# 6 -20.0404 -15.4223 -19.2703 7.6348 13.4369 32.3686
#
#
#
# Elastic Compliance Matrix: (Units=1/GPa)
#
#
# Indices 1 2 3 4 5 6 
#
# 1 0.018986 0.005533 -0.001271 -0.013225 -0.004408 0.018584
# 2 0.005533 0.019980 -0.002224 -0.015983 -0.002526 0.016440
# 3 -0.001271 -0.002224 0.017977 -0.020869 -0.008999 0.017514
# 4 -0.013225 -0.015983 -0.020869 0.076502 0.032546 -0.059783
# 5 -0.004408 -0.002526 -0.008999 0.032546 0.044693 -0.035520
# 6 0.018584 0.016440 0.017514 -0.059783 -0.035520 0.089506
#
#
# Mechanical properties :
#
#
# Convention : Reuss Voigt Hill
#
# Bulk Modulus (GPa) = 16.38830 54.93731 35.66281
# Shear Modulus (GPa) = 17.61134 36.55626 27.08380
#
# Velocity S-wave (km/s) = 2.66958 3.84617 3.31057
# Velocity P-wave (km/s) = 4.01672 6.47728 5.38930
#
# Compressibility (1/GPa) = 0.06101914
#
# Stress axis : x y z
#
# Youngs Moduli (GPa) = 52.66927 50.05123 55.62599
#
# Poissons Ratio (x) = -0.27691 0.07069
# Poissons Ratio (y) = -0.29140 0.12370
# Poissons Ratio (z) = 0.06693 0.11131
#
# Static dielectric constant tensor:
#      x y z
#    x 1.994510 0.101070 -0.090700 
#    y 0.101070 1.864790 0.139680 
#    z -0.090700 0.139680 1.958770 
# 
# From -- ./inp_files/442172.got.cif
#   From: 2010.05.17/outbox.cif.g08.bks.cpg/sg2_222_cif.got.tgz:442172.got - 2010.06.03 11:33:40.
