data_PCOD9082185
_publ_section_title
;
Structure prediction by ZEFSAII (Michael W. Deem and Ramdas Pophale) SiO2 
 PCOD9082185
Probable space group: P -1
;
_chemical_formula_sum "Si O2"
_cell_formula_units_Z 11
_cell_length_a 6.286274
_cell_length_b 16.029867
_cell_length_c 23.050639
_cell_angle_alpha 18.181627
_cell_angle_beta 42.139749
_cell_angle_gamma 55.178414
_cell_volume 374.650673
_symmetry_space_group_name_H-M "P -1"
_symmetry_group_IT_number 2
_symmetry_cell_setting 'triclinic'
loop_
_space_group_symop_operation_xyz
x,y,z
-x,-y,-z
loop_
_atom_site_type_symbol
_atom_site_label
_atom_site_fract_x
_atom_site_fract_y
_atom_site_fract_z
Si Si1 0.546501 0.953829 0.672725
Si Si2 0.467443 0.497074 0.756895
Si Si3 0.469750 0.712001 0.295594
Si Si4 0.500000 0.000000 0.000000
Si Si5 0.491860 0.278226 0.283777
Si Si6 0.411205 0.847557 0.346350
O O1 0.355344 0.662983 0.852765
O O2 0.573881 0.258948 0.434941
O O3 0.016413 0.106943 0.484365
O O4 0.379390 0.883835 0.819259
O O5 0.310284 0.422678 0.904902
O O6 0.953712 0.715817 0.524749
O O7 0.360347 0.186358 0.944748
O O8 0.753887 0.017083 0.991549
O O9 0.499643 0.881734 0.237330
O O10 0.532364 0.433225 0.463960
O O11 0.000000 0.500000 0.500000
O O12 0.500000 0.000000 0.500000
#
# Coordination Sequence:
#
# PCOD9082185 Si02
#       6
#     2   2   2   1   2   2
#     4   9  15  31  52  80 108 142 185 234 271 325
#     4  10  19  33  52  83 112 148 184 225 276 329
#     4  11  22  38  52  80 114 151 188 227 272 333
#     4  12  22  36  56  78 122 148 184 228 272 334
#     4   8  16  28  51  79 109 140 187 229 273 326
#     4  10  19  35  56  76 113 145 190 228 275 326
#
# _framework density 29.360682000000001
#
# number of rings (size 3 to 8) (size 9 to 14) (size 15 to 20)
#    0.000    2.182    3.636    0.000    0.000    0.727 
#    0.000    0.000    0.000    1.091    0.000   52.182 
#    0.000    0.000    0.000    0.000    0.000    0.000 
#
# Total GULP energy -61318.549312 kJ/mol
# GULP energy per Si atom -5574.413574 kJ/mol
# Density = 2.929386 g / cm^3
# Si number density = 29.360682 Si / 1000 Ang^3
#
#
#
# Elastic Constant Matrix: (Units=GPa)
#
#
# Indices 1 2 3 4 5 6 
#
# 1 211.9292 81.3041 44.1011 -18.2976 6.1348 27.2670
# 2 81.3041 286.0092 19.4868 -10.4458 9.8255 77.3259
# 3 44.1011 19.4868 70.7026 -15.0982 3.9250 -1.8653
# 4 -18.2976 -10.4458 -15.0982 35.6782 -1.0457 2.6127
# 5 6.1348 9.8255 3.9250 -1.0457 56.2126 -12.1094
# 6 27.2670 77.3259 -1.8653 2.6127 -12.1094 97.1292
#
#
#
# Elastic Compliance Matrix: (Units=1/GPa)
#
#
# Indices 1 2 3 4 5 6 
#
# 1 0.006093 -0.001205 -0.003151 0.001493 -0.000401 -0.000902
# 2 -0.001205 0.005000 -0.000453 0.000892 -0.001527 -0.003865
# 3 -0.003151 -0.000453 0.017474 0.005533 -0.000396 0.001382
# 4 0.001493 0.000892 0.005533 0.031523 -0.000536 -0.001938
# 5 -0.000401 -0.001527 -0.000396 -0.000536 0.018913 0.003693
# 6 -0.000902 -0.003865 0.001382 -0.001938 0.003693 0.014165
#
#
# Mechanical properties :
#
#
# Convention : Reuss Voigt Hill
#
# Bulk Modulus (GPa) = 52.77486 95.38059 74.07773
# Shear Modulus (GPa) = 45.82801 66.05392 55.94096
#
# Velocity S-wave (km/s) = 3.95506 4.74829 4.36971
# Velocity P-wave (km/s) = 6.23461 7.91315 7.12350
#
# Compressibility (1/GPa) = 0.01894841
#
# Stress axis : x y z
#
# Youngs Moduli (GPa) = 164.11701 200.00203 57.22726
#
# Poissons Ratio (x) = 0.24108 0.18034
# Poissons Ratio (y) = 0.19783 0.02592
# Poissons Ratio (z) = 0.51717 0.09057
#
# Static dielectric constant tensor:
#      x y z
#    x 2.398160 -0.093920 -0.124050 
#    y -0.093920 2.340730 0.030890 
#    z -0.124050 0.030890 2.010140 
# 
# From -- ./inp_files/583488.got.cif
#   From: 2010.05.17/outbox.cif.g08.bks.cpg/sg2_292_cif.got.tgz:583488.got - 2010.06.03 11:33:40.
