data_PCOD9082089
_publ_section_title
;
Structure prediction by ZEFSAII (Michael W. Deem and Ramdas Pophale) SiO2 
 PCOD9082089
Probable space group: P -1
;
_chemical_formula_sum "Si O2"
_cell_formula_units_Z 16
_cell_length_a 13.194434
_cell_length_b 7.366432
_cell_length_c 7.479363
_cell_angle_alpha 116.208276
_cell_angle_beta 72.786351
_cell_angle_gamma 98.454626
_cell_volume 622.899879
_symmetry_space_group_name_H-M "P -1"
_symmetry_group_IT_number 2
_symmetry_cell_setting 'triclinic'
loop_
_space_group_symop_operation_xyz
x,y,z
-x,-y,-z
loop_
_atom_site_type_symbol
_atom_site_label
_atom_site_fract_x
_atom_site_fract_y
_atom_site_fract_z
Si Si1 0.132624 0.333931 0.451469
Si Si2 0.262465 0.705914 0.716451
Si Si3 0.609207 0.317858 0.722722
Si Si4 0.855272 0.940639 0.199632
Si Si5 0.195037 0.475734 0.122668
Si Si6 0.027477 0.717372 0.175681
Si Si7 0.709475 0.941797 0.601273
Si Si8 0.581895 0.566907 0.332521
O O1 0.184732 0.524636 0.612241
O O2 0.036384 0.263239 0.595880
O O3 0.223770 0.164857 0.325522
O O4 0.887344 0.592817 0.706019
O O5 0.345846 0.742026 0.524784
O O6 0.332835 0.611971 0.796768
O O7 0.188727 0.900160 0.849984
O O8 0.693190 0.483353 0.823343
O O9 0.490256 0.386239 0.780005
O O10 0.628689 0.121958 0.748887
O O11 0.978378 0.893507 0.155294
O O12 0.801909 0.009828 0.443070
O O13 0.806055 0.718620 0.086973
O O14 0.148624 0.677586 0.145726
O O15 0.000000 0.500000 0.000000
O O16 0.640950 0.765593 0.463082
O O17 0.500000 0.500000 0.500000
#
# Coordination Sequence:
#
# PCOD9082089 Si02
#       8
#     2   2   2   2   2   2   2   2
#     4   9  17  32  52  74  99 128 167 209 245 285
#     4   8  16  31  51  73  98 130 166 204 247 299
#     4   9  17  30  50  75 100 128 167 208 245 288
#     4   9  18  34  52  72 100 133 167 202 248 301
#     4  10  19  33  50  74 103 130 163 211 249 285
#     4   9  18  33  52  72 100 136 167 200 246 297
#     4   9  17  32  52  73  98 133 166 199 245 301
#     4   9  16  29  53  77  98 128 167 205 243 294
#
# _framework density 25.686312000000001
#
# number of rings (size 3 to 8) (size 9 to 14) (size 15 to 20)
#    0.000    3.000    0.000    1.500    0.000    0.000 
#    0.000   20.000    0.000    0.000    0.000    0.000 
#    0.000    0.000    0.000    0.000    0.000    0.000 
#
# Total GULP energy -89384.015177 kJ/mol
# GULP energy per Si atom -5586.500949 kJ/mol
# Density = 2.562785 g / cm^3
# Si number density = 25.686312 Si / 1000 Ang^3
#
#
#
# Elastic Constant Matrix: (Units=GPa)
#
#
# Indices 1 2 3 4 5 6 
#
# 1 135.4303 54.0975 33.3438 11.1585 -26.3585 -52.1562
# 2 54.0975 113.5879 27.7892 24.5711 -22.1731 -49.9485
# 3 33.3438 27.7892 75.1724 1.3305 -0.4361 -11.6424
# 4 11.1585 24.5711 1.3305 30.9580 0.1469 -18.1094
# 5 -26.3585 -22.1731 -0.4361 0.1469 29.8147 4.3068
# 6 -52.1562 -49.9485 -11.6424 -18.1094 4.3068 64.7344
#
#
#
# Elastic Compliance Matrix: (Units=1/GPa)
#
#
# Indices 1 2 3 4 5 6 
#
# 1 0.014976 0.001784 -0.005425 0.000183 0.012801 0.011667
# 2 0.001784 0.019257 -0.005839 -0.008819 0.014147 0.011838
# 3 -0.005425 -0.005839 0.017093 0.003375 -0.008282 -0.004306
# 4 0.000183 -0.008819 0.003375 0.042898 -0.007490 0.006449
# 5 0.012801 0.014147 -0.008282 -0.007490 0.053258 0.014101
# 6 0.011667 0.011838 -0.004306 0.006449 0.014101 0.034073
#
#
# Mechanical properties :
#
#
# Convention : Reuss Voigt Hill
#
# Bulk Modulus (GPa) = 30.89486 61.62796 46.26141
# Shear Modulus (GPa) = 23.66275 39.03208 31.34742
#
# Velocity S-wave (km/s) = 3.03845 3.90239 3.49720
# Velocity P-wave (km/s) = 4.93594 6.65954 5.86144
#
# Compressibility (1/GPa) = 0.03236785
#
# Stress axis : x y z
#
# Youngs Moduli (GPa) = 66.77227 51.92866 58.50499
#
# Poissons Ratio (x) = -0.09265 0.31736
# Poissons Ratio (y) = -0.11913 0.34159
# Poissons Ratio (z) = 0.36221 0.30320
#
# Static dielectric constant tensor:
#      x y z
#    x 2.084170 -0.035570 -0.011030 
#    y -0.035570 2.064090 -0.017890 
#    z -0.011030 -0.017890 2.006240 
# 
# From -- ./inp_files/418421.got.cif
#   From: 2010.05.17/outbox.cif.g08.bks.cpg/sg2_210_cif.got.tgz:418421.got - 2010.06.03 11:33:40.
