data_PCOD9082493
_publ_section_title
;
Structure prediction by ZEFSAII (Michael W. Deem and Ramdas Pophale) SiO2 
 PCOD9082493
Probable space group: P -1
;
_chemical_formula_sum "Si O2"
_cell_formula_units_Z 16
_cell_length_a 8.223792
_cell_length_b 20.039891
_cell_length_c 12.388292
_cell_angle_alpha 43.118949
_cell_angle_beta 39.561786
_cell_angle_gamma 45.060545
_cell_volume 839.039451
_symmetry_space_group_name_H-M "P -1"
_symmetry_group_IT_number 2
_symmetry_cell_setting 'triclinic'
loop_
_space_group_symop_operation_xyz
x,y,z
-x,-y,-z
loop_
_atom_site_type_symbol
_atom_site_label
_atom_site_fract_x
_atom_site_fract_y
_atom_site_fract_z
Si Si1 0.868091 0.429029 0.718406
Si Si2 0.243823 0.758031 0.317340
Si Si3 0.002307 0.604273 0.738505
Si Si4 0.392332 0.378998 0.268410
Si Si5 0.596884 0.877705 0.104557
Si Si6 0.726304 0.625864 0.068863
Si Si7 0.875565 0.762799 0.310676
Si Si8 0.021596 0.702295 0.990753
O O1 0.604887 0.516064 0.797912
O O2 0.000000 0.500000 0.500000
O O3 0.872934 0.332195 0.756657
O O4 0.049370 0.367761 0.797406
O O5 0.359367 0.834130 0.237252
O O6 0.485995 0.690968 0.193712
O O7 0.149678 0.685338 0.533552
O O8 0.995833 0.804229 0.303970
O O9 0.862078 0.584852 0.723822
O O10 0.211219 0.496098 0.800602
O O11 0.762399 0.643412 0.903321
O O12 0.328791 0.296450 0.476355
O O13 0.661532 0.321690 0.134001
O O14 0.723436 0.840651 0.202392
O O15 0.843118 0.818948 0.967143
O O16 0.500000 0.000000 0.000000
O O17 0.972033 0.658891 0.953623
#
# Coordination Sequence:
#
# PCOD9082493 Si02
#       8
#     2   2   2   2   2   2   2   2
#     4   9  17  30  51  81 117 156 188 219 274 349
#     4  10  22  40  60  84 120 152 200 244 288 357
#     4  10  21  34  53  86 125 163 188 230 288 343
#     4  10  19  33  55  84 123 153 195 228 280 364
#     4  10  23  43  64  84 107 148 204 255 304 347
#     4  10  21  33  52  86 125 160 192 230 282 347
#     4   9  21  37  60  85 114 158 191 236 298 345
#     4  10  20  34  54  84 113 152 194 242 285 345
#
# _framework density 19.069424999999999
#
# number of rings (size 3 to 8) (size 9 to 14) (size 15 to 20)
#    0.000    2.250    1.250    0.750    5.250    1.500 
#    2.250    0.625    0.000    1.500    0.000    0.000 
#    0.000    0.000    0.000    0.000    0.000    0.000 
#
# Total GULP energy -89092.132465 kJ/mol
# GULP energy per Si atom -5568.258279 kJ/mol
# Density = 1.902602 g / cm^3
# Si number density = 19.069425 Si / 1000 Ang^3
#
#
#
# Elastic Constant Matrix: (Units=GPa)
#
#
# Indices 1 2 3 4 5 6 
#
# 1 89.1223 34.3452 31.3437 -21.9411 -0.8149 7.6108
# 2 34.3452 107.3977 56.4363 -18.9279 -4.6620 3.2489
# 3 31.3437 56.4363 98.5350 -6.9795 4.0218 4.5186
# 4 -21.9411 -18.9279 -6.9795 21.0445 0.5852 0.9333
# 5 -0.8149 -4.6620 4.0218 0.5852 27.4670 0.0509
# 6 7.6108 3.2489 4.5186 0.9333 0.0509 16.4226
#
#
#
# Elastic Compliance Matrix: (Units=1/GPa)
#
#
# Indices 1 2 3 4 5 6 
#
# 1 0.017610 -0.000302 -0.003875 0.017139 0.000688 -0.008011
# 2 -0.000302 0.015977 -0.008346 0.011245 0.003688 -0.001375
# 3 -0.003875 -0.008346 0.015904 -0.006143 -0.003728 -0.000568
# 4 0.017139 0.011245 -0.006143 0.073978 0.001764 -0.012687
# 5 0.000688 0.003688 -0.003728 0.001764 0.037562 -0.000239
# 6 -0.008011 -0.001375 -0.000568 -0.012687 -0.000239 0.065754
#
#
# Mechanical properties :
#
#
# Convention : Reuss Voigt Hill
#
# Bulk Modulus (GPa) = 40.90812 59.92283 50.41547
# Shear Modulus (GPa) = 19.23217 24.51548 21.87383
#
# Velocity S-wave (km/s) = 3.17919 3.58940 3.39051
# Velocity P-wave (km/s) = 5.91397 6.97640 6.46704
#
# Compressibility (1/GPa) = 0.02444502
#
# Stress axis : x y z
#
# Youngs Moduli (GPa) = 56.78642 62.58998 62.87533
#
# Poissons Ratio (x) = 0.01892 0.24365
# Poissons Ratio (y) = 0.01717 0.52473
# Poissons Ratio (z) = 0.22006 0.52235
#
# Static dielectric constant tensor:
#      x y z
#    x 1.752810 -0.004550 -0.008510 
#    y -0.004550 1.669700 0.054410 
#    z -0.008510 0.054410 1.699380 
# 
# From -- ./inp_files/221005.got.cif
#   From: 2010.05.17/outbox.cif.g08.bks.cpg/sg2_111_cif.got.tgz:221005.got - 2010.06.03 11:33:40.
