data_PCOD9082740
_publ_section_title
;
Structure prediction by ZEFSAII (Michael W. Deem and Ramdas Pophale) SiO2 
 PCOD9082740
Probable space group: P -1
;
_chemical_formula_sum "Si O2"
_cell_formula_units_Z 16
_cell_length_a 19.606238
_cell_length_b 8.874704
_cell_length_c 12.215918
_cell_angle_alpha 113.816832
_cell_angle_beta 21.737930
_cell_angle_gamma 121.283594
_cell_volume 651.732749
_symmetry_space_group_name_H-M "P -1"
_symmetry_group_IT_number 2
_symmetry_cell_setting 'triclinic'
loop_
_space_group_symop_operation_xyz
x,y,z
-x,-y,-z
loop_
_atom_site_type_symbol
_atom_site_label
_atom_site_fract_x
_atom_site_fract_y
_atom_site_fract_z
Si Si1 0.752137 0.023283 0.400067
Si Si2 0.033264 0.829738 0.443493
Si Si3 0.813864 0.577822 0.397119
Si Si4 0.573057 0.277668 0.810734
Si Si5 0.183350 0.063953 0.476135
Si Si6 0.784031 0.460051 0.755675
Si Si7 0.873223 0.597284 0.070293
Si Si8 0.629349 0.311138 0.167164
O O1 0.751325 0.961539 0.508256
O O2 0.621759 0.141688 0.621497
O O3 0.602621 0.836833 0.505096
O O4 0.984470 0.181785 0.081969
O O5 0.213651 0.787396 0.108510
O O6 0.824947 0.650825 0.695409
O O7 0.065306 0.873074 0.537978
O O8 0.000000 0.000000 0.500000
O O9 0.618876 0.457786 0.725186
O O10 0.916482 0.793708 0.328460
O O11 0.969562 0.494274 0.173623
O O12 0.760629 0.556822 0.342626
O O13 0.728645 0.329218 0.696523
O O14 0.366181 0.165448 0.148951
O O15 0.632763 0.385461 0.060378
O O16 0.000000 0.500000 0.500000
O O17 0.729251 0.481606 0.151728
#
# Coordination Sequence:
#
# PCOD9082740 Si02
#       8
#     2   2   2   2   2   2   2   2
#     4  11  21  38  65  95 117 165 203 251 307 361
#     4  11  21  33  56  93 125 154 195 252 312 365
#     4  10  23  41  62  85 121 172 198 250 305 363
#     4  11  20  38  60  90 127 155 197 248 317 368
#     4  12  21  36  63  94 125 147 202 262 313 357
#     4  10  19  33  57  86 122 158 191 242 309 363
#     4  10  23  45  64  81 124 170 214 238 298 369
#     4  11  20  39  63  91 120 159 206 250 301 364
#
# _framework density 24.549941
#
# number of rings (size 3 to 8) (size 9 to 14) (size 15 to 20)
#    0.000    1.250    2.500    7.500    0.000    0.500 
#    0.000    6.250    2.750    0.000    0.000    0.000 
#    0.000    0.000    0.000    0.000    0.000    0.000 
#
# Total GULP energy -89302.013003 kJ/mol
# GULP energy per Si atom -5581.375813 kJ/mol
# Density = 2.449406 g / cm^3
# Si number density = 24.549941 Si / 1000 Ang^3
#
#
#
# Elastic Constant Matrix: (Units=GPa)
#
#
# Indices 1 2 3 4 5 6 
#
# 1 91.8707 38.4723 43.3659 -23.4163 14.3844 19.0984
# 2 38.4723 136.0338 35.3754 -27.5577 -8.9857 1.6380
# 3 43.3659 35.3754 96.0085 -17.5499 -2.3076 3.6014
# 4 -23.4163 -27.5577 -17.5499 34.6948 -0.5846 -3.8456
# 5 14.3844 -8.9857 -2.3076 -0.5846 33.8318 -6.0653
# 6 19.0984 1.6380 3.6014 -3.8456 -6.0653 47.0534
#
#
#
# Elastic Compliance Matrix: (Units=1/GPa)
#
#
# Indices 1 2 3 4 5 6 
#
# 1 0.021006 -0.003440 -0.006937 0.006757 -0.011786 -0.008842
# 2 -0.003440 0.009969 -0.001114 0.005348 0.004513 0.002153
# 3 -0.006937 -0.001114 0.014337 0.002026 0.004106 0.002452
# 4 0.006757 0.005348 0.002026 0.038644 -0.000648 -0.000009
# 5 -0.011786 0.004513 0.004106 -0.000648 0.037671 0.009116
# 6 -0.008842 0.002153 0.002452 -0.000009 0.009116 0.025753
#
#
# Mechanical properties :
#
#
# Convention : Reuss Voigt Hill
#
# Bulk Modulus (GPa) = 44.78399 62.03780 53.41090
# Shear Modulus (GPa) = 28.12064 36.89596 32.50830
#
# Velocity S-wave (km/s) = 3.38812 3.88092 3.64286
# Velocity P-wave (km/s) = 5.79546 6.73847 6.28468
#
# Compressibility (1/GPa) = 0.02232941
#
# Stress axis : x y z
#
# Youngs Moduli (GPa) = 47.60592 100.30820 69.75098
#
# Poissons Ratio (x) = 0.34506 0.48386
# Poissons Ratio (y) = 0.16376 0.07772
# Poissons Ratio (z) = 0.33024 0.11177
#
# Static dielectric constant tensor:
#      x y z
#    x 1.966440 0.015620 -0.021140 
#    y 0.015620 2.065420 -0.006070 
#    z -0.021140 -0.006070 2.041060 
# 
# From -- ./inp_files/461457.got.cif
#   From: 2010.05.17/outbox.cif.g08.bks.cpg/sg2_231_cif.got.tgz:461457.got - 2010.06.03 11:33:40.
