data_PCOD9082993
_publ_section_title
;
Structure prediction by ZEFSAII (Michael W. Deem and Ramdas Pophale) SiO2 
 PCOD9082993
Probable space group: P -1
;
_chemical_formula_sum "Si O2"
_cell_formula_units_Z 16
_cell_length_a 12.427779
_cell_length_b 8.544265
_cell_length_c 9.997461
_cell_angle_alpha 75.111577
_cell_angle_beta 70.256504
_cell_angle_gamma 39.828094
_cell_volume 639.959754
_symmetry_space_group_name_H-M "P -1"
_symmetry_group_IT_number 2
_symmetry_cell_setting 'triclinic'
loop_
_space_group_symop_operation_xyz
x,y,z
-x,-y,-z
loop_
_atom_site_type_symbol
_atom_site_label
_atom_site_fract_x
_atom_site_fract_y
_atom_site_fract_z
Si Si1 0.421583 0.126278 0.144354
Si Si2 0.161536 0.638740 0.216135
Si Si3 0.719616 0.946150 0.207481
Si Si4 0.818367 0.473900 0.324243
Si Si5 0.890344 0.949819 0.903639
Si Si6 0.374685 0.819678 0.285062
Si Si7 0.554947 0.601990 0.613481
Si Si8 0.060198 0.109031 0.514718
O O1 0.234072 0.406307 0.161695
O O2 0.551502 0.122945 0.143275
O O3 0.429735 0.945607 0.253394
O O4 0.500000 0.000000 0.000000
O O5 0.148103 0.820326 0.103739
O O6 0.292290 0.525900 0.312618
O O7 0.983163 0.811849 0.331972
O O8 0.772070 0.704400 0.253298
O O9 0.618058 0.114669 0.344739
O O10 0.860202 0.888966 0.069269
O O11 0.657634 0.548026 0.446335
O O12 0.958788 0.341962 0.413335
O O13 0.925264 0.276305 0.199780
O O14 0.748197 0.053536 0.824681
O O15 0.492472 0.535126 0.300674
O O16 0.256852 0.905322 0.442078
O O17 0.000000 0.000000 0.500000
#
# Coordination Sequence:
#
# PCOD9082993 Si02
#       8
#     2   2   2   2   2   2   2   2
#     4  11  23  34  48  76 116 142 172 214 262 317
#     4   9  18  32  56  83  98 134 181 223 261 300
#     4  11  22  32  52  81 109 142 173 216 265 317
#     4  10  18  34  55  82 106 130 173 229 270 300
#     4  10  18  33  57  80 101 134 184 223 259 306
#     4  10  18  33  56  79 103 138 174 219 265 304
#     4   9  18  33  56  77 104 136 178 220 260 314
#     4  10  15  34  61  83  96 129 179 230 259 304
#
# _framework density 25.001573
#
# number of rings (size 3 to 8) (size 9 to 14) (size 15 to 20)
#    0.000    2.000    6.250    0.750    1.750    2.000 
#    0.000    0.625    0.000    3.750    0.000    0.000 
#    0.000    0.000    0.000    0.000    0.000    0.000 
#
# Total GULP energy -89231.521516 kJ/mol
# GULP energy per Si atom -5576.970095 kJ/mol
# Density = 2.494467 g / cm^3
# Si number density = 25.001573 Si / 1000 Ang^3
#
#
#
# Elastic Constant Matrix: (Units=GPa)
#
#
# Indices 1 2 3 4 5 6 
#
# 1 34.0805 -12.6329 3.8976 2.6495 -7.5709 2.5243
# 2 -12.6329 145.0510 61.5797 -5.0608 -24.8192 20.7980
# 3 3.8976 61.5797 146.7939 -1.4817 -27.6031 17.4291
# 4 2.6495 -5.0608 -1.4817 32.0069 4.0077 4.1699
# 5 -7.5709 -24.8192 -27.6031 4.0077 34.5140 -6.5851
# 6 2.5243 20.7980 17.4291 4.1699 -6.5851 17.1980
#
#
#
# Elastic Compliance Matrix: (Units=1/GPa)
#
#
# Indices 1 2 3 4 5 6 
#
# 1 0.034642 0.006013 -0.000681 -0.002301 0.010277 -0.007173
# 2 0.006013 0.010845 -0.002583 0.001768 0.004956 -0.009912
# 3 -0.000681 -0.002583 0.009306 0.000090 0.004571 -0.004480
# 4 -0.002301 0.001768 0.000090 0.033990 -0.005439 -0.012216
# 5 0.010277 0.004956 0.004571 -0.005439 0.039933 0.004475
# 6 -0.007173 -0.009912 -0.004480 -0.012216 0.004475 0.080400
#
#
# Mechanical properties :
#
#
# Convention : Reuss Voigt Hill
#
# Bulk Modulus (GPa) = 16.58610 47.95714 32.27162
# Shear Modulus (GPa) = 22.34983 34.94920 28.64952
#
# Velocity S-wave (km/s) = 2.99312 3.74288 3.38880
# Velocity P-wave (km/s) = 4.31201 6.15647 5.31487
#
# Compressibility (1/GPa) = 0.06029143
#
# Stress axis : x y z
#
# Youngs Moduli (GPa) = 28.86651 92.20788 107.45727
#
# Poissons Ratio (x) = -0.55444 0.07322
# Poissons Ratio (y) = -0.17357 0.27751
# Poissons Ratio (z) = 0.01967 0.23813
#
# Static dielectric constant tensor:
#      x y z
#    x 2.069940 -0.087770 0.054160 
#    y -0.087770 1.937200 0.133140 
#    z 0.054160 0.133140 2.262040 
# 
# From -- ./inp_files/258904.got.cif
#   From: 2010.05.17/outbox.cif.g08.bks.cpg/sg2_130_cif.got.tgz:258904.got - 2010.06.03 11:33:40.
