data_PCOD9082524
_publ_section_title
;
Structure prediction by ZEFSAII (Michael W. Deem and Ramdas Pophale) SiO2 
 PCOD9082524
Probable space group: P -1
;
_chemical_formula_sum "Si O2"
_cell_formula_units_Z 16
_cell_length_a 12.678216
_cell_length_b 11.190347
_cell_length_c 16.017809
_cell_angle_alpha 129.389625
_cell_angle_beta 25.992174
_cell_angle_gamma 122.074282
_cell_volume 764.474692
_symmetry_space_group_name_H-M "P -1"
_symmetry_group_IT_number 2
_symmetry_cell_setting 'triclinic'
loop_
_space_group_symop_operation_xyz
x,y,z
-x,-y,-z
loop_
_atom_site_type_symbol
_atom_site_label
_atom_site_fract_x
_atom_site_fract_y
_atom_site_fract_z
Si Si1 0.235270 0.437597 0.394658
Si Si2 0.575017 0.231657 0.602993
Si Si3 0.812130 0.795410 0.000996
Si Si4 0.221138 0.851391 0.850431
Si Si5 0.203558 0.100194 0.688619
Si Si6 0.393333 0.394506 0.442119
Si Si7 0.171645 0.410031 0.767442
Si Si8 0.292862 0.426843 0.165654
O O1 0.299773 0.615409 0.434067
O O2 0.325255 0.354817 0.379446
O O3 0.349927 0.376653 0.198275
O O4 0.944721 0.446781 0.601585
O O5 0.360297 0.275669 0.841497
O O6 0.441184 0.162009 0.588672
O O7 0.747433 0.081514 0.447118
O O8 0.718505 0.978706 0.142782
O O9 0.784910 0.713054 0.896614
O O10 0.084381 0.786165 0.839350
O O11 0.440287 0.744049 0.689669
O O12 0.007829 0.877707 0.082594
O O13 0.142299 0.228975 0.718714
O O14 0.163755 0.443290 0.688183
O O15 0.568296 0.530764 0.371836
O O16 0.000000 0.500000 0.000000
O O17 0.500000 0.500000 0.000000
#
# Coordination Sequence:
#
# PCOD9082524 Si02
#       8
#     2   2   2   2   2   2   2   2
#     4  11  24  41  63  94 123 169 214 264 316 375
#     4  10  19  34  59  88 127 162 209 261 304 373
#     4  10  21  38  66  93 129 166 216 261 317 370
#     4  10  21  38  62 101 131 164 201 266 326 383
#     4  10  19  33  55  90 130 167 197 249 322 380
#     4  11  24  37  62  92 134 165 204 259 329 385
#     4  11  22  36  55  88 132 169 199 246 320 389
#     4  11  24  43  66  90 122 169 222 265 306 370
#
# _framework density 20.929404999999999
#
# number of rings (size 3 to 8) (size 9 to 14) (size 15 to 20)
#    0.000    1.500    3.750    1.500    3.500    3.000 
#    0.000    0.625    0.000    0.750    0.000    0.000 
#    0.000    0.000    0.000    0.000    0.000    0.000 
#
# Total GULP energy -89315.347824 kJ/mol
# GULP energy per Si atom -5582.209239 kJ/mol
# Density = 2.088177 g / cm^3
# Si number density = 20.929405 Si / 1000 Ang^3
#
#
#
# Elastic Constant Matrix: (Units=GPa)
#
#
# Indices 1 2 3 4 5 6 
#
# 1 131.4101 24.5089 40.3817 6.1424 27.6711 -9.2828
# 2 24.5089 72.6574 28.7848 -5.0907 -0.4116 -12.5997
# 3 40.3817 28.7848 107.4171 -17.3693 18.2171 -6.6245
# 4 6.1424 -5.0907 -17.3693 41.4534 -5.0314 1.8282
# 5 27.6711 -0.4116 18.2171 -5.0314 34.3323 6.2645
# 6 -9.2828 -12.5997 -6.6245 1.8282 6.2645 26.2788
#
#
#
# Elastic Compliance Matrix: (Units=1/GPa)
#
#
# Indices 1 2 3 4 5 6 
#
# 1 0.011313 -0.002381 -0.002434 -0.004335 -0.009362 0.004774
# 2 -0.002381 0.017100 -0.003724 0.001039 0.003235 0.005576
# 3 -0.002434 -0.003724 0.012812 0.004675 -0.004436 0.001317
# 4 -0.004335 0.001039 0.004675 0.027676 0.005653 -0.003128
# 5 -0.009362 0.003235 -0.004436 0.005653 0.042331 -0.013359
# 6 0.004774 0.005576 0.001317 -0.003128 -0.013359 0.046147
#
#
# Mechanical properties :
#
#
# Convention : Reuss Voigt Hill
#
# Bulk Modulus (GPa) = 41.41236 55.42614 48.41925
# Shear Modulus (GPa) = 27.39652 34.93352 31.16502
#
# Velocity S-wave (km/s) = 3.62193 4.08991 3.86301
# Velocity P-wave (km/s) = 6.10908 6.98878 6.56368
#
# Compressibility (1/GPa) = 0.02414738
#
# Stress axis : x y z
#
# Youngs Moduli (GPa) = 88.39493 58.48093 78.05234
#
# Poissons Ratio (x) = 0.13922 0.18997
# Poissons Ratio (y) = 0.21044 0.29066
# Poissons Ratio (z) = 0.21514 0.21778
#
# Static dielectric constant tensor:
#      x y z
#    x 1.814430 -0.032650 0.001770 
#    y -0.032650 1.751530 0.007310 
#    z 0.001770 0.007310 1.842310 
# 
# From -- ./inp_files/519092.got.cif
#   From: 2010.05.17/outbox.cif.g08.bks.cpg/sg2_260_cif.got.tgz:519092.got - 2010.06.03 11:33:40.
