data_PCOD9082438
_publ_section_title
;
Structure prediction by ZEFSAII (Michael W. Deem and Ramdas Pophale) SiO2 
 PCOD9082438
Probable space group: P -1
;
_chemical_formula_sum "Si O2"
_cell_formula_units_Z 14
_cell_length_a 10.325695
_cell_length_b 10.752234
_cell_length_c 19.682051
_cell_angle_alpha 149.469495
_cell_angle_beta 134.793910
_cell_angle_gamma 65.776907
_cell_volume 660.317253
_symmetry_space_group_name_H-M "P -1"
_symmetry_group_IT_number 2
_symmetry_cell_setting 'triclinic'
loop_
_space_group_symop_operation_xyz
x,y,z
-x,-y,-z
loop_
_atom_site_type_symbol
_atom_site_label
_atom_site_fract_x
_atom_site_fract_y
_atom_site_fract_z
Si Si1 0.260981 0.395403 0.836243
Si Si2 0.826607 0.517118 0.521426
Si Si3 0.242356 0.168148 0.463313
Si Si4 0.034802 0.296142 0.570864
Si Si5 0.312862 0.517098 0.150028
Si Si6 0.933802 0.478954 0.055458
Si Si7 0.320032 0.963448 0.863696
O O1 0.220546 0.444839 0.766822
O O2 0.158610 0.531731 0.910180
O O3 0.118652 0.045791 0.629652
O O4 0.500000 0.500000 0.000000
O O5 0.727679 0.693436 0.535470
O O6 0.885217 0.430331 0.573774
O O7 0.683718 0.199900 0.282720
O O8 0.075308 0.742598 0.695539
O O9 0.473160 0.268352 0.627718
O O10 0.142828 0.302029 0.540921
O O11 0.077363 0.822693 0.248221
O O12 0.102372 0.384062 0.059167
O O13 0.263644 0.662672 0.137839
O O14 0.338968 0.268506 0.010274
O O15 0.500000 0.000000 0.000000
#
# Coordination Sequence:
#
# PCOD9082438 Si02
#       7
#     2   2   2   2   2   2   2
#     4  10  21  37  54  76 106 144 191 224 258 314
#     4  11  19  32  52  85 113 132 177 230 273 321
#     4  11  18  34  54  86 111 136 175 222 280 327
#     4  10  19  33  55  78 108 139 176 232 267 310
#     4  11  20  33  55  83 113 145 170 221 284 324
#     4  10  22  36  53  81 115 141 182 221 268 334
#     4  11  18  30  51  81 113 138 170 217 271 324
#
# _framework density 21.201930999999998
#
# number of rings (size 3 to 8) (size 9 to 14) (size 15 to 20)
#    0.000    1.429    5.714    2.143    0.000    1.143 
#    0.000    0.000    0.000    1.714    0.000    0.000 
#    0.000    0.000    0.000    0.000    0.000    0.000 
#
# Total GULP energy -77988.938606 kJ/mol
# GULP energy per Si atom -5570.638472 kJ/mol
# Density = 2.115367 g / cm^3
# Si number density = 21.201931 Si / 1000 Ang^3
#
#
#
# Elastic Constant Matrix: (Units=GPa)
#
#
# Indices 1 2 3 4 5 6 
#
# 1 52.3827 9.9606 16.8096 -3.3937 -3.8783 -3.6971
# 2 9.9606 83.5213 37.6045 -26.3054 2.5192 -7.2382
# 3 16.8096 37.6045 95.4811 -39.5101 9.5004 -13.6321
# 4 -3.3937 -26.3054 -39.5101 42.3744 -10.3043 -1.1435
# 5 -3.8783 2.5192 9.5004 -10.3043 20.5854 -8.7819
# 6 -3.6971 -7.2382 -13.6321 -1.1435 -8.7819 19.1392
#
#
#
# Elastic Compliance Matrix: (Units=1/GPa)
#
#
# Indices 1 2 3 4 5 6 
#
# 1 0.021292 -0.000773 -0.003549 -0.000058 0.007790 0.004864
# 2 -0.000773 0.016854 -0.001041 0.011756 0.008450 0.010063
# 3 -0.003549 -0.001041 0.023555 0.024010 0.009842 0.021648
# 4 -0.000058 0.011756 0.024010 0.063518 0.037390 0.042487
# 5 0.007790 0.008450 0.009842 0.037390 0.085961 0.053387
# 6 0.004864 0.010063 0.021648 0.042487 0.053387 0.099448
#
#
# Mechanical properties :
#
#
# Convention : Reuss Voigt Hill
#
# Bulk Modulus (GPa) = 19.61739 40.01493 29.81616
# Shear Modulus (GPa) = 14.77784 27.55383 21.16583
#
# Velocity S-wave (km/s) = 2.64295 3.60889 3.16301
# Velocity P-wave (km/s) = 4.31118 6.02326 5.23765
#
# Compressibility (1/GPa) = 0.05097518
#
# Stress axis : x y z
#
# Youngs Moduli (GPa) = 46.96528 59.33379 42.45444
#
# Poissons Ratio (x) = 0.04588 0.15066
# Poissons Ratio (y) = 0.03632 0.04419
# Poissons Ratio (z) = 0.16667 0.06176
#
# Static dielectric constant tensor:
#      x y z
#    x 1.828040 -0.015260 -0.027440 
#    y -0.015260 1.865030 -0.002840 
#    z -0.027440 -0.002840 1.797270 
# 
# From -- ./inp_files/457357.got.cif
#   From: 2010.05.17/outbox.cif.g08.bks.cpg/sg2_229_cif.got.tgz:457357.got - 2010.06.03 11:33:40.
