data_PCOD9082718
_publ_section_title
;
Structure prediction by ZEFSAII (Michael W. Deem and Ramdas Pophale) SiO2 
 PCOD9082718
Probable space group: P -1
;
_chemical_formula_sum "Si O2"
_cell_formula_units_Z 16
_cell_length_a 11.641944
_cell_length_b 17.580830
_cell_length_c 11.114078
_cell_angle_alpha 131.827682
_cell_angle_beta 42.256693
_cell_angle_gamma 146.450513
_cell_volume 837.685317
_symmetry_space_group_name_H-M "P -1"
_symmetry_group_IT_number 2
_symmetry_cell_setting 'triclinic'
loop_
_space_group_symop_operation_xyz
x,y,z
-x,-y,-z
loop_
_atom_site_type_symbol
_atom_site_label
_atom_site_fract_x
_atom_site_fract_y
_atom_site_fract_z
Si Si1 0.668438 0.549529 0.251359
Si Si2 0.510107 0.276816 0.155115
Si Si3 0.128901 0.135651 0.122612
Si Si4 0.055724 0.643876 0.231054
Si Si5 0.624544 0.363398 0.406982
Si Si6 0.753437 0.146689 0.484429
Si Si7 0.533906 0.414885 0.966122
Si Si8 0.241898 0.654433 0.461031
O O1 0.501170 0.397075 0.282439
O O2 0.536337 0.603119 0.407302
O O3 0.898836 0.638967 0.248447
O O4 0.694553 0.516960 0.060896
O O5 0.296495 0.152751 0.110473
O O6 0.517806 0.254858 0.265873
O O7 0.754423 0.346152 0.976854
O O8 0.936428 0.129762 0.322997
O O9 0.297366 0.277033 0.063154
O O10 0.000000 0.000000 0.000000
O O11 0.203800 0.776358 0.343248
O O12 0.872238 0.506281 0.312073
O O13 0.644835 0.309739 0.457792
O O14 0.796237 0.247526 0.453444
O O15 0.500000 0.000000 0.500000
O O16 0.625691 0.358070 0.756002
O O17 0.500000 0.500000 0.000000
O O18 0.000000 0.500000 0.500000
#
# Coordination Sequence:
#
# PCOD9082718 Si02
#       8
#     2   2   2   2   2   2   2   2
#     4  10  19  33  57  84 120 154 197 243 297 348
#     4  10  21  34  58  87 120 156 202 244 298 353
#     4  11  23  42  65  86 116 158 205 248 294 362
#     4  11  20  36  58  88 117 158 201 247 293 357
#     4  11  20  35  56  89 125 153 196 249 302 346
#     4  12  24  42  64  87 120 160 204 246 297 365
#     4  11  21  38  58  93 124 155 196 245 303 350
#     4  12  24  36  61  92 126 157 199 249 303 351
#
# _framework density 19.100251
#
# number of rings (size 3 to 8) (size 9 to 14) (size 15 to 20)
#    0.000    1.000    2.500    9.000    1.750    0.000 
#    0.000    0.000    2.750    3.750    0.000    0.000 
#    0.000    0.000    0.000    0.000    0.000    0.000 
#
# Total GULP energy -89343.912476 kJ/mol
# GULP energy per Si atom -5583.994530 kJ/mol
# Density = 1.905678 g / cm^3
# Si number density = 19.100251 Si / 1000 Ang^3
#
#
#
# Elastic Constant Matrix: (Units=GPa)
#
#
# Indices 1 2 3 4 5 6 
#
# 1 141.8666 30.5211 31.4548 10.2556 22.4100 25.8899
# 2 30.5211 77.3030 4.8364 4.0973 7.2947 26.3892
# 3 31.4548 4.8364 82.6056 1.3736 6.0675 14.4820
# 4 10.2556 4.0973 1.3736 26.2082 7.5959 -0.2534
# 5 22.4100 7.2947 6.0675 7.5959 38.0163 5.4440
# 6 25.8899 26.3892 14.4820 -0.2534 5.4440 33.8433
#
#
#
# Elastic Compliance Matrix: (Units=1/GPa)
#
#
# Indices 1 2 3 4 5 6 
#
# 1 0.009504 -0.001632 -0.002441 -0.002270 -0.003822 -0.004356
# 2 -0.001632 0.018360 0.002053 -0.002349 -0.000430 -0.013895
# 3 -0.002441 0.002053 0.013931 -0.000045 -0.000362 -0.005636
# 4 -0.002270 -0.002349 -0.000045 0.041559 -0.007232 0.005062
# 5 -0.003822 -0.000430 -0.000362 -0.007232 0.030361 -0.001524
# 6 -0.004356 -0.013895 -0.005636 0.005062 -0.001524 0.046410
#
#
# Mechanical properties :
#
#
# Convention : Reuss Voigt Hill
#
# Bulk Modulus (GPa) = 26.48657 48.37774 37.43216
# Shear Modulus (GPa) = 28.28850 35.27773 31.78312
#
# Velocity S-wave (km/s) = 3.85262 4.30231 4.08366
# Velocity P-wave (km/s) = 5.80409 7.07553 6.47111
#
# Compressibility (1/GPa) = 0.03775498
#
# Stress axis : x y z
#
# Youngs Moduli (GPa) = 105.21863 54.46494 71.78428
#
# Poissons Ratio (x) = 0.08887 0.17525
# Poissons Ratio (y) = 0.17169 -0.14737
# Poissons Ratio (z) = 0.25687 -0.11182
#
# Static dielectric constant tensor:
#      x y z
#    x 1.721030 0.030280 0.033610 
#    y 0.030280 1.643520 0.011860 
#    z 0.033610 0.011860 1.755600 
# 
# From -- ./inp_files/332189.got.cif
#   From: 2010.05.17/outbox.cif.g08.bks.cpg/sg2_167_cif.got.tgz:332189.got - 2010.06.03 11:33:40.
