data_PCOD9082606
_publ_section_title
;
Structure prediction by ZEFSAII (Michael W. Deem and Ramdas Pophale) SiO2 
 PCOD9082606
Probable space group: P -1
;
_chemical_formula_sum "Si O2"
_cell_formula_units_Z 12
_cell_length_a 12.563830
_cell_length_b 23.880980
_cell_length_c 8.581495
_cell_angle_alpha 39.031204
_cell_angle_beta 143.615570
_cell_angle_gamma 159.864271
_cell_volume 523.007590
_symmetry_space_group_name_H-M "P -1"
_symmetry_group_IT_number 2
_symmetry_cell_setting 'triclinic'
loop_
_space_group_symop_operation_xyz
x,y,z
-x,-y,-z
loop_
_atom_site_type_symbol
_atom_site_label
_atom_site_fract_x
_atom_site_fract_y
_atom_site_fract_z
Si Si1 0.245995 0.708032 0.156968
Si Si2 0.189612 0.366878 0.805417
Si Si3 0.285326 0.573811 0.279352
Si Si4 0.658924 0.843280 0.625970
Si Si5 0.504765 0.624858 0.114550
Si Si6 0.803436 0.053251 0.146498
O O1 0.426747 0.714285 0.239842
O O2 0.324141 0.702645 0.432170
O O3 0.453910 0.885346 0.016639
O O4 0.865461 0.551886 0.000693
O O5 0.139302 0.443409 0.511907
O O6 0.264582 0.339841 0.797216
O O7 0.500000 0.500000 0.000000
O O8 0.911126 0.199017 0.937058
O O9 0.513760 0.619767 0.322478
O O10 0.000000 0.500000 0.000000
O O11 0.920026 0.889565 0.741820
O O12 0.778843 0.994551 0.413284
O O13 0.591196 0.763858 0.876550
#
# Coordination Sequence:
#
# PCOD9082606 Si02
#       6
#     2   2   2   2   2   2
#     4   9  17  34  59  80 107 146 187 222 273 327
#     4  11  22  38  60  80 112 149 189 224 275 327
#     4  10  21  36  58  83 114 147 183 223 280 334
#     4   8  15  30  55  78 111 139 189 215 277 316
#     4  10  19  33  56  85 109 146 179 232 274 331
#     4   8  17  32  56  80 108 145 187 230 267 318
#
# _framework density 22.944217999999999
#
# number of rings (size 3 to 8) (size 9 to 14) (size 15 to 20)
#    1.000    1.667    0.000    3.000    0.000    1.333 
#    0.000    7.500    3.667    0.000    0.000    0.000 
#    0.000    0.000    0.000    0.000    0.000    0.000 
#
# Total GULP energy -66849.338470 kJ/mol
# GULP energy per Si atom -5570.778206 kJ/mol
# Density = 2.289200 g / cm^3
# Si number density = 22.944218 Si / 1000 Ang^3
#
#
#
# Elastic Constant Matrix: (Units=GPa)
#
#
# Indices 1 2 3 4 5 6 
#
# 1 89.4854 8.0119 5.5623 -1.5708 -2.9548 -1.5746
# 2 8.0119 99.0748 43.2405 -38.4513 -1.7928 4.7088
# 3 5.5623 43.2405 116.4933 -32.1639 -12.3699 -4.2817
# 4 -1.5708 -38.4513 -32.1639 31.8368 10.7861 3.3988
# 5 -2.9548 -1.7928 -12.3699 10.7861 22.5787 4.5776
# 6 -1.5746 4.7088 -4.2817 3.3988 4.5776 20.2705
#
#
#
# Elastic Compliance Matrix: (Units=1/GPa)
#
#
# Indices 1 2 3 4 5 6 
#
# 1 0.011425 -0.002022 -0.000380 -0.003212 0.002403 0.001273
# 2 -0.002022 0.023492 -0.001442 0.032048 -0.012796 -0.008403
# 3 -0.000380 -0.001442 0.012035 0.009768 0.001590 0.000851
# 4 -0.003212 0.032048 0.009768 0.092831 -0.034136 -0.013487
# 5 0.002403 -0.012796 0.001590 -0.034136 0.061723 -0.004720
# 6 0.001273 -0.008403 0.000851 -0.013487 -0.004720 0.054891
#
#
# Mechanical properties :
#
#
# Convention : Reuss Voigt Hill
#
# Bulk Modulus (GPa) = 25.46854 46.52033 35.99443
# Shear Modulus (GPa) = 18.03924 31.48645 24.76285
#
# Velocity S-wave (km/s) = 2.80701 3.70848 3.28878
# Velocity P-wave (km/s) = 4.65081 6.21744 5.49029
#
# Compressibility (1/GPa) = 0.03926413
#
# Stress axis : x y z
#
# Youngs Moduli (GPa) = 87.52751 42.56724 83.09218
#
# Poissons Ratio (x) = 0.08605 0.03157
# Poissons Ratio (y) = 0.17694 0.11986
# Poissons Ratio (z) = 0.03326 0.06140
#
# Static dielectric constant tensor:
#      x y z
#    x 1.962920 0.028040 0.070580 
#    y 0.028040 1.847340 -0.031370 
#    z 0.070580 -0.031370 1.906620 
# 
# From -- ./inp_files/204683.got.cif
#   From: 2010.05.17/outbox.cif.g08.bks.cpg/sg2_103_cif.got.tgz:204683.got - 2010.06.03 11:33:40.
