data_PCOD9082678
_publ_section_title
;
Structure prediction by ZEFSAII (Michael W. Deem and Ramdas Pophale) SiO2 
 PCOD9082678
Probable space group: P -1
;
_chemical_formula_sum "Si O2"
_cell_formula_units_Z 16
_cell_length_a 21.104796
_cell_length_b 17.996996
_cell_length_c 9.214745
_cell_angle_alpha 57.502461
_cell_angle_beta 133.543237
_cell_angle_gamma 159.222376
_cell_volume 818.614259
_symmetry_space_group_name_H-M "P -1"
_symmetry_group_IT_number 2
_symmetry_cell_setting 'triclinic'
loop_
_space_group_symop_operation_xyz
x,y,z
-x,-y,-z
loop_
_atom_site_type_symbol
_atom_site_label
_atom_site_fract_x
_atom_site_fract_y
_atom_site_fract_z
Si Si1 0.117586 0.030970 0.017799
Si Si2 0.686798 0.736862 0.619955
Si Si3 0.137103 0.351910 0.791494
Si Si4 0.223856 0.001156 0.649980
Si Si5 0.339729 0.122749 0.023003
Si Si6 0.574167 0.990829 0.731083
Si Si7 0.310159 0.882576 0.905235
Si Si8 0.932860 0.523352 0.455764
O O1 0.950540 0.807401 0.076107
O O2 0.288741 0.230848 0.199926
O O3 0.251556 0.104471 0.027787
O O4 0.942316 0.939620 0.772620
O O5 0.500000 0.500000 0.500000
O O6 0.646982 0.796909 0.430319
O O7 0.406026 0.611705 0.910012
O O8 0.033341 0.348029 0.691180
O O9 0.011845 0.224577 0.572684
O O10 0.353501 0.028381 0.807548
O O11 0.193114 0.988811 0.784527
O O12 0.323666 0.005156 0.173314
O O13 0.334621 0.732701 0.682284
O O14 0.500000 0.000000 0.500000
O O15 0.703261 0.146998 0.913059
O O16 0.071113 0.646324 0.694728
O O17 0.500000 0.000000 0.000000
O O18 0.000000 0.500000 0.500000
#
# Coordination Sequence:
#
# PCOD9082678 Si02
#       8
#     2   2   2   2   2   2   2   2
#     4  10  22  38  62  86 112 153 191 236 289 348
#     4  10  21  40  59  87 119 146 194 239 288 349
#     4   9  20  38  57  81 119 150 191 237 282 341
#     4   9  20  37  57  82 118 153 186 243 285 340
#     4  10  21  38  59  85 115 152 195 234 293 341
#     4  10  22  35  53  83 119 147 190 247 283 334
#     4  10  19  35  57  83 111 151 198 229 279 350
#     4  10  19  33  57  80 110 154 193 228 285 337
#
# _framework density 19.545227000000001
#
# number of rings (size 3 to 8) (size 9 to 14) (size 15 to 20)
#    0.000    2.250    1.250    0.750    1.750    3.000 
#    0.000    8.750    0.000    0.000    0.000    0.000 
#    0.000    0.000    0.000    0.000    0.000    0.000 
#
# Total GULP energy -89097.369400 kJ/mol
# GULP energy per Si atom -5568.585588 kJ/mol
# Density = 1.950074 g / cm^3
# Si number density = 19.545227 Si / 1000 Ang^3
#
#
#
# Elastic Constant Matrix: (Units=GPa)
#
#
# Indices 1 2 3 4 5 6 
#
# 1 147.4163 20.5000 36.1982 4.9881 -4.7706 -9.7863
# 2 20.5000 43.5071 23.7097 -2.2224 -9.3038 -15.2780
# 3 36.1982 23.7097 85.7082 -2.3497 -6.1326 -13.4431
# 4 4.9881 -2.2224 -2.3497 23.5367 -10.3882 2.9849
# 5 -4.7706 -9.3038 -6.1326 -10.3882 24.0184 5.5675
# 6 -9.7863 -15.2780 -13.4431 2.9849 5.5675 28.6989
#
#
#
# Elastic Compliance Matrix: (Units=1/GPa)
#
#
# Indices 1 2 3 4 5 6 
#
# 1 0.007893 -0.002457 -0.002732 -0.002935 -0.001514 0.000703
# 2 -0.002457 0.034107 -0.005540 0.006771 0.011505 0.011788
# 3 -0.002732 -0.005540 0.014912 0.001762 0.001260 0.002677
# 4 -0.002935 0.006771 0.001762 0.058003 0.029507 -0.008328
# 5 -0.001514 0.011505 0.001260 0.029507 0.060887 -0.008682
# 6 0.000703 0.011788 0.002677 -0.008328 -0.008682 0.045164
#
#
# Mechanical properties :
#
#
# Convention : Reuss Voigt Hill
#
# Bulk Modulus (GPa) = 28.20537 48.60527 38.40532
# Shear Modulus (GPa) = 19.66621 28.33238 23.99930
#
# Velocity S-wave (km/s) = 3.17549 3.81147 3.50792
# Velocity P-wave (km/s) = 5.28272 6.65521 6.00828
#
# Compressibility (1/GPa) = 0.03545424
#
# Stress axis : x y z
#
# Youngs Moduli (GPa) = 126.69293 29.31941 67.05877
#
# Poissons Ratio (x) = 0.07204 0.18324
# Poissons Ratio (y) = 0.31128 0.37148
# Poissons Ratio (z) = 0.34619 0.16242
#
# Static dielectric constant tensor:
#      x y z
#    x 1.754540 -0.064910 0.043220 
#    y -0.064910 1.714480 -0.038320 
#    z 0.043220 -0.038320 1.728950 
# 
# From -- ./inp_files/206596.got.cif
#   From: 2010.05.17/outbox.cif.g08.bks.cpg/sg2_104_cif.got.tgz:206596.got - 2010.06.03 11:33:40.
