data_PCOD9082483
_publ_section_title
;
Structure prediction by ZEFSAII (Michael W. Deem and Ramdas Pophale) SiO2 
 PCOD9082483
Probable space group: P -1
;
_chemical_formula_sum "Si O2"
_cell_formula_units_Z 16
_cell_length_a 9.195511
_cell_length_b 15.318575
_cell_length_c 9.661680
_cell_angle_alpha 129.643362
_cell_angle_beta 73.481382
_cell_angle_gamma 141.085941
_cell_volume 591.632307
_symmetry_space_group_name_H-M "P -1"
_symmetry_group_IT_number 2
_symmetry_cell_setting 'triclinic'
loop_
_space_group_symop_operation_xyz
x,y,z
-x,-y,-z
loop_
_atom_site_type_symbol
_atom_site_label
_atom_site_fract_x
_atom_site_fract_y
_atom_site_fract_z
Si Si1 0.590360 0.485791 0.746174
Si Si2 0.183765 0.057325 0.387941
Si Si3 0.873499 0.525632 0.922148
Si Si4 0.173406 0.036685 0.796070
Si Si5 0.668497 0.446773 0.193587
Si Si6 0.320305 0.741528 0.820805
Si Si7 0.477051 0.106148 0.541597
Si Si8 0.135949 0.826307 0.802315
O O1 0.449684 0.285922 0.539899
O O2 0.690627 0.519300 0.909556
O O3 0.378923 0.450041 0.718938
O O4 0.859486 0.671544 0.789355
O O5 0.286075 0.997602 0.351385
O O6 0.000000 0.000000 0.500000
O O7 0.038629 0.000789 0.229780
O O8 0.746368 0.334855 0.697497
O O9 0.153076 0.696250 0.947416
O O10 0.845207 0.512087 0.082187
O O11 0.329393 0.096430 0.679731
O O12 0.099872 0.871980 0.715188
O O13 0.381177 0.224705 0.022651
O O14 0.724939 0.419452 0.297065
O O15 0.212173 0.739775 0.712506
O O16 0.616425 0.960768 0.979973
O O17 0.500000 0.000000 0.500000
#
# Coordination Sequence:
#
# PCOD9082483 Si02
#       8
#     2   2   2   2   2   2   2   2
#     4  10  20  34  56  79 109 141 173 219 265 317
#     4   9  19  36  54  77 105 137 172 217 270 311
#     4   9  18  33  53  80 109 137 174 222 271 313
#     4   9  19  35  53  76 110 141 173 214 260 320
#     4  10  19  33  55  84 108 135 178 225 266 307
#     4   9  18  32  51  74 107 143 174 215 263 312
#     4   9  18  34  55  78 104 136 176 223 268 308
#     4   9  19  36  52  73 109 148 176 209 264 317
#
# _framework density 27.043824000000001
#
# number of rings (size 3 to 8) (size 9 to 14) (size 15 to 20)
#    0.000    2.750    0.000    1.500    0.000    4.500 
#    0.000   10.000    0.000    9.000    0.000    0.000 
#    0.000    0.000    0.000    0.000    0.000    0.000 
#
# Total GULP energy -89299.827683 kJ/mol
# GULP energy per Si atom -5581.239230 kJ/mol
# Density = 2.698227 g / cm^3
# Si number density = 27.043824 Si / 1000 Ang^3
#
#
#
# Elastic Constant Matrix: (Units=GPa)
#
#
# Indices 1 2 3 4 5 6 
#
# 1 179.7551 34.8169 31.9097 -0.1668 25.7958 -14.3231
# 2 34.8169 137.8924 27.2625 15.4630 14.9244 2.2125
# 3 31.9097 27.2625 35.8809 6.2889 10.7747 3.8140
# 4 -0.1668 15.4630 6.2889 23.0399 -6.3781 7.7234
# 5 25.7958 14.9244 10.7747 -6.3781 42.7747 -1.6221
# 6 -14.3231 2.2125 3.8140 7.7234 -1.6221 47.8014
#
#
#
# Elastic Compliance Matrix: (Units=1/GPa)
#
#
# Indices 1 2 3 4 5 6 
#
# 1 0.007228 -0.000520 -0.005573 0.000362 -0.002626 0.002487
# 2 -0.000520 0.009261 -0.004864 -0.005813 -0.002534 0.000657
# 3 -0.005573 -0.004864 0.040314 -0.008392 -0.006482 -0.003525
# 4 0.000362 -0.005813 -0.008392 0.055407 0.011901 -0.007501
# 5 -0.002626 -0.002534 -0.006482 0.011901 0.029212 -0.001084
# 6 0.002487 0.000657 -0.003525 -0.007501 -0.001084 0.023091
#
#
# Mechanical properties :
#
#
# Convention : Reuss Voigt Hill
#
# Bulk Modulus (GPa) = 28.66157 60.16740 44.41449
# Shear Modulus (GPa) = 25.24536 40.02581 32.63558
#
# Velocity S-wave (km/s) = 3.05863 3.85130 3.47762
# Velocity P-wave (km/s) = 4.80571 6.48637 5.70824
#
# Compressibility (1/GPa) = 0.03488992
#
# Stress axis : x y z
#
# Youngs Moduli (GPa) = 138.34393 107.98549 24.80538
#
# Poissons Ratio (x) = 0.05611 0.13823
# Poissons Ratio (y) = 0.07188 0.12066
# Poissons Ratio (z) = 0.77096 0.52525
#
# Static dielectric constant tensor:
#      x y z
#    x 2.295660 -0.102900 0.023230 
#    y -0.102900 2.135020 -0.054950 
#    z 0.023230 -0.054950 2.166860 
# 
# From -- ./inp_files/198402.got.cif
#   From: 2010.05.17/outbox.cif.g08.bks.cpg/sg2_100_cif.got.tgz:198402.got - 2010.06.03 11:33:40.
