data_PCOD9082353
_publ_section_title
;
Structure prediction by ZEFSAII (Michael W. Deem and Ramdas Pophale) SiO2 
 PCOD9082353
Probable space group: P -1
;
_chemical_formula_sum "Si O2"
_cell_formula_units_Z 16
_cell_length_a 12.489947
_cell_length_b 7.664106
_cell_length_c 11.793883
_cell_angle_alpha 99.138423
_cell_angle_beta 136.872649
_cell_angle_gamma 79.564974
_cell_volume 758.422507
_symmetry_space_group_name_H-M "P -1"
_symmetry_group_IT_number 2
_symmetry_cell_setting 'triclinic'
loop_
_space_group_symop_operation_xyz
x,y,z
-x,-y,-z
loop_
_atom_site_type_symbol
_atom_site_label
_atom_site_fract_x
_atom_site_fract_y
_atom_site_fract_z
Si Si1 0.739347 0.691654 0.266011
Si Si2 0.252968 0.413538 0.492576
Si Si3 0.990223 0.706553 0.283016
Si Si4 0.589915 0.157060 0.027532
Si Si5 0.500761 0.671761 0.685077
Si Si6 0.232971 0.895219 0.624805
Si Si7 0.760862 0.891701 0.959553
Si Si8 0.641807 0.855875 0.625012
O O1 0.791140 0.592100 0.410672
O O2 0.846114 0.637692 0.235006
O O3 0.551539 0.697419 0.099928
O O4 0.765360 0.897450 0.332642
O O5 0.421523 0.494441 0.628655
O O6 0.268528 0.224564 0.423459
O O7 0.123263 0.547385 0.343598
O O8 0.073505 0.835531 0.445887
O O9 0.923409 0.818806 0.135134
O O10 0.683679 0.064224 0.984507
O O11 0.710534 0.201795 0.223547
O O12 0.500000 0.000000 0.000000
O O13 0.364547 0.827280 0.627139
O O14 0.647607 0.731693 0.875689
O O15 0.560788 0.694954 0.606763
O O16 0.748686 0.918829 0.817403
O O17 0.500000 0.000000 0.500000
#
# Coordination Sequence:
#
# PCOD9082353 Si02
#       8
#     2   2   2   2   2   2   2   2
#     4  11  19  35  56  83 119 148 190 231 267 333
#     4  11  23  36  56  84 117 152 183 227 288 334
#     4  11  22  35  54  86 120 153 181 221 293 342
#     4  10  15  31  58  83 105 143 194 235 267 311
#     4   9  19  36  57  87 106 145 189 231 278 324
#     4  10  18  33  60  84 110 149 192 229 280 327
#     4  10  19  34  60  83 114 142 191 230 280 327
#     4  10  20  39  66  83 103 142 197 243 275 322
#
# _framework density 21.096419999999998
#
# number of rings (size 3 to 8) (size 9 to 14) (size 15 to 20)
#    0.750    1.000    5.000    2.625    0.000    0.500 
#    0.000    6.875    2.750    3.750    0.000    0.000 
#    0.000    0.000    0.000    0.000    0.000    0.000 
#
# Total GULP energy -89161.534559 kJ/mol
# GULP energy per Si atom -5572.595910 kJ/mol
# Density = 2.104840 g / cm^3
# Si number density = 21.096420 Si / 1000 Ang^3
#
#
#
# Elastic Constant Matrix: (Units=GPa)
#
#
# Indices 1 2 3 4 5 6 
#
# 1 13.2788 -3.0583 9.5146 8.9637 -11.4334 -0.8354
# 2 -3.0583 38.2155 25.9402 6.7312 6.9101 -18.0362
# 3 9.5146 25.9402 149.8322 -7.2675 8.7963 -2.7867
# 4 8.9637 6.7312 -7.2675 18.9530 -4.5457 -5.6814
# 5 -11.4334 6.9101 8.7963 -4.5457 24.6191 0.1040
# 6 -0.8354 -18.0362 -2.7867 -5.6814 0.1040 13.9737
#
#
#
# Elastic Compliance Matrix: (Units=1/GPa)
#
#
# Indices 1 2 3 4 5 6 
#
# 1 0.451836 0.154076 -0.072894 -0.224583 0.150665 0.118915
# 2 0.154076 0.151895 -0.038812 -0.086884 0.026061 0.162007
# 3 -0.072894 -0.038812 0.020703 0.040675 -0.022703 -0.033619
# 4 -0.224583 -0.086884 0.040675 0.177196 -0.061537 -0.044957
# 5 0.150665 0.026061 -0.022703 -0.061537 0.099972 0.012354
# 6 0.118915 0.162007 -0.033619 -0.044957 0.012354 0.262704
#
#
# Mechanical properties :
#
#
# Convention : Reuss Voigt Hill
#
# Bulk Modulus (GPa) = 1.41009 29.56882 15.48946
# Shear Modulus (GPa) = 3.79952 22.77117 13.28534
#
# Velocity S-wave (km/s) = 1.34348 3.28896 2.51219
# Velocity P-wave (km/s) = 1.75398 5.33568 3.97152
#
# Compressibility (1/GPa) = 0.70917238
#
# Stress axis : x y z
#
# Youngs Moduli (GPa) = 2.21319 6.58349 48.30204
#
# Poissons Ratio (x) = -1.01436 3.52093
# Poissons Ratio (y) = -0.34100 1.87472
# Poissons Ratio (z) = 0.16133 0.25552
#
# Static dielectric constant tensor:
#      x y z
#    x 1.792920 0.001300 0.013790 
#    y 0.001300 1.760860 0.007620 
#    z 0.013790 0.007620 1.807870 
# 
# From -- ./inp_files/444797.got.cif
#   From: 2010.05.17/outbox.cif.g08.bks.cpg/sg2_223_cif.got.tgz:444797.got - 2010.06.03 11:33:40.
