data_PCOD9082109
_publ_section_title
;
Structure prediction by ZEFSAII (Michael W. Deem and Ramdas Pophale) SiO2 
 PCOD9082109
Probable space group: P -1
;
_chemical_formula_sum "Si O2"
_cell_formula_units_Z 16
_cell_length_a 14.465763
_cell_length_b 17.566294
_cell_length_c 6.676264
_cell_angle_alpha 43.628768
_cell_angle_beta 80.058595
_cell_angle_gamma 55.425628
_cell_volume 875.088715
_symmetry_space_group_name_H-M "P -1"
_symmetry_group_IT_number 2
_symmetry_cell_setting 'triclinic'
loop_
_space_group_symop_operation_xyz
x,y,z
-x,-y,-z
loop_
_atom_site_type_symbol
_atom_site_label
_atom_site_fract_x
_atom_site_fract_y
_atom_site_fract_z
Si Si1 0.134027 0.412933 0.211721
Si Si2 0.773535 0.821698 0.033897
Si Si3 0.548664 0.617366 0.689697
Si Si4 0.730905 0.464696 0.566898
Si Si5 0.476775 0.907163 0.312346
Si Si6 0.657588 0.743396 0.903489
Si Si7 0.407077 0.566459 0.595893
Si Si8 0.965799 0.396856 0.760945
O O1 0.182914 0.276036 0.595541
O O2 0.232496 0.350561 0.120418
O O3 0.109939 0.534048 0.136790
O O4 0.000000 0.500000 0.000000
O O5 0.900178 0.761360 0.993461
O O6 0.704205 0.788511 0.975067
O O7 0.670705 0.990277 0.803137
O O8 0.668464 0.487920 0.761464
O O9 0.537405 0.756050 0.467688
O O10 0.430019 0.661531 0.528136
O O11 0.556731 0.552729 0.025447
O O12 0.717178 0.377945 0.575375
O O13 0.868001 0.410711 0.630147
O O14 0.643303 0.632735 0.208075
O O15 0.540298 0.869020 0.578571
O O16 0.500000 0.000000 0.000000
O O17 0.500000 0.500000 0.500000
O O18 0.000000 0.500000 0.500000
#
# Coordination Sequence:
#
# PCOD9082109 Si02
#       8
#     2   2   2   2   2   2   2   2
#     4  11  19  33  52  72 111 157 194 237 275 326
#     4  11  22  36  46  78 119 158 194 224 285 352
#     4  10  21  38  58  88 117 146 195 244 292 345
#     4  11  19  34  59  86 113 147 193 246 291 333
#     4  12  23  36  56  83 125 161 189 230 291 367
#     4  12  20  34  53  80 117 159 188 229 283 345
#     4   9  20  38  62  86 110 146 196 252 299 326
#     4  10  19  33  51  77 117 153 189 238 276 339
#
# _framework density 18.283861000000002
#
# number of rings (size 3 to 8) (size 9 to 14) (size 15 to 20)
#    0.000    1.250    6.250    2.625    0.000    0.000 
#    0.000    0.000    0.000    0.750    0.000    7.875 
#    0.000    0.000    0.000    0.000    0.000    0.000 
#
# Total GULP energy -89139.832055 kJ/mol
# GULP energy per Si atom -5571.239503 kJ/mol
# Density = 1.824225 g / cm^3
# Si number density = 18.283861 Si / 1000 Ang^3
#
#
#
# Elastic Constant Matrix: (Units=GPa)
#
#
# Indices 1 2 3 4 5 6 
#
# 1 108.1692 10.1780 19.9727 0.2766 26.1491 15.3744
# 2 10.1780 63.4865 12.2926 6.3161 5.9547 -6.4859
# 3 19.9727 12.2926 76.5066 10.3883 14.2094 -4.4157
# 4 0.2766 6.3161 10.3883 27.9597 -5.2077 7.9291
# 5 26.1491 5.9547 14.2094 -5.2077 37.1698 2.1193
# 6 15.3744 -6.4859 -4.4157 7.9291 2.1193 34.0581
#
#
#
# Elastic Compliance Matrix: (Units=1/GPa)
#
#
# Indices 1 2 3 4 5 6 
#
# 1 0.012374 -0.001668 -0.002211 0.001495 -0.007035 -0.006100
# 2 -0.001668 0.017524 -0.000858 -0.005612 -0.002402 0.005435
# 3 -0.002211 -0.000858 0.016373 -0.008503 -0.006061 0.005314
# 4 0.001495 -0.005612 -0.008503 0.046147 0.010375 -0.014235
# 5 -0.007035 -0.002402 -0.006061 0.010375 0.036164 -0.002733
# 6 -0.006100 0.005435 0.005314 -0.014235 -0.002733 0.037323
#
#
# Mechanical properties :
#
#
# Convention : Reuss Voigt Hill
#
# Bulk Modulus (GPa) = 27.17661 37.00544 32.09102
# Shear Modulus (GPa) = 26.64607 33.55212 30.09909
#
# Velocity S-wave (km/s) = 3.82167 4.28842 4.06175
# Velocity P-wave (km/s) = 5.86256 6.69358 6.29180
#
# Compressibility (1/GPa) = 0.03679635
#
# Stress axis : x y z
#
# Youngs Moduli (GPa) = 80.81521 57.06529 61.07705
#
# Poissons Ratio (x) = 0.09517 0.13503
# Poissons Ratio (y) = 0.13478 0.05243
# Poissons Ratio (z) = 0.17867 0.04899
#
# Static dielectric constant tensor:
#      x y z
#    x 1.704810 -0.007130 0.019160 
#    y -0.007130 1.685150 0.042840 
#    z 0.019160 0.042840 1.662270 
# 
# From -- ./inp_files/99496.got.cif
#   From: 2010.05.17/outbox.cif.g08.bks.cpg/sg2_50_cif.got.tgz:99496.got - 2010.06.03 11:33:40.
