data_PCOD9082187
_publ_section_title
;
Structure prediction by ZEFSAII (Michael W. Deem and Ramdas Pophale) SiO2 
 PCOD9082187
Probable space group: P -1
;
_chemical_formula_sum "Si O2"
_cell_formula_units_Z 14
_cell_length_a 14.011876
_cell_length_b 14.814433
_cell_length_c 5.110146
_cell_angle_alpha 115.870233
_cell_angle_beta 116.148757
_cell_angle_gamma 44.166189
_cell_volume 651.060654
_symmetry_space_group_name_H-M "P -1"
_symmetry_group_IT_number 2
_symmetry_cell_setting 'triclinic'
loop_
_space_group_symop_operation_xyz
x,y,z
-x,-y,-z
loop_
_atom_site_type_symbol
_atom_site_label
_atom_site_fract_x
_atom_site_fract_y
_atom_site_fract_z
Si Si1 0.090349 0.879086 0.248887
Si Si2 0.108586 0.238728 0.633532
Si Si3 0.411185 0.935211 0.054395
Si Si4 0.084499 0.660713 0.980802
Si Si5 0.601660 0.823250 0.660700
Si Si6 0.807303 0.014342 0.791451
Si Si7 0.836575 0.594746 0.344437
O O1 0.209263 0.876281 0.263279
O O2 0.142124 0.736491 0.210956
O O3 0.000000 0.000000 0.500000
O O4 0.969599 0.923951 0.952468
O O5 0.984759 0.304515 0.348446
O O6 0.204740 0.082420 0.502986
O O7 0.184216 0.296836 0.733435
O O8 0.039386 0.279080 0.883328
O O9 0.510936 0.873963 0.350739
O O10 0.363845 0.079852 0.135954
O O11 0.283893 0.943493 0.005711
O O12 0.504010 0.847373 0.809044
O O13 0.184672 0.502689 0.922152
O O14 0.738508 0.675241 0.575081
O O15 0.000000 0.500000 0.500000
#
# Coordination Sequence:
#
# PCOD9082187 Si02
#       7
#     2   2   2   2   2   2   2
#     4  10  20  34  56  87 115 149 198 248 289 338
#     4  10  19  33  52  83 113 148 181 224 296 347
#     4  10  22  38  59  84 118 159 188 242 281 354
#     4  10  21  33  52  81 117 147 181 233 293 343
#     4  10  22  38  57  87 118 153 199 225 294 356
#     4  10  20  35  57  84 118 150 191 246 294 333
#     4  10  21  38  59  87 120 155 188 243 295 352
#
# _framework density 21.503374999999998
#
# number of rings (size 3 to 8) (size 9 to 14) (size 15 to 20)
#    0.000    2.000    2.857    0.429    2.000    4.571 
#    0.000    0.000    0.000    1.714    0.000    0.000 
#    0.000    0.000    0.000    0.000    0.000    0.000 
#
# Total GULP energy -78180.102003 kJ/mol
# GULP energy per Si atom -5584.293000 kJ/mol
# Density = 2.145443 g / cm^3
# Si number density = 21.503375 Si / 1000 Ang^3
#
#
#
# Elastic Constant Matrix: (Units=GPa)
#
#
# Indices 1 2 3 4 5 6 
#
# 1 165.0867 55.7882 43.4344 36.3470 -21.5864 29.4879
# 2 55.7882 56.8150 45.3456 31.2499 -0.8598 8.8797
# 3 43.4344 45.3456 98.2245 25.9699 -14.8396 8.5219
# 4 36.3470 31.2499 25.9699 47.3417 -0.8427 10.0656
# 5 -21.5864 -0.8598 -14.8396 -0.8427 45.2393 15.9485
# 6 29.4879 8.8797 8.5219 10.0656 15.9485 37.1396
#
#
#
# Elastic Compliance Matrix: (Units=1/GPa)
#
#
# Indices 1 2 3 4 5 6 
#
# 1 0.014065 -0.014056 0.003413 -0.000220 0.012452 -0.013877
# 2 -0.014056 0.052177 -0.016980 -0.017734 -0.016757 0.014584
# 3 0.003413 -0.016980 0.018619 0.000088 0.009962 -0.007224
# 4 -0.000220 -0.017734 0.000088 0.034239 0.002294 -0.005870
# 5 0.012452 -0.016757 0.009962 0.002294 0.040225 -0.026061
# 6 -0.013877 0.014584 -0.007224 -0.005870 -0.026061 0.048896
#
#
# Mechanical properties :
#
#
# Convention : Reuss Voigt Hill
#
# Bulk Modulus (GPa) = 33.76787 67.69585 50.73186
# Shear Modulus (GPa) = 18.29229 37.64800 27.97015
#
# Velocity S-wave (km/s) = 2.91979 4.18879 3.61048
# Velocity P-wave (km/s) = 5.20620 7.41245 6.40504
#
# Compressibility (1/GPa) = 0.02961395
#
# Stress axis : x y z
#
# Youngs Moduli (GPa) = 71.09924 19.16553 53.70852
#
# Poissons Ratio (x) = 0.26940 -0.18331
# Poissons Ratio (y) = 0.99940 0.91198
# Poissons Ratio (z) = -0.24267 0.32543
#
# Static dielectric constant tensor:
#      x y z
#    x 1.836690 0.069160 0.027530 
#    y 0.069160 1.907090 -0.055960 
#    z 0.027530 -0.055960 1.852650 
# 
# From -- ./inp_files/64178.got.cif
#   From: 2010.05.17/outbox.cif.g08.bks.cpg/sg2_33_cif.got.tgz:64178.got - 2010.06.03 11:33:40.
