data_PCOD9082751
_publ_section_title
;
Structure prediction by ZEFSAII (Michael W. Deem and Ramdas Pophale) SiO2 
 PCOD9082751
Probable space group: P -1
;
_chemical_formula_sum "Si O2"
_cell_formula_units_Z 16
_cell_length_a 9.472456
_cell_length_b 25.228650
_cell_length_c 25.633169
_cell_angle_alpha 16.402222
_cell_angle_beta 28.006462
_cell_angle_gamma 35.253121
_cell_volume 790.686376
_symmetry_space_group_name_H-M "P -1"
_symmetry_group_IT_number 2
_symmetry_cell_setting 'triclinic'
loop_
_space_group_symop_operation_xyz
x,y,z
-x,-y,-z
loop_
_atom_site_type_symbol
_atom_site_label
_atom_site_fract_x
_atom_site_fract_y
_atom_site_fract_z
Si Si1 0.125102 0.506285 0.060510
Si Si2 0.840740 0.504815 0.821863
Si Si3 0.140244 0.507584 0.613176
Si Si4 0.042866 0.111462 0.125346
Si Si5 0.144595 0.945158 0.651386
Si Si6 0.879475 0.105630 0.487456
Si Si7 0.693389 0.151334 0.835961
Si Si8 0.835937 0.059186 0.128824
O O1 0.052537 0.432163 0.213932
O O2 0.945342 0.336750 0.242183
O O3 0.490883 0.528631 0.909321
O O4 0.053942 0.717197 0.882044
O O5 0.041587 0.575424 0.637943
O O6 0.856853 0.279883 0.031351
O O7 0.500000 0.500000 0.500000
O O8 0.114121 0.659013 0.434158
O O9 0.943642 0.290845 0.872850
O O10 0.014036 0.006915 0.288735
O O11 0.897536 0.005568 0.220039
O O12 0.408960 0.198050 0.916527
O O13 0.500000 0.000000 0.500000
O O14 0.069088 0.059123 0.519126
O O15 0.518039 0.017448 0.696402
O O16 0.000000 0.000000 0.500000
O O17 0.933557 0.037768 0.888579
O O18 0.500000 0.000000 0.000000
#
# Coordination Sequence:
#
# PCOD9082751 Si02
#       8
#     2   2   2   2   2   2   2   2
#     4  10  22  38  60  90 121 163 200 251 314 363
#     4   9  17  34  61  90 119 149 205 255 298 359
#     4  11  18  34  60  91 121 157 204 257 301 348
#     4   9  18  37  61  86 118 154 201 256 295 357
#     4  11  23  41  65  92 118 159 210 251 313 371
#     4  12  25  42  61  88 131 160 199 258 313 368
#     4  10  19  33  57  87 117 154 202 244 296 355
#     4  10  22  37  58  91 121 158 201 249 305 362
#
# _framework density 20.235582999999998
#
# number of rings (size 3 to 8) (size 9 to 14) (size 15 to 20)
#    0.000    1.750    3.750    4.500    0.000    6.500 
#    0.000    0.625    0.000    2.250    0.000    0.000 
#    0.000    0.000    0.000    0.000    0.000    0.000 
#
# Total GULP energy -89200.115125 kJ/mol
# GULP energy per Si atom -5575.007195 kJ/mol
# Density = 2.018953 g / cm^3
# Si number density = 20.235583 Si / 1000 Ang^3
#
#
#
# Elastic Constant Matrix: (Units=GPa)
#
#
# Indices 1 2 3 4 5 6 
#
# 1 47.1699 9.7197 13.0125 3.9153 3.3561 -0.5991
# 2 9.7197 73.9658 22.3947 0.4985 0.6142 -4.4281
# 3 13.0125 22.3947 82.0808 -8.8484 -4.9642 3.9126
# 4 3.9153 0.4985 -8.8484 43.7528 6.1484 0.8288
# 5 3.3561 0.6142 -4.9642 6.1484 33.8932 9.0422
# 6 -0.5991 -4.4281 3.9126 0.8288 9.0422 26.4619
#
#
#
# Elastic Compliance Matrix: (Units=1/GPa)
#
#
# Indices 1 2 3 4 5 6 
#
# 1 0.023004 -0.001759 -0.003686 -0.002421 -0.002831 0.001815
# 2 -0.001759 0.015274 -0.004239 -0.000722 -0.001581 0.003706
# 3 -0.003686 -0.004239 0.014631 0.002973 0.003146 -0.004124
# 4 -0.002421 -0.000722 0.002973 0.024200 -0.003670 -0.000119
# 5 -0.002831 -0.001581 0.003146 -0.003670 0.034243 -0.012380
# 6 0.001815 0.003706 -0.004124 -0.000119 -0.012380 0.043295
#
#
# Mechanical properties :
#
#
# Convention : Reuss Voigt Hill
#
# Bulk Modulus (GPa) = 29.81182 32.60782 31.20982
# Shear Modulus (GPa) = 26.99863 31.36088 29.17975
#
# Velocity S-wave (km/s) = 3.65665 3.94101 3.80149
# Velocity P-wave (km/s) = 5.70899 6.07106 5.89281
#
# Compressibility (1/GPa) = 0.03354375
#
# Stress axis : x y z
#
# Youngs Moduli (GPa) = 43.46981 65.47067 68.34694
#
# Poissons Ratio (x) = 0.11513 0.25191
# Poissons Ratio (y) = 0.07644 0.28970
# Poissons Ratio (z) = 0.16022 0.27751
#
# Static dielectric constant tensor:
#      x y z
#    x 1.728400 0.016430 0.037090 
#    y 0.016430 1.804700 0.005760 
#    z 0.037090 0.005760 1.768160 
# 
# From -- ./inp_files/608733.got.cif
#   From: 2010.05.17/outbox.cif.g08.bks.cpg/sg2_305_cif.got.tgz:608733.got - 2010.06.03 11:33:40.
