data_PCOD9082328
_publ_section_title
;
Structure prediction by ZEFSAII (Michael W. Deem and Ramdas Pophale) SiO2 
 PCOD9082328
Probable space group: P -1
;
_chemical_formula_sum "Si O2"
_cell_formula_units_Z 12
_cell_length_a 7.444453
_cell_length_b 7.979470
_cell_length_c 12.305663
_cell_angle_alpha 119.378582
_cell_angle_beta 132.498598
_cell_angle_gamma 83.875155
_cell_volume 439.977234
_symmetry_space_group_name_H-M "P -1"
_symmetry_group_IT_number 2
_symmetry_cell_setting 'triclinic'
loop_
_space_group_symop_operation_xyz
x,y,z
-x,-y,-z
loop_
_atom_site_type_symbol
_atom_site_label
_atom_site_fract_x
_atom_site_fract_y
_atom_site_fract_z
Si Si1 0.336896 0.698273 0.089488
Si Si2 0.122187 0.725459 0.670836
Si Si3 0.407212 0.307488 0.043545
Si Si4 0.101982 0.230581 0.167603
Si Si5 0.094833 0.961141 0.349354
Si Si6 0.474794 0.854208 0.586000
O O1 0.417061 0.536768 0.141290
O O2 0.445879 0.922478 0.255707
O O3 0.469879 0.698535 0.026863
O O4 0.029982 0.645849 0.923639
O O5 0.427130 0.773672 0.832043
O O6 0.000000 0.500000 0.500000
O O7 0.013517 0.747335 0.753650
O O8 0.048363 0.887730 0.618165
O O9 0.107760 0.172370 0.864339
O O10 0.408188 0.281778 0.333971
O O11 0.000000 0.000000 0.000000
O O12 0.180801 0.810594 0.414306
O O13 0.351650 0.108209 0.440398
#
# Coordination Sequence:
#
# PCOD9082328 Si02
#       6
#     2   2   2   2   2   2
#     4   9  18  34  53  73 102 138 175 217 260 307
#     4  10  19  33  54  79 106 135 173 222 267 308
#     4  10  20  33  52  78 105 137 176 216 261 312
#     4   8  16  33  55  73  98 139 176 208 258 312
#     4  10  20  33  52  78 105 137 176 216 261 312
#     4   9  18  34  53  73 102 138 175 217 260 307
#
# _framework density 27.274139999999999
#
# number of rings (size 3 to 8) (size 9 to 14) (size 15 to 20)
#    0.000    2.667    0.000    1.500    0.000    1.333 
#    0.000    0.833    0.000    0.000    0.000    0.000 
#    0.000    0.000    0.000    0.000    0.000    0.000 
#
# Total GULP energy -67072.895079 kJ/mol
# GULP energy per Si atom -5589.407923 kJ/mol
# Density = 2.721206 g / cm^3
# Si number density = 27.274140 Si / 1000 Ang^3
#
#
#
# Elastic Constant Matrix: (Units=GPa)
#
#
# Indices 1 2 3 4 5 6 
#
# 1 112.0983 40.3875 33.1330 -21.1653 -30.0184 4.8071
# 2 40.3875 109.3869 55.3695 -24.4820 23.6673 -64.5607
# 3 33.1330 55.3695 133.8883 -15.5582 6.7082 -36.9674
# 4 -21.1653 -24.4820 -15.5582 64.4805 -26.9303 11.2335
# 5 -30.0184 23.6673 6.7082 -26.9303 36.3124 -3.8823
# 6 4.8071 -64.5607 -36.9674 11.2335 -3.8823 27.1620
#
#
#
# Elastic Compliance Matrix: (Units=1/GPa)
#
#
# Indices 1 2 3 4 5 6 
#
# 1 0.006641 0.009267 0.000384 0.004204 0.004668 0.020302
# 2 0.009267 -0.002025 -0.005426 0.010413 0.016010 -0.015857
# 3 0.000384 -0.005426 0.009620 0.001845 0.003430 -0.000144
# 4 0.004204 0.010413 0.001845 0.025149 0.016981 0.018543
# 5 0.004668 0.016010 0.003430 0.016981 0.037220 0.040193
# 6 0.020302 -0.015857 -0.000144 0.018543 0.040193 -0.006587
#
#
# Mechanical properties :
#
#
# Convention : Reuss Voigt Hill
#
# Bulk Modulus (GPa) = 44.07863 68.12817 56.10340
# Shear Modulus (GPa) = 72.32790 40.68987 56.50888
#
# Velocity S-wave (km/s) = 5.15523 3.86668 4.55673
# Velocity P-wave (km/s) = 7.18552 6.70584 6.94982
#
# Compressibility (1/GPa) = 0.02268673
#
# Stress axis : x y z
#
# Youngs Moduli (GPa) = 150.56937 -493.73462 103.94617
#
# Poissons Ratio (x) = 4.57530 -0.03996
# Poissons Ratio (y) = -1.39529 0.56401
# Poissons Ratio (z) = -0.05788 -2.67900
#
# Static dielectric constant tensor:
#      x y z
#    x 2.153590 0.014860 0.042150 
#    y 0.014860 2.166330 -0.054870 
#    z 0.042150 -0.054870 2.115210 
# 
# From -- ./inp_files/147520.got.cif
#   From: 2010.05.17/outbox.cif.g08.bks.cpg/sg2_74_cif.got.tgz:147520.got - 2010.06.03 11:33:40.
