data_PCOD9082356
_publ_section_title
;
Structure prediction by ZEFSAII (Michael W. Deem and Ramdas Pophale) SiO2 
 PCOD9082356
Probable space group: P -1
;
_chemical_formula_sum "Si O2"
_cell_formula_units_Z 16
_cell_length_a 21.276222
_cell_length_b 28.411400
_cell_length_c 9.141890
_cell_angle_alpha 152.113044
_cell_angle_beta 35.972732
_cell_angle_gamma 163.150811
_cell_volume 721.329513
_symmetry_space_group_name_H-M "P -1"
_symmetry_group_IT_number 2
_symmetry_cell_setting 'triclinic'
loop_
_space_group_symop_operation_xyz
x,y,z
-x,-y,-z
loop_
_atom_site_type_symbol
_atom_site_label
_atom_site_fract_x
_atom_site_fract_y
_atom_site_fract_z
Si Si1 0.468786 0.775583 0.633254
Si Si2 0.318499 0.064769 0.819209
Si Si3 0.628949 0.210054 0.853649
Si Si4 0.718717 0.448397 0.920563
Si Si5 0.061523 0.092892 0.799078
Si Si6 0.979600 0.615879 0.177561
Si Si7 0.235533 0.419375 0.261512
Si Si8 0.028462 0.846207 0.266181
O O1 0.324428 0.653189 0.421890
O O2 0.437147 0.641415 0.407513
O O3 0.367456 0.768025 0.920291
O O4 0.733493 0.010094 0.755372
O O5 0.215206 0.871701 0.431882
O O6 0.469047 0.159717 0.936272
O O7 0.477914 0.249072 0.905996
O O8 0.129702 0.989254 0.009097
O O9 0.500000 0.000000 0.500000
O O10 0.872108 0.420174 0.894990
O O11 0.883458 0.545252 0.001618
O O12 0.831317 0.644036 0.187931
O O13 0.070212 0.999994 0.623466
O O14 0.000000 0.000000 0.500000
O O15 0.269968 0.341578 0.064203
O O16 0.861905 0.586381 0.447647
O O17 0.053493 0.250467 0.009686
#
# Coordination Sequence:
#
# PCOD9082356 Si02
#       8
#     2   2   2   2   2   2   2   2
#     4  10  19  35  56  79 112 144 174 227 276 312
#     4  10  20  38  58  77 113 149 175 227 276 310
#     4  10  21  37  62  89 104 130 181 229 276 331
#     4  10  21  35  54  79 113 152 183 213 266 327
#     4   9  17  32  55  82 108 141 188 228 265 315
#     4   9  18  36  56  78 108 142 178 218 269 326
#     4   8  17  32  52  75 102 139 183 224 264 314
#     4  10  19  33  54  81 109 145 190 222 259 317
#
# _framework density 22.181265
#
# number of rings (size 3 to 8) (size 9 to 14) (size 15 to 20)
#    0.000    2.500    0.000    3.000    0.000    1.500 
#    0.000   21.875    0.000    4.500    0.000    0.000 
#    0.000    0.000    0.000    0.000    0.000    0.000 
#
# Total GULP energy -89103.869236 kJ/mol
# GULP energy per Si atom -5568.991827 kJ/mol
# Density = 2.213078 g / cm^3
# Si number density = 22.181265 Si / 1000 Ang^3
#
#
#
# Elastic Constant Matrix: (Units=GPa)
#
#
# Indices 1 2 3 4 5 6 
#
# 1 87.2211 25.7383 27.0257 -0.2530 20.9181 -15.5765
# 2 25.7383 97.8416 14.5785 28.5483 1.9783 -17.5712
# 3 27.0257 14.5785 69.0682 23.9608 13.9416 -9.3807
# 4 -0.2530 28.5483 23.9608 34.5554 -8.1530 -2.0139
# 5 20.9181 1.9783 13.9416 -8.1530 27.7039 5.4721
# 6 -15.5765 -17.5712 -9.3807 -2.0139 5.4721 33.8811
#
#
#
# Elastic Compliance Matrix: (Units=1/GPa)
#
#
# Indices 1 2 3 4 5 6 
#
# 1 0.017911 -0.003688 -0.004317 0.003911 -0.011358 0.007193
# 2 -0.003688 0.020001 0.011375 -0.027211 -0.014866 0.012610
# 3 -0.004317 0.011375 0.036761 -0.041385 -0.031534 0.016726
# 4 0.003911 -0.027211 -0.041385 0.090813 0.051824 -0.026744
# 5 -0.011358 -0.014866 -0.031534 0.051824 0.083178 -0.032016
# 6 0.007193 0.012610 0.016726 -0.026744 -0.032016 0.047574
#
#
# Mechanical properties :
#
#
# Convention : Reuss Voigt Hill
#
# Bulk Modulus (GPa) = 12.28331 43.20176 27.74253
# Shear Modulus (GPa) = 15.79103 31.68062 23.73582
#
# Velocity S-wave (km/s) = 2.67106 3.78333 3.27476
# Velocity P-wave (km/s) = 3.88104 6.21319 5.18007
#
# Compressibility (1/GPa) = 0.08141128
#
# Stress axis : x y z
#
# Youngs Moduli (GPa) = 55.83146 49.99802 27.20292
#
# Poissons Ratio (x) = 0.18440 0.11744
# Poissons Ratio (y) = 0.20592 -0.30943
# Poissons Ratio (z) = 0.24104 -0.56872
#
# Static dielectric constant tensor:
#      x y z
#    x 1.854180 -0.007820 -0.052540 
#    y -0.007820 1.851210 0.049640 
#    z -0.052540 0.049640 1.868320 
# 
# From -- ./inp_files/350262.got.cif
#   From: 2010.05.17/outbox.cif.g08.bks.cpg/sg2_176_cif.got.tgz:350262.got - 2010.06.03 11:33:40.
