data_PCOD9082938
_publ_section_title
;
Structure prediction by ZEFSAII (Michael W. Deem and Ramdas Pophale) SiO2 
 PCOD9082938
Probable space group: P -1
;
_chemical_formula_sum "Si O2"
_cell_formula_units_Z 14
_cell_length_a 27.405089
_cell_length_b 10.250859
_cell_length_c 17.877952
_cell_angle_alpha 22.228187
_cell_angle_beta 160.817486
_cell_angle_gamma 154.756786
_cell_volume 605.552555
_symmetry_space_group_name_H-M "P -1"
_symmetry_group_IT_number 2
_symmetry_cell_setting 'triclinic'
loop_
_space_group_symop_operation_xyz
x,y,z
-x,-y,-z
loop_
_atom_site_type_symbol
_atom_site_label
_atom_site_fract_x
_atom_site_fract_y
_atom_site_fract_z
Si Si1 0.072975 0.503782 0.733887
Si Si2 0.187348 0.703283 0.419282
Si Si3 0.820303 0.600613 0.208250
Si Si4 0.401535 0.364052 0.017583
Si Si5 0.268419 0.245185 0.657587
Si Si6 0.471649 0.283837 0.498079
Si Si7 0.369001 0.172230 0.685389
O O1 0.962111 0.303547 0.744284
O O2 0.965417 0.688291 0.426732
O O3 0.140503 0.302828 0.872278
O O4 0.199972 0.823171 0.783896
O O5 0.295105 0.543302 0.717255
O O6 0.166080 0.445792 0.452743
O O7 0.291874 0.081690 0.343793
O O8 0.688305 0.751590 0.973876
O O9 0.753769 0.168657 0.344547
O O10 0.560187 0.971032 0.788430
O O11 0.561608 0.632872 0.127016
O O12 0.291005 0.333448 0.555301
O O13 0.500000 0.500000 0.500000
O O14 0.543968 0.544866 0.397729
O O15 0.500000 0.000000 0.000000
#
# Coordination Sequence:
#
# PCOD9082938 Si02
#       7
#     2   2   2   2   2   2   2
#     4   9  18  32  60  87 115 164 194 237 290 364
#     4  10  21  37  59  89 124 157 197 239 303 355
#     4   9  18  37  58  86 117 153 206 236 294 350
#     4  10  20  36  59  92 117 158 199 249 294 348
#     4  10  19  33  59  88 117 151 203 240 293 347
#     4  11  23  36  60  90 123 152 194 252 303 350
#     4  11  22  36  61  94 115 153 198 252 295 343
#
# _framework density 23.119378999999999
#
# number of rings (size 3 to 8) (size 9 to 14) (size 15 to 20)
#    0.000    2.000    1.429    3.857    2.000    2.286 
#    0.000    0.000    0.000   34.286   14.857    0.000 
#    0.000    0.000    0.000    0.000    0.000    0.000 
#
# Total GULP energy -78251.933897 kJ/mol
# GULP energy per Si atom -5589.423850 kJ/mol
# Density = 2.306676 g / cm^3
# Si number density = 23.119379 Si / 1000 Ang^3
#
#
#
# Elastic Constant Matrix: (Units=GPa)
#
#
# Indices 1 2 3 4 5 6 
#
# 1 232.6993 60.2151 21.4502 -8.8417 7.9611 31.7727
# 2 60.2151 95.6701 41.3799 -6.8924 4.2846 19.2450
# 3 21.4502 41.3799 55.7010 -7.0228 -9.3485 3.0652
# 4 -8.8417 -6.8924 -7.0228 25.9482 11.0488 -6.2642
# 5 7.9611 4.2846 -9.3485 11.0488 20.9944 4.2076
# 6 31.7727 19.2450 3.0652 -6.2642 4.2076 60.8914
#
#
#
# Elastic Compliance Matrix: (Units=1/GPa)
#
#
# Indices 1 2 3 4 5 6 
#
# 1 0.005383 -0.002881 0.000025 0.001498 -0.001907 -0.001614
# 2 -0.002881 0.020237 -0.015140 0.004543 -0.011597 -0.002862
# 3 0.000025 -0.015140 0.031838 -0.002863 0.018443 0.001601
# 4 0.001498 0.004543 -0.002863 0.054862 -0.032813 0.005838
# 5 -0.001907 -0.011597 0.018443 -0.032813 0.077201 -0.004978
# 6 -0.001614 -0.002862 0.001601 0.005838 -0.004978 0.019033
#
#
# Mechanical properties :
#
#
# Convention : Reuss Voigt Hill
#
# Bulk Modulus (GPa) = 46.58891 70.01788 58.30340
# Shear Modulus (GPa) = 19.86486 38.96847 29.41667
#
# Velocity S-wave (km/s) = 2.93444 4.10998 3.57092
# Velocity P-wave (km/s) = 5.62819 7.27143 6.50193
#
# Compressibility (1/GPa) = 0.02146433
#
# Stress axis : x y z
#
# Youngs Moduli (GPa) = 185.76627 49.41491 31.40948
#
# Poissons Ratio (x) = 0.14236 -0.00078
# Poissons Ratio (y) = 0.53517 0.47555
# Poissons Ratio (z) = -0.00460 0.74816
#
# Static dielectric constant tensor:
#      x y z
#    x 1.920140 0.043130 -0.002010 
#    y 0.043130 1.888010 0.011000 
#    z -0.002010 0.011000 1.904590 
# 
# From -- ./inp_files/579658.got.cif
#   From: 2010.05.17/outbox.cif.g08.bks.cpg/sg2_290_cif.got.tgz:579658.got - 2010.06.03 11:33:40.
