data_PCOD9082065
_publ_section_title
;
Structure prediction by ZEFSAII (Michael W. Deem and Ramdas Pophale) SiO2 
 PCOD9082065
Probable space group: P -1
;
_chemical_formula_sum "Si O2"
_cell_formula_units_Z 16
_cell_length_a 11.931302
_cell_length_b 15.821677
_cell_length_c 5.451215
_cell_angle_alpha 110.153916
_cell_angle_beta 103.205393
_cell_angle_gamma 63.207819
_cell_volume 859.038389
_symmetry_space_group_name_H-M "P -1"
_symmetry_group_IT_number 2
_symmetry_cell_setting 'triclinic'
loop_
_space_group_symop_operation_xyz
x,y,z
-x,-y,-z
loop_
_atom_site_type_symbol
_atom_site_label
_atom_site_fract_x
_atom_site_fract_y
_atom_site_fract_z
Si Si1 0.107082 0.271466 0.825007
Si Si2 0.140878 0.724505 0.794942
Si Si3 0.863414 0.216658 0.648366
Si Si4 0.394257 0.127025 0.824153
Si Si5 0.472923 0.891094 0.627555
Si Si6 0.913880 0.938808 0.895746
Si Si7 0.807354 0.034724 0.438400
Si Si8 0.023556 0.386890 0.398668
O O1 0.244423 0.184506 0.806718
O O2 0.091473 0.334263 0.631021
O O3 0.991535 0.236105 0.731875
O O4 0.091473 0.334264 0.128978
O O5 0.204851 0.735177 0.588032
O O6 0.007647 0.824097 0.827918
O O7 0.104792 0.631862 0.684260
O O8 0.204851 0.735179 0.087170
O O9 0.887758 0.102168 0.546045
O O10 0.450703 0.150185 0.624987
O O11 0.435500 0.009272 0.727021
O O12 0.450705 0.150185 0.126085
O O13 0.337177 0.887454 0.556043
O O14 0.833663 0.972410 0.640382
O O15 0.833662 0.972409 0.138095
O O16 0.000000 0.000000 0.000000
O O17 0.000000 0.500000 0.500000
#
# Coordination Sequence:
#
# PCOD9082065 Si02
#       8
#     2   2   2   2   2   2   2   2
#     4  10  21  35  60  75 108 142 174 219 267 325
#     4  10  20  31  45  70 107 138 163 202 257 316
#     4  10  19  33  46  79  99 136 172 206 261 314
#     4  10  21  39  49  72 100 145 195 210 259 291
#     4  10  23  35  51  70 105 147 185 230 236 293
#     4  12  21  29  46  73 108 143 173 208 244 328
#     4  12  22  32  49  72 111 137 182 208 257 295
#     4  10  21  35  53  81 108 134 173 221 279 325
#
# _framework density 18.625477
#
# number of rings (size 3 to 8) (size 9 to 14) (size 15 to 20)
#    0.000    1.500    2.500    3.000    7.000    0.000 
#    0.000    0.000    0.000    0.000    0.000    0.000 
#    0.000   80.000    0.000    0.000    0.000    0.000 
#
# Total GULP energy -89323.159954 kJ/mol
# GULP energy per Si atom -5582.697497 kJ/mol
# Density = 1.858308 g / cm^3
# Si number density = 18.625477 Si / 1000 Ang^3
#
#
#
# Elastic Constant Matrix: (Units=GPa)
#
#
# Indices 1 2 3 4 5 6 
#
# 1 58.4651 22.7904 40.8385 -3.7204 -8.6903 -0.4847
# 2 22.7904 61.7674 42.4257 -0.1536 1.2747 20.1211
# 3 40.8385 42.4257 169.1414 -25.7813 -32.8679 12.6010
# 4 -3.7204 -0.1536 -25.7813 31.7201 6.3147 3.1984
# 5 -8.6903 1.2747 -32.8679 6.3147 29.1096 -2.4029
# 6 -0.4847 20.1211 12.6010 3.1984 -2.4029 22.3418
#
#
#
# Elastic Compliance Matrix: (Units=1/GPa)
#
#
# Indices 1 2 3 4 5 6 
#
# 1 0.024704 -0.011342 -0.003400 -0.002427 0.005683 0.013627
# 2 -0.011342 0.034954 -0.006865 -0.000813 -0.014914 -0.029341
# 3 -0.003400 -0.006865 0.011647 0.006888 0.010920 -0.000272
# 4 -0.002427 -0.000813 0.006888 0.038110 -0.001910 -0.008866
# 5 0.005683 -0.014914 0.010920 -0.001910 0.050529 0.013104
# 6 0.013627 -0.029341 -0.000272 -0.008866 0.013104 0.074312
#
#
# Mechanical properties :
#
#
# Convention : Reuss Voigt Hill
#
# Bulk Modulus (GPa) = 35.59946 55.72035 45.65991
# Shear Modulus (GPa) = 17.43168 28.85557 23.14363
#
# Velocity S-wave (km/s) = 3.06258 3.94032 3.52885
# Velocity P-wave (km/s) = 5.62678 7.11918 6.41651
#
# Compressibility (1/GPa) = 0.02809032
#
# Stress axis : x y z
#
# Youngs Moduli (GPa) = 40.47927 28.60912 85.85610
#
# Poissons Ratio (x) = 0.32448 0.29195
# Poissons Ratio (y) = 0.45911 0.58942
# Poissons Ratio (z) = 0.13765 0.19641
#
# Static dielectric constant tensor:
#      x y z
#    x 1.685560 0.024220 -0.014570 
#    y 0.024220 1.624970 -0.026610 
#    z -0.014570 -0.026610 1.738950 
# 
# From -- ./inp_files/76502.got.cif
#   From: 2010.05.17/outbox.cif.g08.bks.cpg/sg2_39_cif.got.tgz:76502.got - 2010.06.03 11:33:40.
