data_PCOD9082316
_publ_section_title
;
Structure prediction by ZEFSAII (Michael W. Deem and Ramdas Pophale) SiO2 
 PCOD9082316
Probable space group: P -1
;
_chemical_formula_sum "Si O2"
_cell_formula_units_Z 12
_cell_length_a 7.032079
_cell_length_b 14.884500
_cell_length_c 14.290781
_cell_angle_alpha 26.048127
_cell_angle_beta 59.559821
_cell_angle_gamma 73.832344
_cell_volume 500.819533
_symmetry_space_group_name_H-M "P -1"
_symmetry_group_IT_number 2
_symmetry_cell_setting 'triclinic'
loop_
_space_group_symop_operation_xyz
x,y,z
-x,-y,-z
loop_
_atom_site_type_symbol
_atom_site_label
_atom_site_fract_x
_atom_site_fract_y
_atom_site_fract_z
Si Si1 0.516046 0.527345 0.830370
Si Si2 0.760767 0.840841 0.147303
Si Si3 0.304156 0.730246 0.820759
Si Si4 0.890497 0.054479 0.201422
Si Si5 0.710689 0.303284 0.872177
Si Si6 0.249267 0.642146 0.400083
O O1 0.292210 0.575322 0.878591
O O2 0.502674 0.379386 0.880034
O O3 0.738263 0.790201 0.518876
O O4 0.587260 0.383188 0.023610
O O5 0.478844 0.800330 0.259444
O O6 0.724992 0.586238 0.414628
O O7 0.861987 0.900272 0.959294
O O8 0.000000 0.000000 0.000000
O O9 0.083070 0.764620 0.892163
O O10 0.500000 0.000000 0.500000
O O11 0.721051 0.106671 0.118295
O O12 0.732533 0.255405 0.803158
O O13 0.973638 0.535339 0.609843
#
# Coordination Sequence:
#
# PCOD9082316 Si02
#       6
#     2   2   2   2   2   2
#     4   9  15  27  49  76 104 137 177 215 264 322
#     4  10  19  33  54  77 105 145 184 218 268 321
#     4   8  15  27  47  76 104 135 174 218 265 314
#     4   9  17  29  47  74 104 136 176 220 265 312
#     4   9  17  32  51  74 108 143 175 219 267 310
#     4   9  19  34  50  75 112 143 178 227 263 311
#
# _framework density 23.960726000000001
#
# number of rings (size 3 to 8) (size 9 to 14) (size 15 to 20)
#    0.000    3.000    0.000    1.000    0.000    0.000 
#    0.000   13.333    0.000    3.000    0.000   61.833 
#    0.000    0.000    0.000    0.000    0.000   17.833 
#
# Total GULP energy -66802.045182 kJ/mol
# GULP energy per Si atom -5566.837098 kJ/mol
# Density = 2.390619 g / cm^3
# Si number density = 23.960726 Si / 1000 Ang^3
#
#
#
# Elastic Constant Matrix: (Units=GPa)
#
#
# Indices 1 2 3 4 5 6 
#
# 1 84.6748 19.9058 53.6317 -10.3118 -8.0499 -6.6332
# 2 19.9058 47.5481 15.1306 4.5777 -7.2264 -2.3383
# 3 53.6317 15.1306 134.1555 -11.9517 30.4833 13.6602
# 4 -10.3118 4.5777 -11.9517 37.0423 -1.9952 -0.2128
# 5 -8.0499 -7.2264 30.4833 -1.9952 42.9190 -2.8238
# 6 -6.6332 -2.3383 13.6602 -0.2128 -2.8238 21.7588
#
#
#
# Elastic Compliance Matrix: (Units=1/GPa)
#
#
# Indices 1 2 3 4 5 6 
#
# 1 0.025870 -0.002686 -0.015561 0.003536 0.016906 0.019596
# 2 -0.002686 0.025354 -0.004375 -0.004883 0.007008 0.005514
# 3 -0.015561 -0.004375 0.020967 0.001785 -0.019842 -0.020935
# 4 0.003536 -0.004883 0.001785 0.029153 -0.000091 -0.000294
# 5 0.016906 0.007008 -0.019842 -0.000091 0.043317 0.023984
# 6 0.019596 0.005514 -0.020935 -0.000294 0.023984 0.068777
#
#
# Mechanical properties :
#
#
# Convention : Reuss Voigt Hill
#
# Bulk Modulus (GPa) = 37.10755 49.30163 43.20459
# Shear Modulus (GPa) = 18.67998 32.19136 25.43567
#
# Velocity S-wave (km/s) = 2.79518 3.66936 3.26169
# Velocity P-wave (km/s) = 5.09292 6.21071 5.67938
#
# Compressibility (1/GPa) = 0.02694869
#
# Stress axis : x y z
#
# Youngs Moduli (GPa) = 38.65426 39.44092 47.69294
#
# Poissons Ratio (x) = 0.10595 0.74215
# Poissons Ratio (y) = 0.10383 0.20864
# Poissons Ratio (z) = 0.60150 0.17254
#
# Static dielectric constant tensor:
#      x y z
#    x 1.956310 -0.053560 0.059130 
#    y -0.053560 2.134290 0.014140 
#    z 0.059130 0.014140 1.908100 
# 
# From -- ./inp_files/503560.got.cif
#   From: 2010.05.17/outbox.cif.g08.bks.cpg/sg2_252_cif.got.tgz:503560.got - 2010.06.03 11:33:40.
