data_PCOD9082265
_publ_section_title
;
Structure prediction by ZEFSAII (Michael W. Deem and Ramdas Pophale) SiO2 
 PCOD9082265
Probable space group: P -1
;
_chemical_formula_sum "Si O2"
_cell_formula_units_Z 16
_cell_length_a 21.994291
_cell_length_b 19.740303
_cell_length_c 9.686515
_cell_angle_alpha 38.406693
_cell_angle_beta 28.629897
_cell_angle_gamma 22.814536
_cell_volume 774.003757
_symmetry_space_group_name_H-M "P -1"
_symmetry_group_IT_number 2
_symmetry_cell_setting 'triclinic'
loop_
_space_group_symop_operation_xyz
x,y,z
-x,-y,-z
loop_
_atom_site_type_symbol
_atom_site_label
_atom_site_fract_x
_atom_site_fract_y
_atom_site_fract_z
Si Si1 0.647610 0.187293 0.691539
Si Si2 0.875284 0.087568 0.796488
Si Si3 0.369268 0.025626 0.831023
Si Si4 0.477102 0.204262 0.723822
Si Si5 0.629923 0.400451 0.558158
Si Si6 0.327741 0.114655 0.325291
Si Si7 0.562986 0.360504 0.199665
Si Si8 0.952527 0.786018 0.039913
O O1 0.585558 0.188232 0.663443
O O2 0.568864 0.355632 0.634338
O O3 0.892312 0.029742 0.467424
O O4 0.572646 0.140655 0.013694
O O5 0.756420 0.239070 0.676193
O O6 0.769872 0.175609 0.014566
O O7 0.878605 0.959040 0.949349
O O8 0.141165 0.184519 0.969291
O O9 0.500000 0.000000 0.500000
O O10 0.452549 0.017573 0.821417
O O11 0.420466 0.347839 0.514398
O O12 0.635487 0.017939 0.626517
O O13 0.309548 0.234229 0.074248
O O14 0.448013 0.574862 0.732419
O O15 0.803174 0.369295 0.212791
O O16 0.149180 0.218662 0.628654
O O17 0.500000 0.500000 0.000000
#
# Coordination Sequence:
#
# PCOD9082265 Si02
#       8
#     2   2   2   2   2   2   2   2
#     4  10  18  31  54  80 106 133 173 226 257 299
#     4  10  17  32  54  80 107 134 173 219 261 304
#     4   9  16  26  51  82 100 127 172 227 253 293
#     4  10  20  36  51  78 111 135 179 216 264 305
#     4  10  19  32  53  79 111 138 166 215 262 318
#     4   9  19  32  54  80 101 139 174 228 256 295
#     4  10  22  35  52  76 108 147 168 206 270 326
#     4  10  15  31  55  81 101 131 182 217 255 300
#
# _framework density 20.671734000000001
#
# number of rings (size 3 to 8) (size 9 to 14) (size 15 to 20)
#    0.000    2.250    3.750    0.750    0.000    1.000 
#    0.000    0.625    0.000    0.750   16.250    0.000 
#    0.000    0.000    0.000    0.000    0.000    0.000 
#
# Total GULP energy -89099.758380 kJ/mol
# GULP energy per Si atom -5568.734899 kJ/mol
# Density = 2.062468 g / cm^3
# Si number density = 20.671734 Si / 1000 Ang^3
#
#
#
# Elastic Constant Matrix: (Units=GPa)
#
#
# Indices 1 2 3 4 5 6 
#
# 1 100.5185 31.7267 30.7863 9.7634 -4.4293 25.2234
# 2 31.7267 52.5424 32.2121 0.1396 -0.6931 18.0455
# 3 30.7863 32.2121 141.8174 -20.0737 6.2369 7.0874
# 4 9.7634 0.1396 -20.0737 41.7908 5.0496 5.2908
# 5 -4.4293 -0.6931 6.2369 5.0496 29.9294 4.5789
# 6 25.2234 18.0455 7.0874 5.2908 4.5789 33.4710
#
#
#
# Elastic Compliance Matrix: (Units=1/GPa)
#
#
# Indices 1 2 3 4 5 6 
#
# 1 0.014815 -0.004485 -0.002587 -0.004210 0.004587 -0.008161
# 2 -0.004485 0.028899 -0.005213 -0.000459 0.002917 -0.011423
# 3 -0.002587 -0.005213 0.009607 0.005390 -0.003781 0.002391
# 4 -0.004210 -0.000459 0.005390 0.028441 -0.006349 -0.001349
# 5 0.004587 0.002917 -0.003781 -0.006349 0.037291 -0.008326
# 6 -0.008161 -0.011423 0.002391 -0.001349 -0.008326 0.043031
#
#
# Mechanical properties :
#
#
# Convention : Reuss Voigt Hill
#
# Bulk Modulus (GPa) = 34.78162 53.81429 44.29795
# Shear Modulus (GPa) = 25.47915 34.38179 29.93047
#
# Velocity S-wave (km/s) = 3.51459 4.08269 3.80925
# Velocity P-wave (km/s) = 5.77339 6.95081 6.38928
#
# Compressibility (1/GPa) = 0.02875082
#
# Stress axis : x y z
#
# Youngs Moduli (GPa) = 67.49769 34.60272 104.09349
#
# Poissons Ratio (x) = 0.15521 0.26931
# Poissons Ratio (y) = 0.30276 0.54262
# Poissons Ratio (z) = 0.17463 0.18038
#
# Static dielectric constant tensor:
#      x y z
#    x 1.801170 -0.034400 0.051920 
#    y -0.034400 1.765400 -0.056040 
#    z 0.051920 -0.056040 1.812530 
# 
# From -- ./inp_files/348790.got.cif
#   From: 2010.05.17/outbox.cif.g08.bks.cpg/sg2_175_cif.got.tgz:348790.got - 2010.06.03 11:33:40.
