data_PCOD9082874
_publ_section_title
;
Structure prediction by ZEFSAII (Michael W. Deem and Ramdas Pophale) SiO2 
 PCOD9082874
Probable space group: P -1
;
_chemical_formula_sum "Si O2"
_cell_formula_units_Z 16
_cell_length_a 11.849135
_cell_length_b 26.378769
_cell_length_c 17.520844
_cell_angle_alpha 19.859712
_cell_angle_beta 151.800072
_cell_angle_gamma 153.741638
_cell_volume 796.592646
_symmetry_space_group_name_H-M "P -1"
_symmetry_group_IT_number 2
_symmetry_cell_setting 'triclinic'
loop_
_space_group_symop_operation_xyz
x,y,z
-x,-y,-z
loop_
_atom_site_type_symbol
_atom_site_label
_atom_site_fract_x
_atom_site_fract_y
_atom_site_fract_z
Si Si1 0.098952 0.523633 0.438400
Si Si2 0.220256 0.420542 0.121427
Si Si3 0.731893 0.034008 0.278306
Si Si4 0.128983 0.344988 0.001649
Si Si5 0.903142 0.917827 0.767129
Si Si6 0.678417 0.155335 0.229900
Si Si7 0.639342 0.714611 0.042199
Si Si8 0.554339 0.828606 0.325671
O O1 0.304136 0.715786 0.288382
O O2 0.000000 0.500000 0.500000
O O3 0.892166 0.516450 0.261101
O O4 0.235540 0.400642 0.682930
O O5 0.335566 0.301107 0.396364
O O6 0.916030 0.327870 0.098641
O O7 0.267187 0.420232 0.058315
O O8 0.380947 0.596118 0.007204
O O9 0.606259 0.045136 0.266992
O O10 0.528003 0.906723 0.279336
O O11 0.000000 0.000000 0.500000
O O12 0.851531 0.212411 0.058127
O O13 0.202252 0.225502 0.158354
O O14 0.835439 0.833367 0.928073
O O15 0.782086 0.050798 0.494990
O O16 0.215093 0.025226 0.788285
O O17 0.454123 0.191139 0.085258
#
# Coordination Sequence:
#
# PCOD9082874 Si02
#       8
#     2   2   2   2   2   2   2   2
#     4  11  23  39  52  82 116 148 181 223 275 334
#     4   9  18  35  57  83 107 144 185 226 271 322
#     4  10  15  33  60  86 106 133 186 234 267 315
#     4  10  18  35  58  82 109 139 188 229 268 313
#     4  10  18  33  56  84 110 135 185 235 268 320
#     4  10  18  34  57  85 114 139 181 232 276 321
#     4  11  22  34  54  84 118 149 175 222 281 328
#     4   9  18  35  60  81 105 143 186 229 275 316
#
# _framework density 20.085547999999999
#
# number of rings (size 3 to 8) (size 9 to 14) (size 15 to 20)
#    0.000    2.000    6.250    0.750    0.000    2.500 
#    2.250    2.500    0.000    2.250    0.000    0.000 
#    0.000    0.000    0.000    0.000    0.000    0.000 
#
# Total GULP energy -89182.830978 kJ/mol
# GULP energy per Si atom -5573.926936 kJ/mol
# Density = 2.003983 g / cm^3
# Si number density = 20.085548 Si / 1000 Ang^3
#
#
#
# Elastic Constant Matrix: (Units=GPa)
#
#
# Indices 1 2 3 4 5 6 
#
# 1 118.5356 24.4338 54.6538 -3.4378 4.3544 -10.1786
# 2 24.4338 36.4167 13.4319 -10.2558 -6.5162 0.6508
# 3 54.6538 13.4319 108.5158 -2.5848 -4.6529 -0.3219
# 4 -3.4378 -10.2558 -2.5848 20.1966 -4.9625 -2.9675
# 5 4.3544 -6.5162 -4.6529 -4.9625 38.5102 -3.3605
# 6 -10.1786 0.6508 -0.3219 -2.9675 -3.3605 18.5474
#
#
#
# Elastic Compliance Matrix: (Units=1/GPa)
#
#
# Indices 1 2 3 4 5 6 
#
# 1 0.013518 -0.008318 -0.005966 -0.002558 -0.003412 0.006579
# 2 -0.008318 0.041143 0.000079 0.022037 0.010704 -0.000542
# 3 -0.005966 0.000079 0.012308 0.000723 0.002043 -0.002578
# 4 -0.002558 0.022037 0.000723 0.065238 0.013447 0.010710
# 5 -0.003412 0.010704 0.002043 0.013447 0.030623 0.005487
# 6 0.006579 -0.000542 -0.002578 0.010710 0.005487 0.060208
#
#
# Mechanical properties :
#
#
# Convention : Reuss Voigt Hill
#
# Bulk Modulus (GPa) = 25.93512 49.83413 37.88463
# Shear Modulus (GPa) = 18.91785 26.84743 22.88264
#
# Velocity S-wave (km/s) = 3.07231 3.65999 3.37895
# Velocity P-wave (km/s) = 5.05231 6.53648 5.84172
#
# Compressibility (1/GPa) = 0.03855776
#
# Stress axis : x y z
#
# Youngs Moduli (GPa) = 73.97596 24.30562 81.25030
#
# Poissons Ratio (x) = 0.20217 0.48478
# Poissons Ratio (y) = 0.61531 -0.00641
# Poissons Ratio (z) = 0.44137 -0.00192
#
# Static dielectric constant tensor:
#      x y z
#    x 1.708150 0.015340 -0.015740 
#    y 0.015340 1.787030 0.018470 
#    z -0.015740 0.018470 1.741440 
# 
# From -- ./inp_files/399436.got.cif
#   From: 2010.05.17/outbox.cif.g08.bks.cpg/sg2_200_cif.got.tgz:399436.got - 2010.06.03 11:33:40.
