data_PCOD9082685
_publ_section_title
;
Structure prediction by ZEFSAII (Michael W. Deem and Ramdas Pophale) SiO2 
 PCOD9082685
Probable space group: P -1
;
_chemical_formula_sum "Si O2"
_cell_formula_units_Z 14
_cell_length_a 12.032292
_cell_length_b 18.732686
_cell_length_c 15.864291
_cell_angle_alpha 29.396578
_cell_angle_beta 152.738045
_cell_angle_gamma 135.229140
_cell_volume 770.140276
_symmetry_space_group_name_H-M "P -1"
_symmetry_group_IT_number 2
_symmetry_cell_setting 'triclinic'
loop_
_space_group_symop_operation_xyz
x,y,z
-x,-y,-z
loop_
_atom_site_type_symbol
_atom_site_label
_atom_site_fract_x
_atom_site_fract_y
_atom_site_fract_z
Si Si1 0.818130 0.976993 0.143294
Si Si2 0.034877 0.414610 0.201556
Si Si3 0.720944 0.708887 0.760076
Si Si4 0.265401 0.948676 0.184614
Si Si5 0.952734 0.179632 0.272561
Si Si6 0.498434 0.235762 0.787075
Si Si7 0.344103 0.022748 0.457758
O O1 0.700390 0.842720 0.225566
O O2 0.673143 0.117217 0.960940
O O3 0.117925 0.947899 0.385390
O O4 0.761705 0.017079 0.966612
O O5 0.974301 0.259345 0.293845
O O6 0.318129 0.375390 0.470043
O O7 0.847913 0.531247 0.018522
O O8 0.000000 0.500000 0.000000
O O9 0.835199 0.787806 0.679621
O O10 0.417952 0.770594 0.483153
O O11 0.775436 0.795880 0.790400
O O12 0.455484 0.026743 0.280155
O O13 0.000000 0.000000 0.000000
O O14 0.688826 0.254450 0.969209
O O15 0.000000 0.000000 0.500000
O O16 0.500000 0.000000 0.500000
#
# Coordination Sequence:
#
# PCOD9082685 Si02
#       7
#     2   2   2   2   2   2   2
#     4  11  19  34  54  89 115 144 195 242 280 347
#     4  10  22  37  51  82 128 157 186 236 290 356
#     4   9  20  36  52  82 116 146 184 240 292 330
#     4  10  19  33  57  81 109 147 200 242 286 329
#     4  11  20  36  56  85 118 152 190 230 285 355
#     4  11  22  32  58  86 119 158 187 229 301 360
#     4  10  20  36  56  84 108 145 195 245 283 328
#
# _framework density 18.178505999999999
#
# number of rings (size 3 to 8) (size 9 to 14) (size 15 to 20)
#    0.857    0.857    2.857    4.286    0.000    2.286 
#    2.571    0.714    0.000    3.429    0.000    9.000 
#    0.000    0.000    0.000    0.000    0.000    0.000 
#
# Total GULP energy -77960.437460 kJ/mol
# GULP energy per Si atom -5568.602676 kJ/mol
# Density = 1.813713 g / cm^3
# Si number density = 18.178506 Si / 1000 Ang^3
#
#
#
# Elastic Constant Matrix: (Units=GPa)
#
#
# Indices 1 2 3 4 5 6 
#
# 1 72.3374 24.8701 2.3052 4.2818 21.2482 -0.7899
# 2 24.8701 77.8310 25.9650 12.9759 12.6181 -6.5976
# 3 2.3052 25.9650 79.9459 17.6585 14.3316 8.3972
# 4 4.2818 12.9759 17.6585 47.1857 -4.4338 6.7242
# 5 21.2482 12.6181 14.3316 -4.4338 31.6822 5.9054
# 6 -0.7899 -6.5976 8.3972 6.7242 5.9054 28.0573
#
#
#
# Elastic Compliance Matrix: (Units=1/GPa)
#
#
# Indices 1 2 3 4 5 6 
#
# 1 0.019635 -0.004540 0.004020 -0.003664 -0.014088 0.002125
# 2 -0.004540 0.017827 -0.004845 -0.004072 -0.003791 0.007288
# 3 0.004020 -0.004845 0.017143 -0.005862 -0.008801 -0.002900
# 4 -0.003664 -0.004072 -0.005862 0.027167 0.012091 -0.008362
# 5 -0.014088 -0.003791 -0.008801 0.012091 0.050464 -0.012173
# 6 0.002125 0.007288 -0.002900 -0.008362 -0.012173 0.042849
#
#
# Mechanical properties :
#
#
# Convention : Reuss Voigt Hill
#
# Bulk Modulus (GPa) = 22.79252 37.37720 30.08486
# Shear Modulus (GPa) = 24.94500 33.18332 29.06416
#
# Velocity S-wave (km/s) = 3.70837 4.27712 4.00286
# Velocity P-wave (km/s) = 5.55891 6.70802 6.16032
#
# Compressibility (1/GPa) = 0.04387404
#
# Stress axis : x y z
#
# Youngs Moduli (GPa) = 50.92884 56.09482 58.33190
#
# Poissons Ratio (x) = 0.25469 -0.23450
# Poissons Ratio (y) = 0.23123 0.28264
# Poissons Ratio (z) = -0.20474 0.27180
#
# Static dielectric constant tensor:
#      x y z
#    x 1.629580 0.000440 -0.015740 
#    y 0.000440 1.687750 -0.027500 
#    z -0.015740 -0.027500 1.698080 
# 
# From -- ./inp_files/523440.got.cif
#   From: 2010.05.17/outbox.cif.g08.bks.cpg/sg2_262_cif.got.tgz:523440.got - 2010.06.03 11:33:40.
