data_PCOD9082078
_publ_section_title
;
Structure prediction by ZEFSAII (Michael W. Deem and Ramdas Pophale) SiO2 
 PCOD9082078
Probable space group: P -1
;
_chemical_formula_sum "Si O2"
_cell_formula_units_Z 16
_cell_length_a 12.264419
_cell_length_b 10.823152
_cell_length_c 10.023182
_cell_angle_alpha 134.026994
_cell_angle_beta 84.468940
_cell_angle_gamma 126.794036
_cell_volume 636.965551
_symmetry_space_group_name_H-M "P -1"
_symmetry_group_IT_number 2
_symmetry_cell_setting 'triclinic'
loop_
_space_group_symop_operation_xyz
x,y,z
-x,-y,-z
loop_
_atom_site_type_symbol
_atom_site_label
_atom_site_fract_x
_atom_site_fract_y
_atom_site_fract_z
Si Si1 0.938693 0.154720 0.228260
Si Si2 0.262739 0.522603 0.615062
Si Si3 0.588646 0.825816 0.671739
Si Si4 0.807243 0.780810 0.362094
Si Si5 0.366322 0.331574 0.187677
Si Si6 0.519380 0.329355 0.929306
Si Si7 0.217534 0.878786 0.505808
Si Si8 0.895490 0.340863 0.112447
O O1 0.868699 0.173979 0.380635
O O2 0.916274 0.238583 0.160361
O O3 0.126538 0.339068 0.378484
O O4 0.812646 0.850085 0.991307
O O5 0.442283 0.761844 0.713619
O O6 0.250100 0.342314 0.577224
O O7 0.196402 0.599852 0.771357
O O8 0.490368 0.634443 0.413853
O O9 0.635762 0.740110 0.715387
O O10 0.763246 0.119882 0.854840
O O11 0.712239 0.541074 0.092029
O O12 0.773420 0.934332 0.436321
O O13 0.000000 0.000000 0.500000
O O14 0.441395 0.268388 0.039317
O O15 0.500000 0.500000 0.000000
O O16 0.406448 0.063612 0.664157
O O17 0.082406 0.600093 0.245043
#
# Coordination Sequence:
#
# PCOD9082078 Si02
#       8
#     2   2   2   2   2   2   2   2
#     4   9  18  31  50  72 105 138 169 212 263 304
#     4  11  19  31  50  82 105 135 173 221 259 300
#     4  10  20  32  52  75 107 141 170 212 262 310
#     4  11  18  30  49  80 105 126 171 220 261 291
#     4   9  18  35  50  74 104 139 176 208 259 317
#     4   9  18  31  54  76  99 131 174 213 256 303
#     4   9  17  31  49  75 101 132 166 213 259 299
#     4  10  19  33  49  74 112 137 172 210 264 316
#
# _framework density 25.1191
#
# number of rings (size 3 to 8) (size 9 to 14) (size 15 to 20)
#    0.000    2.250    3.750    1.875    0.000    0.500 
#    2.250    0.000    0.000    3.000    0.000   12.250 
#    0.000    0.000    0.000    0.000    0.000    0.000 
#
# Total GULP energy -89220.244315 kJ/mol
# GULP energy per Si atom -5576.265270 kJ/mol
# Density = 2.506193 g / cm^3
# Si number density = 25.119100 Si / 1000 Ang^3
#
#
#
# Elastic Constant Matrix: (Units=GPa)
#
#
# Indices 1 2 3 4 5 6 
#
# 1 27.9245 13.5460 35.2489 2.6939 28.4671 2.2155
# 2 13.5460 73.3709 20.8782 16.3627 13.0267 -2.1903
# 3 35.2489 20.8782 235.7606 48.5337 59.8556 12.3417
# 4 2.6939 16.3627 48.5337 28.0057 11.3195 7.2307
# 5 28.4671 13.0267 59.8556 11.3195 42.5897 2.5749
# 6 2.2155 -2.1903 12.3417 7.2307 2.5749 23.8982
#
#
#
# Elastic Compliance Matrix: (Units=1/GPa)
#
#
# Indices 1 2 3 4 5 6 
#
# 1 0.149727 -0.020467 -0.004845 0.050756 -0.099417 -0.017900
# 2 -0.020467 0.019735 0.002870 -0.019836 0.008440 0.007316
# 3 -0.004845 0.002870 0.009614 -0.015272 -0.007161 0.001139
# 4 0.050756 -0.019836 -0.015272 0.085713 -0.027873 -0.021567
# 5 -0.099417 0.008440 -0.007161 -0.027873 0.104163 0.010899
# 6 -0.017900 0.007316 0.001139 -0.021567 0.010899 0.048937
#
#
# Mechanical properties :
#
#
# Convention : Reuss Voigt Hill
#
# Bulk Modulus (GPa) = 7.45198 52.93358 30.19278
# Shear Modulus (GPa) = 9.85214 36.72425 23.28819
#
# Velocity S-wave (km/s) = 1.98260 3.82777 3.04815
# Velocity P-wave (km/s) = 2.86601 6.37609 4.94310
#
# Compressibility (1/GPa) = 0.13419247
#
# Stress axis : x y z
#
# Youngs Moduli (GPa) = 6.67880 50.67158 104.01454
#
# Poissons Ratio (x) = 1.03711 0.50391
# Poissons Ratio (y) = 0.13670 -0.29851
# Poissons Ratio (z) = 0.03236 -0.14542
#
# Static dielectric constant tensor:
#      x y z
#    x 2.045800 0.030240 -0.000910 
#    y 0.030240 2.034220 0.050300 
#    z -0.000910 0.050300 2.132690 
# 
# From -- ./inp_files/437107.got.cif
#   From: 2010.05.17/outbox.cif.g08.bks.cpg/sg2_219_cif.got.tgz:437107.got - 2010.06.03 11:33:40.
