data_PCOD9082755
_publ_section_title
;
Structure prediction by ZEFSAII (Michael W. Deem and Ramdas Pophale) SiO2 
 PCOD9082755
Probable space group: P -1
;
_chemical_formula_sum "Si O2"
_cell_formula_units_Z 12
_cell_length_a 7.820222
_cell_length_b 16.015015
_cell_length_c 18.670406
_cell_angle_alpha 156.774991
_cell_angle_beta 36.033265
_cell_angle_gamma 135.138399
_cell_volume 536.452352
_symmetry_space_group_name_H-M "P -1"
_symmetry_group_IT_number 2
_symmetry_cell_setting 'triclinic'
loop_
_space_group_symop_operation_xyz
x,y,z
-x,-y,-z
loop_
_atom_site_type_symbol
_atom_site_label
_atom_site_fract_x
_atom_site_fract_y
_atom_site_fract_z
Si Si1 0.997111 0.303387 0.444565
Si Si2 0.763058 0.225793 0.841642
Si Si3 0.678301 0.266023 0.743534
Si Si4 0.585758 0.737218 0.315435
Si Si5 0.304291 0.189807 0.396196
Si Si6 0.942739 0.225443 0.239784
O O1 0.702550 0.217034 0.502555
O O2 0.059153 0.214553 0.273435
O O3 0.236910 0.239547 0.375078
O O4 0.948323 0.563365 0.663407
O O5 0.115154 0.189634 0.702440
O O6 0.315972 0.835275 0.259988
O O7 0.643358 0.065982 0.810905
O O8 0.656975 0.476215 0.085518
O O9 0.495009 0.189367 0.680223
O O10 0.007216 0.272305 0.606995
O O11 0.500000 0.500000 0.000000
O O12 0.585896 0.281008 0.402790
O O13 0.000000 0.000000 0.000000
#
# Coordination Sequence:
#
# PCOD9082755 Si02
#       6
#     2   2   2   2   2   2
#     4  10  23  42  62  87 121 157 202 254 300 352
#     4  10  19  33  57  87 120 157 196 238 296 358
#     4   9  19  34  54  82 117 154 190 233 289 353
#     4   9  19  36  55  83 120 157 197 243 293 353
#     4  11  22  37  60  89 121 158 200 247 301 357
#     4  11  24  43  65  87 117 159 206 253 302 354
#
# _framework density 22.369181000000001
#
# number of rings (size 3 to 8) (size 9 to 14) (size 15 to 20)
#    0.000    2.000    0.000    3.000    0.000    4.667 
#    0.000    8.333    0.000    0.000    0.000    0.000 
#    0.000    0.000    0.000    0.000    0.000    0.000 
#
# Total GULP energy -67040.537839 kJ/mol
# GULP energy per Si atom -5586.711487 kJ/mol
# Density = 2.231827 g / cm^3
# Si number density = 22.369181 Si / 1000 Ang^3
#
#
#
# Elastic Constant Matrix: (Units=GPa)
#
#
# Indices 1 2 3 4 5 6 
#
# 1 118.7432 42.1720 25.6160 15.1700 -1.5212 -33.1392
# 2 42.1720 84.3729 1.4632 22.4563 9.2931 -6.5756
# 3 25.6160 1.4632 81.2813 6.2771 18.1135 -6.4764
# 4 15.1700 22.4563 6.2771 19.6801 5.3996 -7.0497
# 5 -1.5212 9.2931 18.1135 5.3996 35.9285 -0.0604
# 6 -33.1392 -6.5756 -6.4764 -7.0497 -0.0604 53.7893
#
#
#
# Elastic Compliance Matrix: (Units=1/GPa)
#
#
# Indices 1 2 3 4 5 6 
#
# 1 0.013953 -0.006801 -0.004755 -0.000226 0.004793 0.007169
# 2 -0.006801 0.020637 0.004041 -0.019648 -0.004716 -0.003761
# 3 -0.004755 0.004041 0.015882 -0.004017 -0.008652 -0.001059
# 4 -0.000226 -0.019648 -0.004017 0.078582 -0.004700 0.007269
# 5 0.004793 -0.004716 -0.008652 -0.004700 0.034325 0.000757
# 6 0.007169 -0.003761 -0.001059 0.007269 0.000757 0.023374
#
#
# Mechanical properties :
#
#
# Convention : Reuss Voigt Hill
#
# Bulk Modulus (GPa) = 28.21406 46.98886 37.60146
# Shear Modulus (GPa) = 23.40846 36.22266 29.81556
#
# Velocity S-wave (km/s) = 3.23841 4.02843 3.65483
# Velocity P-wave (km/s) = 5.15979 6.53371 5.88697
#
# Compressibility (1/GPa) = 0.03544332
#
# Stress axis : x y z
#
# Youngs Moduli (GPa) = 71.66666 48.45622 62.96248
#
# Poissons Ratio (x) = 0.32955 0.29936
# Poissons Ratio (y) = 0.48740 -0.25440
# Poissons Ratio (z) = 0.34074 -0.19579
#
# Static dielectric constant tensor:
#      x y z
#    x 1.789220 -0.007920 -0.009900 
#    y -0.007920 1.797750 0.008790 
#    z -0.009900 0.008790 1.896230 
# 
# From -- ./inp_files/591004.got.cif
#   From: 2010.05.17/outbox.cif.g08.bks.cpg/sg2_296_cif.got.tgz:591004.got - 2010.06.03 11:33:40.
