data_PCOD9082233
_publ_section_title
;
Structure prediction by ZEFSAII (Michael W. Deem and Ramdas Pophale) SiO2 
 PCOD9082233
Probable space group: P -1
;
_chemical_formula_sum "Si O2"
_cell_formula_units_Z 14
_cell_length_a 9.374639
_cell_length_b 8.937221
_cell_length_c 20.470940
_cell_angle_alpha 49.037241
_cell_angle_beta 133.869777
_cell_angle_gamma 148.054207
_cell_volume 643.905114
_symmetry_space_group_name_H-M "P -1"
_symmetry_group_IT_number 2
_symmetry_cell_setting 'triclinic'
loop_
_space_group_symop_operation_xyz
x,y,z
-x,-y,-z
loop_
_atom_site_type_symbol
_atom_site_label
_atom_site_fract_x
_atom_site_fract_y
_atom_site_fract_z
Si Si1 0.276895 0.833335 0.218949
Si Si2 0.641617 0.404109 0.101045
Si Si3 0.337787 0.568887 0.193376
Si Si4 0.722307 0.133169 0.090394
Si Si5 0.173420 0.461397 0.528578
Si Si6 0.752569 0.530224 0.591760
Si Si7 0.180203 0.139507 0.366664
O O1 0.321084 0.710800 0.208155
O O2 0.333698 0.745308 0.327143
O O3 0.950669 0.666358 0.155268
O O4 0.466927 0.161993 0.170846
O O5 0.670420 0.266116 0.090376
O O6 0.500000 0.500000 0.000000
O O7 0.271745 0.311347 0.279682
O O8 0.059868 0.391643 0.109384
O O9 0.626975 0.848868 0.170210
O O10 0.500000 0.000000 0.000000
O O11 0.071239 0.365378 0.448588
O O12 0.515655 0.744285 0.551854
O O13 0.000000 0.500000 0.500000
O O14 0.086135 0.199629 0.614516
O O15 0.500000 0.500000 0.500000
O O16 0.895459 0.746459 0.636266
#
# Coordination Sequence:
#
# PCOD9082233 Si02
#       7
#     2   2   2   2   2   2   2
#     4   9  19  34  56  81 106 138 184 230 267 314
#     4  10  20  36  55  77 108 144 178 220 273 325
#     4   9  18  33  54  77 102 134 180 227 263 312
#     4  10  19  33  53  78 104 133 172 223 274 320
#     4  11  22  36  54  81 116 146 174 223 283 329
#     4   9  20  37  61  86 109 145 193 233 270 328
#     4  10  20  37  58  78 104 148 191 222 263 328
#
# _framework density 21.742335000000001
#
# number of rings (size 3 to 8) (size 9 to 14) (size 15 to 20)
#    0.000    2.286    0.000    2.571    0.000    9.143 
#    0.000    4.286    0.000    0.000    0.000    0.000 
#    0.000    0.000    0.000    0.000    0.000    0.000 
#
# Total GULP energy -78041.122844 kJ/mol
# GULP energy per Si atom -5574.365917 kJ/mol
# Density = 2.169285 g / cm^3
# Si number density = 21.742335 Si / 1000 Ang^3
#
#
#
# Elastic Constant Matrix: (Units=GPa)
#
#
# Indices 1 2 3 4 5 6 
#
# 1 59.4420 7.9970 4.4581 -0.7887 -0.6334 6.5418
# 2 7.9970 61.1170 -16.1225 -10.8661 -0.8779 21.1466
# 3 4.4581 -16.1225 82.3138 -17.3599 2.3735 0.7902
# 4 -0.7887 -10.8661 -17.3599 35.1446 -0.7733 -0.2280
# 5 -0.6334 -0.8779 2.3735 -0.7733 15.7700 0.4687
# 6 6.5418 21.1466 0.7902 -0.2280 0.4687 21.2400
#
#
#
# Elastic Compliance Matrix: (Units=1/GPa)
#
#
# Indices 1 2 3 4 5 6 
#
# 1 0.017552 -0.001382 -0.001359 -0.000710 0.000917 -0.004008
# 2 -0.001382 0.033312 0.010033 0.015055 0.002008 -0.032996
# 3 -0.001359 0.010033 0.016684 0.011222 -0.001158 -0.010045
# 4 -0.000710 0.015055 0.011222 0.038572 0.001452 -0.014805
# 5 0.000917 0.002008 -0.001158 0.001452 0.063913 -0.003633
# 6 -0.004008 -0.032996 -0.010045 -0.014805 -0.003633 0.081461
#
#
# Mechanical properties :
#
#
# Convention : Reuss Voigt Hill
#
# Bulk Modulus (GPa) = 12.17534 21.72643 16.95088
# Shear Modulus (GPa) = 18.91886 28.20026 23.55956
#
# Velocity S-wave (km/s) = 2.95301 3.60532 3.29535
# Velocity P-wave (km/s) = 4.15199 5.22930 4.72147
#
# Compressibility (1/GPa) = 0.08213325
#
# Stress axis : x y z
#
# Youngs Moduli (GPa) = 56.97244 30.01962 59.93761
#
# Poissons Ratio (x) = 0.04148 0.08146
# Poissons Ratio (y) = 0.07871 -0.60137
# Poissons Ratio (z) = 0.07743 -0.30120
#
# Static dielectric constant tensor:
#      x y z
#    x 1.813800 -0.015920 0.039580 
#    y -0.015920 1.812020 -0.011180 
#    z 0.039580 -0.011180 1.945680 
# 
# From -- ./inp_files/77544.got.cif
#   From: 2010.05.17/outbox.cif.g08.bks.cpg/sg2_39_cif.got.tgz:77544.got - 2010.06.03 11:33:40.
