data_PCOD9082159
_publ_section_title
;
Structure prediction by ZEFSAII (Michael W. Deem and Ramdas Pophale) SiO2 
 PCOD9082159
Probable space group: P -1
;
_chemical_formula_sum "Si O2"
_cell_formula_units_Z 14
_cell_length_a 5.510542
_cell_length_b 9.696157
_cell_length_c 21.851685
_cell_angle_alpha 140.159995
_cell_angle_beta 56.878241
_cell_angle_gamma 132.619285
_cell_volume 549.554050
_symmetry_space_group_name_H-M "P -1"
_symmetry_group_IT_number 2
_symmetry_cell_setting 'triclinic'
loop_
_space_group_symop_operation_xyz
x,y,z
-x,-y,-z
loop_
_atom_site_type_symbol
_atom_site_label
_atom_site_fract_x
_atom_site_fract_y
_atom_site_fract_z
Si Si1 0.180656 0.285125 0.937312
Si Si2 0.411064 0.872528 0.237727
Si Si3 0.775733 0.461154 0.111841
Si Si4 0.927259 0.831249 0.598798
Si Si5 0.065931 0.466539 0.397816
Si Si6 0.213229 0.532445 0.259298
Si Si7 0.778042 0.782117 0.409926
O O1 0.296847 0.087855 0.835654
O O2 0.159383 0.389222 0.909479
O O3 0.500000 0.500000 0.000000
O O4 0.872543 0.249412 0.008700
O O5 0.429674 0.770074 0.266944
O O6 0.065346 0.651904 0.182100
O O7 0.375013 0.113532 0.330685
O O8 0.403209 0.382504 0.157828
O O9 0.024981 0.770747 0.630482
O O10 0.861708 0.607532 0.487029
O O11 0.189113 0.075335 0.609868
O O12 0.178949 0.474939 0.316159
O O13 0.417044 0.662049 0.445771
O O14 0.884623 0.571760 0.313189
O O15 0.000000 0.000000 0.500000
#
# Coordination Sequence:
#
# PCOD9082159 Si02
#       7
#     2   2   2   2   2   2   2
#     4   8  15  29  50  85 114 140 183 231 281 343
#     4   9  18  31  54  83 110 146 192 228 289 337
#     4   9  16  29  54  82 114 142 182 237 279 337
#     4  10  22  39  56  82 113 155 192 236 287 328
#     4  11  23  39  54  81 119 149 196 241 274 334
#     4  10  19  33  52  79 107 151 187 225 284 330
#     4  11  22  36  57  79 109 149 192 235 282 332
#
# _framework density 25.475203
#
# number of rings (size 3 to 8) (size 9 to 14) (size 15 to 20)
#    0.000    2.286    1.429    2.143    2.000    0.571 
#    0.000    0.000    0.000    0.857    0.000   35.000 
#    0.000    0.000    0.000    0.000    0.000    0.000 
#
# Total GULP energy -77959.346107 kJ/mol
# GULP energy per Si atom -5568.524722 kJ/mol
# Density = 2.541722 g / cm^3
# Si number density = 25.475203 Si / 1000 Ang^3
#
#
#
# Elastic Constant Matrix: (Units=GPa)
#
#
# Indices 1 2 3 4 5 6 
#
# 1 73.3037 43.1693 43.5950 -6.9760 -12.0891 -6.8770
# 2 43.1693 97.2903 42.6888 -17.2436 8.8558 -20.4534
# 3 43.5950 42.6888 195.8194 -24.1397 -58.1289 -9.4585
# 4 -6.9760 -17.2436 -24.1397 35.0878 -3.7510 6.2428
# 5 -12.0891 8.8558 -58.1289 -3.7510 73.5716 -5.2597
# 6 -6.8770 -20.4534 -9.4585 6.2428 -5.2597 39.4817
#
#
#
# Elastic Compliance Matrix: (Units=1/GPa)
#
#
# Indices 1 2 3 4 5 6 
#
# 1 0.020219 -0.008751 -0.001994 -0.001199 0.002672 -0.000944
# 2 -0.008751 0.017639 -0.002706 0.003501 -0.005111 0.005731
# 3 -0.001994 -0.002706 0.009007 0.005160 0.007419 0.000581
# 4 -0.001199 0.003501 0.005160 0.034417 0.005076 -0.001925
# 5 0.002672 -0.005111 0.007419 0.005076 0.020880 0.001574
# 6 -0.000944 0.005731 0.000581 -0.001925 0.001574 0.028786
#
#
# Mechanical properties :
#
#
# Convention : Reuss Voigt Hill
#
# Bulk Modulus (GPa) = 50.08949 69.47995 59.78472
# Shear Modulus (GPa) = 30.39426 45.42555 37.90991
#
# Velocity S-wave (km/s) = 3.45786 4.22729 3.86179
# Velocity P-wave (km/s) = 5.97053 7.15258 6.58812
#
# Compressibility (1/GPa) = 0.01996427
#
# Stress axis : x y z
#
# Youngs Moduli (GPa) = 49.45819 56.69171 111.02250
#
# Poissons Ratio (x) = 0.49609 0.22138
# Poissons Ratio (y) = 0.43279 0.30042
# Poissons Ratio (z) = 0.09862 0.15340
#
# Static dielectric constant tensor:
#      x y z
#    x 2.156260 0.008020 0.002850 
#    y 0.008020 1.960530 0.057270 
#    z 0.002850 0.057270 2.130840 
# 
# From -- ./inp_files/117222.got.cif
#   From: 2010.05.17/outbox.cif.g08.bks.cpg/sg2_59_cif.got.tgz:117222.got - 2010.06.03 11:33:40.
