data_PCOD9082074
_publ_section_title
;
Structure prediction by ZEFSAII (Michael W. Deem and Ramdas Pophale) SiO2 
 PCOD9082074
Probable space group: P -1
;
_chemical_formula_sum "Si O2"
_cell_formula_units_Z 16
_cell_length_a 23.381815
_cell_length_b 14.261743
_cell_length_c 5.454217
_cell_angle_alpha 98.441885
_cell_angle_beta 82.103761
_cell_angle_gamma 154.185835
_cell_volume 783.361322
_symmetry_space_group_name_H-M "P -1"
_symmetry_group_IT_number 2
_symmetry_cell_setting 'triclinic'
loop_
_space_group_symop_operation_xyz
x,y,z
-x,-y,-z
loop_
_atom_site_type_symbol
_atom_site_label
_atom_site_fract_x
_atom_site_fract_y
_atom_site_fract_z
Si Si1 0.367629 0.355355 0.096477
Si Si2 0.300136 0.454417 0.013185
Si Si3 0.153705 0.208232 0.518991
Si Si4 0.424811 0.257581 0.577666
Si Si5 0.404574 0.111544 0.029602
Si Si6 0.121319 0.601277 0.983021
Si Si7 0.028793 0.428390 0.470950
Si Si8 0.203778 0.057657 0.458488
O O1 0.425434 0.493100 0.361664
O O2 0.252035 0.119549 0.170058
O O3 0.500000 0.500000 0.000000
O O4 0.326878 0.380442 0.960880
O O5 0.214914 0.347897 0.779685
O O6 0.447967 0.716205 0.015266
O O7 0.226412 0.352596 0.281418
O O8 0.161734 0.105128 0.511644
O O9 0.000000 0.000000 0.500000
O O10 0.413930 0.188792 0.299616
O O11 0.326689 0.201704 0.601431
O O12 0.388234 0.141424 0.790974
O O13 0.267093 0.854900 0.042524
O O14 0.084592 0.484506 0.194505
O O15 0.122030 0.554585 0.698803
O O16 0.000000 0.500000 0.000000
O O17 0.000000 0.500000 0.500000
O O18 0.905593 0.180834 0.506994
#
# Coordination Sequence:
#
# PCOD9082074 Si02
#       8
#     2   2   2   2   2   2   2   2
#     4  10  20  32  51  82 117 148 177 214 270 352
#     4  10  21  37  57  84 111 144 186 225 282 341
#     4  11  24  41  59  82 110 143 190 240 280 328
#     4  11  20  31  50  81 114 148 180 211 268 348
#     4  11  20  34  56  82 118 154 179 223 272 333
#     4  10  19  33  48  75 112 149 185 216 252 313
#     4  10  21  33  49  74 107 145 184 216 257 321
#     4  11  21  35  54  78 113 153 182 225 276 324
#
# _framework density 20.424803000000001
#
# number of rings (size 3 to 8) (size 9 to 14) (size 15 to 20)
#    0.000    1.500    0.000    9.000    0.000    4.000 
#    0.000    0.000    0.000    0.000    0.000    5.250 
#    0.000    0.000    0.000    0.000    0.000    0.000 
#
# Total GULP energy -89118.747520 kJ/mol
# GULP energy per Si atom -5569.921720 kJ/mol
# Density = 2.037831 g / cm^3
# Si number density = 20.424803 Si / 1000 Ang^3
#
#
#
# Elastic Constant Matrix: (Units=GPa)
#
#
# Indices 1 2 3 4 5 6 
#
# 1 22.6332 24.9833 9.2022 1.1504 5.1330 11.7324
# 2 24.9833 154.7340 44.2978 -14.8237 12.8481 8.3349
# 3 9.2022 44.2978 153.4690 -2.5240 5.6583 3.1916
# 4 1.1504 -14.8237 -2.5240 42.7907 -1.7563 13.4385
# 5 5.1330 12.8481 5.6583 -1.7563 14.3712 -0.7750
# 6 11.7324 8.3349 3.1916 13.4385 -0.7750 30.7258
#
#
#
# Elastic Compliance Matrix: (Units=1/GPa)
#
#
# Indices 1 2 3 4 5 6 
#
# 1 0.071375 -0.008031 -0.000652 0.002875 -0.019147 -0.026748
# 2 -0.008031 0.008991 -0.001895 0.003275 -0.004062 -0.000710
# 3 -0.000652 -0.001895 0.007128 -0.000297 -0.000908 0.000129
# 4 0.002875 0.003275 -0.000297 0.028966 -0.001088 -0.014652
# 5 -0.019147 -0.004062 -0.000908 -0.001088 0.080873 0.011023
# 6 -0.026748 -0.000710 0.000129 -0.014652 0.011023 0.049625
#
#
# Mechanical properties :
#
#
# Convention : Reuss Voigt Hill
#
# Bulk Modulus (GPa) = 15.07464 54.20032 34.63748
# Shear Modulus (GPa) = 17.22784 34.40107 25.81445
#
# Velocity S-wave (km/s) = 2.90742 4.10845 3.55896
# Velocity P-wave (km/s) = 4.32057 7.00713 5.82097
#
# Compressibility (1/GPa) = 0.06633659
#
# Stress axis : x y z
#
# Youngs Moduli (GPa) = 14.01055 111.21785 140.29054
#
# Poissons Ratio (x) = 0.89324 0.09147
# Poissons Ratio (y) = 0.11253 0.26590
# Poissons Ratio (z) = 0.00914 0.21079
#
# Static dielectric constant tensor:
#      x y z
#    x 1.741050 -0.009930 -0.070530 
#    y -0.009930 1.801020 -0.016590 
#    z -0.070530 -0.016590 1.907180 
# 
# From -- ./inp_files/127344.got.cif
#   From: 2010.05.17/outbox.cif.g08.bks.cpg/sg2_64_cif.got.tgz:127344.got - 2010.06.03 11:33:40.
