data_PCOD9082923
_publ_section_title
;
Structure prediction by ZEFSAII (Michael W. Deem and Ramdas Pophale) SiO2 
 PCOD9082923
Probable space group: P -1
;
_chemical_formula_sum "Si O2"
_cell_formula_units_Z 16
_cell_length_a 13.981970
_cell_length_b 7.026207
_cell_length_c 22.800895
_cell_angle_alpha 46.883848
_cell_angle_beta 157.132402
_cell_angle_gamma 133.534193
_cell_volume 621.499243
_symmetry_space_group_name_H-M "P -1"
_symmetry_group_IT_number 2
_symmetry_cell_setting 'triclinic'
loop_
_space_group_symop_operation_xyz
x,y,z
-x,-y,-z
loop_
_atom_site_type_symbol
_atom_site_label
_atom_site_fract_x
_atom_site_fract_y
_atom_site_fract_z
Si Si1 0.718959 0.108867 0.869244
Si Si2 0.808264 0.097751 0.786055
Si Si3 0.343932 0.196230 0.461905
Si Si4 0.221307 0.677568 0.700246
Si Si5 0.388931 0.706759 0.115991
Si Si6 0.904307 0.374791 0.136625
Si Si7 0.583547 0.740621 0.041662
Si Si8 0.952754 0.905536 0.398767
O O1 0.711060 0.147948 0.786835
O O2 0.643516 0.322616 0.826572
O O3 0.507668 0.840143 0.818107
O O4 0.992174 0.083384 0.052145
O O5 0.570482 0.035867 0.621840
O O6 0.982173 0.380434 0.808476
O O7 0.500000 0.500000 0.500000
O O8 0.137739 0.230760 0.289413
O O9 0.156662 0.044301 0.438010
O O10 0.222331 0.378609 0.783659
O O11 0.113965 0.847411 0.653808
O O12 0.069664 0.720441 0.547818
O O13 0.681862 0.736436 0.261589
O O14 0.202429 0.522820 0.004997
O O15 0.326245 0.990004 0.999967
O O16 0.659731 0.225667 0.064875
O O17 0.500000 0.500000 0.000000
#
# Coordination Sequence:
#
# PCOD9082923 Si02
#       8
#     2   2   2   2   2   2   2   2
#     4  10  19  36  60  86 106 153 195 242 280 335
#     4  10  20  36  62  82 111 148 204 236 275 340
#     4  10  20  33  55  85 111 148 191 234 275 337
#     4  10  19  33  59  86 113 141 197 246 275 324
#     4  11  23  37  60  85 122 150 188 238 297 344
#     4  11  22  37  56  87 118 154 187 235 296 344
#     4  12  19  35  59  86 109 152 194 238 277 337
#     4  10  19  35  57  87 114 144 189 242 286 333
#
# _framework density 25.744198000000001
#
# number of rings (size 3 to 8) (size 9 to 14) (size 15 to 20)
#    0.000    1.500    6.250    0.375    0.000    1.500 
#    0.000    1.250    5.500    0.000    0.000    0.000 
#    0.000    0.000    0.000    0.000    0.000    0.000 
#
# Total GULP energy -89384.365932 kJ/mol
# GULP energy per Si atom -5586.522871 kJ/mol
# Density = 2.568560 g / cm^3
# Si number density = 25.744198 Si / 1000 Ang^3
#
#
#
# Elastic Constant Matrix: (Units=GPa)
#
#
# Indices 1 2 3 4 5 6 
#
# 1 67.7783 -1.3977 13.8078 6.9391 5.1349 5.4402
# 2 -1.3977 62.1625 32.6829 -0.7571 10.3471 14.6787
# 3 13.8078 32.6829 208.8754 3.9248 3.3669 4.9973
# 4 6.9391 -0.7571 3.9248 38.7609 2.5319 -3.0462
# 5 5.1349 10.3471 3.3669 2.5319 29.1473 -0.5179
# 6 5.4402 14.6787 4.9973 -3.0462 -0.5179 32.3795
#
#
#
# Elastic Compliance Matrix: (Units=1/GPa)
#
#
# Indices 1 2 3 4 5 6 
#
# 1 0.015908 0.002457 -0.001236 -0.002762 -0.003361 -0.003909
# 2 0.002457 0.021410 -0.003153 0.000044 -0.007846 -0.009753
# 3 -0.001236 -0.003153 0.005338 -0.000369 0.000767 0.000791
# 4 -0.002762 0.000044 -0.000369 0.026681 -0.001751 0.002983
# 5 -0.003361 -0.007846 0.000767 -0.001751 0.037828 0.004444
# 6 -0.003909 -0.009753 0.000791 0.002983 0.004444 0.036192
#
#
# Mechanical properties :
#
#
# Convention : Reuss Voigt Hill
#
# Bulk Modulus (GPa) = 25.78015 47.66692 36.72353
# Shear Modulus (GPa) = 31.22025 39.63908 35.42967
#
# Velocity S-wave (km/s) = 3.48618 3.92819 3.71377
# Velocity P-wave (km/s) = 5.12253 6.25540 5.71710
#
# Compressibility (1/GPa) = 0.03878953
#
# Stress axis : x y z
#
# Youngs Moduli (GPa) = 62.86244 46.70797 187.32432
#
# Poissons Ratio (x) = -0.11475 0.23160
# Poissons Ratio (y) = -0.15443 0.59071
# Poissons Ratio (z) = 0.07772 0.14729
#
# Static dielectric constant tensor:
#      x y z
#    x 2.092670 -0.059050 -0.042070 
#    y -0.059050 2.111010 0.000540 
#    z -0.042070 0.000540 2.065120 
# 
# From -- ./inp_files/254099.got.cif
#   From: 2010.05.17/outbox.cif.g08.bks.cpg/sg2_128_cif.got.tgz:254099.got - 2010.06.03 11:33:40.
