data_PCOD9082643
_publ_section_title
;
Structure prediction by ZEFSAII (Michael W. Deem and Ramdas Pophale) SiO2 
 PCOD9082643
Probable space group: P -1
;
_chemical_formula_sum "Si O2"
_cell_formula_units_Z 12
_cell_length_a 7.005949
_cell_length_b 11.338714
_cell_length_c 8.063319
_cell_angle_alpha 106.027899
_cell_angle_beta 122.417611
_cell_angle_gamma 56.051696
_cell_volume 448.300671
_symmetry_space_group_name_H-M "P -1"
_symmetry_group_IT_number 2
_symmetry_cell_setting 'triclinic'
loop_
_space_group_symop_operation_xyz
x,y,z
-x,-y,-z
loop_
_atom_site_type_symbol
_atom_site_label
_atom_site_fract_x
_atom_site_fract_y
_atom_site_fract_z
Si Si1 0.435922 0.304951 0.450528
Si Si2 0.181520 0.857018 0.162129
Si Si3 0.592054 0.864971 0.107362
Si Si4 0.915263 0.333994 0.157814
Si Si5 0.387835 0.403931 0.121917
Si Si6 0.729148 0.991245 0.484102
O O1 0.606785 0.281493 0.684871
O O2 0.393646 0.412253 0.326250
O O3 0.598681 0.143679 0.390774
O O4 0.151806 0.327389 0.367548
O O5 0.353730 0.881430 0.117168
O O6 0.078361 0.989361 0.293183
O O7 0.005047 0.807785 0.966806
O O8 0.798351 0.869022 0.336486
O O9 0.682194 0.717813 0.001244
O O10 0.500000 0.000000 0.000000
O O11 0.677060 0.358217 0.172595
O O12 0.806461 0.461547 0.025256
O O13 0.500000 0.000000 0.500000
#
# Coordination Sequence:
#
# PCOD9082643 Si02
#       6
#     2   2   2   2   2   2
#     4  10  19  37  61  81 109 155 181 227 286 323
#     4   8  19  34  57  84 109 144 184 235 269 324
#     4  10  15  32  59  78 111 151 176 223 290 317
#     4  10  21  39  56  85 113 144 193 225 280 331
#     4  10  21  35  58  85 114 146 184 238 270 329
#     4   8  16  32  58  80 110 148 180 229 281 320
#
# _framework density 26.767749999999999
#
# number of rings (size 3 to 8) (size 9 to 14) (size 15 to 20)
#    1.000    1.667    1.667    0.500    0.000    0.667 
#    0.000   18.333    0.000    6.000    0.000    0.000 
#    0.000    0.000    0.000    0.000    0.000    0.000 
#
# Total GULP energy -67094.694930 kJ/mol
# GULP energy per Si atom -5591.224577 kJ/mol
# Density = 2.670683 g / cm^3
# Si number density = 26.767750 Si / 1000 Ang^3
#
#
#
# Elastic Constant Matrix: (Units=GPa)
#
#
# Indices 1 2 3 4 5 6 
#
# 1 121.9503 19.1361 16.2219 -7.1540 -8.6054 14.3319
# 2 19.1361 54.0398 9.0550 -1.3053 -0.4073 14.7021
# 3 16.2219 9.0550 82.2363 -7.0727 -0.5578 5.4364
# 4 -7.1540 -1.3053 -7.0727 53.0635 11.6714 -3.2790
# 5 -8.6054 -0.4073 -0.5578 11.6714 23.0785 -11.1028
# 6 14.3319 14.7021 5.4364 -3.2790 -11.1028 34.0252
#
#
#
# Elastic Compliance Matrix: (Units=1/GPa)
#
#
# Indices 1 2 3 4 5 6 
#
# 1 0.009168 -0.002509 -0.001367 0.000377 0.002297 -0.001773
# 2 -0.002509 0.022367 -0.001270 0.000697 -0.005854 -0.010248
# 3 -0.001367 -0.001270 0.012800 0.001798 -0.001769 -0.001324
# 4 0.000377 0.000697 0.001798 0.021629 -0.011979 -0.002572
# 5 0.002297 -0.005854 -0.001769 -0.011979 0.059822 0.020211
# 6 -0.001773 -0.010248 -0.001324 -0.002572 0.020211 0.041124
#
#
# Mechanical properties :
#
#
# Convention : Reuss Voigt Hill
#
# Bulk Modulus (GPa) = 29.37455 38.56138 33.96796
# Shear Modulus (GPa) = 26.51824 36.28766 31.40295
#
# Velocity S-wave (km/s) = 3.15092 3.68591 3.42886
# Velocity P-wave (km/s) = 4.92295 5.70541 5.32856
#
# Compressibility (1/GPa) = 0.03404308
#
# Stress axis : x y z
#
# Youngs Moduli (GPa) = 109.07256 44.70893 78.12632
#
# Poissons Ratio (x) = 0.11216 0.10680
# Poissons Ratio (y) = 0.27362 0.09924
# Poissons Ratio (z) = 0.14911 0.05679
#
# Static dielectric constant tensor:
#      x y z
#    x 2.117990 -0.019900 0.027980 
#    y -0.019900 2.087360 -0.009650 
#    z 0.027980 -0.009650 2.114200 
# 
# From -- ./inp_files/180656.got.cif
#   From: 2010.05.17/outbox.cif.g08.bks.cpg/sg2_91_cif.got.tgz:180656.got - 2010.06.03 11:33:40.
