data_PCOD9082626
_publ_section_title
;
Structure prediction by ZEFSAII (Michael W. Deem and Ramdas Pophale) SiO2 
 PCOD9082626
Probable space group: P -1
;
_chemical_formula_sum "Si O2"
_cell_formula_units_Z 16
_cell_length_a 18.438862
_cell_length_b 12.594325
_cell_length_c 24.540693
_cell_angle_alpha 27.007324
_cell_angle_beta 17.851675
_cell_angle_gamma 26.647004
_cell_volume 749.301807
_symmetry_space_group_name_H-M "P -1"
_symmetry_group_IT_number 2
_symmetry_cell_setting 'triclinic'
loop_
_space_group_symop_operation_xyz
x,y,z
-x,-y,-z
loop_
_atom_site_type_symbol
_atom_site_label
_atom_site_fract_x
_atom_site_fract_y
_atom_site_fract_z
Si Si1 0.784357 0.774698 0.732714
Si Si2 0.426924 0.464508 0.291090
Si Si3 0.721859 0.674706 0.655243
Si Si4 0.911821 0.573851 0.855390
Si Si5 0.016819 0.950912 0.386822
Si Si6 0.173622 0.238428 0.661798
Si Si7 0.709152 0.265928 0.928701
Si Si8 0.760758 0.920377 0.196286
O O1 0.816624 0.721357 0.798751
O O2 0.887329 0.946407 0.540858
O O3 0.966212 0.506015 0.703148
O O4 0.484836 0.862696 0.895931
O O5 0.299994 0.398540 0.357725
O O6 0.372237 0.285636 0.457042
O O7 0.286979 0.740449 0.287800
O O8 0.700897 0.465715 0.078085
O O9 0.874584 0.845630 0.490489
O O10 0.799504 0.414522 0.749338
O O11 0.441994 0.849586 0.791383
O O12 0.155243 0.338176 0.776712
O O13 0.968494 0.779530 0.757670
O O14 0.315873 0.123267 0.667575
O O15 0.970596 0.115956 0.839776
O O16 0.500000 0.500000 0.000000
O O17 0.000000 0.000000 0.000000
#
# Coordination Sequence:
#
# PCOD9082626 Si02
#       8
#     2   2   2   2   2   2   2   2
#     4   9  17  33  57  82 114 149 191 242 287 331
#     4  11  21  38  58  86 117 157 191 238 289 346
#     4  12  21  35  62  86 120 150 195 240 288 340
#     4  11  22  38  58  85 121 157 192 237 295 345
#     4  11  23  35  58  90 120 150 194 246 293 337
#     4   9  20  33  58  88 115 145 192 243 285 339
#     4  10  15  32  58  87 113 142 193 250 281 324
#     4  11  22  40  61  86 115 155 196 237 287 350
#
# _framework density 21.353211000000002
#
# number of rings (size 3 to 8) (size 9 to 14) (size 15 to 20)
#    0.000    1.500    6.250    2.625    0.000    1.000 
#    0.000    0.000    0.000    0.750    0.000    0.000 
#    0.000    0.000    0.000    0.000    0.000    0.000 
#
# Total GULP energy -89115.420020 kJ/mol
# GULP energy per Si atom -5569.713751 kJ/mol
# Density = 2.130461 g / cm^3
# Si number density = 21.353211 Si / 1000 Ang^3
#
#
#
# Elastic Constant Matrix: (Units=GPa)
#
#
# Indices 1 2 3 4 5 6 
#
# 1 47.4692 12.1613 34.2702 -3.9911 15.4260 1.1672
# 2 12.1613 72.7086 26.4605 0.9139 3.4684 1.0537
# 3 34.2702 26.4605 107.3338 0.8873 7.5148 12.6164
# 4 -3.9911 0.9139 0.8873 20.2683 -6.5566 0.1037
# 5 15.4260 3.4684 7.5148 -6.5566 17.9239 8.2916
# 6 1.1672 1.0537 12.6164 0.1037 8.2916 22.1785
#
#
#
# Elastic Compliance Matrix: (Units=1/GPa)
#
#
# Indices 1 2 3 4 5 6 
#
# 1 0.044465 -0.000667 -0.013459 -0.005158 -0.044577 0.022038
# 2 -0.000667 0.015294 -0.003644 -0.001470 -0.002464 0.002309
# 3 -0.013459 -0.003644 0.015104 0.000747 0.011847 -0.012143
# 4 -0.005158 -0.001470 0.000747 0.058591 0.031447 -0.012114
# 5 -0.044577 -0.002464 0.011847 0.031447 0.124799 -0.051080
# 6 0.022038 0.002309 -0.012143 -0.012114 -0.051080 0.069880
#
#
# Mechanical properties :
#
#
# Convention : Reuss Voigt Hill
#
# Bulk Modulus (GPa) = 25.43123 41.47730 33.45426
# Shear Modulus (GPa) = 13.27032 22.38212 17.82622
#
# Velocity S-wave (km/s) = 2.49563 3.24108 2.89247
# Velocity P-wave (km/s) = 4.49887 5.78556 5.18230
#
# Compressibility (1/GPa) = 0.03932173
#
# Stress axis : x y z
#
# Youngs Moduli (GPa) = 22.48972 65.38587 66.20677
#
# Poissons Ratio (x) = 0.04362 0.89109
# Poissons Ratio (y) = 0.01500 0.24127
# Poissons Ratio (z) = 0.30270 0.23827
#
# Static dielectric constant tensor:
#      x y z
#    x 1.869570 0.001180 0.007290 
#    y 0.001180 1.819920 0.012410 
#    z 0.007290 0.012410 1.853540 
# 
# From -- ./inp_files/507931.got.cif
#   From: 2010.05.17/outbox.cif.g08.bks.cpg/sg2_254_cif.got.tgz:507931.got - 2010.06.03 11:33:40.
