data_PCOD9082170
_publ_section_title
;
Structure prediction by ZEFSAII (Michael W. Deem and Ramdas Pophale) SiO2 
 PCOD9082170
Probable space group: P -1
;
_chemical_formula_sum "Si O2"
_cell_formula_units_Z 16
_cell_length_a 18.417089
_cell_length_b 8.761972
_cell_length_c 16.920059
_cell_angle_alpha 146.240296
_cell_angle_beta 148.466320
_cell_angle_gamma 43.575790
_cell_volume 792.369997
_symmetry_space_group_name_H-M "P -1"
_symmetry_group_IT_number 2
_symmetry_cell_setting 'triclinic'
loop_
_space_group_symop_operation_xyz
x,y,z
-x,-y,-z
loop_
_atom_site_type_symbol
_atom_site_label
_atom_site_fract_x
_atom_site_fract_y
_atom_site_fract_z
Si Si1 0.548305 0.360483 0.372849
Si Si2 0.142111 0.140356 0.706803
Si Si3 0.185469 0.529020 0.769418
Si Si4 0.276676 0.656936 0.322903
Si Si5 0.598022 0.257458 0.200596
Si Si6 0.124744 0.234189 0.902154
Si Si7 0.608807 0.187537 0.010108
Si Si8 0.083438 0.134327 0.372207
O O1 0.420138 0.559189 0.370187
O O2 0.680516 0.384980 0.563338
O O3 0.566830 0.418643 0.322082
O O4 0.504984 0.040624 0.205079
O O5 0.188860 0.321374 0.755567
O O6 0.129424 0.320900 0.852661
O O7 0.249980 0.883276 0.708443
O O8 0.000000 0.000000 0.500000
O O9 0.336571 0.642865 0.940211
O O10 0.144018 0.372192 0.583469
O O11 0.051111 0.744883 0.749586
O O12 0.211798 0.962694 0.377756
O O13 0.162401 0.460267 0.097744
O O14 0.583665 0.362210 0.142442
O O15 0.500000 0.000000 0.000000
O O16 0.250824 0.004034 0.926573
O O17 0.984982 0.086712 0.728666
#
# Coordination Sequence:
#
# PCOD9082170 Si02
#       8
#     2   2   2   2   2   2   2   2
#     4   9  18  33  57  83 109 146 200 227 258 335
#     4  11  20  34  59  89 113 138 191 240 280 335
#     4  10  20  34  57  84 114 142 178 239 291 335
#     4  10  19  33  54  80 111 152 192 226 265 333
#     4   9  18  35  57  82 112 144 184 236 279 323
#     4   9  18  33  54  80 110 144 185 226 274 329
#     4   8  17  34  57  83 110 140 179 233 289 323
#     4  10  19  33  52  80 113 145 181 226 286 331
#
# _framework density 20.192588000000001
#
# number of rings (size 3 to 8) (size 9 to 14) (size 15 to 20)
#    0.000    2.500    1.250    1.875    1.750    0.000 
#    0.000    6.250    0.000    7.500    0.000    0.000 
#    0.000    0.000    0.000    0.000    0.000    0.000 
#
# Total GULP energy -89114.948069 kJ/mol
# GULP energy per Si atom -5569.684254 kJ/mol
# Density = 2.014663 g / cm^3
# Si number density = 20.192588 Si / 1000 Ang^3
#
#
#
# Elastic Constant Matrix: (Units=GPa)
#
#
# Indices 1 2 3 4 5 6 
#
# 1 69.1460 22.5483 30.7390 -0.2368 -11.4394 9.0583
# 2 22.5483 62.0635 14.6461 -5.4036 -8.4090 -4.2583
# 3 30.7390 14.6461 70.1884 -9.8694 -4.8563 -5.6910
# 4 -0.2368 -5.4036 -9.8694 22.9324 -3.4692 2.0020
# 5 -11.4394 -8.4090 -4.8563 -3.4692 32.1970 4.0487
# 6 9.0583 -4.2583 -5.6910 2.0020 4.0487 32.9444
#
#
#
# Elastic Compliance Matrix: (Units=1/GPa)
#
#
# Indices 1 2 3 4 5 6 
#
# 1 0.022931 -0.006228 -0.009607 -0.003673 0.005841 -0.009264
# 2 -0.006228 0.019455 -0.000203 0.004557 0.002881 0.003561
# 3 -0.009607 -0.000203 0.020051 0.007946 -0.000294 0.005632
# 4 -0.003673 0.004557 0.007946 0.049113 0.006477 -0.000809
# 5 0.005841 0.002881 -0.000294 0.006477 0.035297 -0.006016
# 6 -0.009264 0.003561 0.005632 -0.000809 -0.006016 0.035123
#
#
# Mechanical properties :
#
#
# Convention : Reuss Voigt Hill
#
# Bulk Modulus (GPa) = 32.93716 37.47385 35.20551
# Shear Modulus (GPa) = 22.30510 26.51240 24.40875
#
# Velocity S-wave (km/s) = 3.32719 3.62743 3.48055
# Velocity P-wave (km/s) = 5.57738 6.01189 5.79871
#
# Compressibility (1/GPa) = 0.03036084
#
# Stress axis : x y z
#
# Youngs Moduli (GPa) = 43.60901 51.40168 49.87401
#
# Poissons Ratio (x) = 0.32013 0.47912
# Poissons Ratio (y) = 0.27160 0.01013
# Poissons Ratio (z) = 0.41893 0.01044
#
# Static dielectric constant tensor:
#      x y z
#    x 1.783250 -0.006020 -0.004640 
#    y -0.006020 1.749840 0.011050 
#    z -0.004640 0.011050 1.726910 
# 
# From -- ./inp_files/311649.got.cif
#   From: 2010.05.17/outbox.cif.g08.bks.cpg/sg2_156_cif.got.tgz:311649.got - 2010.06.03 11:33:40.
