data_PCOD9082281
_publ_section_title
;
Structure prediction by ZEFSAII (Michael W. Deem and Ramdas Pophale) SiO2 
 PCOD9082281
Probable space group: P -1
;
_chemical_formula_sum "Si O2"
_cell_formula_units_Z 16
_cell_length_a 11.724877
_cell_length_b 14.764605
_cell_length_c 13.078383
_cell_angle_alpha 151.008308
_cell_angle_beta 51.707734
_cell_angle_gamma 142.603345
_cell_volume 644.318830
_symmetry_space_group_name_H-M "P -1"
_symmetry_group_IT_number 2
_symmetry_cell_setting 'triclinic'
loop_
_space_group_symop_operation_xyz
x,y,z
-x,-y,-z
loop_
_atom_site_type_symbol
_atom_site_label
_atom_site_fract_x
_atom_site_fract_y
_atom_site_fract_z
Si Si1 0.030730 0.929152 0.302315
Si Si2 0.418951 0.259443 0.515713
Si Si3 0.173887 0.611640 0.092921
Si Si4 0.462025 0.637298 0.734709
Si Si5 0.950522 0.676767 0.429353
Si Si6 0.601363 0.054074 0.195500
Si Si7 0.509511 0.710456 0.255597
Si Si8 0.223411 0.793327 0.542077
O O1 0.245879 0.040501 0.320133
O O2 0.032547 0.087610 0.370684
O O3 0.000000 0.000000 0.500000
O O4 0.873649 0.635486 0.083986
O O5 0.444348 0.497122 0.708547
O O6 0.404485 0.235023 0.622475
O O7 0.588782 0.264545 0.392802
O O8 0.387395 0.826580 0.141793
O O9 0.117113 0.710736 0.307919
O O10 0.000000 0.500000 0.000000
O O11 0.500000 0.500000 0.500000
O O12 0.257036 0.548706 0.726783
O O13 0.609743 0.928211 0.968032
O O14 0.007346 0.656051 0.488918
O O15 0.753259 0.147995 0.292979
O O16 0.311525 0.662761 0.338083
O O17 0.636141 0.942987 0.336677
O O18 0.500000 0.500000 0.000000
#
# Coordination Sequence:
#
# PCOD9082281 Si02
#       8
#     2   2   2   2   2   2   2   2
#     4  11  18  28  48  80 111 145 181 220 271 329
#     4  10  20  34  55  79 109 147 188 234 280 327
#     4  12  18  31  55  84 114 146 178 223 282 338
#     4  11  24  41  61  80 104 147 202 249 285 322
#     4  11  22  36  53  83 116 145 186 234 282 343
#     4  11  21  38  57  84 117 150 184 227 282 344
#     4  10  19  33  53  84 121 155 183 214 271 351
#     4  10  22  34  53  84 121 153 180 218 284 349
#
# _framework density 24.832426999999999
#
# number of rings (size 3 to 8) (size 9 to 14) (size 15 to 20)
#    0.000    1.250    3.750    4.500    0.000    3.500 
#    0.000    0.625    0.000    3.000    0.000    0.000 
#    0.000    0.000    0.000    0.000    0.000    0.000 
#
# Total GULP energy -89394.470505 kJ/mol
# GULP energy per Si atom -5587.154407 kJ/mol
# Density = 2.477591 g / cm^3
# Si number density = 24.832427 Si / 1000 Ang^3
#
#
#
# Elastic Constant Matrix: (Units=GPa)
#
#
# Indices 1 2 3 4 5 6 
#
# 1 179.8368 20.5019 54.3422 -0.4608 12.1167 -15.0413
# 2 20.5019 43.6707 14.1844 -4.1582 -4.4448 -2.8248
# 3 54.3422 14.1844 153.6977 -6.3230 -10.8348 -4.3125
# 4 -0.4608 -4.1582 -6.3230 31.3632 -6.9413 -3.2931
# 5 12.1167 -4.4448 -10.8348 -6.9413 30.9342 0.7216
# 6 -15.0413 -2.8248 -4.3125 -3.2931 0.7216 25.2052
#
#
#
# Elastic Compliance Matrix: (Units=1/GPa)
#
#
# Indices 1 2 3 4 5 6 
#
# 1 0.007278 -0.002955 -0.002585 -0.001453 -0.004589 0.003511
# 2 -0.002955 0.025611 -0.000695 0.004600 0.005593 0.001429
# 3 -0.002585 -0.000695 0.007877 0.002380 0.004208 -0.000082
# 4 -0.001453 0.004600 0.002380 0.035620 0.009953 0.004425
# 5 -0.004589 0.005593 0.004208 0.009953 0.038663 -0.001198
# 6 0.003511 0.001429 -0.000082 0.004425 -0.001198 0.042528
#
#
# Mechanical properties :
#
#
# Convention : Reuss Voigt Hill
#
# Bulk Modulus (GPa) = 35.34224 61.69580 48.51902
# Shear Modulus (GPa) = 27.85827 36.71231 32.28529
#
# Velocity S-wave (km/s) = 3.35304 3.84917 3.60964
# Velocity P-wave (km/s) = 5.40867 6.68234 6.07895
#
# Compressibility (1/GPa) = 0.02829476
#
# Stress axis : x y z
#
# Youngs Moduli (GPa) = 137.40428 39.04501 126.95679
#
# Poissons Ratio (x) = 0.11539 0.32821
# Poissons Ratio (y) = 0.40607 0.08825
# Poissons Ratio (z) = 0.35522 0.02714
#
# Static dielectric constant tensor:
#      x y z
#    x 2.089370 0.021390 0.127040 
#    y 0.021390 2.150990 -0.071260 
#    z 0.127040 -0.071260 2.287150 
# 
# From -- ./inp_files/433484.got.cif
#   From: 2010.05.17/outbox.cif.g08.bks.cpg/sg2_217_cif.got.tgz:433484.got - 2010.06.03 11:33:40.
