data_PCOD9082877
_publ_section_title
;
Structure prediction by ZEFSAII (Michael W. Deem and Ramdas Pophale) SiO2 
 PCOD9082877
Probable space group: P -1
;
_chemical_formula_sum "Si O2"
_cell_formula_units_Z 16
_cell_length_a 14.663721
_cell_length_b 14.038658
_cell_length_c 14.586255
_cell_angle_alpha 134.773938
_cell_angle_beta 19.916144
_cell_angle_gamma 139.352076
_cell_volume 665.745497
_symmetry_space_group_name_H-M "P -1"
_symmetry_group_IT_number 2
_symmetry_cell_setting 'triclinic'
loop_
_space_group_symop_operation_xyz
x,y,z
-x,-y,-z
loop_
_atom_site_type_symbol
_atom_site_label
_atom_site_fract_x
_atom_site_fract_y
_atom_site_fract_z
Si Si1 0.919725 0.629756 0.700805
Si Si2 0.553726 0.737983 0.239756
Si Si3 0.866640 0.730186 0.484386
Si Si4 0.746775 0.981308 0.077006
Si Si5 0.432564 0.401591 0.676947
Si Si6 0.407810 0.842976 0.932034
Si Si7 0.902837 0.134147 0.451494
Si Si8 0.791125 0.261583 0.148201
O O1 0.000000 0.500000 0.500000
O O2 0.218412 0.718173 0.534496
O O3 0.908594 0.719768 0.683163
O O4 0.648045 0.622882 0.014344
O O5 0.605680 0.702304 0.269339
O O6 0.732314 0.892707 0.124406
O O7 0.651224 0.566726 0.605552
O O8 0.142109 0.732610 0.169016
O O9 0.995452 0.837175 0.521625
O O10 0.679609 0.797043 0.647334
O O11 0.761910 0.144028 0.176077
O O12 0.433357 0.892605 0.263635
O O13 0.009992 0.983091 0.764474
O O14 0.576651 0.340737 0.421054
O O15 0.117594 0.382195 0.926381
O O16 0.292536 0.829617 0.928551
O O17 0.500000 0.000000 0.000000
#
# Coordination Sequence:
#
# PCOD9082877 Si02
#       8
#     2   2   2   2   2   2   2   2
#     4  10  19  33  58  89 129 170 212 264 315 378
#     4  10  22  39  60  93 131 174 222 259 317 382
#     4  12  25  43  68  99 137 169 213 270 325 398
#     4  10  22  41  66  95 130 172 222 280 319 366
#     4  12  27  43  66  98 136 181 215 256 323 401
#     4  12  27  47  74 100 124 164 218 279 337 384
#     4  10  20  37  63  94 126 165 212 272 333 369
#     4  12  26  45  67  94 131 173 223 270 323 390
#
# _framework density 24.033208999999999
#
# number of rings (size 3 to 8) (size 9 to 14) (size 15 to 20)
#    0.000    1.000    0.000    6.750    0.000    7.000 
#    0.000    0.000    0.000    0.000    0.000    0.000 
#    0.000    0.000    0.000    0.000    0.000    0.000 
#
# Total GULP energy -89502.121786 kJ/mol
# GULP energy per Si atom -5593.882612 kJ/mol
# Density = 2.397851 g / cm^3
# Si number density = 24.033209 Si / 1000 Ang^3
#
#
#
# Elastic Constant Matrix: (Units=GPa)
#
#
# Indices 1 2 3 4 5 6 
#
# 1 89.9549 19.2398 15.3781 -20.6364 -2.1779 5.2330
# 2 19.2398 76.0342 12.1858 -4.4242 -1.7341 11.0982
# 3 15.3781 12.1858 100.7335 -2.1348 -1.3006 2.3228
# 4 -20.6364 -4.4242 -2.1348 31.3579 1.2615 -5.9587
# 5 -2.1779 -1.7341 -1.3006 1.2615 29.3710 2.6427
# 6 5.2330 11.0982 2.3228 -5.9587 2.6427 16.9513
#
#
#
# Elastic Compliance Matrix: (Units=1/GPa)
#
#
# Indices 1 2 3 4 5 6 
#
# 1 0.013997 -0.002884 -0.001616 0.008841 0.000341 0.000843
# 2 -0.002884 0.015462 -0.001217 -0.001752 0.001614 -0.009933
# 3 -0.001616 -0.001217 0.010321 -0.000619 0.000327 -0.000387
# 4 0.008841 -0.001752 -0.000619 0.039968 -0.002354 0.012919
# 5 0.000341 0.001614 0.000327 -0.002354 0.034957 -0.007484
# 6 0.000843 -0.009933 -0.000387 0.012919 -0.007484 0.070997
#
#
# Mechanical properties :
#
#
# Convention : Reuss Voigt Hill
#
# Bulk Modulus (GPa) = 35.27815 40.03665 37.65740
# Shear Modulus (GPa) = 24.20326 30.19730 27.20028
#
# Velocity S-wave (km/s) = 3.17689 3.54854 3.36784
# Velocity P-wave (km/s) = 5.30732 5.78658 5.55212
#
# Compressibility (1/GPa) = 0.02834616
#
# Stress axis : x y z
#
# Youngs Moduli (GPa) = 71.44355 64.67651 96.88867
#
# Poissons Ratio (x) = 0.18651 0.15654
# Poissons Ratio (y) = 0.20603 0.11795
# Poissons Ratio (z) = 0.11543 0.07874
#
# Static dielectric constant tensor:
#      x y z
#    x 1.879510 0.016610 0.029270 
#    y 0.016610 1.998460 0.045600 
#    z 0.029270 0.045600 1.985550 
# 
# From -- ./inp_files/534402.got.cif
#   From: 2010.05.17/outbox.cif.g08.bks.cpg/sg2_268_cif.got.tgz:534402.got - 2010.06.03 11:33:40.
