data_PCOD9082616
_publ_section_title
;
Structure prediction by ZEFSAII (Michael W. Deem and Ramdas Pophale) SiO2 
 PCOD9082616
Probable space group: P -1
;
_chemical_formula_sum "Si O2"
_cell_formula_units_Z 16
_cell_length_a 15.354996
_cell_length_b 7.337267
_cell_length_c 8.681404
_cell_angle_alpha 104.253610
_cell_angle_beta 48.964549
_cell_angle_gamma 80.938083
_cell_volume 643.325116
_symmetry_space_group_name_H-M "P -1"
_symmetry_group_IT_number 2
_symmetry_cell_setting 'triclinic'
loop_
_space_group_symop_operation_xyz
x,y,z
-x,-y,-z
loop_
_atom_site_type_symbol
_atom_site_label
_atom_site_fract_x
_atom_site_fract_y
_atom_site_fract_z
Si Si1 0.662957 0.070497 0.122495
Si Si2 0.156806 0.831373 0.869139
Si Si3 0.100397 0.053283 0.668625
Si Si4 0.672153 0.704137 0.217941
Si Si5 0.291028 0.600472 0.303217
Si Si6 0.141858 0.420712 0.743002
Si Si7 0.152788 0.368778 0.279103
Si Si8 0.521134 0.483681 0.219449
O O1 0.558924 0.246073 0.175454
O O2 0.783322 0.883835 0.856858
O O3 0.718630 0.194965 0.190650
O O4 0.614769 0.932100 0.253594
O O5 0.130475 0.010035 0.809703
O O6 0.147370 0.640073 0.750512
O O7 0.048916 0.890021 0.139894
O O8 0.184996 0.834383 0.446591
O O9 0.137578 0.233853 0.608255
O O10 0.737658 0.686828 0.302619
O O11 0.796135 0.581074 0.934245
O O12 0.569786 0.608890 0.307002
O O13 0.224820 0.444744 0.337734
O O14 0.391701 0.531218 0.032742
O O15 0.376051 0.591537 0.351602
O O16 0.000000 0.500000 0.000000
O O17 0.000000 0.500000 0.500000
#
# Coordination Sequence:
#
# PCOD9082616 Si02
#       8
#     2   2   2   2   2   2   2   2
#     4  10  19  35  62  80 106 161 186 232 296 329
#     4  10  19  34  61  82 116 146 184 233 295 346
#     4  10  20  37  54  86 117 149 180 239 293 333
#     4   9  19  36  57  81 114 150 190 232 283 335
#     4  10  22  40  58  82 121 149 192 242 277 335
#     4  10  19  33  56  86 111 147 188 228 286 344
#     4   9  19  35  56  87 113 143 186 240 287 339
#     4  10  21  42  58  80 114 157 199 233 274 337
#
# _framework density 24.870785000000001
#
# number of rings (size 3 to 8) (size 9 to 14) (size 15 to 20)
#    0.750    1.500    2.500    0.750    0.000    0.500 
#    6.750    3.125    0.000    0.000    0.000    0.000 
#    0.000    0.000    0.000    0.000    0.000    0.000 
#
# Total GULP energy -89331.050509 kJ/mol
# GULP energy per Si atom -5583.190657 kJ/mol
# Density = 2.481418 g / cm^3
# Si number density = 24.870785 Si / 1000 Ang^3
#
#
#
# Elastic Constant Matrix: (Units=GPa)
#
#
# Indices 1 2 3 4 5 6 
#
# 1 67.4553 25.9237 14.3331 -4.3176 -3.4062 20.4321
# 2 25.9237 144.5241 37.0309 17.0102 -24.4608 14.0264
# 3 14.3331 37.0309 99.1422 -16.2224 -3.9782 25.8609
# 4 -4.3176 17.0102 -16.2224 26.7425 17.8477 -4.5377
# 5 -3.4062 -24.4608 -3.9782 17.8477 23.6537 8.7482
# 6 20.4321 14.0264 25.8609 -4.5377 8.7482 31.0739
#
#
#
# Elastic Compliance Matrix: (Units=1/GPa)
#
#
# Indices 1 2 3 4 5 6 
#
# 1 0.019825 -0.004309 0.002927 0.007017 -0.001987 -0.011942
# 2 -0.004309 -0.006573 0.001673 0.037135 -0.043300 0.022022
# 3 0.002927 0.001673 0.013798 -0.007203 0.017339 -0.020096
# 4 0.007017 0.037135 -0.007203 -0.082205 0.123182 -0.062065
# 5 -0.001987 -0.043300 0.017339 0.123182 -0.113682 0.056414
# 6 -0.011942 0.022022 -0.020096 -0.062065 0.056414 0.021873
#
#
# Mechanical properties :
#
#
# Convention : Reuss Voigt Hill
#
# Bulk Modulus (GPa) = 36.19224 51.74412 43.96818
# Shear Modulus (GPa) = -36.14417 31.88294 -2.13061
#
# Velocity S-wave (km/s) = -3.81632 3.58431 -0.92657
# Velocity P-wave (km/s) = 2.19896 6.16279 4.07091
#
# Compressibility (1/GPa) = 0.02763023
#
# Stress axis : x y z
#
# Youngs Moduli (GPa) = 50.44172 -152.14068 72.47569
#
# Poissons Ratio (x) = -0.65562 -0.21214
# Poissons Ratio (y) = 0.21737 -0.12122
# Poissons Ratio (z) = -0.14764 0.25446
#
# Static dielectric constant tensor:
#      x y z
#    x 1.948310 -0.031310 0.064820 
#    y -0.031310 1.981120 -0.041940 
#    z 0.064820 -0.041940 2.062430 
# 
# From -- ./inp_files/446296.got.cif
#   From: 2010.05.17/outbox.cif.g08.bks.cpg/sg2_224_cif.got.tgz:446296.got - 2010.06.03 11:33:40.
