data_PCOD9082409
_publ_section_title
;
Structure prediction by ZEFSAII (Michael W. Deem and Ramdas Pophale) SiO2 
 PCOD9082409
Probable space group: P -1
;
_chemical_formula_sum "Si O2"
_cell_formula_units_Z 16
_cell_length_a 6.922133
_cell_length_b 10.028025
_cell_length_c 13.035493
_cell_angle_alpha 64.015823
_cell_angle_beta 72.000720
_cell_angle_gamma 62.581591
_cell_volume 715.471817
_symmetry_space_group_name_H-M "P -1"
_symmetry_group_IT_number 2
_symmetry_cell_setting 'triclinic'
loop_
_space_group_symop_operation_xyz
x,y,z
-x,-y,-z
loop_
_atom_site_type_symbol
_atom_site_label
_atom_site_fract_x
_atom_site_fract_y
_atom_site_fract_z
Si Si1 0.269728 0.313319 0.727945
Si Si2 0.308572 0.402085 0.967213
Si Si3 0.066838 0.809808 0.561776
Si Si4 0.951731 0.597740 0.807572
Si Si5 0.514509 0.537701 0.603316
Si Si6 0.964524 0.311291 0.623716
Si Si7 0.210696 0.124727 0.965071
Si Si8 0.225219 0.790980 0.112901
O O1 0.046036 0.444872 0.768093
O O2 0.436954 0.395921 0.702951
O O3 0.323416 0.147653 0.832782
O O4 0.202233 0.300772 0.626950
O O5 0.256289 0.405064 0.095150
O O6 0.142381 0.554491 0.879568
O O7 0.242846 0.254463 0.989790
O O8 0.558502 0.356189 0.909101
O O9 0.934665 0.748904 0.688954
O O10 0.321099 0.710623 0.590239
O O11 0.040446 0.748762 0.471257
O O12 0.000000 0.000000 0.500000
O O13 0.500000 0.500000 0.500000
O O14 0.767649 0.487173 0.606733
O O15 0.889334 0.217373 0.757115
O O16 0.956724 0.175328 0.957599
O O17 0.288527 0.946737 0.052804
#
# Coordination Sequence:
#
# PCOD9082409 Si02
#       8
#     2   2   2   2   2   2   2   2
#     4   9  18  37  57  80 111 143 191 235 269 326
#     4  10  19  36  57  80 111 152 181 233 281 324
#     4  10  21  36  55  84 117 147 181 234 286 336
#     4   9  20  36  55  81 115 147 190 226 279 339
#     4   9  19  35  56  81 102 142 194 228 264 334
#     4  10  20  35  63  81 108 154 189 230 279 329
#     4   9  19  32  52  82 113 138 185 235 270 334
#     4  10  19  33  54  87 110 143 190 225 284 332
#
# _framework density 22.362864999999999
#
# number of rings (size 3 to 8) (size 9 to 14) (size 15 to 20)
#    0.000    2.500    0.000    2.625    1.750    4.500 
#    2.250   12.500    0.000    6.000    0.000    0.000 
#    0.000    0.000    0.000    0.000    0.000    0.000 
#
# Total GULP energy -89107.041055 kJ/mol
# GULP energy per Si atom -5569.190066 kJ/mol
# Density = 2.231197 g / cm^3
# Si number density = 22.362865 Si / 1000 Ang^3
#
#
#
# Elastic Constant Matrix: (Units=GPa)
#
#
# Indices 1 2 3 4 5 6 
#
# 1 67.2853 25.5660 12.9177 -2.2119 19.5541 -3.3758
# 2 25.5660 47.8563 30.9781 -13.9172 -0.0815 4.4163
# 3 12.9177 30.9781 149.9238 -9.4853 -11.3071 5.4266
# 4 -2.2119 -13.9172 -9.4853 44.0173 5.2679 -4.8127
# 5 19.5541 -0.0815 -11.3071 5.2679 30.8212 -5.9415
# 6 -3.3758 4.4163 5.4266 -4.8127 -5.9415 28.0294
#
#
#
# Elastic Compliance Matrix: (Units=1/GPa)
#
#
# Indices 1 2 3 4 5 6 
#
# 1 0.024480 -0.013128 -0.000680 -0.001047 -0.015304 0.001725
# 2 -0.013128 0.033723 -0.004854 0.008015 0.004571 -0.003609
# 3 -0.000680 -0.004854 0.007974 -0.000273 0.003353 -0.000197
# 4 -0.001047 0.008015 -0.000273 0.025804 -0.003366 0.002381
# 5 -0.015304 0.004571 0.003353 -0.003366 0.045083 0.005766
# 6 0.001725 -0.003609 -0.000197 0.002381 0.005766 0.038122
#
#
# Mechanical properties :
#
#
# Convention : Reuss Voigt Hill
#
# Bulk Modulus (GPa) = 34.65701 44.88768 39.77234
# Shear Modulus (GPa) = 22.50942 33.61380 28.06161
#
# Velocity S-wave (km/s) = 3.17606 3.88120 3.54620
# Velocity P-wave (km/s) = 5.38341 6.34042 5.88141
#
# Compressibility (1/GPa) = 0.02885420
#
# Stress axis : x y z
#
# Youngs Moduli (GPa) = 40.84930 29.65327 125.40203
#
# Poissons Ratio (x) = 0.38928 0.08522
# Poissons Ratio (y) = 0.53626 0.60876
# Poissons Ratio (z) = 0.02776 0.14395
#
# Static dielectric constant tensor:
#      x y z
#    x 1.949860 -0.017620 -0.077550 
#    y -0.017620 1.841540 0.010350 
#    z -0.077550 0.010350 2.038180 
# 
# From -- ./inp_files/497768.got.cif
#   From: 2010.05.17/outbox.cif.g08.bks.cpg/sg2_249_cif.got.tgz:497768.got - 2010.06.03 11:33:40.
