data_PCOD9082340
_publ_section_title
;
Structure prediction by ZEFSAII (Michael W. Deem and Ramdas Pophale) SiO2 
 PCOD9082340
Probable space group: P -1
;
_chemical_formula_sum "Si O2"
_cell_formula_units_Z 14
_cell_length_a 6.826082
_cell_length_b 6.102890
_cell_length_c 19.798332
_cell_angle_alpha 92.424790
_cell_angle_beta 128.020073
_cell_angle_gamma 57.441430
_cell_volume 492.979172
_symmetry_space_group_name_H-M "P -1"
_symmetry_group_IT_number 2
_symmetry_cell_setting 'triclinic'
loop_
_space_group_symop_operation_xyz
x,y,z
-x,-y,-z
loop_
_atom_site_type_symbol
_atom_site_label
_atom_site_fract_x
_atom_site_fract_y
_atom_site_fract_z
Si Si1 0.311137 0.557324 0.558085
Si Si2 0.390772 0.767858 0.699906
Si Si3 0.021212 0.119900 0.862496
Si Si4 0.745493 0.674599 0.576551
Si Si5 0.784103 0.912723 0.707240
Si Si6 0.481434 0.166063 0.137114
Si Si7 0.192630 0.693849 0.989144
O O1 0.175704 0.755641 0.599383
O O2 0.520860 0.623148 0.565677
O O3 0.101167 0.550222 0.456327
O O4 0.563485 0.229175 0.632280
O O5 0.555337 0.868466 0.694743
O O6 0.276059 0.935290 0.748788
O O7 0.691008 0.441329 0.783417
O O8 0.317217 0.065828 0.883848
O O9 0.091556 0.003016 0.952375
O O10 0.983100 0.919149 0.807653
O O11 0.954285 0.676247 0.679441
O O12 0.500000 0.000000 0.500000
O O13 0.157337 0.228295 0.094905
O O14 0.345939 0.468439 0.080390
O O15 0.500000 0.500000 0.000000
#
# Coordination Sequence:
#
# PCOD9082340 Si02
#       7
#     2   2   2   2   2   2   2
#     4   8  15  26  47  79 111 145 189 224 268 331
#     4  10  19  33  54  80 109 147 187 227 278 329
#     4  10  20  36  55  81 112 142 188 232 272 334
#     4   8  13  24  46  79 111 148 187 220 274 325
#     4   9  16  30  50  75 114 146 182 233 271 321
#     4  10  20  37  58  80 110 146 182 230 283 328
#     4   9  19  38  59  79 112 142 181 235 275 333
#
# _framework density 28.398769999999999
#
# number of rings (size 3 to 8) (size 9 to 14) (size 15 to 20)
#    0.000    2.857    1.429    0.000    0.000    0.571 
#    2.571    6.429    0.000    0.857    0.000   90.000 
#    0.000    0.000    0.000    0.000    0.000    0.000 
#
# Total GULP energy -78251.545395 kJ/mol
# GULP energy per Si atom -5589.396100 kJ/mol
# Density = 2.833413 g / cm^3
# Si number density = 28.398770 Si / 1000 Ang^3
#
#
#
# Elastic Constant Matrix: (Units=GPa)
#
#
# Indices 1 2 3 4 5 6 
#
# 1 150.2676 36.7707 51.3413 -8.9659 -17.2303 10.6335
# 2 36.7707 72.9860 33.9757 3.3912 4.7179 22.5480
# 3 51.3413 33.9757 135.4264 27.8232 -13.0226 13.6118
# 4 -8.9659 3.3912 27.8232 68.5603 -0.4897 0.5133
# 5 -17.2303 4.7179 -13.0226 -0.4897 61.5226 -8.1144
# 6 10.6335 22.5480 13.6118 0.5133 -8.1144 34.6270
#
#
#
# Elastic Compliance Matrix: (Units=1/GPa)
#
#
# Indices 1 2 3 4 5 6 
#
# 1 0.008893 -0.003878 -0.002827 0.002509 0.002398 0.001430
# 2 -0.003878 0.021322 -0.003033 -0.000272 -0.005037 -0.012677
# 3 -0.002827 -0.003033 0.010346 -0.004401 0.001489 -0.000809
# 4 0.002509 -0.000272 -0.004401 0.016707 0.000043 0.000899
# 5 0.002398 -0.005037 0.001489 0.000043 0.018456 0.006283
# 6 0.001430 -0.012677 -0.000809 0.000899 0.006283 0.038472
#
#
# Mechanical properties :
#
#
# Convention : Reuss Voigt Hill
#
# Bulk Modulus (GPa) = 47.42979 66.98395 57.20687
# Shear Modulus (GPa) = 35.53652 48.71480 42.12566
#
# Velocity S-wave (km/s) = 3.54127 4.14621 3.85562
# Velocity P-wave (km/s) = 5.78432 6.82346 6.32526
#
# Compressibility (1/GPa) = 0.02108380
#
# Stress axis : x y z
#
# Youngs Moduli (GPa) = 112.44721 46.90060 96.65855
#
# Poissons Ratio (x) = 0.18187 0.27326
# Poissons Ratio (y) = 0.43604 0.29321
# Poissons Ratio (z) = 0.31790 0.14227
#
# Static dielectric constant tensor:
#      x y z
#    x 2.296620 -0.046370 -0.083930 
#    y -0.046370 2.225420 0.118980 
#    z -0.083930 0.118980 2.186280 
# 
# From -- ./inp_files/12949.got.cif
#   From: 2010.05.17/outbox.cif.g08.bks.cpg/sg2_7_cif.got.tgz:12949.got - 2010.06.03 11:33:40.
