data_PCOD9082656
_publ_section_title
;
Structure prediction by ZEFSAII (Michael W. Deem and Ramdas Pophale) SiO2 
 PCOD9082656
Probable space group: P -1
;
_chemical_formula_sum "Si O2"
_cell_formula_units_Z 16
_cell_length_a 9.461426
_cell_length_b 15.736913
_cell_length_c 8.698993
_cell_angle_alpha 86.178755
_cell_angle_beta 108.409157
_cell_angle_gamma 141.926910
_cell_volume 720.268262
_symmetry_space_group_name_H-M "P -1"
_symmetry_group_IT_number 2
_symmetry_cell_setting 'triclinic'
loop_
_space_group_symop_operation_xyz
x,y,z
-x,-y,-z
loop_
_atom_site_type_symbol
_atom_site_label
_atom_site_fract_x
_atom_site_fract_y
_atom_site_fract_z
Si Si1 0.988985 0.631203 0.352902
Si Si2 0.692613 0.817121 0.605957
Si Si3 0.574053 0.168953 0.302835
Si Si4 0.129307 0.692403 0.927934
Si Si5 0.484799 0.436715 0.350887
Si Si6 0.734067 0.370914 0.754450
Si Si7 0.841262 0.682850 0.014798
Si Si8 0.024641 0.936998 0.143359
O O1 0.759886 0.522308 0.407522
O O2 0.896162 0.647638 0.181231
O O3 0.239586 0.781040 0.508943
O O4 0.072959 0.582051 0.308933
O O5 0.499769 0.770063 0.671367
O O6 0.722145 0.733190 0.670888
O O7 0.539211 0.748465 0.403474
O O8 0.933949 0.990492 0.693326
O O9 0.715438 0.231258 0.183964
O O10 0.286644 0.003251 0.212196
O O11 0.864439 0.518968 0.830911
O O12 0.272171 0.698181 0.098666
O O13 0.065036 0.754848 0.967030
O O14 0.500000 0.500000 0.500000
O O15 0.400620 0.442492 0.163542
O O16 0.822856 0.770779 0.061762
O O17 0.000000 0.000000 0.000000
#
# Coordination Sequence:
#
# PCOD9082656 Si02
#       8
#     2   2   2   2   2   2   2   2
#     4  10  21  36  57  89 111 148 187 230 286 331
#     4   9  19  36  57  78 106 153 187 220 277 333
#     4   9  19  36  59  83 109 149 188 228 273 336
#     4  10  19  33  56  89 117 141 184 235 286 324
#     4  12  22  35  59  85 118 144 184 240 284 330
#     4   9  18  34  56  85 117 144 180 232 285 336
#     4  11  22  37  57  84 116 150 188 230 277 334
#     4  10  21  40  60  77 108 158 195 223 269 342
#
# _framework density 22.213946
#
# number of rings (size 3 to 8) (size 9 to 14) (size 15 to 20)
#    0.750    1.250    1.250    3.375    0.000    3.000 
#    0.000    2.500    0.000    1.500    0.000    0.000 
#    0.000    0.000    0.000    0.000    0.000    0.000 
#
# Total GULP energy -89116.338210 kJ/mol
# GULP energy per Si atom -5569.771138 kJ/mol
# Density = 2.216339 g / cm^3
# Si number density = 22.213946 Si / 1000 Ang^3
#
#
#
# Elastic Constant Matrix: (Units=GPa)
#
#
# Indices 1 2 3 4 5 6 
#
# 1 48.9679 19.7877 24.4911 -4.7142 -2.9898 -11.6541
# 2 19.7877 24.9818 15.8014 12.3850 -7.3681 -15.0031
# 3 24.4911 15.8014 135.4477 17.8241 6.4341 1.0169
# 4 -4.7142 12.3850 17.8241 23.0603 -1.0502 -7.5809
# 5 -2.9898 -7.3681 6.4341 -1.0502 31.7100 6.0529
# 6 -11.6541 -15.0031 1.0169 -7.5809 6.0529 30.2439
#
#
#
# Elastic Compliance Matrix: (Units=1/GPa)
#
#
# Indices 1 2 3 4 5 6 
#
# 1 0.059822 -0.068946 -0.010165 0.058535 -0.007399 0.005344
# 2 -0.068946 0.159246 0.005131 -0.094646 0.021709 0.024189
# 3 -0.010165 0.005131 0.010684 -0.014856 -0.001440 -0.005166
# 4 0.058535 -0.094646 -0.014856 0.119893 -0.011086 0.008375
# 5 -0.007399 0.021709 -0.001440 -0.011086 0.036200 -0.002057
# 6 0.005344 0.024189 -0.005166 0.008375 -0.002057 0.049808
#
#
# Mechanical properties :
#
#
# Convention : Reuss Voigt Hill
#
# Bulk Modulus (GPa) = 12.22616 36.61754 24.42185
# Shear Modulus (GPa) = 8.18494 26.95732 17.57113
#
# Velocity S-wave (km/s) = 1.92161 3.48736 2.81552
# Velocity P-wave (km/s) = 3.23098 5.72148 4.64621
#
# Compressibility (1/GPa) = 0.08179185
#
# Stress axis : x y z
#
# Youngs Moduli (GPa) = 16.71639 6.27958 93.59388
#
# Poissons Ratio (x) = 0.43295 0.95137
# Poissons Ratio (y) = 1.15253 -0.48021
# Poissons Ratio (z) = 0.16992 -0.03222
#
# Static dielectric constant tensor:
#      x y z
#    x 1.823460 0.015850 0.025350 
#    y 0.015850 1.882670 0.046400 
#    z 0.025350 0.046400 1.854550 
# 
# From -- ./inp_files/202101.got.cif
#   From: 2010.05.17/outbox.cif.g08.bks.cpg/sg2_102_cif.got.tgz:202101.got - 2010.06.03 11:33:40.
