data_PCOD9082376
_publ_section_title
;
Structure prediction by ZEFSAII (Michael W. Deem and Ramdas Pophale) SiO2 
 PCOD9082376
Probable space group: P -1
;
_chemical_formula_sum "Si O2"
_cell_formula_units_Z 16
_cell_length_a 23.013844
_cell_length_b 7.982823
_cell_length_c 12.951609
_cell_angle_alpha 107.600232
_cell_angle_beta 29.447317
_cell_angle_gamma 86.184948
_cell_volume 792.015593
_symmetry_space_group_name_H-M "P -1"
_symmetry_group_IT_number 2
_symmetry_cell_setting 'triclinic'
loop_
_space_group_symop_operation_xyz
x,y,z
-x,-y,-z
loop_
_atom_site_type_symbol
_atom_site_label
_atom_site_fract_x
_atom_site_fract_y
_atom_site_fract_z
Si Si1 0.831873 0.647902 0.722240
Si Si2 0.128223 0.177162 0.514364
Si Si3 0.543415 0.121012 0.387027
Si Si4 0.215214 0.895171 0.872194
Si Si5 0.183978 0.342063 0.639882
Si Si6 0.945621 0.204339 0.202484
Si Si7 0.248451 0.468720 0.753905
Si Si8 0.871494 0.212671 0.543732
O O1 0.854782 0.703102 0.582569
O O2 0.794700 0.477113 0.747286
O O3 0.000000 0.500000 0.500000
O O4 0.686217 0.908954 0.048896
O O5 0.226097 0.142155 0.458429
O O6 0.175918 0.926907 0.364017
O O7 0.934218 0.374195 0.886332
O O8 0.622464 0.185994 0.350009
O O9 0.382256 0.340336 0.612834
O O10 0.500000 0.000000 0.500000
O O11 0.242650 0.668454 0.749978
O O12 0.115894 0.100998 0.973491
O O13 0.072745 0.028283 0.206486
O O14 0.288772 0.284937 0.567959
O O15 0.159812 0.537622 0.641831
O O16 0.000000 0.500000 0.000000
O O17 0.853690 0.220528 0.447800
O O18 0.000000 0.000000 0.000000
#
# Coordination Sequence:
#
# PCOD9082376 Si02
#       8
#     2   2   2   2   2   2   2   2
#     4  12  22  41  63  85 121 164 204 254 298 358
#     4  10  20  39  65  91 120 152 204 254 297 364
#     4  12  26  41  57  86 124 163 200 249 310 366
#     4   9  19  37  58  85 120 155 196 249 296 356
#     4  10  18  31  61  93 121 155 196 249 300 355
#     4  10  15  31  59  95 120 147 202 252 293 347
#     4  10  21  38  60  93 121 157 197 249 306 360
#     4   9  20  36  61  94 116 151 205 249 301 345
#
# _framework density 20.201623000000001
#
# number of rings (size 3 to 8) (size 9 to 14) (size 15 to 20)
#    0.750    1.000    3.750    1.875    3.500    0.500 
#    4.500    0.625    0.000    0.750    0.000    0.000 
#    0.000    0.000    0.000    0.000    0.000    0.000 
#
# Total GULP energy -89150.116891 kJ/mol
# GULP energy per Si atom -5571.882306 kJ/mol
# Density = 2.015564 g / cm^3
# Si number density = 20.201623 Si / 1000 Ang^3
#
#
#
# Elastic Constant Matrix: (Units=GPa)
#
#
# Indices 1 2 3 4 5 6 
#
# 1 96.0028 12.5655 10.4608 -7.9344 -5.7084 9.8346
# 2 12.5655 78.3547 -0.3243 -5.9628 1.4309 10.7424
# 3 10.4608 -0.3243 17.5697 -5.3139 2.2904 4.2465
# 4 -7.9344 -5.9628 -5.3139 17.2381 1.5730 2.7686
# 5 -5.7084 1.4309 2.2904 1.5730 22.1203 4.1843
# 6 9.8346 10.7424 4.2465 2.7686 4.1843 35.7461
#
#
#
# Elastic Compliance Matrix: (Units=1/GPa)
#
#
# Indices 1 2 3 4 5 6 
#
# 1 0.012077 -0.001384 -0.006049 0.003307 0.004152 -0.002930
# 2 -0.001384 0.014171 0.004364 0.006490 -0.001289 -0.004748
# 3 -0.006049 0.004364 0.070798 0.022790 -0.009139 -0.008753
# 4 0.003307 0.006490 0.022790 0.070942 -0.004989 -0.010478
# 5 0.004152 -0.001289 -0.009139 -0.004989 0.048604 -0.004972
# 6 -0.002930 -0.004748 -0.008753 -0.010478 -0.004972 0.032642
#
#
# Mechanical properties :
#
#
# Convention : Reuss Voigt Hill
#
# Bulk Modulus (GPa) = 11.00009 26.37014 18.68512
# Shear Modulus (GPa) = 17.50252 26.30258 21.90255
#
# Velocity S-wave (km/s) = 2.94665 3.61224 3.29629
# Velocity P-wave (km/s) = 4.12722 5.52083 4.87409
#
# Compressibility (1/GPa) = 0.09090834
#
# Stress axis : x y z
#
# Youngs Moduli (GPa) = 82.80191 70.56702 14.12472
#
# Poissons Ratio (x) = 0.09768 0.08544
# Poissons Ratio (y) = 0.11461 -0.06164
# Poissons Ratio (z) = 0.50086 -0.30798
#
# Static dielectric constant tensor:
#      x y z
#    x 1.767550 0.040680 -0.009810 
#    y 0.040680 1.678150 0.141590 
#    z -0.009810 0.141590 1.639090 
# 
# From -- ./inp_files/469467.got.cif
#   From: 2010.05.17/outbox.cif.g08.bks.cpg/sg2_235_cif.got.tgz:469467.got - 2010.06.03 11:33:40.
