data_PCOD9082636
_publ_section_title
;
Structure prediction by ZEFSAII (Michael W. Deem and Ramdas Pophale) SiO2 
 PCOD9082636
Probable space group: P -1
;
_chemical_formula_sum "Si O2"
_cell_formula_units_Z 16
_cell_length_a 14.068009
_cell_length_b 7.982665
_cell_length_c 11.190789
_cell_angle_alpha 73.306734
_cell_angle_beta 149.321004
_cell_angle_gamma 97.918664
_cell_volume 598.643696
_symmetry_space_group_name_H-M "P -1"
_symmetry_group_IT_number 2
_symmetry_cell_setting 'triclinic'
loop_
_space_group_symop_operation_xyz
x,y,z
-x,-y,-z
loop_
_atom_site_type_symbol
_atom_site_label
_atom_site_fract_x
_atom_site_fract_y
_atom_site_fract_z
Si Si1 0.429109 0.373045 0.732265
Si Si2 0.811885 0.804822 0.335752
Si Si3 0.903316 0.085586 0.710903
Si Si4 0.622331 0.869075 0.476942
Si Si5 0.764423 0.209488 0.288223
Si Si6 0.196607 0.443766 0.088554
Si Si7 0.708166 0.810984 0.954585
Si Si8 0.796634 0.348054 0.735681
O O1 0.243328 0.340719 0.607585
O O2 0.475836 0.206585 0.724483
O O3 0.377569 0.540787 0.553706
O O4 0.592779 0.347607 0.012867
O O5 0.707258 0.795693 0.098758
O O6 0.035763 0.770706 0.556558
O O7 0.748411 0.005941 0.279537
O O8 0.784839 0.214274 0.452730
O O9 0.850618 0.155660 0.773306
O O10 0.119248 0.092225 0.913519
O O11 0.828655 0.904740 0.655473
O O12 0.669728 0.719827 0.659832
O O13 0.486096 0.057281 0.324846
O O14 0.230745 0.618290 0.159585
O O15 0.240735 0.382503 0.013853
O O16 0.977999 0.431809 0.878726
#
# Coordination Sequence:
#
# PCOD9082636 Si02
#       8
#     2   2   2   2   2   2   2   2
#     4  11  20  35  59  85 112 151 184 220 279 340
#     4  10  19  33  56  89 116 140 178 233 281 325
#     4  10  21  37  57  86 115 144 182 233 279 327
#     4  11  20  34  63  86 104 146 196 229 274 324
#     4  10  19  33  56  87 119 140 178 234 276 325
#     4   9  20  40  58  79 112 150 188 233 274 324
#     4  10  20  35  57  87 113 141 182 238 277 320
#     4   9  21  39  57  79 116 151 183 228 281 327
#
# _framework density 26.727084000000001
#
# number of rings (size 3 to 8) (size 9 to 14) (size 15 to 20)
#    0.000    2.000    2.500    1.500    0.000    2.500 
#    0.000    8.750    0.000    4.500    0.000    0.000 
#    0.000    0.000    0.000    0.000    0.000    0.000 
#
# Total GULP energy -89640.527536 kJ/mol
# GULP energy per Si atom -5602.532971 kJ/mol
# Density = 2.666625 g / cm^3
# Si number density = 26.727084 Si / 1000 Ang^3
#
#
#
# Elastic Constant Matrix: (Units=GPa)
#
#
# Indices 1 2 3 4 5 6 
#
# 1 88.2602 47.5556 17.6047 11.5491 -11.3066 -11.6913
# 2 47.5556 67.0643 33.9312 -1.1960 -6.4345 -11.9695
# 3 17.6047 33.9312 125.8832 3.5539 -2.7261 0.1902
# 4 11.5491 -1.1960 3.5539 30.8958 1.9409 2.4216
# 5 -11.3066 -6.4345 -2.7261 1.9409 33.5467 6.3980
# 6 -11.6913 -11.9695 0.1902 2.4216 6.3980 44.4431
#
#
#
# Elastic Compliance Matrix: (Units=1/GPa)
#
#
# Indices 1 2 3 4 5 6 
#
# 1 0.021229 -0.015308 0.001512 -0.009093 0.004623 0.001285
# 2 -0.015308 0.029513 -0.006051 0.007341 -0.001122 0.003709
# 3 0.001512 -0.006051 0.009427 -0.001815 0.000456 -0.001239
# 4 -0.009093 0.007341 -0.001815 0.036631 -0.003563 -0.001890
# 5 0.004623 -0.001122 0.000456 -0.003563 0.032065 -0.003510
# 6 0.001285 0.003709 -0.001239 -0.001890 -0.003510 0.024451
#
#
# Mechanical properties :
#
#
# Convention : Reuss Voigt Hill
#
# Bulk Modulus (GPa) = 48.84209 53.26564 51.05386
# Shear Modulus (GPa) = 25.02083 33.91821 29.46952
#
# Velocity S-wave (km/s) = 3.06299 3.56625 3.32416
# Velocity P-wave (km/s) = 5.55187 6.07702 5.82037
#
# Compressibility (1/GPa) = 0.02047414
#
# Stress axis : x y z
#
# Youngs Moduli (GPa) = 47.10581 33.88367 106.08370
#
# Poissons Ratio (x) = 0.51868 -0.16042
# Poissons Ratio (y) = 0.72108 0.64195
# Poissons Ratio (z) = -0.07123 0.20504
#
# Static dielectric constant tensor:
#      x y z
#    x 2.058000 -0.020010 0.012860 
#    y -0.020010 2.071550 0.010510 
#    z 0.012860 0.010510 2.057310 
# 
# From -- ./inp_files/178795.got.cif
#   From: 2010.05.17/outbox.cif.g08.bks.cpg/sg2_90_cif.got.tgz:178795.got - 2010.06.03 11:33:40.
