data_PCOD9082892
_publ_section_title
;
Structure prediction by ZEFSAII (Michael W. Deem and Ramdas Pophale) SiO2 
 PCOD9082892
Probable space group: P -1
;
_chemical_formula_sum "Si O2"
_cell_formula_units_Z 16
_cell_length_a 15.839687
_cell_length_b 23.284150
_cell_length_c 12.983419
_cell_angle_alpha 16.301868
_cell_angle_beta 151.806351
_cell_angle_gamma 155.326775
_cell_volume 559.362545
_symmetry_space_group_name_H-M "P -1"
_symmetry_group_IT_number 2
_symmetry_cell_setting 'triclinic'
loop_
_space_group_symop_operation_xyz
x,y,z
-x,-y,-z
loop_
_atom_site_type_symbol
_atom_site_label
_atom_site_fract_x
_atom_site_fract_y
_atom_site_fract_z
Si Si1 0.723471 0.837125 0.895413
Si Si2 0.944995 0.854367 0.534079
Si Si3 0.331870 0.857606 0.872021
Si Si4 0.366246 0.408535 0.174070
Si Si5 0.622698 0.923863 0.838621
Si Si6 0.335935 0.702591 0.442916
Si Si7 0.989117 0.275404 0.743739
Si Si8 0.778915 0.500973 0.771888
O O1 0.704489 0.027704 0.471469
O O2 0.772951 0.891556 0.975255
O O3 0.870442 0.766528 0.114769
O O4 0.504033 0.619316 0.033645
O O5 0.818127 0.755495 0.670377
O O6 0.838386 0.709033 0.562508
O O7 0.984889 0.114496 0.110529
O O8 0.159599 0.854580 0.765824
O O9 0.552570 0.035651 0.845464
O O10 0.289205 0.598002 0.248538
O O11 0.507047 0.303508 0.461336
O O12 0.335487 0.540242 0.816374
O O13 0.500000 0.000000 0.500000
O O14 0.443006 0.689167 0.094357
O O15 0.763782 0.139691 0.690362
O O16 0.105941 0.548734 0.421182
O O17 0.000000 0.500000 0.000000
#
# Coordination Sequence:
#
# PCOD9082892 Si02
#       8
#     2   2   2   2   2   2   2   2
#     4   9  17  35  57  87 118 151 202 255 294 348
#     4  10  19  33  58  92 123 159 197 246 304 358
#     4   9  18  34  58  84 124 162 196 241 293 362
#     4   9  16  31  58  89 118 157 199 241 302 358
#     4  12  22  38  63  84 116 166 207 248 308 359
#     4   9  19  35  55  87 128 155 200 251 289 349
#     4  10  23  37  55  93 127 150 202 259 298 351
#     4  10  21  37  56  87 124 157 198 245 304 364
#
# _framework density 28.603988999999999
#
# number of rings (size 3 to 8) (size 9 to 14) (size 15 to 20)
#    0.000    2.250    2.500    2.625    0.000    2.500 
#    0.000    1.875    0.000    0.000    0.000    4.375 
#    0.000    0.125    0.000    0.000    0.000    0.000 
#
# Total GULP energy -89394.905680 kJ/mol
# GULP energy per Si atom -5587.181605 kJ/mol
# Density = 2.853889 g / cm^3
# Si number density = 28.603989 Si / 1000 Ang^3
#
#
#
# Elastic Constant Matrix: (Units=GPa)
#
#
# Indices 1 2 3 4 5 6 
#
# 1 205.3971 52.5475 42.9282 -12.8117 -16.6813 30.7769
# 2 52.5475 184.5441 78.0219 -61.7806 0.7981 -8.0614
# 3 42.9282 78.0219 92.2610 -13.3551 -9.1729 -4.8072
# 4 -12.8117 -61.7806 -13.3551 42.7299 -3.1422 7.9187
# 5 -16.6813 0.7981 -9.1729 -3.1422 58.3675 -15.3706
# 6 30.7769 -8.0614 -4.8072 7.9187 -15.3706 58.5117
#
#
#
# Elastic Compliance Matrix: (Units=1/GPa)
#
#
# Indices 1 2 3 4 5 6 
#
# 1 0.006135 -0.000605 -0.002340 0.000919 0.000525 -0.003489
# 2 -0.000605 0.018142 -0.012044 0.022471 -0.001529 -0.001615
# 3 -0.002340 -0.012044 0.020871 -0.012055 0.003111 0.003735
# 4 0.000919 0.022471 -0.012055 0.053425 -0.000580 -0.005761
# 5 0.000525 -0.001529 0.003111 -0.000580 0.019038 0.004849
# 6 -0.003489 -0.001615 0.003735 -0.005761 0.004849 0.021064
#
#
# Mechanical properties :
#
#
# Convention : Reuss Voigt Hill
#
# Bulk Modulus (GPa) = 65.91309 92.13304 79.02307
# Shear Modulus (GPa) = 28.78370 52.50214 40.64292
#
# Velocity S-wave (km/s) = 3.17564 4.28890 3.77355
# Velocity P-wave (km/s) = 6.04480 7.53698 6.83175
#
# Compressibility (1/GPa) = 0.01517149
#
# Stress axis : x y z
#
# Youngs Moduli (GPa) = 162.99664 55.12141 47.91225
#
# Poissons Ratio (x) = 0.03333 0.11211
# Poissons Ratio (y) = 0.09856 0.57705
# Poissons Ratio (z) = 0.38139 0.66388
#
# Static dielectric constant tensor:
#      x y z
#    x 2.510360 -0.047620 0.257740 
#    y -0.047620 2.236880 0.030200 
#    z 0.257740 0.030200 2.439130 
# 
# From -- ./inp_files/539383.got.cif
#   From: 2010.05.17/outbox.cif.g08.bks.cpg/sg2_270_cif.got.tgz:539383.got - 2010.06.03 11:33:40.
