data_PCOD9082734
_publ_section_title
;
Structure prediction by ZEFSAII (Michael W. Deem and Ramdas Pophale) SiO2 
 PCOD9082734
Probable space group: P -1
;
_chemical_formula_sum "Si O2"
_cell_formula_units_Z 16
_cell_length_a 14.343509
_cell_length_b 11.548629
_cell_length_c 8.044559
_cell_angle_alpha 47.945547
_cell_angle_beta 47.117710
_cell_angle_gamma 44.737429
_cell_volume 640.792773
_symmetry_space_group_name_H-M "P -1"
_symmetry_group_IT_number 2
_symmetry_cell_setting 'triclinic'
loop_
_space_group_symop_operation_xyz
x,y,z
-x,-y,-z
loop_
_atom_site_type_symbol
_atom_site_label
_atom_site_fract_x
_atom_site_fract_y
_atom_site_fract_z
Si Si1 0.076902 0.243588 0.071170
Si Si2 0.915930 0.719928 0.329448
Si Si3 0.361829 0.911232 0.143443
Si Si4 0.376512 0.062997 0.341807
Si Si5 0.357832 0.599450 0.297604
Si Si6 0.635157 0.250357 0.218754
Si Si7 0.057421 0.659312 0.535637
Si Si8 0.058493 0.922273 0.801105
O O1 0.952836 0.186653 0.239757
O O2 0.225640 0.065910 0.071140
O O3 0.048036 0.336909 0.193272
O O4 0.084891 0.340265 0.800498
O O5 0.042644 0.609291 0.411478
O O6 0.770252 0.786620 0.546668
O O7 0.947337 0.887501 0.086780
O O8 0.360036 0.984064 0.259986
O O9 0.351235 0.732568 0.319713
O O10 0.504048 0.879148 0.900923
O O11 0.416818 0.899297 0.573624
O O12 0.507395 0.423057 0.289029
O O13 0.219585 0.568130 0.491568
O O14 0.346355 0.696573 0.040877
O O15 0.783907 0.175945 0.213497
O O16 0.999124 0.875088 0.376198
#
# Coordination Sequence:
#
# PCOD9082734 Si02
#       8
#     2   2   2   2   2   2   2   2
#     4  10  21  31  59  87 110 152 206 241 297 346
#     4  10  20  32  58  85 114 150 198 254 290 337
#     4  11  23  38  59  89 120 160 205 244 297 361
#     4  11  23  39  58  86 125 160 199 252 294 352
#     4  11  24  37  60  91 124 157 195 246 310 359
#     4  11  22  40  59  90 125 156 192 252 308 355
#     4  12  18  35  57  89 118 148 201 256 287 351
#     4  10  19  33  57  86 114 148 200 248 292 341
#
# _framework density 24.969072000000001
#
# number of rings (size 3 to 8) (size 9 to 14) (size 15 to 20)
#    0.750    0.500    5.000    2.250    1.750    2.500 
#    0.000    0.000    0.000    3.000    0.000    0.000 
#    0.000    0.000    0.000    0.000    0.000    0.000 
#
# Total GULP energy -89478.176225 kJ/mol
# GULP energy per Si atom -5592.386014 kJ/mol
# Density = 2.491224 g / cm^3
# Si number density = 24.969072 Si / 1000 Ang^3
#
#
#
# Elastic Constant Matrix: (Units=GPa)
#
#
# Indices 1 2 3 4 5 6 
#
# 1 105.9231 40.9151 15.7748 24.5079 -2.0433 5.7476
# 2 40.9151 94.1184 5.1053 33.3765 6.5601 -10.6811
# 3 15.7748 5.1053 105.4353 30.6086 2.3131 -9.1742
# 4 24.5079 33.3765 30.6086 47.3318 -5.4479 3.1921
# 5 -2.0433 6.5601 2.3131 -5.4479 44.1603 5.6998
# 6 5.7476 -10.6811 -9.1742 3.1921 5.6998 40.3666
#
#
#
# Elastic Compliance Matrix: (Units=1/GPa)
#
#
# Indices 1 2 3 4 5 6 
#
# 1 0.012253 -0.005443 -0.001652 -0.000976 0.001824 -0.003741
# 2 -0.005443 0.020049 0.005574 -0.016352 -0.006778 0.009597
# 3 -0.001652 0.005574 0.013872 -0.012950 -0.004063 0.006461
# 4 -0.000976 -0.016352 -0.012950 0.043493 0.009974 -0.011978
# 5 0.001824 -0.006778 -0.004063 0.009974 0.026142 -0.007456
# 6 -0.003741 0.009597 0.006461 -0.011978 -0.007456 0.031313
#
#
# Mechanical properties :
#
#
# Convention : Reuss Voigt Hill
#
# Bulk Modulus (GPa) = 23.18365 47.67415 35.42890
# Shear Modulus (GPa) = 30.38756 42.61719 36.50237
#
# Velocity S-wave (km/s) = 3.49235 4.13582 3.82763
# Velocity P-wave (km/s) = 5.05639 6.47622 5.80984
#
# Compressibility (1/GPa) = 0.04313385
#
# Stress axis : x y z
#
# Youngs Moduli (GPa) = 81.61165 49.87859 72.08562
#
# Poissons Ratio (x) = 0.27147 0.11907
# Poissons Ratio (y) = 0.44418 -0.40182
# Poissons Ratio (z) = 0.13481 -0.27803
#
# Static dielectric constant tensor:
#      x y z
#    x 2.072210 0.119530 -0.010790 
#    y 0.119530 2.021630 -0.048820 
#    z -0.010790 -0.048820 2.023980 
# 
# From -- ./inp_files/309208.got.cif
#   From: 2010.05.17/outbox.cif.g08.bks.cpg/sg2_155_cif.got.tgz:309208.got - 2010.06.03 11:33:40.
