data_PCOD9082088
_publ_section_title
;
Structure prediction by ZEFSAII (Michael W. Deem and Ramdas Pophale) SiO2 
 PCOD9082088
Probable space group: P -1
;
_chemical_formula_sum "Si O2"
_cell_formula_units_Z 16
_cell_length_a 8.184056
_cell_length_b 17.605511
_cell_length_c 8.457893
_cell_angle_alpha 107.970232
_cell_angle_beta 121.073914
_cell_angle_gamma 112.605602
_cell_volume 739.508084
_symmetry_space_group_name_H-M "P -1"
_symmetry_group_IT_number 2
_symmetry_cell_setting 'triclinic'
loop_
_space_group_symop_operation_xyz
x,y,z
-x,-y,-z
loop_
_atom_site_type_symbol
_atom_site_label
_atom_site_fract_x
_atom_site_fract_y
_atom_site_fract_z
Si Si1 0.678548 0.316131 0.477140
Si Si2 0.917045 0.126334 0.801788
Si Si3 0.012457 0.681224 0.097625
Si Si4 0.224454 0.074081 0.534715
Si Si5 0.759308 0.526224 0.599520
Si Si6 0.544104 0.448572 0.126348
Si Si7 0.485786 0.254084 0.008481
Si Si8 0.115432 0.116715 0.190799
O O1 0.715451 0.421460 0.552473
O O2 0.407387 0.214588 0.351211
O O3 0.884339 0.339739 0.716631
O O4 0.661248 0.282567 0.265106
O O5 0.840425 0.193719 0.758807
O O6 0.199697 0.187285 0.902659
O O7 0.743825 0.003771 0.580103
O O8 0.956571 0.134492 0.016638
O O9 0.983566 0.625534 0.882790
O O10 0.721939 0.622908 0.957621
O O11 0.454562 0.177459 0.812960
O O12 0.123290 0.109853 0.378094
O O13 0.000000 0.000000 0.500000
O O14 0.500000 0.500000 0.500000
O O15 0.765786 0.533079 0.416478
O O16 0.500000 0.500000 0.000000
O O17 0.572459 0.362809 0.045327
O O18 0.000000 0.000000 0.000000
#
# Coordination Sequence:
#
# PCOD9082088 Si02
#       8
#     2   2   2   2   2   2   2   2
#     4  10  19  33  50  74 101 130 166 207 251 291
#     4   8  16  31  49  70  94 125 167 205 242 292
#     4  10  19  33  51  72 102 133 162 210 252 286
#     4   9  16  29  50  72  92 122 164 207 243 287
#     4   9  18  33  53  73  97 132 169 203 243 297
#     4   9  18  32  50  74  99 131 169 201 244 303
#     4   8  16  30  48  68  97 129 162 200 246 296
#     4   9  17  31  52  73  94 126 169 207 241 294
#
# _framework density 21.636002999999999
#
# number of rings (size 3 to 8) (size 9 to 14) (size 15 to 20)
#    0.000    3.000    0.000    3.375    0.000    3.000 
#    0.000    6.875    0.000    0.000    0.000    0.000 
#    0.000    0.000    0.000    0.000    0.000    0.000 
#
# Total GULP energy -89170.237623 kJ/mol
# GULP energy per Si atom -5573.139851 kJ/mol
# Density = 2.158676 g / cm^3
# Si number density = 21.636003 Si / 1000 Ang^3
#
#
#
# Elastic Constant Matrix: (Units=GPa)
#
#
# Indices 1 2 3 4 5 6 
#
# 1 36.0536 25.6391 34.5591 8.8755 -1.0718 1.8354
# 2 25.6391 118.0505 77.4263 -16.2629 -16.9991 -7.4527
# 3 34.5591 77.4263 178.2836 -1.1403 -25.3519 -23.0355
# 4 8.8755 -16.2629 -1.1403 44.7287 2.1230 2.7833
# 5 -1.0718 -16.9991 -25.3519 2.1230 24.4337 3.4588
# 6 1.8354 -7.4527 -23.0355 2.7833 3.4588 31.1079
#
#
#
# Elastic Compliance Matrix: (Units=1/GPa)
#
#
# Indices 1 2 3 4 5 6 
#
# 1 0.043090 -0.007826 -0.007339 -0.010659 -0.009127 -0.007883
# 2 -0.007826 0.014396 -0.004010 0.006460 0.004977 -0.000191
# 3 -0.007339 -0.004010 0.010620 -0.000475 0.007014 0.006599
# 4 -0.010659 0.006460 -0.000475 0.026791 0.001308 -0.000717
# 5 -0.009127 0.004977 0.007014 0.001308 0.050992 0.001138
# 6 -0.007883 -0.000191 0.006599 -0.000717 0.001138 0.037390
#
#
# Mechanical properties :
#
#
# Convention : Reuss Voigt Hill
#
# Bulk Modulus (GPa) = 33.60639 67.51519 50.56079
# Shear Modulus (GPa) = 21.59378 33.03828 27.31603
#
# Velocity S-wave (km/s) = 3.16262 3.91193 3.55706
# Velocity P-wave (km/s) = 5.37611 7.18867 6.34742
#
# Compressibility (1/GPa) = 0.02975624
#
# Stress axis : x y z
#
# Youngs Moduli (GPa) = 23.20720 69.46590 94.15867
#
# Poissons Ratio (x) = 0.54362 0.69100
# Poissons Ratio (y) = 0.18161 0.37762
# Poissons Ratio (z) = 0.17031 0.27859
#
# Static dielectric constant tensor:
#      x y z
#    x 1.846470 0.010260 0.004020 
#    y 0.010260 1.789320 0.010830 
#    z 0.004020 0.010830 1.830600 
# 
# From -- ./inp_files/200326.got.cif
#   From: 2010.05.17/outbox.cif.g08.bks.cpg/sg2_101_cif.got.tgz:200326.got - 2010.06.03 11:33:40.
