data_PCOD9082763
_publ_section_title
;
Structure prediction by ZEFSAII (Michael W. Deem and Ramdas Pophale) SiO2 
 PCOD9082763
Probable space group: P -1
;
_chemical_formula_sum "Si O2"
_cell_formula_units_Z 14
_cell_length_a 7.973934
_cell_length_b 17.537852
_cell_length_c 11.099242
_cell_angle_alpha 129.920976
_cell_angle_beta 142.101232
_cell_angle_gamma 41.179931
_cell_volume 623.376331
_symmetry_space_group_name_H-M "P -1"
_symmetry_group_IT_number 2
_symmetry_cell_setting 'triclinic'
loop_
_space_group_symop_operation_xyz
x,y,z
-x,-y,-z
loop_
_atom_site_type_symbol
_atom_site_label
_atom_site_fract_x
_atom_site_fract_y
_atom_site_fract_z
Si Si1 0.822089 0.064003 0.777838
Si Si2 0.163595 0.518629 0.285233
Si Si3 0.204129 0.817770 0.885040
Si Si4 0.104000 0.250253 0.535375
Si Si5 0.941629 0.658229 0.061550
Si Si6 0.299318 0.985373 0.765656
Si Si7 0.113377 0.816487 0.418836
O O1 0.444406 0.132809 0.618169
O O2 0.872640 0.145316 0.982464
O O3 0.012194 0.937637 0.820737
O O4 0.962769 0.046096 0.707217
O O5 0.500000 0.500000 0.500000
O O6 0.895993 0.632441 0.320689
O O7 0.129827 0.560782 0.171014
O O8 0.114817 0.409123 0.146812
O O9 0.071150 0.741001 0.679025
O O10 0.582726 0.750749 0.002472
O O11 0.910077 0.237229 0.523045
O O12 0.131165 0.727111 0.235650
O O13 0.355912 0.862002 0.627654
O O14 0.227228 0.067243 0.693060
O O15 0.500000 0.000000 0.000000
#
# Coordination Sequence:
#
# PCOD9082763 Si02
#       7
#     2   2   2   2   2   2   2
#     4  11  23  35  56  86 122 152 186 237 288 349
#     4  10  19  33  57  88 117 145 187 244 291 331
#     4  11  20  32  57  86 120 148 183 229 292 338
#     4  11  21  36  60  89 117 149 190 240 292 332
#     4  10  20  35  56  87 115 147 193 237 283 340
#     4  11  24  37  56  80 117 160 194 228 285 347
#     4  10  22  37  55  82 114 148 197 232 279 343
#
# _framework density 22.458345000000001
#
# number of rings (size 3 to 8) (size 9 to 14) (size 15 to 20)
#    0.000    1.429    5.714    1.286    2.000    1.143 
#    0.000    0.000    0.000    0.857    0.000    6.000 
#    0.000    0.000    0.000    0.000    0.000    0.000 
#
# Total GULP energy -77986.070077 kJ/mol
# GULP energy per Si atom -5570.433577 kJ/mol
# Density = 2.240723 g / cm^3
# Si number density = 22.458345 Si / 1000 Ang^3
#
#
#
# Elastic Constant Matrix: (Units=GPa)
#
#
# Indices 1 2 3 4 5 6 
#
# 1 17.3214 9.6355 4.9886 6.6317 -8.9893 -5.0819
# 2 9.6355 87.2978 47.1433 18.8519 7.6670 -1.2455
# 3 4.9886 47.1433 189.6410 32.1764 -3.3237 7.8664
# 4 6.6317 18.8519 32.1764 61.2482 -2.1944 5.7833
# 5 -8.9893 7.6670 -3.3237 -2.1944 22.0360 4.8911
# 6 -5.0819 -1.2455 7.8664 5.7833 4.8911 15.5575
#
#
#
# Elastic Compliance Matrix: (Units=1/GPa)
#
#
# Indices 1 2 3 4 5 6 
#
# 1 0.091951 -0.012482 0.001818 -0.007559 0.037099 0.019264
# 2 -0.012482 0.016582 -0.003738 -0.002624 -0.012591 0.004074
# 3 0.001818 -0.003738 0.006721 -0.002122 0.003610 -0.003450
# 4 -0.007559 -0.002624 -0.002122 0.020029 0.001627 -0.009563
# 5 0.037099 -0.012591 0.003610 0.001627 0.068452 -0.012840
# 6 0.019264 0.004074 -0.003450 -0.009563 -0.012840 0.080233
#
#
# Mechanical properties :
#
#
# Convention : Reuss Voigt Hill
#
# Bulk Modulus (GPa) = 11.56747 46.42169 28.99458
# Shear Modulus (GPa) = 14.63750 35.26785 24.95268
#
# Velocity S-wave (km/s) = 2.55573 3.96709 3.33688
# Velocity P-wave (km/s) = 3.72436 6.45745 5.27113
#
# Compressibility (1/GPa) = 0.08644930
#
# Stress axis : x y z
#
# Youngs Moduli (GPa) = 10.87540 60.30587 148.78686
#
# Poissons Ratio (x) = 0.75272 -0.27045
# Poissons Ratio (y) = 0.13574 0.55620
# Poissons Ratio (z) = -0.01977 0.22544
#
# Static dielectric constant tensor:
#      x y z
#    x 1.812440 -0.007000 0.032870 
#    y -0.007000 1.909670 0.065880 
#    z 0.032870 0.065880 1.952350 
# 
# From -- ./inp_files/307504.got.cif
#   From: 2010.05.17/outbox.cif.g08.bks.cpg/sg2_154_cif.got.tgz:307504.got - 2010.06.03 11:33:40.
