data_PCOD9082828
_publ_section_title
;
Structure prediction by ZEFSAII (Michael W. Deem and Ramdas Pophale) SiO2 
 PCOD9082828
Probable space group: P -1
;
_chemical_formula_sum "Si O2"
_cell_formula_units_Z 16
_cell_length_a 5.559296
_cell_length_b 13.569138
_cell_length_c 9.585649
_cell_angle_alpha 85.477029
_cell_angle_beta 94.619166
_cell_angle_gamma 97.189410
_cell_volume 713.345202
_symmetry_space_group_name_H-M "P -1"
_symmetry_group_IT_number 2
_symmetry_cell_setting 'triclinic'
loop_
_space_group_symop_operation_xyz
x,y,z
-x,-y,-z
loop_
_atom_site_type_symbol
_atom_site_label
_atom_site_fract_x
_atom_site_fract_y
_atom_site_fract_z
Si Si1 0.392778 0.480902 0.797117
Si Si2 0.745075 0.644181 0.465606
Si Si3 0.108531 0.192748 0.141184
Si Si4 0.355597 0.897208 0.583688
Si Si5 0.838640 0.862874 0.520982
Si Si6 0.573468 0.090734 0.098063
Si Si7 0.732808 0.345836 0.377573
Si Si8 0.826848 0.575768 0.926578
O O1 0.289827 0.414567 0.672403
O O2 0.678613 0.516140 0.802889
O O3 0.285204 0.587256 0.768338
O O4 0.344357 0.421147 0.944467
O O5 0.785901 0.763543 0.438997
O O6 0.491264 0.625110 0.541346
O O7 0.999419 0.624982 0.550631
O O8 0.135931 0.163610 0.309279
O O9 0.348698 0.158393 0.082705
O O10 0.103071 0.310758 0.123096
O O11 0.848204 0.143201 0.075144
O O12 0.594895 0.913984 0.498865
O O13 0.399269 0.941321 0.735214
O O14 0.317785 0.774177 0.624798
O O15 0.106520 0.912782 0.492950
O O16 0.500000 0.000000 0.000000
O O17 0.000000 0.500000 0.000000
#
# Coordination Sequence:
#
# PCOD9082828 Si02
#       8
#     2   2   2   2   2   2   2   2
#     4  11  24  36  51  77 107 147 214 227 265 326
#     4  10  20  33  53  78 104 138 185 250 284 313
#     4  10  21  37  55  76 119 144 182 231 275 336
#     4   8  15  26  44  70 104 128 156 199 272 333
#     4   8  15  28  49  70  97 137 166 211 291 307
#     4  10  19  33  58  84 107 138 176 231 298 345
#     4  10  20  33  55  77 106 143 179 237 300 316
#     4  11  27  38  55  73 114 174 207 217 254 331
#
# _framework density 22.429532999999999
#
# number of rings (size 3 to 8) (size 9 to 14) (size 15 to 20)
#    0.000    2.250    0.000    3.375   12.250    0.000 
#    0.000    0.000    0.000    0.000    0.000    0.000 
#    0.000   54.000    0.000    0.000    0.000    0.000 
#
# Total GULP energy -89279.035629 kJ/mol
# GULP energy per Si atom -5579.939727 kJ/mol
# Density = 2.237848 g / cm^3
# Si number density = 22.429533 Si / 1000 Ang^3
#
#
#
# Elastic Constant Matrix: (Units=GPa)
#
#
# Indices 1 2 3 4 5 6 
#
# 1 187.8967 43.2881 27.1094 12.4228 30.6674 -0.4030
# 2 43.2881 74.2842 24.4995 15.9332 13.2479 5.4747
# 3 27.1094 24.4995 77.9286 23.1655 21.6991 11.0700
# 4 12.4228 15.9332 23.1655 35.0521 7.4968 3.2797
# 5 30.6674 13.2479 21.6991 7.4968 36.0737 1.9326
# 6 -0.4030 5.4747 11.0700 3.2797 1.9326 42.7446
#
#
#
# Elastic Compliance Matrix: (Units=1/GPa)
#
#
# Indices 1 2 3 4 5 6 
#
# 1 0.006823 -0.003156 -0.000242 0.000081 -0.004552 0.000731
# 2 -0.003156 0.017444 -0.002452 -0.004825 -0.001181 -0.001205
# 3 -0.000242 -0.002452 0.019338 -0.009454 -0.008369 -0.003593
# 4 0.000081 -0.004825 -0.009454 0.036985 -0.000310 0.000243
# 5 -0.004552 -0.001181 -0.008369 -0.000310 0.037090 0.000623
# 6 0.000731 -0.001205 -0.003593 0.000243 0.000623 0.024440
#
#
# Mechanical properties :
#
#
# Convention : Reuss Voigt Hill
#
# Bulk Modulus (GPa) = 31.34178 58.87819 45.10999
# Shear Modulus (GPa) = 30.40354 39.12157 34.76256
#
# Velocity S-wave (km/s) = 3.68572 4.18089 3.94109
# Velocity P-wave (km/s) = 5.66714 7.04370 6.39259
#
# Compressibility (1/GPa) = 0.03190630
#
# Stress axis : x y z
#
# Youngs Moduli (GPa) = 146.55906 57.32681 51.71067
#
# Poissons Ratio (x) = 0.18091 0.01251
# Poissons Ratio (y) = 0.46251 0.12678
# Poissons Ratio (z) = 0.03546 0.14055
#
# Static dielectric constant tensor:
#      x y z
#    x 1.981370 -0.004400 -0.034140 
#    y -0.004400 1.926710 -0.042230 
#    z -0.034140 -0.042230 1.789510 
# 
# From -- ./inp_files/367015.got.cif
#   From: 2010.05.17/outbox.cif.g08.bks.cpg/sg2_184_cif.got.tgz:367015.got - 2010.06.03 11:33:40.
