data_PCOD9082190
_publ_section_title
;
Structure prediction by ZEFSAII (Michael W. Deem and Ramdas Pophale) SiO2 
 PCOD9082190
Probable space group: P -1
;
_chemical_formula_sum "Si O2"
_cell_formula_units_Z 14
_cell_length_a 24.777451
_cell_length_b 11.716069
_cell_length_c 9.463090
_cell_angle_alpha 130.455659
_cell_angle_beta 29.355141
_cell_angle_gamma 151.374830
_cell_volume 560.652026
_symmetry_space_group_name_H-M "P -1"
_symmetry_group_IT_number 2
_symmetry_cell_setting 'triclinic'
loop_
_space_group_symop_operation_xyz
x,y,z
-x,-y,-z
loop_
_atom_site_type_symbol
_atom_site_label
_atom_site_fract_x
_atom_site_fract_y
_atom_site_fract_z
Si Si1 0.211058 0.643572 0.760119
Si Si2 0.624549 0.682117 0.177784
Si Si3 0.093240 0.193532 0.170864
Si Si4 0.728051 0.110797 0.430054
Si Si5 0.855245 0.673108 0.138704
Si Si6 0.697381 0.937669 0.630836
Si Si7 0.756090 0.007553 0.874984
O O1 0.247405 0.837666 0.917161
O O2 0.969268 0.354806 0.060103
O O3 0.309074 0.785897 0.498450
O O4 0.272816 0.577486 0.667278
O O5 0.436133 0.355699 0.347705
O O6 0.633337 0.850648 0.374090
O O7 0.796100 0.777476 0.940182
O O8 0.661687 0.774070 0.004941
O O9 0.988110 0.218703 0.496282
O O10 0.219167 0.379559 0.892026
O O11 0.914567 0.888131 0.264236
O O12 0.664903 0.038756 0.679504
O O13 0.068796 0.836677 0.749279
O O14 0.668300 0.924806 0.852475
#
# Coordination Sequence:
#
# PCOD9082190 Si02
#       7
#     2   2   2   2   2   2   2
#     4   9  17  35  54  78 103 135 183 216 252 307
#     4  11  19  34  54  83 107 137 174 220 261 311
#     4  10  19  33  52  85 106 133 174 217 271 299
#     4   9  18  30  55  79  98 135 181 219 247 300
#     4   9  19  34  57  81 102 136 178 220 256 307
#     4  10  19  33  53  83 106 136 178 217 256 311
#     4  10  22  33  55  82 107 138 171 222 264 305
#
# _framework density 24.970925999999999
#
# number of rings (size 3 to 8) (size 9 to 14) (size 15 to 20)
#    0.000    2.286    2.857    1.286    0.000    5.143 
#    0.000    0.000    0.000    8.571    0.000    0.000 
#    0.000    0.000    0.000    0.000    0.000    0.000 
#
# Total GULP energy -78262.855046 kJ/mol
# GULP energy per Si atom -5590.203932 kJ/mol
# Density = 2.491409 g / cm^3
# Si number density = 24.970926 Si / 1000 Ang^3
#
#
#
# Elastic Constant Matrix: (Units=GPa)
#
#
# Indices 1 2 3 4 5 6 
#
# 1 216.3620 52.7286 57.5107 -17.8750 69.6167 -45.4215
# 2 52.7286 63.8038 26.6573 -29.2045 12.1618 -8.5250
# 3 57.5107 26.6573 55.8014 -13.5429 23.2650 0.3699
# 4 -17.8750 -29.2045 -13.5429 22.6177 -2.5627 3.7925
# 5 69.6167 12.1618 23.2650 -2.5627 47.3303 -4.5343
# 6 -45.4215 -8.5250 0.3699 3.7925 -4.5343 31.4920
#
#
#
# Elastic Compliance Matrix: (Units=1/GPa)
#
#
# Indices 1 2 3 4 5 6 
#
# 1 0.022318 -0.009923 -0.011207 -0.009055 -0.022627 0.027467
# 2 -0.009923 0.047255 -0.001396 0.054163 0.005377 -0.007253
# 3 -0.011207 -0.001396 0.033620 0.012494 -0.000784 -0.018554
# 4 -0.009055 0.054163 0.012494 0.116434 -0.001663 -0.012806
# 5 -0.022627 0.005377 -0.000784 -0.001663 0.051060 -0.023618
# 6 0.027467 -0.007253 -0.018554 -0.012806 -0.023618 0.067767
#
#
# Mechanical properties :
#
#
# Convention : Reuss Voigt Hill
#
# Bulk Modulus (GPa) = 17.19972 67.75115 42.47544
# Shear Modulus (GPa) = 12.41050 33.55938 22.98494
#
# Velocity S-wave (km/s) = 2.23176 3.66995 3.03721
# Velocity P-wave (km/s) = 3.68020 6.71930 5.41723
#
# Compressibility (1/GPa) = 0.05814047
#
# Stress axis : x y z
#
# Youngs Moduli (GPa) = 44.80742 21.16189 29.74440
#
# Poissons Ratio (x) = 0.21000 0.33334
# Poissons Ratio (y) = 0.44464 0.04151
# Poissons Ratio (z) = 0.50215 0.02954
#
# Static dielectric constant tensor:
#      x y z
#    x 2.090500 0.000990 0.001850 
#    y 0.000990 1.903950 -0.022820 
#    z 0.001850 -0.022820 2.001930 
# 
# From -- ./inp_files/258214.got.cif
#   From: 2010.05.17/outbox.cif.g08.bks.cpg/sg2_130_cif.got.tgz:258214.got - 2010.06.03 11:33:40.
