data_PCOD9082475
_publ_section_title
;
Structure prediction by ZEFSAII (Michael W. Deem and Ramdas Pophale) SiO2 
 PCOD9082475
Probable space group: P -1
;
_chemical_formula_sum "Si O2"
_cell_formula_units_Z 11
_cell_length_a 5.569294
_cell_length_b 7.356173
_cell_length_c 18.279263
_cell_angle_alpha 144.130890
_cell_angle_beta 109.405738
_cell_angle_gamma 84.154063
_cell_volume 394.424569
_symmetry_space_group_name_H-M "P -1"
_symmetry_group_IT_number 2
_symmetry_cell_setting 'triclinic'
loop_
_space_group_symop_operation_xyz
x,y,z
-x,-y,-z
loop_
_atom_site_type_symbol
_atom_site_label
_atom_site_fract_x
_atom_site_fract_y
_atom_site_fract_z
Si Si1 0.500000 0.000000 0.500000
Si Si2 0.558566 0.931558 0.217987
Si Si3 0.786770 0.379209 0.524073
Si Si4 0.178509 0.910503 0.925086
Si Si5 0.294678 0.498778 0.694894
Si Si6 0.992416 0.130938 0.826358
O O1 0.577487 0.276851 0.534899
O O2 0.482608 0.277323 0.650362
O O3 0.684677 0.185390 0.377709
O O4 0.563853 0.161276 0.221858
O O5 0.259541 0.742945 0.149176
O O6 0.746930 0.711299 0.144359
O O7 0.873772 0.771057 0.659541
O O8 0.053525 0.300658 0.552903
O O9 0.141593 0.548854 0.769416
O O10 0.086454 0.066534 0.895097
O O11 0.500000 0.000000 0.000000
O O12 0.000000 0.000000 0.000000
#
# Coordination Sequence:
#
# PCOD9082475 Si02
#       6
#     1   2   2   2   2   2
#     4  12  22  34  54  80 134 148 180 222 292 364
#     4  10  19  34  57  79 116 147 186 232 277 340
#     4  10  21  33  53  81 119 151 183 225 288 342
#     4  10  20  35  59  83 113 145 191 246 283 312
#     4  10  22  36  54  87 119 145 193 230 286 344
#     4  10  19  33  55  83 111 135 194 235 275 330
#
# _framework density 27.888731
#
# number of rings (size 3 to 8) (size 9 to 14) (size 15 to 20)
#    0.000    2.182    1.818    5.455    5.091    0.000 
#    0.000    0.000    0.000    0.000    0.000   17.818 
#    0.000    0.000    0.000    0.000    0.000    0.000 
#
# Total GULP energy -61256.939009 kJ/mol
# GULP energy per Si atom -5568.812637 kJ/mol
# Density = 2.782526 g / cm^3
# Si number density = 27.888731 Si / 1000 Ang^3
#
#
#
# Elastic Constant Matrix: (Units=GPa)
#
#
# Indices 1 2 3 4 5 6 
#
# 1 250.4450 24.3468 81.9362 -20.6956 -30.0771 19.3512
# 2 24.3468 38.2115 28.6426 -4.8052 -12.1235 20.1567
# 3 81.9362 28.6426 126.7029 -21.4634 -33.8138 0.1857
# 4 -20.6956 -4.8052 -21.4634 50.6316 -10.5838 -8.5238
# 5 -30.0771 -12.1235 -33.8138 -10.5838 59.1775 -23.9867
# 6 19.3512 20.1567 0.1857 -8.5238 -23.9867 -1.9198
#
#
#
# Elastic Compliance Matrix: (Units=1/GPa)
#
#
# Indices 1 2 3 4 5 6 
#
# 1 0.005103 -0.001643 -0.002111 0.001712 0.001987 0.001554
# 2 -0.001643 0.021941 0.000814 0.007568 0.012953 0.018440
# 3 -0.002111 0.000814 0.009170 0.001010 -0.000347 -0.011992
# 4 0.001712 0.007568 0.001010 0.019901 0.001646 -0.012116
# 5 0.001987 0.012953 -0.000347 0.001646 0.013344 -0.018044
# 6 0.001554 0.018440 -0.011992 -0.012116 -0.018044 -0.033534
#
#
# Mechanical properties :
#
#
# Convention : Reuss Voigt Hill
#
# Bulk Modulus (GPa) = 32.96555 76.13453 54.55004
# Shear Modulus (GPa) = 96.31041 40.27345 68.29193
#
# Velocity S-wave (km/s) = 5.88292 3.80422 4.95383
# Velocity P-wave (km/s) = 7.61519 6.83043 7.23346
#
# Compressibility (1/GPa) = 0.03033470
#
# Stress axis : x y z
#
# Youngs Moduli (GPa) = 195.95411 45.57708 109.05718
#
# Poissons Ratio (x) = 0.07490 0.23018
# Poissons Ratio (y) = 0.32201 -0.08882
# Poissons Ratio (z) = 0.41359 -0.03712
#
# Static dielectric constant tensor:
#      x y z
#    x 2.496010 -0.059380 -0.016890 
#    y -0.059380 2.164410 0.013780 
#    z -0.016890 0.013780 2.325030 
# 
# From -- ./inp_files/61875.got.cif
#   From: 2010.05.17/outbox.cif.g08.bks.cpg/sg2_31_cif.got.tgz:61875.got - 2010.06.03 11:33:40.
