data_PCOD9082528
_publ_section_title
;
Structure prediction by ZEFSAII (Michael W. Deem and Ramdas Pophale) SiO2 
 PCOD9082528
Probable space group: P -1
;
_chemical_formula_sum "Si O2"
_cell_formula_units_Z 14
_cell_length_a 11.532023
_cell_length_b 10.866874
_cell_length_c 9.968414
_cell_angle_alpha 80.268915
_cell_angle_beta 140.546849
_cell_angle_gamma 78.078676
_cell_volume 659.407068
_symmetry_space_group_name_H-M "P -1"
_symmetry_group_IT_number 2
_symmetry_cell_setting 'triclinic'
loop_
_space_group_symop_operation_xyz
x,y,z
-x,-y,-z
loop_
_atom_site_type_symbol
_atom_site_label
_atom_site_fract_x
_atom_site_fract_y
_atom_site_fract_z
Si Si1 0.817941 0.155876 0.247142
Si Si2 0.949343 0.619371 0.260679
Si Si3 0.485072 0.108166 0.082545
Si Si4 0.749901 0.450506 0.213342
Si Si5 0.359051 0.092510 0.487033
Si Si6 0.007429 0.793499 0.058513
Si Si7 0.278324 0.872511 0.138496
O O1 0.596901 0.191902 0.114166
O O2 0.865084 0.280884 0.300256
O O3 0.787510 0.143118 0.065520
O O4 0.000000 0.000000 0.500000
O O5 0.825015 0.532184 0.162940
O O6 0.019228 0.664346 0.179883
O O7 0.149802 0.542125 0.556410
O O8 0.763291 0.777132 0.126513
O O9 0.607553 0.017065 0.342738
O O10 0.500000 0.000000 0.000000
O O11 0.500000 0.500000 0.000000
O O12 0.473565 0.175666 0.625205
O O13 0.500000 0.000000 0.500000
O O14 0.121433 0.187442 0.197574
O O15 0.226080 0.782837 0.213805
O O16 0.868877 0.952662 0.983566
#
# Coordination Sequence:
#
# PCOD9082528 Si02
#       7
#     2   2   2   2   2   2   2
#     4  12  23  39  65  96 129 164 219 273 325 372
#     4  11  23  42  63  91 128 173 220 264 318 393
#     4  12  20  36  64  99 133 163 208 279 324 365
#     4  11  25  43  64  93 128 174 216 263 330 394
#     4  10  19  33  55  93 128 160 206 255 322 379
#     4  10  20  37  61  91 128 167 209 265 326 376
#     4  10  20  35  56  92 126 159 208 268 309 380
#
# _framework density 21.231195
#
# number of rings (size 3 to 8) (size 9 to 14) (size 15 to 20)
#    0.000    1.143    5.714    2.571    0.000    3.429 
#    0.000    0.714    0.000    1.714    0.000    0.000 
#    0.000    0.000    0.000    0.000    0.000    0.000 
#
# Total GULP energy -78185.494347 kJ/mol
# GULP energy per Si atom -5584.678168 kJ/mol
# Density = 2.118287 g / cm^3
# Si number density = 21.231195 Si / 1000 Ang^3
#
#
#
# Elastic Constant Matrix: (Units=GPa)
#
#
# Indices 1 2 3 4 5 6 
#
# 1 119.5026 34.4204 33.0039 1.2759 -16.3122 47.1115
# 2 34.4204 96.7795 18.1997 7.6281 -11.8702 34.0823
# 3 33.0039 18.1997 72.4507 7.7654 -8.5781 13.2261
# 4 1.2759 7.6281 7.7654 25.6262 3.4006 -1.7509
# 5 -16.3122 -11.8702 -8.5781 3.4006 39.3824 0.6721
# 6 47.1115 34.0823 13.2261 -1.7509 0.6721 41.0166
#
#
#
# Elastic Compliance Matrix: (Units=1/GPa)
#
#
# Indices 1 2 3 4 5 6 
#
# 1 0.019150 0.003863 -0.003782 -0.003814 0.009016 -0.024296
# 2 0.003863 0.017326 -0.000966 -0.007357 0.007571 -0.018961
# 3 -0.003782 -0.000966 0.016636 -0.004888 0.002196 -0.000462
# 4 -0.003814 -0.007357 -0.004888 0.045043 -0.008993 0.014141
# 5 0.009016 0.007571 0.002196 -0.008993 0.032975 -0.018279
# 6 -0.024296 -0.018961 -0.000462 0.014141 -0.018279 0.069095
#
#
# Mechanical properties :
#
#
# Convention : Reuss Voigt Hill
#
# Bulk Modulus (GPa) = 19.47688 51.10897 35.29293
# Shear Modulus (GPa) = 22.81963 34.74563 28.78263
#
# Velocity S-wave (km/s) = 3.28200 4.04980 3.68595
# Velocity P-wave (km/s) = 4.85341 6.78179 5.89696
#
# Compressibility (1/GPa) = 0.05134291
#
# Stress axis : x y z
#
# Youngs Moduli (GPa) = 52.22036 57.71564 60.10911
#
# Poissons Ratio (x) = -0.22297 0.22734
# Poissons Ratio (y) = -0.20174 0.05806
# Poissons Ratio (z) = 0.19751 0.05575
#
# Static dielectric constant tensor:
#      x y z
#    x 1.824850 -0.004950 0.055940 
#    y -0.004950 1.796290 -0.014470 
#    z 0.055940 -0.014470 1.791070 
# 
# From -- ./inp_files/258311.got.cif
#   From: 2010.05.17/outbox.cif.g08.bks.cpg/sg2_130_cif.got.tgz:258311.got - 2010.06.03 11:33:40.
