data_PCOD9082245
_publ_section_title
;
Structure prediction by ZEFSAII (Michael W. Deem and Ramdas Pophale) SiO2 
 PCOD9082245
Probable space group: P -1
;
_chemical_formula_sum "Si O2"
_cell_formula_units_Z 16
_cell_length_a 23.701105
_cell_length_b 14.768321
_cell_length_c 11.578156
_cell_angle_alpha 50.093877
_cell_angle_beta 150.317132
_cell_angle_gamma 150.241254
_cell_volume 885.275225
_symmetry_space_group_name_H-M "P -1"
_symmetry_group_IT_number 2
_symmetry_cell_setting 'triclinic'
loop_
_space_group_symop_operation_xyz
x,y,z
-x,-y,-z
loop_
_atom_site_type_symbol
_atom_site_label
_atom_site_fract_x
_atom_site_fract_y
_atom_site_fract_z
Si Si1 0.868515 0.952583 0.902278
Si Si2 0.328937 0.991853 0.099760
Si Si3 0.586042 0.524331 0.814044
Si Si4 0.700601 0.172259 0.590938
Si Si5 0.526956 0.398750 0.067713
Si Si6 0.113029 0.430958 0.320647
Si Si7 0.061861 0.345567 0.028582
Si Si8 0.431852 0.610997 0.341580
O O1 0.778863 0.771373 0.969873
O O2 0.664996 0.838717 0.582134
O O3 0.000000 0.000000 0.000000
O O4 0.989450 0.154860 0.017220
O O5 0.497468 0.058563 0.279344
O O6 0.352534 0.975161 0.290786
O O7 0.370825 0.165182 0.016508
O O8 0.106981 0.768337 0.857731
O O9 0.521429 0.415052 0.907949
O O10 0.429438 0.483941 0.512298
O O11 0.620175 0.460065 0.825051
O O12 0.805791 0.367698 0.688129
O O13 0.870776 0.267349 0.732794
O O14 0.500000 0.500000 0.000000
O O15 0.735947 0.522429 0.379169
O O16 0.105745 0.389165 0.207474
O O17 0.263508 0.546170 0.154892
#
# Coordination Sequence:
#
# PCOD9082245 Si02
#       8
#     2   2   2   2   2   2   2   2
#     4  10  19  33  53  80 109 139 186 227 272 321
#     4   9  19  37  52  76 109 150 181 217 276 319
#     4   9  19  37  50  74 117 148 172 228 268 324
#     4   9  20  35  59  79 110 142 192 239 265 316
#     4  11  23  35  51  83 121 150 179 215 274 350
#     4  10  22  37  54  83 115 148 185 225 277 327
#     4  11  18  31  57  86 103 138 183 237 274 319
#     4   9  19  35  55  76 107 143 186 231 269 313
#
# _framework density 18.073475999999999
#
# number of rings (size 3 to 8) (size 9 to 14) (size 15 to 20)
#    0.750    1.500    1.250    2.250    3.500    4.500 
#    4.500    0.000    0.000    3.000    0.000    7.875 
#    0.000    0.000    0.000    0.000    0.000    0.000 
#
# Total GULP energy -89080.621105 kJ/mol
# GULP energy per Si atom -5567.538819 kJ/mol
# Density = 1.803234 g / cm^3
# Si number density = 18.073476 Si / 1000 Ang^3
#
#
#
# Elastic Constant Matrix: (Units=GPa)
#
#
# Indices 1 2 3 4 5 6 
#
# 1 106.7333 39.3008 42.3039 3.0216 10.8047 -0.7060
# 2 39.3008 108.1277 27.5305 4.0348 -2.2928 1.4436
# 3 42.3039 27.5305 60.6290 15.3932 14.0909 8.7183
# 4 3.0216 4.0348 15.3932 33.9011 6.9778 -0.0071
# 5 10.8047 -2.2928 14.0909 6.9778 34.4768 7.3964
# 6 -0.7060 1.4436 8.7183 -0.0071 7.3964 18.3059
#
#
#
# Elastic Compliance Matrix: (Units=1/GPa)
#
#
# Indices 1 2 3 4 5 6 
#
# 1 0.014837 -0.003071 -0.010374 0.004371 -0.002993 0.006966
# 2 -0.003071 0.011391 -0.003702 -0.000098 0.003386 -0.000622
# 3 -0.010374 -0.003702 0.031415 -0.011960 -0.004577 -0.013225
# 4 0.004371 -0.000098 -0.011960 0.035672 -0.005443 0.008085
# 5 -0.002993 0.003386 -0.004577 -0.005443 0.035864 -0.012695
# 6 0.006966 -0.000622 -0.013225 0.008085 -0.012695 0.066376
#
#
# Mechanical properties :
#
#
# Convention : Reuss Voigt Hill
#
# Bulk Modulus (GPa) = 42.82862 54.86224 48.84543
# Shear Modulus (GPa) = 21.04084 28.42708 24.73396
#
# Velocity S-wave (km/s) = 3.41571 3.97023 3.70337
# Velocity P-wave (km/s) = 6.26933 7.17203 6.73582
#
# Compressibility (1/GPa) = 0.02334887
#
# Stress axis : x y z
#
# Youngs Moduli (GPa) = 67.39916 87.78888 31.83158
#
# Poissons Ratio (x) = 0.26960 0.33022
# Poissons Ratio (y) = 0.20699 0.11785
# Poissons Ratio (z) = 0.69919 0.32502
#
# Static dielectric constant tensor:
#      x y z
#    x 1.629690 -0.002650 0.046680 
#    y -0.002650 1.635290 0.021270 
#    z 0.046680 0.021270 1.661300 
# 
# From -- ./inp_files/474958.got.cif
#   From: 2010.05.17/outbox.cif.g08.bks.cpg/sg2_238_cif.got.tgz:474958.got - 2010.06.03 11:33:40.
