data_PCOD9082467
_publ_section_title
;
Structure prediction by ZEFSAII (Michael W. Deem and Ramdas Pophale) SiO2 
 PCOD9082467
Probable space group: P -1
;
_chemical_formula_sum "Si O2"
_cell_formula_units_Z 16
_cell_length_a 16.049378
_cell_length_b 10.228595
_cell_length_c 11.880502
_cell_angle_alpha 64.174044
_cell_angle_beta 36.156539
_cell_angle_gamma 42.101041
_cell_volume 702.540096
_symmetry_space_group_name_H-M "P -1"
_symmetry_group_IT_number 2
_symmetry_cell_setting 'triclinic'
loop_
_space_group_symop_operation_xyz
x,y,z
-x,-y,-z
loop_
_atom_site_type_symbol
_atom_site_label
_atom_site_fract_x
_atom_site_fract_y
_atom_site_fract_z
Si Si1 0.521331 0.249239 0.005628
Si Si2 0.559745 0.164723 0.386078
Si Si3 0.872967 0.870469 0.449918
Si Si4 0.584485 0.522929 0.733402
Si Si5 0.500990 0.340180 0.612227
Si Si6 0.219874 0.241320 0.595854
Si Si7 0.961274 0.856565 0.614247
Si Si8 0.210803 0.477378 0.083184
O O1 0.553453 0.380619 0.857324
O O2 0.746284 0.004850 0.860081
O O3 0.436765 0.362109 0.175582
O O4 0.363127 0.289627 0.078661
O O5 0.579346 0.299524 0.246950
O O6 0.456601 0.270790 0.579613
O O7 0.402983 0.195104 0.466057
O O8 0.763952 0.918869 0.286238
O O9 0.745502 0.834678 0.543080
O O10 0.926058 0.819601 0.541328
O O11 0.085093 0.695570 0.211202
O O12 0.730114 0.119052 0.490515
O O13 0.820475 0.361197 0.492026
O O14 0.500000 0.500000 0.500000
O O15 0.341216 0.433845 0.851814
O O16 0.982714 0.473962 0.767004
O O17 0.000000 0.000000 0.500000
#
# Coordination Sequence:
#
# PCOD9082467 Si02
#       8
#     2   2   2   2   2   2   2   2
#     4  10  19  34  57  84 114 147 185 229 292 346
#     4  10  20  40  58  83 119 148 197 235 282 336
#     4   9  19  37  55  81 111 151 190 231 284 336
#     4  10  20  35  55  83 116 149 182 237 284 343
#     4  11  22  35  57  88 117 146 186 243 288 341
#     4   8  20  39  61  80 106 165 190 234 284 326
#     4  10  19  33  55  82 112 149 184 226 287 338
#     4  10  19  37  58  81 106 155 193 225 290 333
#
# _framework density 22.774501000000001
#
# number of rings (size 3 to 8) (size 9 to 14) (size 15 to 20)
#    0.750    1.500    2.500    0.750    1.750    1.000 
#    4.500    2.500    0.000    1.500    0.000    0.000 
#    0.000    0.000    0.000    0.000    0.000    0.000 
#
# Total GULP energy -89184.884066 kJ/mol
# GULP energy per Si atom -5574.055254 kJ/mol
# Density = 2.272266 g / cm^3
# Si number density = 22.774501 Si / 1000 Ang^3
#
#
#
# Elastic Constant Matrix: (Units=GPa)
#
#
# Indices 1 2 3 4 5 6 
#
# 1 104.0644 -11.7228 3.7341 -1.3225 3.9413 -4.4301
# 2 -11.7228 59.4742 12.4336 -0.1990 -4.3437 -15.9738
# 3 3.7341 12.4336 69.6995 18.4571 2.3300 -0.7247
# 4 -1.3225 -0.1990 18.4571 29.3569 -9.2158 1.6438
# 5 3.9413 -4.3437 2.3300 -9.2158 29.6690 5.9742
# 6 -4.4301 -15.9738 -0.7247 1.6438 5.9742 25.9753
#
#
#
# Elastic Compliance Matrix: (Units=1/GPa)
#
#
# Indices 1 2 3 4 5 6 
#
# 1 0.010248 0.003240 -0.001185 0.000557 -0.001426 0.004000
# 2 0.003240 0.022223 -0.004845 0.003027 0.001412 0.013567
# 3 -0.001185 -0.004845 0.019242 -0.014182 -0.006414 -0.000272
# 4 0.000557 0.003027 -0.014182 0.048935 0.017817 -0.005634
# 5 -0.001426 0.001412 -0.006414 0.017817 0.042233 -0.010395
# 6 0.004000 0.013567 -0.000272 -0.005634 -0.010395 0.050263
#
#
# Mechanical properties :
#
#
# Convention : Reuss Voigt Hill
#
# Bulk Modulus (GPa) = 21.67709 26.90310 24.29010
# Shear Modulus (GPa) = 23.35327 32.25313 27.80320
#
# Velocity S-wave (km/s) = 3.20568 3.76732 3.49779
# Velocity P-wave (km/s) = 4.82086 5.54635 5.19628
#
# Compressibility (1/GPa) = 0.04613164
#
# Stress axis : x y z
#
# Youngs Moduli (GPa) = 97.57711 44.99890 51.96872
#
# Poissons Ratio (x) = -0.14579 0.06159
# Poissons Ratio (y) = -0.31613 0.25181
# Poissons Ratio (z) = 0.11565 0.21804
#
# Static dielectric constant tensor:
#      x y z
#    x 1.907080 0.066970 -0.043600 
#    y 0.066970 1.931280 -0.007500 
#    z -0.043600 -0.007500 1.843150 
# 
# From -- ./inp_files/465069.got.cif
#   From: 2010.05.17/outbox.cif.g08.bks.cpg/sg2_233_cif.got.tgz:465069.got - 2010.06.03 11:33:40.
