data_PCOD9082886
_publ_section_title
;
Structure prediction by ZEFSAII (Michael W. Deem and Ramdas Pophale) SiO2 
 PCOD9082886
Probable space group: P -1
;
_chemical_formula_sum "Si O2"
_cell_formula_units_Z 14
_cell_length_a 7.719511
_cell_length_b 12.173037
_cell_length_c 11.888845
_cell_angle_alpha 77.892846
_cell_angle_beta 37.478103
_cell_angle_gamma 102.660702
_cell_volume 506.113087
_symmetry_space_group_name_H-M "P -1"
_symmetry_group_IT_number 2
_symmetry_cell_setting 'triclinic'
loop_
_space_group_symop_operation_xyz
x,y,z
-x,-y,-z
loop_
_atom_site_type_symbol
_atom_site_label
_atom_site_fract_x
_atom_site_fract_y
_atom_site_fract_z
Si Si1 0.397008 0.699410 0.348072
Si Si2 0.033029 0.752819 0.225775
Si Si3 0.872104 0.216134 0.352118
Si Si4 0.411275 0.457453 0.321016
Si Si5 0.222904 0.030945 0.053574
Si Si6 0.590845 0.330869 0.083900
Si Si7 0.415554 0.092691 0.402709
O O1 0.287822 0.712910 0.525047
O O2 0.519102 0.603277 0.287069
O O3 0.992410 0.619291 0.512633
O O4 0.705367 0.856352 0.098440
O O5 0.675630 0.650014 0.510041
O O6 0.094756 0.881034 0.096245
O O7 0.381920 0.861844 0.107545
O O8 0.091150 0.652329 0.151164
O O9 0.776792 0.190352 0.275926
O O10 0.298410 0.301472 0.147849
O O11 0.657718 0.056231 0.557690
O O12 0.658753 0.454073 0.103670
O O13 0.920934 0.972594 0.320426
O O14 0.420412 0.186298 0.281615
#
# Coordination Sequence:
#
# PCOD9082886 Si02
#       7
#     2   2   2   2   2   2   2
#     4   9  19  37  55  82 129 156 197 257 298 356
#     4  10  19  33  61  91 116 158 206 246 304 364
#     4  10  22  36  57  91 122 162 197 253 309 355
#     4   9  19  37  58  89 119 160 209 241 297 375
#     4  10  19  33  58  91 122 154 207 250 298 369
#     4  11  20  38  65  85 123 166 194 254 307 354
#     4  11  21  36  59  93 125 154 205 253 300 371
#
# _framework density 27.661802999999999
#
# number of rings (size 3 to 8) (size 9 to 14) (size 15 to 20)
#    0.000    2.000    2.857    1.286    2.000    0.571 
#    2.571    3.571    0.000    0.857    0.000    0.000 
#    0.000    0.000    0.000    0.000    0.000    0.000 
#
# Total GULP energy -78429.887616 kJ/mol
# GULP energy per Si atom -5602.134830 kJ/mol
# Density = 2.759884 g / cm^3
# Si number density = 27.661803 Si / 1000 Ang^3
#
#
#
# Elastic Constant Matrix: (Units=GPa)
#
#
# Indices 1 2 3 4 5 6 
#
# 1 145.1194 2.1768 2.7835 -16.9692 -5.6428 -2.7583
# 2 2.1768 193.2804 19.2000 14.3114 1.9379 -5.0224
# 3 2.7835 19.2000 64.6969 6.7506 3.2597 8.9545
# 4 -16.9692 14.3114 6.7506 34.7334 -4.2502 9.4314
# 5 -5.6428 1.9379 3.2597 -4.2502 21.9301 -6.0202
# 6 -2.7583 -5.0224 8.9545 9.4314 -6.0202 18.7659
#
#
#
# Elastic Compliance Matrix: (Units=1/GPa)
#
#
# Indices 1 2 3 4 5 6 
#
# 1 0.007535 -0.000342 -0.000852 0.004293 0.002989 0.000224
# 2 -0.000342 0.005711 -0.001917 -0.003232 0.000185 0.004077
# 3 -0.000852 -0.001917 0.017916 -0.000948 -0.005799 -0.010571
# 4 0.004293 -0.003232 -0.000948 0.037622 0.004048 -0.017391
# 5 0.002989 0.000185 -0.005799 0.004048 0.053002 0.018225
# 6 0.000224 0.004077 -0.010571 -0.017391 0.018225 0.074044
#
#
# Mechanical properties :
#
#
# Convention : Reuss Voigt Hill
#
# Bulk Modulus (GPa) = 40.09491 50.15747 45.12619
# Shear Modulus (GPa) = 23.76819 40.34829 32.05824
#
# Velocity S-wave (km/s) = 2.93446 3.82334 3.40801
# Velocity P-wave (km/s) = 5.09976 6.13697 5.64225
#
# Compressibility (1/GPa) = 0.02494082
#
# Stress axis : x y z
#
# Youngs Moduli (GPa) = 132.71745 175.08572 55.81511
#
# Poissons Ratio (x) = 0.05992 0.04756
# Poissons Ratio (y) = 0.04542 0.10697
# Poissons Ratio (z) = 0.11309 0.33556
#
# Static dielectric constant tensor:
#      x y z
#    x 2.215180 -0.015020 -0.035690 
#    y -0.015020 2.172350 -0.012970 
#    z -0.035690 -0.012970 2.081860 
# 
# From -- ./inp_files/389919.got.cif
#   From: 2010.05.17/outbox.cif.g08.bks.cpg/sg2_195_cif.got.tgz:389919.got - 2010.06.03 11:33:40.
