data_PCOD9082516
_publ_section_title
;
Structure prediction by ZEFSAII (Michael W. Deem and Ramdas Pophale) SiO2 
 PCOD9082516
Probable space group: P -1
;
_chemical_formula_sum "Si O2"
_cell_formula_units_Z 16
_cell_length_a 27.709442
_cell_length_b 5.354546
_cell_length_c 14.845383
_cell_angle_alpha 72.122145
_cell_angle_beta 17.854814
_cell_angle_gamma 73.517046
_cell_volume 642.459060
_symmetry_space_group_name_H-M "P -1"
_symmetry_group_IT_number 2
_symmetry_cell_setting 'triclinic'
loop_
_space_group_symop_operation_xyz
x,y,z
-x,-y,-z
loop_
_atom_site_type_symbol
_atom_site_label
_atom_site_fract_x
_atom_site_fract_y
_atom_site_fract_z
Si Si1 0.307272 0.514836 0.855905
Si Si2 0.567883 0.532324 0.639984
Si Si3 0.462087 0.761424 0.985579
Si Si4 0.025988 0.241999 0.043764
Si Si5 0.755674 0.077090 0.422299
Si Si6 0.226799 0.381383 0.216856
Si Si7 0.338444 0.079933 0.728112
Si Si8 0.128042 0.799287 0.497671
O O1 0.500000 0.500000 0.500000
O O2 0.241773 0.257164 0.949101
O O3 0.263821 0.799373 0.863755
O O4 0.244964 0.497178 0.070784
O O5 0.509364 0.707928 0.804909
O O6 0.715010 0.361176 0.425201
O O7 0.609957 0.723677 0.463171
O O8 0.413005 0.348898 0.913638
O O9 0.588568 0.978735 0.768082
O O10 0.500000 0.500000 0.000000
O O11 0.278243 0.791758 0.299553
O O12 0.884808 0.057944 0.272752
O O13 0.009620 0.263776 0.178008
O O14 0.000000 0.500000 0.000000
O O15 0.180418 0.099243 0.752226
O O16 0.154103 0.585067 0.395828
O O17 0.137664 0.097918 0.410357
O O18 0.500000 0.000000 0.500000
#
# Coordination Sequence:
#
# PCOD9082516 Si02
#       8
#     2   2   2   2   2   2   2   2
#     4  10  19  33  55  87 135 167 203 249 327 381
#     4  11  22  35  58  95 130 164 211 263 326 383
#     4  11  24  38  60  93 132 165 209 269 339 385
#     4  11  26  46  63  88 124 178 233 270 322 389
#     4  11  24  41  67  84 128 168 226 270 322 384
#     4  11  22  37  60  97 134 164 211 263 329 392
#     4  10  20  31  57  87 133 168 201 254 319 384
#     4  11  25  39  65  92 132 168 215 269 328 387
#
# _framework density 24.904309000000001
#
# number of rings (size 3 to 8) (size 9 to 14) (size 15 to 20)
#    0.000    1.250    3.750    3.000   14.000    1.000 
#    0.000    0.000    0.000    0.000    0.000    5.250 
#    0.000    0.000    0.000    0.000    0.000    0.000 
#
# Total GULP energy -89448.136859 kJ/mol
# GULP energy per Si atom -5590.508554 kJ/mol
# Density = 2.484763 g / cm^3
# Si number density = 24.904309 Si / 1000 Ang^3
#
#
#
# Elastic Constant Matrix: (Units=GPa)
#
#
# Indices 1 2 3 4 5 6 
#
# 1 53.9946 11.9127 36.8265 5.0805 32.6724 2.9558
# 2 11.9127 151.3067 43.5784 5.4197 20.0087 13.9150
# 3 36.8265 43.5784 119.1098 16.7166 45.7351 -1.0361
# 4 5.0805 5.4197 16.7166 36.5285 3.9620 10.0084
# 5 32.6724 20.0087 45.7351 3.9620 48.3640 7.8940
# 6 2.9558 13.9150 -1.0361 10.0084 7.8940 31.7646
#
#
#
# Elastic Compliance Matrix: (Units=1/GPa)
#
#
# Indices 1 2 3 4 5 6 
#
# 1 0.032072 0.000600 -0.002090 -0.002048 -0.020152 0.002338
# 2 0.000600 0.007826 -0.003272 0.001354 -0.000004 -0.004016
# 3 -0.002090 -0.003272 0.016578 -0.007504 -0.013588 0.007910
# 4 -0.002048 0.001354 -0.007504 0.033685 0.007294 -0.013073
# 5 -0.020152 -0.000004 -0.013588 0.007294 0.048659 -0.012957
# 6 0.002338 -0.004016 0.007910 -0.013073 -0.012957 0.040621
#
#
# Mechanical properties :
#
#
# Convention : Reuss Voigt Hill
#
# Bulk Modulus (GPa) = 21.29814 56.56071 38.92943
# Shear Modulus (GPa) = 24.43612 38.80432 31.62022
#
# Velocity S-wave (km/s) = 3.13581 3.95161 3.56711
# Velocity P-wave (km/s) = 4.65635 6.60157 5.71237
#
# Compressibility (1/GPa) = 0.04695245
#
# Stress axis : x y z
#
# Youngs Moduli (GPa) = 31.17946 127.78502 60.31978
#
# Poissons Ratio (x) = -0.07668 0.12607
# Poissons Ratio (y) = -0.01871 0.19737
# Poissons Ratio (z) = 0.06517 0.41811
#
# Static dielectric constant tensor:
#      x y z
#    x 5.754330 3.029490 -3.142450 
#    y 3.029490 4.339540 -2.483870 
#    z -3.142450 -2.483870 4.513850 
# 
# From -- ./inp_files/510488.got.cif
#   From: 2010.05.17/outbox.cif.g08.bks.cpg/sg2_256_cif.got.tgz:510488.got - 2010.06.03 11:33:40.
