data_PCOD9082827
_publ_section_title
;
Structure prediction by ZEFSAII (Michael W. Deem and Ramdas Pophale) SiO2 
 PCOD9082827
Probable space group: P -1
;
_chemical_formula_sum "Si O2"
_cell_formula_units_Z 16
_cell_length_a 15.009212
_cell_length_b 11.857617
_cell_length_c 18.066778
_cell_angle_alpha 41.822118
_cell_angle_beta 158.992254
_cell_angle_gamma 134.310634
_cell_volume 768.591731
_symmetry_space_group_name_H-M "P -1"
_symmetry_group_IT_number 2
_symmetry_cell_setting 'triclinic'
loop_
_space_group_symop_operation_xyz
x,y,z
-x,-y,-z
loop_
_atom_site_type_symbol
_atom_site_label
_atom_site_fract_x
_atom_site_fract_y
_atom_site_fract_z
Si Si1 0.270977 0.767048 0.949625
Si Si2 0.714612 0.864812 0.145409
Si Si3 0.404559 0.592127 0.288098
Si Si4 0.096045 0.491661 0.236454
Si Si5 0.073228 0.954517 0.181375
Si Si6 0.746238 0.160357 0.463615
Si Si7 0.766848 0.751706 0.935716
Si Si8 0.447537 0.951516 0.216356
O O1 0.510831 0.767011 0.083295
O O2 0.313526 0.642539 0.112584
O O3 0.027580 0.692821 0.758018
O O4 0.238750 0.955400 0.864460
O O5 0.982088 0.779267 0.383472
O O6 0.593429 0.916828 0.947275
O O7 0.195835 0.517205 0.217584
O O8 0.651285 0.480727 0.534232
O O9 0.493974 0.768568 0.308754
O O10 0.882549 0.616705 0.036599
O O11 0.193741 0.916511 0.371786
O O12 0.240163 0.069019 0.201198
O O13 0.962800 0.788966 0.135578
O O14 0.823283 0.060675 0.950055
O O15 0.510289 0.282802 0.231834
O O16 0.642427 0.021906 0.392316
#
# Coordination Sequence:
#
# PCOD9082827 Si02
#       8
#     2   2   2   2   2   2   2   2
#     4  10  21  39  58  82 110 145 186 227 273 322
#     4   9  20  37  60  83 108 139 188 237 265 314
#     4  10  21  37  55  82 116 145 179 222 274 334
#     4  11  22  36  54  82 116 152 175 216 279 332
#     4   9  18  34  52  81 113 141 182 226 269 321
#     4  10  19  33  58  84 106 146 184 224 278 317
#     4  10  20  34  52  80 116 145 181 224 266 327
#     4   9  17  34  58  83 111 138 181 233 270 319
#
# _framework density 20.817294
#
# number of rings (size 3 to 8) (size 9 to 14) (size 15 to 20)
#    0.000    2.250    1.250    1.500    0.000    2.000 
#    4.500    4.375    0.000    7.500    0.000    0.000 
#    0.000    0.000    0.000    0.000    0.000    0.000 
#
# Total GULP energy -89229.070469 kJ/mol
# GULP energy per Si atom -5576.816904 kJ/mol
# Density = 2.076991 g / cm^3
# Si number density = 20.817294 Si / 1000 Ang^3
#
#
#
# Elastic Constant Matrix: (Units=GPa)
#
#
# Indices 1 2 3 4 5 6 
#
# 1 85.5501 23.4950 50.6269 14.6558 30.4281 -0.5157
# 2 23.4950 34.4438 29.4843 15.1049 6.0757 1.5809
# 3 50.6269 29.4843 101.5259 21.6350 30.1689 2.1365
# 4 14.6558 15.1049 21.6350 23.4867 -4.1108 1.8798
# 5 30.4281 6.0757 30.1689 -4.1108 39.8482 10.6266
# 6 -0.5157 1.5809 2.1365 1.8798 10.6266 23.3829
#
#
#
# Elastic Compliance Matrix: (Units=1/GPa)
#
#
# Indices 1 2 3 4 5 6 
#
# 1 0.024268 -0.005716 -0.000959 -0.015362 -0.021753 0.012131
# 2 -0.005716 0.047786 -0.006611 -0.020940 0.000237 -0.001177
# 3 -0.000959 -0.006611 0.021868 -0.019336 -0.019124 0.008673
# 4 -0.015362 -0.020940 -0.019336 0.093549 0.046040 -0.025601
# 5 -0.021753 0.000237 -0.019124 0.046040 0.070040 -0.034280
# 6 0.012131 -0.001177 0.008673 -0.025601 -0.034280 0.059958
#
#
# Mechanical properties :
#
#
# Convention : Reuss Voigt Hill
#
# Bulk Modulus (GPa) = 14.84750 47.63695 31.24222
# Shear Modulus (GPa) = 13.64287 25.20445 19.42366
#
# Velocity S-wave (km/s) = 2.56278 3.48335 3.05791
# Velocity P-wave (km/s) = 3.98810 6.25391 5.24482
#
# Compressibility (1/GPa) = 0.06735142
#
# Stress axis : x y z
#
# Youngs Moduli (GPa) = 41.20569 20.92671 45.72800
#
# Poissons Ratio (x) = 0.11961 0.04387
# Poissons Ratio (y) = 0.23552 0.30230
# Poissons Ratio (z) = 0.03953 0.13834
#
# Static dielectric constant tensor:
#      x y z
#    x 1.752250 -0.026910 0.013230 
#    y -0.026910 1.751760 -0.017260 
#    z 0.013230 -0.017260 1.776380 
# 
# From -- ./inp_files/70577.got.cif
#   From: 2010.05.17/outbox.cif.g08.bks.cpg/sg2_36_cif.got.tgz:70577.got - 2010.06.03 11:33:40.
