data_PCOD9082654
_publ_section_title
;
Structure prediction by ZEFSAII (Michael W. Deem and Ramdas Pophale) SiO2 
 PCOD9082654
Probable space group: P -1
;
_chemical_formula_sum "Si O2"
_cell_formula_units_Z 16
_cell_length_a 17.618228
_cell_length_b 9.680881
_cell_length_c 11.429706
_cell_angle_alpha 129.458916
_cell_angle_beta 32.224465
_cell_angle_gamma 141.880237
_cell_volume 639.030039
_symmetry_space_group_name_H-M "P -1"
_symmetry_group_IT_number 2
_symmetry_cell_setting 'triclinic'
loop_
_space_group_symop_operation_xyz
x,y,z
-x,-y,-z
loop_
_atom_site_type_symbol
_atom_site_label
_atom_site_fract_x
_atom_site_fract_y
_atom_site_fract_z
Si Si1 0.753563 0.398261 0.372038
Si Si2 0.941605 0.173068 0.944668
Si Si3 0.873421 0.611939 0.780556
Si Si4 0.774422 0.711909 0.188166
Si Si5 0.514453 0.132300 0.935934
Si Si6 0.167804 0.006197 0.244178
Si Si7 0.489849 0.780451 0.614898
Si Si8 0.953967 0.581398 0.424058
O O1 0.889830 0.630534 0.248399
O O2 0.571948 0.266014 0.464782
O O3 0.775398 0.460843 0.513934
O O4 0.834540 0.262147 0.178269
O O5 0.039822 0.156020 0.914973
O O6 0.821343 0.979643 0.902349
O O7 0.706353 0.368911 0.821318
O O8 0.970337 0.722604 0.591510
O O9 0.999456 0.579050 0.676228
O O10 0.795299 0.696107 0.015159
O O11 0.676476 0.820906 0.403710
O O12 0.650702 0.452733 0.256632
O O13 0.496880 0.980889 0.769741
O O14 0.500000 0.000000 0.000000
O O15 0.359417 0.164915 0.142024
O O16 0.108828 0.760978 0.229855
O O17 0.000000 0.000000 0.500000
#
# Coordination Sequence:
#
# PCOD9082654 Si02
#       8
#     2   2   2   2   2   2   2   2
#     4   9  16  33  55  78 105 153 192 237 279 343
#     4   9  17  30  56  80 110 141 198 241 278 333
#     4  11  22  37  63  89 124 160 193 244 298 367
#     4  10  19  33  56  89 112 154 200 243 292 341
#     4  12  22  37  59  90 123 152 196 249 301 345
#     4  11  23  38  62  92 118 153 200 253 295 345
#     4  10  20  33  57  85 118 148 199 253 288 342
#     4  10  21  39  61  88 119 161 200 232 302 364
#
# _framework density 25.037946000000002
#
# number of rings (size 3 to 8) (size 9 to 14) (size 15 to 20)
#    0.000    1.750    5.000    0.000    1.750    2.000 
#    0.000    3.125    2.750    2.250    0.000    0.000 
#    0.000    0.000    0.000    0.000    0.000    0.000 
#
# Total GULP energy -89499.702913 kJ/mol
# GULP energy per Si atom -5593.731432 kJ/mol
# Density = 2.498096 g / cm^3
# Si number density = 25.037946 Si / 1000 Ang^3
#
#
#
# Elastic Constant Matrix: (Units=GPa)
#
#
# Indices 1 2 3 4 5 6 
#
# 1 131.2140 25.7927 26.2296 6.1837 0.5789 29.9270
# 2 25.7927 50.9588 13.8037 -4.1759 -9.2230 1.6272
# 3 26.2296 13.8037 69.4991 16.5488 -5.1412 3.6491
# 4 6.1837 -4.1759 16.5488 19.8986 5.9624 -0.1160
# 5 0.5789 -9.2230 -5.1412 5.9624 49.6721 1.8273
# 6 29.9270 1.6272 3.6491 -0.1160 1.8273 29.6336
#
#
#
# Elastic Compliance Matrix: (Units=1/GPa)
#
#
# Indices 1 2 3 4 5 6 
#
# 1 0.011847 -0.005396 -0.002153 -0.002912 -0.000595 -0.011378
# 2 -0.005396 0.025082 -0.005559 0.010788 0.002679 0.004634
# 3 -0.002153 -0.005559 0.021140 -0.019128 0.003492 -0.000414
# 4 -0.002912 0.010788 -0.019128 0.071997 -0.008788 0.005528
# 5 -0.000595 0.002679 0.003492 -0.008788 0.022103 -0.001374
# 6 -0.011378 0.004634 -0.000414 0.005528 -0.001374 0.045139
#
#
# Mechanical properties :
#
#
# Convention : Reuss Voigt Hill
#
# Bulk Modulus (GPa) = 31.39419 42.59153 36.99286
# Shear Modulus (GPa) = 21.35465 32.23058 26.79262
#
# Velocity S-wave (km/s) = 2.92360 3.59175 3.27476
# Velocity P-wave (km/s) = 4.89514 5.85223 5.39495
#
# Compressibility (1/GPa) = 0.03185303
#
# Stress axis : x y z
#
# Youngs Moduli (GPa) = 84.40938 39.86958 47.30398
#
# Poissons Ratio (x) = 0.21514 0.10183
# Poissons Ratio (y) = 0.45549 0.26296
# Poissons Ratio (z) = 0.18170 0.22164
#
# Static dielectric constant tensor:
#      x y z
#    x 2.001410 -0.005140 0.043740 
#    y -0.005140 2.054630 0.008790 
#    z 0.043740 0.008790 1.987220 
# 
# From -- ./inp_files/256982.got.cif
#   From: 2010.05.17/outbox.cif.g08.bks.cpg/sg2_129_cif.got.tgz:256982.got - 2010.06.03 11:33:40.
