data_PCOD9082081
_publ_section_title
;
Structure prediction by ZEFSAII (Michael W. Deem and Ramdas Pophale) SiO2 
 PCOD9082081
Probable space group: P -1
;
_chemical_formula_sum "Si O2"
_cell_formula_units_Z 16
_cell_length_a 12.755469
_cell_length_b 7.570125
_cell_length_c 14.361975
_cell_angle_alpha 144.663978
_cell_angle_beta 52.245196
_cell_angle_gamma 117.466244
_cell_volume 631.934832
_symmetry_space_group_name_H-M "P -1"
_symmetry_group_IT_number 2
_symmetry_cell_setting 'triclinic'
loop_
_space_group_symop_operation_xyz
x,y,z
-x,-y,-z
loop_
_atom_site_type_symbol
_atom_site_label
_atom_site_fract_x
_atom_site_fract_y
_atom_site_fract_z
Si Si1 0.851805 0.936123 0.937053
Si Si2 0.988799 0.858607 0.345694
Si Si3 0.752075 0.826096 0.672730
Si Si4 0.482719 0.302573 0.576731
Si Si5 0.676879 0.319322 0.040507
Si Si6 0.710118 0.416206 0.353831
Si Si7 0.922434 0.685009 0.037451
Si Si8 0.140268 0.593153 0.421056
O O1 0.761774 0.112525 0.981950
O O2 0.792189 0.109521 0.136574
O O3 0.007610 0.999344 0.866160
O O4 0.838701 0.583719 0.764952
O O5 0.123248 0.983580 0.285839
O O6 0.871906 0.044620 0.432047
O O7 0.010900 0.499294 0.166704
O O8 0.000000 0.000000 0.500000
O O9 0.771640 0.675558 0.495965
O O10 0.753730 0.541694 0.620260
O O11 0.644428 0.105568 0.877781
O O12 0.455586 0.559843 0.781504
O O13 0.601224 0.313812 0.442647
O O14 0.357295 0.393727 0.614736
O O15 0.500000 0.000000 0.500000
O O16 0.769334 0.605246 0.092408
O O17 0.000000 0.500000 0.000000
O O18 0.000000 0.500000 0.500000
#
# Coordination Sequence:
#
# PCOD9082081 Si02
#       8
#     2   2   2   2   2   2   2   2
#     4   9  17  34  57  88 117 158 195 235 296 353
#     4  10  19  33  49  78 125 157 181 233 284 342
#     4   9  18  36  56  84 110 149 198 237 297 344
#     4  10  22  43  61  84 116 153 203 249 306 351
#     4   8  17  34  59  81 117 154 189 245 295 348
#     4  10  21  40  64  86 117 153 197 259 292 351
#     4   9  16  31  55  84 115 154 189 229 292 349
#     4   9  18  35  54  78 124 160 193 227 281 364
#
# _framework density 25.319067
#
# number of rings (size 3 to 8) (size 9 to 14) (size 15 to 20)
#    0.000    2.750    0.000    3.000    0.000    0.500 
#   18.000    3.750    0.000    0.000    0.000    0.000 
#    0.000    0.000    0.000    0.000    0.000    0.000 
#
# Total GULP energy -89114.756099 kJ/mol
# GULP energy per Si atom -5569.672256 kJ/mol
# Density = 2.526144 g / cm^3
# Si number density = 25.319067 Si / 1000 Ang^3
#
#
#
# Elastic Constant Matrix: (Units=GPa)
#
#
# Indices 1 2 3 4 5 6 
#
# 1 47.7397 17.5294 22.2549 2.2022 0.2396 -0.8347
# 2 17.5294 78.1496 10.2876 -4.0851 -10.7500 0.6782
# 3 22.2549 10.2876 167.1740 -32.5694 11.8389 5.0279
# 4 2.2022 -4.0851 -32.5694 42.1194 -4.5123 3.1161
# 5 0.2396 -10.7500 11.8389 -4.5123 26.5805 -2.1234
# 6 -0.8347 0.6782 5.0279 3.1161 -2.1234 37.7476
#
#
#
# Elastic Compliance Matrix: (Units=1/GPa)
#
#
# Indices 1 2 3 4 5 6 
#
# 1 0.025119 -0.005604 -0.003949 -0.005183 -0.001492 0.001526
# 2 -0.005604 0.015114 -0.000193 0.002334 0.006630 -0.000189
# 3 -0.003949 -0.000193 0.007971 0.006198 -0.002685 -0.001808
# 4 -0.005183 0.002334 0.006198 0.029594 0.002994 -0.003257
# 5 -0.001492 0.006630 -0.002685 0.002994 0.042207 0.002333
# 6 0.001526 -0.000189 -0.001808 -0.003257 0.002333 0.027170
#
#
# Mechanical properties :
#
#
# Convention : Reuss Voigt Hill
#
# Bulk Modulus (GPa) = 34.82882 43.68970 39.25926
# Shear Modulus (GPa) = 28.37072 37.48891 32.92981
#
# Velocity S-wave (km/s) = 3.35106 3.85211 3.61029
# Velocity P-wave (km/s) = 5.36271 6.08918 5.73745
#
# Compressibility (1/GPa) = 0.02871186
#
# Stress axis : x y z
#
# Youngs Moduli (GPa) = 39.81072 66.16364 125.44756
#
# Poissons Ratio (x) = 0.37077 0.49541
# Poissons Ratio (y) = 0.22309 0.02424
# Poissons Ratio (z) = 0.15722 0.01279
#
# Static dielectric constant tensor:
#      x y z
#    x 2.129490 0.069770 -0.059360 
#    y 0.069770 2.109230 -0.056890 
#    z -0.059360 -0.056890 2.149770 
# 
# From -- ./inp_files/216808.got.cif
#   From: 2010.05.17/outbox.cif.g08.bks.cpg/sg2_109_cif.got.tgz:216808.got - 2010.06.03 11:33:40.
