data_PCOD9082542
_publ_section_title
;
Structure prediction by ZEFSAII (Michael W. Deem and Ramdas Pophale) SiO2 
 PCOD9082542
Probable space group: P -1
;
_chemical_formula_sum "Si O2"
_cell_formula_units_Z 16
_cell_length_a 19.798299
_cell_length_b 6.283504
_cell_length_c 11.828912
_cell_angle_alpha 111.623776
_cell_angle_beta 57.229387
_cell_angle_gamma 136.165790
_cell_volume 856.343433
_symmetry_space_group_name_H-M "P -1"
_symmetry_group_IT_number 2
_symmetry_cell_setting 'triclinic'
loop_
_space_group_symop_operation_xyz
x,y,z
-x,-y,-z
loop_
_atom_site_type_symbol
_atom_site_label
_atom_site_fract_x
_atom_site_fract_y
_atom_site_fract_z
Si Si1 0.531871 0.306446 0.892492
Si Si2 0.425281 0.455930 0.659507
Si Si3 0.610805 0.714434 0.699347
Si Si4 0.734185 0.668787 0.389719
Si Si5 0.921013 0.169922 0.161948
Si Si6 0.849402 0.577692 0.984983
Si Si7 0.767178 0.242538 0.228118
Si Si8 0.332767 0.758073 0.093637
O O1 0.563395 0.411980 0.755647
O O2 0.630648 0.381716 0.886832
O O3 0.500000 0.500000 0.000000
O O4 0.427422 0.961637 0.953628
O O5 0.500000 0.500000 0.500000
O O6 0.511705 0.660756 0.719442
O O7 0.352518 0.501847 0.669104
O O8 0.335522 0.112403 0.723546
O O9 0.686735 0.743599 0.542659
O O10 0.666251 0.007039 0.787029
O O11 0.753725 0.442486 0.356294
O O12 0.845074 0.980161 0.301646
O O13 0.876385 0.316661 0.176671
O O14 0.046282 0.384544 0.118180
O O15 0.891707 0.905666 0.052023
O O16 0.777481 0.473193 0.919311
O O17 0.780931 0.342346 0.105081
#
# Coordination Sequence:
#
# PCOD9082542 Si02
#       8
#     2   2   2   2   2   2   2   2
#     4   9  20  34  49  74 104 138 173 205 243 301
#     4   9  19  32  49  76 108 136 168 207 247 302
#     4  10  20  34  51  75 107 140 172 205 250 311
#     4   9  20  35  53  79 106 135 172 215 259 306
#     4   9  20  36  55  79 103 127 172 227 262 301
#     4  10  20  36  56  77 101 135 175 216 262 307
#     4  10  19  33  56  79 102 136 170 213 266 306
#     4  10  21  35  53  75 105 140 170 208 256 304
#
# _framework density 18.684093000000001
#
# number of rings (size 3 to 8) (size 9 to 14) (size 15 to 20)
#    0.000    2.500    0.000    1.125    0.000   17.000 
#    0.000    0.625    0.000    1.500    0.000    0.000 
#    0.000    0.000    0.000    0.000    0.000    0.000 
#
# Total GULP energy -89191.895341 kJ/mol
# GULP energy per Si atom -5574.493459 kJ/mol
# Density = 1.864157 g / cm^3
# Si number density = 18.684093 Si / 1000 Ang^3
#
#
#
# Elastic Constant Matrix: (Units=GPa)
#
#
# Indices 1 2 3 4 5 6 
#
# 1 129.4055 36.2877 49.4492 5.8083 -15.5391 10.4990
# 2 36.2877 23.2595 24.9211 5.2082 -1.8307 8.8163
# 3 49.4492 24.9211 97.2862 -0.4471 -16.3522 10.4009
# 4 5.8083 5.2082 -0.4471 18.3134 1.6973 -7.0953
# 5 -15.5391 -1.8307 -16.3522 1.6973 30.0837 4.3402
# 6 10.4990 8.8163 10.4009 -7.0953 4.3402 31.1154
#
#
#
# Elastic Compliance Matrix: (Units=1/GPa)
#
#
# Indices 1 2 3 4 5 6 
#
# 1 0.014957 -0.022734 -0.000988 0.001708 0.005515 0.001345
# 2 -0.022734 0.112295 -0.015983 -0.034256 -0.007985 -0.025502
# 3 -0.000988 -0.015983 0.016150 0.004388 0.007124 -0.000529
# 4 0.001708 -0.034256 0.004388 0.074442 -0.006707 0.025574
# 5 0.005515 -0.007985 0.007124 -0.006707 0.041189 -0.009254
# 6 0.001345 -0.025502 -0.000529 0.025574 -0.009254 0.046210
#
#
# Mechanical properties :
#
#
# Convention : Reuss Voigt Hill
#
# Bulk Modulus (GPa) = 15.62738 52.36301 33.99520
# Shear Modulus (GPa) = 12.31581 25.18871 18.75226
#
# Velocity S-wave (km/s) = 2.57020 3.67568 3.17148
# Velocity P-wave (km/s) = 4.14609 6.78973 5.62541
#
# Compressibility (1/GPa) = 0.06399026
#
# Stress axis : x y z
#
# Youngs Moduli (GPa) = 66.86051 8.90515 61.92128
#
# Poissons Ratio (x) = 0.20245 0.06115
# Poissons Ratio (y) = 1.52001 0.98972
# Poissons Ratio (z) = 0.06603 0.14234
#
# Static dielectric constant tensor:
#      x y z
#    x 1.671560 -0.015770 0.003990 
#    y -0.015770 1.661450 -0.009310 
#    z 0.003990 -0.009310 1.666040 
# 
# From -- ./inp_files/94680.got.cif
#   From: 2010.05.17/outbox.cif.g08.bks.cpg/sg2_48_cif.got.tgz:94680.got - 2010.06.03 11:33:40.
