data_PCOD9082509
_publ_section_title
;
Structure prediction by ZEFSAII (Michael W. Deem and Ramdas Pophale) SiO2 
 PCOD9082509
Probable space group: P -1
;
_chemical_formula_sum "Si O2"
_cell_formula_units_Z 14
_cell_length_a 12.111963
_cell_length_b 12.309799
_cell_length_c 11.150506
_cell_angle_alpha 91.853301
_cell_angle_beta 126.050657
_cell_angle_gamma 44.968589
_cell_volume 703.382180
_symmetry_space_group_name_H-M "P -1"
_symmetry_group_IT_number 2
_symmetry_cell_setting 'triclinic'
loop_
_space_group_symop_operation_xyz
x,y,z
-x,-y,-z
loop_
_atom_site_type_symbol
_atom_site_label
_atom_site_fract_x
_atom_site_fract_y
_atom_site_fract_z
Si Si1 0.556185 0.370786 0.428537
Si Si2 0.839675 0.258676 0.966866
Si Si3 0.911963 0.996456 0.135106
Si Si4 0.798524 0.684249 0.472003
Si Si5 0.355510 0.041654 0.020118
Si Si6 0.162953 0.463361 0.271228
Si Si7 0.814573 0.787292 0.706562
O O1 0.500000 0.500000 0.500000
O O2 0.393618 0.373352 0.355352
O O3 0.432519 0.500743 0.233043
O O4 0.860473 0.143127 0.627327
O O5 0.798037 0.188605 0.029223
O O6 0.050032 0.201918 0.148696
O O7 0.959859 0.134167 0.913045
O O8 0.723145 0.029445 0.059173
O O9 0.749471 0.623207 0.537881
O O10 0.914740 0.699754 0.631553
O O11 0.000000 0.500000 0.500000
O O12 0.547484 0.900520 0.251191
O O13 0.094170 0.288182 0.885852
O O14 0.500000 0.000000 0.000000
O O15 0.117479 0.372434 0.189913
O O16 0.500000 0.000000 0.500000
#
# Coordination Sequence:
#
# PCOD9082509 Si02
#       7
#     2   2   2   2   2   2   2
#     4  10  19  33  55  86 123 155 193 243 305 360
#     4  10  20  36  55  87 122 160 186 251 309 355
#     4  10  22  35  58  89 123 153 206 245 309 361
#     4  10  23  40  60  86 123 164 200 248 302 373
#     4  12  21  38  63  89 112 162 213 249 294 364
#     4  10  22  36  58  91 124 153 207 244 308 351
#     4  10  21  37  59  91 130 156 199 258 313 347
#
# _framework density 19.903832000000001
#
# number of rings (size 3 to 8) (size 9 to 14) (size 15 to 20)
#    0.857    0.857    4.286    1.714    6.000    0.571 
#    2.571    0.000    0.000    4.286    0.000    0.000 
#    0.000    0.000    0.000    0.000    0.000    0.000 
#
# Total GULP energy -78053.791645 kJ/mol
# GULP energy per Si atom -5575.270832 kJ/mol
# Density = 1.985853 g / cm^3
# Si number density = 19.903832 Si / 1000 Ang^3
#
#
#
# Elastic Constant Matrix: (Units=GPa)
#
#
# Indices 1 2 3 4 5 6 
#
# 1 129.0201 26.4310 59.0987 -9.9190 -9.0415 39.8785
# 2 26.4310 50.6077 31.9026 5.2309 -4.7303 17.8195
# 3 59.0987 31.9026 146.6703 -5.5855 -23.3631 25.0694
# 4 -9.9190 5.2309 -5.5855 13.7540 13.3105 -4.5765
# 5 -9.0415 -4.7303 -23.3631 13.3105 32.3464 -1.9839
# 6 39.8785 17.8195 25.0694 -4.5765 -1.9839 33.7296
#
#
#
# Elastic Compliance Matrix: (Units=1/GPa)
#
#
# Indices 1 2 3 4 5 6 
#
# 1 0.013729 -0.002154 -0.003208 0.008374 -0.002961 -0.011747
# 2 -0.002154 0.034252 -0.002145 -0.038515 0.017594 -0.018146
# 3 -0.003208 -0.002145 0.010259 -0.006953 0.008869 -0.003120
# 4 0.008374 -0.038515 -0.006953 0.179919 -0.080185 0.035310
# 5 -0.002961 0.017594 0.008869 -0.080185 0.070891 -0.019095
# 6 -0.011747 -0.018146 -0.003120 0.035310 -0.019095 0.059109
#
#
# Mechanical properties :
#
#
# Convention : Reuss Voigt Hill
#
# Bulk Modulus (GPa) = 23.13491 62.35141 42.74316
# Shear Modulus (GPa) = 12.57608 29.89039 21.23324
#
# Velocity S-wave (km/s) = 2.51637 3.87943 3.26972
# Velocity P-wave (km/s) = 4.48235 7.17363 5.98132
#
# Compressibility (1/GPa) = 0.04322472
#
# Stress axis : x y z
#
# Youngs Moduli (GPa) = 72.84055 29.19562 97.48008
#
# Poissons Ratio (x) = 0.06288 0.31274
# Poissons Ratio (y) = 0.15688 0.20910
# Poissons Ratio (z) = 0.23369 0.06263
#
# Static dielectric constant tensor:
#      x y z
#    x 1.643480 -0.021690 -0.018070 
#    y -0.021690 1.729790 -0.002610 
#    z -0.018070 -0.002610 1.732840 
# 
# From -- ./inp_files/426032.got.cif
#   From: 2010.05.17/outbox.cif.g08.bks.cpg/sg2_214_cif.got.tgz:426032.got - 2010.06.03 11:33:40.
