data_PCOD9082014
_publ_section_title
;
Structure prediction by ZEFSAII (Michael W. Deem and Ramdas Pophale) SiO2 
 PCOD9082014
Probable space group: P -1
;
_chemical_formula_sum "Si O2"
_cell_formula_units_Z 16
_cell_length_a 8.804459
_cell_length_b 7.647371
_cell_length_c 16.745717
_cell_angle_alpha 102.361912
_cell_angle_beta 144.971513
_cell_angle_gamma 77.850798
_cell_volume 630.921293
_symmetry_space_group_name_H-M "P -1"
_symmetry_group_IT_number 2
_symmetry_cell_setting 'triclinic'
loop_
_space_group_symop_operation_xyz
x,y,z
-x,-y,-z
loop_
_atom_site_type_symbol
_atom_site_label
_atom_site_fract_x
_atom_site_fract_y
_atom_site_fract_z
Si Si1 0.709997 0.948728 0.395503
Si Si2 0.881198 0.602352 0.535590
Si Si3 0.265259 0.727931 0.134945
Si Si4 0.821176 0.120327 0.220828
Si Si5 0.689259 0.127127 0.547294
Si Si6 0.225085 0.110504 0.971517
Si Si7 0.233758 0.499200 0.938776
Si Si8 0.666242 0.467916 0.682981
O O1 0.751797 0.784974 0.459924
O O2 0.497747 0.865020 0.239350
O O3 0.591559 0.114749 0.413053
O O4 0.000000 0.000000 0.500000
O O5 0.649582 0.484383 0.455995
O O6 0.000000 0.500000 0.500000
O O7 0.080497 0.684152 0.693279
O O8 0.269596 0.605178 0.047126
O O9 0.304966 0.598391 0.217912
O O10 0.994962 0.845418 0.051849
O O11 0.528922 0.105154 0.128229
O O12 0.016359 0.966158 0.328443
O O13 0.815547 0.062171 0.119178
O O14 0.685104 0.306198 0.612127
O O15 0.500000 0.000000 0.500000
O O16 0.207259 0.288286 0.925309
O O17 0.500000 0.500000 0.000000
O O18 0.933296 0.567722 0.789496
#
# Coordination Sequence:
#
# PCOD9082014 Si02
#       8
#     2   2   2   2   2   2   2   2
#     4  10  22  35  61  89 114 147 192 245 292 337
#     4  10  22  35  61  87 118 151 197 240 290 349
#     4  10  20  36  58  85 109 151 196 240 281 354
#     4  10  19  32  60  87 108 145 197 248 276 330
#     4  11  16  36  60  85 105 145 202 236 273 348
#     4  10  20  36  59  84 112 149 200 237 283 344
#     4  11  24  36  57  83 119 152 189 238 300 351
#     4  10  19  36  61  81 108 150 200 236 278 344
#
# _framework density 25.359736999999999
#
# number of rings (size 3 to 8) (size 9 to 14) (size 15 to 20)
#    0.000    1.750    6.250    1.500    7.000    0.000 
#    0.000    0.000    8.250    7.500    0.000    0.000 
#    0.000    0.000    0.000    0.000    0.000    0.000 
#
# Total GULP energy -89279.822882 kJ/mol
# GULP energy per Si atom -5579.988930 kJ/mol
# Density = 2.530202 g / cm^3
# Si number density = 25.359737 Si / 1000 Ang^3
#
#
#
# Elastic Constant Matrix: (Units=GPa)
#
#
# Indices 1 2 3 4 5 6 
#
# 1 142.7430 43.3421 77.6314 28.7385 20.5600 -29.7949
# 2 43.3421 75.3664 48.8063 34.4666 1.9999 -28.5663
# 3 77.6314 48.8063 187.8770 41.6783 28.5672 -34.9502
# 4 28.7385 34.4666 41.6783 49.9046 -14.5645 -7.6091
# 5 20.5600 1.9999 28.5672 -14.5645 45.3540 2.8879
# 6 -29.7949 -28.5663 -34.9502 -7.6091 2.8879 54.4337
#
#
#
# Elastic Compliance Matrix: (Units=1/GPa)
#
#
# Indices 1 2 3 4 5 6 
#
# 1 0.010919 -0.001201 -0.001272 -0.005567 -0.006142 0.004077
# 2 -0.001201 0.026865 0.001479 -0.019793 -0.008697 0.012085
# 3 -0.001272 0.001479 0.010563 -0.011169 -0.010100 0.005837
# 4 -0.005567 -0.019793 -0.011169 0.052196 0.028135 -0.014802
# 5 -0.006142 -0.008697 -0.010100 0.028135 0.041421 -0.012676
# 6 0.004077 0.012085 0.005837 -0.014802 -0.012676 0.029296
#
#
# Mechanical properties :
#
#
# Convention : Reuss Voigt Hill
#
# Bulk Modulus (GPa) = 21.57145 82.83845 52.20495
# Shear Modulus (GPa) = 26.49695 45.68558 36.09127
#
# Velocity S-wave (km/s) = 3.23591 4.24901 3.77659
# Velocity P-wave (km/s) = 4.74195 7.53714 6.29661
#
# Compressibility (1/GPa) = 0.04635757
#
# Stress axis : x y z
#
# Youngs Moduli (GPa) = 91.58573 37.22339 94.66705
#
# Poissons Ratio (x) = 0.04472 0.12045
# Poissons Ratio (y) = 0.11002 -0.14001
# Poissons Ratio (z) = 0.11653 -0.05505
#
# Static dielectric constant tensor:
#      x y z
#    x 1.886750 0.011100 -0.109430 
#    y 0.011100 2.176810 -0.061530 
#    z -0.109430 -0.061530 2.093720 
# 
# From -- ./inp_files/392017.got.cif
#   From: 2010.05.17/outbox.cif.g08.bks.cpg/sg2_197_cif.got.tgz:392017.got - 2010.06.03 11:33:40.
