data_PCOD9082504
_publ_section_title
;
Structure prediction by ZEFSAII (Michael W. Deem and Ramdas Pophale) SiO2 
 PCOD9082504
Probable space group: P -1
;
_chemical_formula_sum "Si O2"
_cell_formula_units_Z 14
_cell_length_a 15.846254
_cell_length_b 11.796353
_cell_length_c 15.234005
_cell_angle_alpha 141.970931
_cell_angle_beta 18.710691
_cell_angle_gamma 132.389225
_cell_volume 524.199666
_symmetry_space_group_name_H-M "P -1"
_symmetry_group_IT_number 2
_symmetry_cell_setting 'triclinic'
loop_
_space_group_symop_operation_xyz
x,y,z
-x,-y,-z
loop_
_atom_site_type_symbol
_atom_site_label
_atom_site_fract_x
_atom_site_fract_y
_atom_site_fract_z
Si Si1 0.955638 0.301518 0.744066
Si Si2 0.744890 0.095917 0.396501
Si Si3 0.257961 0.863501 0.854678
Si Si4 0.499664 0.304835 0.931451
Si Si5 0.898075 0.845983 0.665686
Si Si6 0.369529 0.444738 0.506856
Si Si7 0.319631 0.288916 0.799523
O O1 0.109902 0.133106 0.418676
O O2 0.164644 0.320402 0.625948
O O3 0.640171 0.341826 0.114123
O O4 0.900045 0.493018 0.851936
O O5 0.539221 0.155168 0.719765
O O6 0.586255 0.264767 0.585860
O O7 0.776567 0.891464 0.192074
O O8 0.041813 0.042033 0.119935
O O9 0.168840 0.671703 0.819014
O O10 0.554778 0.768639 0.456382
O O11 0.253709 0.947291 0.007093
O O12 0.775264 0.226110 0.672500
O O13 0.500000 0.500000 0.000000
O O14 0.241510 0.299473 0.241040
O O15 0.500000 0.500000 0.500000
#
# Coordination Sequence:
#
# PCOD9082504 Si02
#       7
#     2   2   2   2   2   2   2
#     4  11  23  42  64  94 123 159 202 256 308 371
#     4  10  19  33  55  85 118 162 211 243 285 350
#     4  10  21  39  60  87 123 166 203 258 302 364
#     4  11  22  37  54  86 126 172 207 250 292 354
#     4  11  23  39  61  86 124 163 205 249 311 357
#     4  11  24  44  69  93 119 155 204 258 319 374
#     4  10  19  34  56  84 119 163 204 247 288 352
#
# _framework density 26.707380000000001
#
# number of rings (size 3 to 8) (size 9 to 14) (size 15 to 20)
#    0.000    1.429    2.857    3.000    0.000    1.143 
#    2.571    1.429    0.000    0.000    0.000    0.000 
#    0.000    0.000    0.000    0.000    0.000    0.000 
#
# Total GULP energy -78191.848816 kJ/mol
# GULP energy per Si atom -5585.132058 kJ/mol
# Density = 2.664659 g / cm^3
# Si number density = 26.707380 Si / 1000 Ang^3
#
#
#
# Elastic Constant Matrix: (Units=GPa)
#
#
# Indices 1 2 3 4 5 6 
#
# 1 108.0083 15.4189 48.7183 2.1872 10.5970 10.5103
# 2 15.4189 54.6682 16.1706 -2.3789 1.9256 4.5433
# 3 48.7183 16.1706 119.3162 -11.3629 14.2139 13.8851
# 4 2.1872 -2.3789 -11.3629 35.2713 10.2003 -2.9562
# 5 10.5970 1.9256 14.2139 10.2003 58.6139 0.1873
# 6 10.5103 4.5433 13.8851 -2.9562 0.1873 31.9160
#
#
#
# Elastic Compliance Matrix: (Units=1/GPa)
#
#
# Indices 1 2 3 4 5 6 
#
# 1 0.011856 -0.001934 -0.004511 -0.002309 -0.000578 -0.001877
# 2 -0.001934 0.019463 -0.001609 0.000811 -0.000037 -0.001359
# 3 -0.004511 -0.001609 0.011515 0.004417 -0.002683 -0.002870
# 4 -0.002309 0.000811 0.004417 0.031921 -0.006241 0.001717
# 5 -0.000578 -0.000037 -0.002683 -0.006241 0.018901 0.000674
# 6 -0.001877 -0.001359 -0.002870 0.001717 0.000674 0.033548
#
#
# Mechanical properties :
#
#
# Convention : Reuss Voigt Hill
#
# Bulk Modulus (GPa) = 37.41543 49.17872 43.29708
# Shear Modulus (GPa) = 32.84732 38.60590 35.72661
#
# Velocity S-wave (km/s) = 3.51079 3.80612 3.66143
# Velocity P-wave (km/s) = 5.52033 6.14567 5.84137
#
# Compressibility (1/GPa) = 0.02672694
#
# Stress axis : x y z
#
# Youngs Moduli (GPa) = 84.34853 51.38004 86.83991
#
# Poissons Ratio (x) = 0.09934 0.39177
# Poissons Ratio (y) = 0.16309 0.13969
# Poissons Ratio (z) = 0.38053 0.08265
#
# Static dielectric constant tensor:
#      x y z
#    x 2.178000 -0.044790 0.005130 
#    y -0.044790 2.321690 -0.008120 
#    z 0.005130 -0.008120 2.014630 
# 
# From -- ./inp_files/29995.got.cif
#   From: 2010.05.17/outbox.cif.g08.bks.cpg/sg2_15_cif.got.tgz:29995.got - 2010.06.03 11:33:40.
