data_PCOD9082351
_publ_section_title
;
Structure prediction by ZEFSAII (Michael W. Deem and Ramdas Pophale) SiO2 
 PCOD9082351
Probable space group: P -1
;
_chemical_formula_sum "Si O2"
_cell_formula_units_Z 14
_cell_length_a 12.401135
_cell_length_b 7.476419
_cell_length_c 10.985959
_cell_angle_alpha 139.415361
_cell_angle_beta 60.880175
_cell_angle_gamma 108.470353
_cell_volume 576.398133
_symmetry_space_group_name_H-M "P -1"
_symmetry_group_IT_number 2
_symmetry_cell_setting 'triclinic'
loop_
_space_group_symop_operation_xyz
x,y,z
-x,-y,-z
loop_
_atom_site_type_symbol
_atom_site_label
_atom_site_fract_x
_atom_site_fract_y
_atom_site_fract_z
Si Si1 0.572619 0.813315 0.033433
Si Si2 0.788921 0.656535 0.396028
Si Si3 0.570811 0.950183 0.561239
Si Si4 0.158768 0.298195 0.075698
Si Si5 0.993841 0.273165 0.496646
Si Si6 0.040211 0.829752 0.056909
Si Si7 0.553223 0.603787 0.672571
O O1 0.466248 0.818376 0.196889
O O2 0.540368 0.121071 0.154692
O O3 0.698030 0.789652 0.030236
O O4 0.579458 0.614787 0.809853
O O5 0.716956 0.875328 0.457171
O O6 0.899319 0.719129 0.457564
O O7 0.682490 0.603503 0.528221
O O8 0.849086 0.405664 0.150331
O O9 0.513365 0.658980 0.467994
O O10 0.500000 0.000000 0.500000
O O11 0.129066 0.604708 0.303262
O O12 0.086731 0.082706 0.083702
O O13 0.087860 0.272940 0.975058
O O14 0.000000 0.500000 0.500000
O O15 0.010373 0.969509 0.274737
#
# Coordination Sequence:
#
# PCOD9082351 Si02
#       7
#     2   2   2   2   2   2   2
#     4  10  20  35  56  81 108 138 178 226 269 315
#     4  10  19  33  54  81 108 136 177 220 262 314
#     4  11  24  38  53  77 109 146 184 220 266 322
#     4   9  16  26  45  77 107 131 166 208 262 319
#     4   9  17  27  47  81 112 134 164 214 270 317
#     4   9  16  27  47  76 110 137 159 208 268 312
#     4  10  20  34  56  81 106 139 179 226 272 313
#
# _framework density 24.288764
#
# number of rings (size 3 to 8) (size 9 to 14) (size 15 to 20)
#    0.000    2.286    0.000    6.000    0.000    4.000 
#    0.000    0.000    0.000    3.429    0.000   13.000 
#    0.000    0.000    0.000    0.000    0.000    0.000 
#
# Total GULP energy -78080.230263 kJ/mol
# GULP energy per Si atom -5577.159304 kJ/mol
# Density = 2.423348 g / cm^3
# Si number density = 24.288764 Si / 1000 Ang^3
#
#
#
# Elastic Constant Matrix: (Units=GPa)
#
#
# Indices 1 2 3 4 5 6 
#
# 1 110.2062 20.2098 78.1814 7.9037 -25.6059 -25.4943
# 2 20.2098 62.6227 19.1306 -1.8893 -2.5067 -19.5060
# 3 78.1814 19.1306 198.9787 0.1556 -0.7494 -16.1819
# 4 7.9037 -1.8893 0.1556 17.0178 -4.9598 1.7616
# 5 -25.6059 -2.5067 -0.7494 -4.9598 43.7848 5.2537
# 6 -25.4943 -19.5060 -16.1819 1.7616 5.2537 35.7551
#
#
#
# Elastic Compliance Matrix: (Units=1/GPa)
#
#
# Indices 1 2 3 4 5 6 
#
# 1 0.018291 -0.001145 -0.006338 -0.006918 0.008706 0.008611
# 2 -0.001145 0.019538 -0.000655 0.001564 -0.000531 0.009547
# 3 -0.006338 -0.000655 0.007475 0.001968 -0.003260 -0.001112
# 4 -0.006918 0.001564 0.001968 0.064066 0.004169 -0.006958
# 5 0.008706 -0.000531 -0.003260 0.004169 0.028307 0.000078
# 6 0.008611 0.009547 -0.001112 -0.006958 0.000078 0.039144
#
#
# Mechanical properties :
#
#
# Convention : Reuss Voigt Hill
#
# Bulk Modulus (GPa) = 34.45099 67.42788 50.93944
# Shear Modulus (GPa) = 24.65798 36.26393 30.46095
#
# Velocity S-wave (km/s) = 3.18968 3.86817 3.54519
# Velocity P-wave (km/s) = 5.27068 6.91170 6.14620
#
# Compressibility (1/GPa) = 0.02902674
#
# Stress axis : x y z
#
# Youngs Moduli (GPa) = 54.67110 51.18231 133.78195
#
# Poissons Ratio (x) = 0.05860 0.84795
# Poissons Ratio (y) = 0.06259 0.08769
# Poissons Ratio (z) = 0.34652 0.03355
#
# Static dielectric constant tensor:
#      x y z
#    x 1.925840 -0.084200 0.019060 
#    y -0.084200 2.151990 0.014520 
#    z 0.019060 0.014520 1.959640 
# 
# From -- ./inp_files/269120.got.cif
#   From: 2010.05.17/outbox.cif.g08.bks.cpg/sg2_135_cif.got.tgz:269120.got - 2010.06.03 11:33:40.
