data_PCOD9082862
_publ_section_title
;
Structure prediction by ZEFSAII (Michael W. Deem and Ramdas Pophale) SiO2 
 PCOD9082862
Probable space group: P -1
;
_chemical_formula_sum "Si O2"
_cell_formula_units_Z 16
_cell_length_a 9.011253
_cell_length_b 13.152013
_cell_length_c 14.912900
_cell_angle_alpha 125.034063
_cell_angle_beta 139.439418
_cell_angle_gamma 76.774853
_cell_volume 866.741379
_symmetry_space_group_name_H-M "P -1"
_symmetry_group_IT_number 2
_symmetry_cell_setting 'triclinic'
loop_
_space_group_symop_operation_xyz
x,y,z
-x,-y,-z
loop_
_atom_site_type_symbol
_atom_site_label
_atom_site_fract_x
_atom_site_fract_y
_atom_site_fract_z
Si Si1 0.419587 0.104482 0.963816
Si Si2 0.328172 0.744353 0.015054
Si Si3 0.724558 0.479643 0.888592
Si Si4 0.602595 0.399781 0.282624
Si Si5 0.806060 0.671923 0.195822
Si Si6 0.028198 0.477717 0.651115
Si Si7 0.113178 0.921638 0.345942
Si Si8 0.397751 0.818817 0.277525
O O1 0.564817 0.143635 0.955788
O O2 0.126402 0.054177 0.786388
O O3 0.499202 0.245237 0.125500
O O4 0.500000 0.000000 0.000000
O O5 0.553763 0.694037 0.108730
O O6 0.276169 0.794896 0.111476
O O7 0.098757 0.618037 0.807450
O O8 0.611396 0.543446 0.792406
O O9 0.579843 0.319987 0.753264
O O10 0.740310 0.562695 0.029576
O O11 0.000000 0.500000 0.000000
O O12 0.788184 0.484464 0.331180
O O13 0.755747 0.421310 0.455132
O O14 0.907964 0.620482 0.302153
O O15 0.007351 0.811263 0.320106
O O16 0.228681 0.857017 0.289885
O O17 0.334895 0.059573 0.544844
#
# Coordination Sequence:
#
# PCOD9082862 Si02
#       8
#     2   2   2   2   2   2   2   2
#     4  10  21  39  58  79 120 163 193 238 298 351
#     4  10  20  35  59  90 114 152 204 247 287 350
#     4  12  20  37  66  84 115 164 195 237 297 347
#     4  10  21  36  56  91 120 150 198 247 292 348
#     4  11  19  37  61  88 118 152 204 245 283 352
#     4  10  19  33  58  87 119 146 192 256 289 331
#     4  10  23  40  56  89 120 150 202 241 289 366
#     4  11  22  36  63  87 117 152 195 248 298 338
#
# _framework density 18.459948000000001
#
# number of rings (size 3 to 8) (size 9 to 14) (size 15 to 20)
#    0.000    1.500    6.250    1.125    0.000    7.000 
#    0.000    1.250    0.000    0.000    0.000    0.000 
#    0.000    0.000    0.000    0.000    0.000    0.000 
#
# Total GULP energy -89358.294356 kJ/mol
# GULP energy per Si atom -5584.893397 kJ/mol
# Density = 1.841793 g / cm^3
# Si number density = 18.459948 Si / 1000 Ang^3
#
#
#
# Elastic Constant Matrix: (Units=GPa)
#
#
# Indices 1 2 3 4 5 6 
#
# 1 24.4854 10.7599 12.2993 2.3839 -3.9336 3.5899
# 2 10.7599 130.8124 29.9636 -13.2434 0.0945 8.9070
# 3 12.2993 29.9636 76.4661 -10.4189 -2.6662 10.5144
# 4 2.3839 -13.2434 -10.4189 38.7248 4.6421 -1.5646
# 5 -3.9336 0.0945 -2.6662 4.6421 23.7590 -1.4728
# 6 3.5899 8.9070 10.5144 -1.5646 -1.4728 20.1868
#
#
#
# Elastic Compliance Matrix: (Units=1/GPa)
#
#
# Indices 1 2 3 4 5 6 
#
# 1 0.048037 -0.002858 -0.006748 -0.006898 0.008326 -0.003694
# 2 -0.002858 0.008839 -0.002415 0.002637 -0.001421 -0.002033
# 3 -0.006748 -0.002415 0.016445 0.003816 -0.000382 -0.006032
# 4 -0.006898 0.002637 0.003816 0.028936 -0.006387 -0.000148
# 5 0.008326 -0.001421 -0.000382 -0.006387 0.044810 0.002119
# 6 -0.003694 -0.002033 -0.006032 -0.000148 0.002119 0.054376
#
#
# Mechanical properties :
#
#
# Convention : Reuss Voigt Hill
#
# Bulk Modulus (GPa) = 20.29234 37.53437 28.91336
# Shear Modulus (GPa) = 20.66860 28.45020 24.55940
#
# Velocity S-wave (km/s) = 3.34974 3.93005 3.65144
# Velocity P-wave (km/s) = 5.09681 6.40084 5.78568
#
# Compressibility (1/GPa) = 0.04927967
#
# Stress axis : x y z
#
# Youngs Moduli (GPa) = 20.81727 113.13247 60.80732
#
# Poissons Ratio (x) = 0.32337 0.41034
# Poissons Ratio (y) = 0.05950 0.14682
# Poissons Ratio (z) = 0.14048 0.27316
#
# Static dielectric constant tensor:
#      x y z
#    x 1.648260 0.012090 0.001340 
#    y 0.012090 1.631090 0.011900 
#    z 0.001340 0.011900 1.644870 
# 
# From -- ./inp_files/223643.got.cif
#   From: 2010.05.17/outbox.cif.g08.bks.cpg/sg2_112_cif.got.tgz:223643.got - 2010.06.03 11:33:40.
