data_PCOD9082468
_publ_section_title
;
Structure prediction by ZEFSAII (Michael W. Deem and Ramdas Pophale) SiO2 
 PCOD9082468
Probable space group: P -1
;
_chemical_formula_sum "Si O2"
_cell_formula_units_Z 16
_cell_length_a 9.209251
_cell_length_b 17.065697
_cell_length_c 9.546351
_cell_angle_alpha 79.819701
_cell_angle_beta 150.271171
_cell_angle_gamma 95.146527
_cell_volume 726.012976
_symmetry_space_group_name_H-M "P -1"
_symmetry_group_IT_number 2
_symmetry_cell_setting 'triclinic'
loop_
_space_group_symop_operation_xyz
x,y,z
-x,-y,-z
loop_
_atom_site_type_symbol
_atom_site_label
_atom_site_fract_x
_atom_site_fract_y
_atom_site_fract_z
Si Si1 0.035946 0.453903 0.854713
Si Si2 0.927623 0.083732 0.661332
Si Si3 0.977313 0.095438 0.241666
Si Si4 0.324852 0.159565 0.747718
Si Si5 0.675935 0.919157 0.738498
Si Si6 0.364308 0.495915 0.732306
Si Si7 0.877915 0.627112 0.778316
Si Si8 0.491819 0.674583 0.203747
O O1 0.919065 0.452657 0.596475
O O2 0.854137 0.534406 0.743261
O O3 0.367957 0.473810 0.136632
O O4 0.044004 0.378794 0.989736
O O5 0.132155 0.131929 0.722040
O O6 0.597845 0.123490 0.416591
O O7 0.118626 0.062955 0.967254
O O8 0.899047 0.997656 0.593546
O O9 0.110600 0.154703 0.439111
O O10 0.100880 0.115978 0.185920
O O11 0.627823 0.104208 0.974319
O O12 0.426389 0.246268 0.825092
O O13 0.500000 0.000000 0.500000
O O14 0.337538 0.403856 0.703303
O O15 0.500000 0.500000 0.000000
O O16 0.594776 0.675858 0.452522
O O17 0.154056 0.659119 0.923681
#
# Coordination Sequence:
#
# PCOD9082468 Si02
#       8
#     2   2   2   2   2   2   2   2
#     4   9  17  30  55  83 101 138 180 237 277 326
#     4  11  21  37  60  88 117 154 201 249 296 354
#     4  11  21  37  59  87 116 152 206 248 293 350
#     4  12  23  36  58  87 121 157 195 250 302 353
#     4  10  20  37  60  85 115 152 195 249 303 348
#     4  10  19  33  55  82 113 144 191 231 283 346
#     4   9  17  33  54  78 108 136 187 228 282 345
#     4  10  21  35  54  80 114 153 181 235 302 353
#
# _framework density 22.038174000000001
#
# number of rings (size 3 to 8) (size 9 to 14) (size 15 to 20)
#    0.000    1.750    0.000    7.125    0.000    3.000 
#    0.000    0.000   11.000    0.000    0.000    0.000 
#    0.000    0.000    0.000    0.000    0.000    0.000 
#
# Total GULP energy -89137.147583 kJ/mol
# GULP energy per Si atom -5571.071724 kJ/mol
# Density = 2.198801 g / cm^3
# Si number density = 22.038174 Si / 1000 Ang^3
#
#
#
# Elastic Constant Matrix: (Units=GPa)
#
#
# Indices 1 2 3 4 5 6 
#
# 1 113.8444 32.6797 27.6815 21.5419 -0.5775 35.7903
# 2 32.6797 55.4381 5.0201 15.6189 -11.7917 31.0259
# 3 27.6815 5.0201 101.0336 20.1991 0.4187 -2.6988
# 4 21.5419 15.6189 20.1991 11.7937 9.9942 -2.5926
# 5 -0.5775 -11.7917 0.4187 9.9942 36.6285 24.2453
# 6 35.7903 31.0259 -2.6988 -2.5926 24.2453 3.4687
#
#
#
# Elastic Compliance Matrix: (Units=1/GPa)
#
#
# Indices 1 2 3 4 5 6 
#
# 1 0.010934 -0.009162 -0.002785 0.001670 -0.004919 0.002595
# 2 -0.009162 0.013760 0.001515 0.003442 -0.005441 0.013249
# 3 -0.002785 0.001515 0.015029 -0.021090 0.000366 0.008551
# 4 0.001670 0.003442 -0.021090 0.095562 0.008087 -0.049531
# 5 -0.004919 -0.005441 0.000366 0.008087 0.012888 0.015672
# 6 0.002595 0.013249 0.008551 -0.049531 0.015672 0.003100
#
#
# Mechanical properties :
#
#
# Convention : Reuss Voigt Hill
#
# Bulk Modulus (GPa) = 53.02674 44.56429 48.79552
# Shear Modulus (GPa) = 28.02327 24.04050 26.03188
#
# Velocity S-wave (km/s) = 3.56979 3.30640 3.44061
# Velocity P-wave (km/s) = 6.41130 5.90268 6.16224
#
# Compressibility (1/GPa) = 0.01885841
#
# Stress axis : x y z
#
# Youngs Moduli (GPa) = 91.45442 72.67518 66.53898
#
# Poissons Ratio (x) = 0.66589 0.18530
# Poissons Ratio (y) = 0.83795 -0.10080
# Poissons Ratio (z) = 0.25468 -0.11010
#
# Static dielectric constant tensor:
#      x y z
#    x 1.944170 -0.010830 0.001770 
#    y -0.010830 1.834360 -0.048420 
#    z 0.001770 -0.048420 1.842410 
# 
# From -- ./inp_files/222120.got.cif
#   From: 2010.05.17/outbox.cif.g08.bks.cpg/sg2_112_cif.got.tgz:222120.got - 2010.06.03 11:33:40.
