data_PCOD9082371
_publ_section_title
;
Structure prediction by ZEFSAII (Michael W. Deem and Ramdas Pophale) SiO2 
 PCOD9082371
Probable space group: P -1
;
_chemical_formula_sum "Si O2"
_cell_formula_units_Z 14
_cell_length_a 8.850224
_cell_length_b 14.355473
_cell_length_c 6.401346
_cell_angle_alpha 113.692119
_cell_angle_beta 81.771981
_cell_angle_gamma 84.013339
_cell_volume 725.232193
_symmetry_space_group_name_H-M "P -1"
_symmetry_group_IT_number 2
_symmetry_cell_setting 'triclinic'
loop_
_space_group_symop_operation_xyz
x,y,z
-x,-y,-z
loop_
_atom_site_type_symbol
_atom_site_label
_atom_site_fract_x
_atom_site_fract_y
_atom_site_fract_z
Si Si1 0.965713 0.895780 0.130612
Si Si2 0.847592 0.635621 0.583531
Si Si3 0.926948 0.440862 0.145911
Si Si4 0.928294 0.265701 0.688247
Si Si5 0.492900 0.027897 0.288950
Si Si6 0.686173 0.846283 0.859038
Si Si7 0.200895 0.880771 0.709045
O O1 0.982670 0.827187 0.271017
O O2 0.124142 0.875586 0.947183
O O3 0.904910 0.017520 0.282723
O O4 0.837102 0.862268 0.971327
O O5 0.821432 0.529494 0.384459
O O6 0.698536 0.724393 0.727058
O O7 0.941274 0.609543 0.758637
O O8 0.956910 0.686906 0.448009
O O9 0.860784 0.352751 0.951993
O O10 0.000000 0.500000 0.000000
O O11 0.812463 0.217534 0.518583
O O12 0.331473 0.094855 0.306005
O O13 0.627798 0.094953 0.286999
O O14 0.500000 0.000000 0.500000
O O15 0.541837 0.917514 0.065749
#
# Coordination Sequence:
#
# PCOD9082371 Si02
#       7
#     2   2   2   2   2   2   2
#     4  10  20  33  53  80 107 144 185 227 272 317
#     4  10  19  33  54  82 110 142 180 227 274 322
#     4   9  19  31  51  84 113 137 175 227 281 322
#     4  11  18  31  54  83 111 139 175 229 279 322
#     4  10  24  37  52  76 111 152 186 219 266 326
#     4  10  20  36  54  75 109 143 186 224 260 323
#     4  10  21  33  51  79 112 143 184 222 272 324
#
# _framework density 19.304161000000001
#
# number of rings (size 3 to 8) (size 9 to 14) (size 15 to 20)
#    0.000    2.000    2.857    0.429    4.000    4.571 
#    0.000    0.000    0.000    0.857    0.000   15.000 
#    0.000    0.000    0.000    0.000    0.000    0.000 
#
# Total GULP energy -78008.987242 kJ/mol
# GULP energy per Si atom -5572.070517 kJ/mol
# Density = 1.926022 g / cm^3
# Si number density = 19.304161 Si / 1000 Ang^3
#
#
#
# Elastic Constant Matrix: (Units=GPa)
#
#
# Indices 1 2 3 4 5 6 
#
# 1 48.1099 8.4164 27.3069 -2.6324 7.2384 2.0598
# 2 8.4164 106.7623 49.5519 1.1870 0.0612 -10.2017
# 3 27.3069 49.5519 101.1150 20.9235 21.9548 1.8837
# 4 -2.6324 1.1870 20.9235 64.5749 5.6889 2.8745
# 5 7.2384 0.0612 21.9548 5.6889 19.5629 3.2757
# 6 2.0598 -10.2017 1.8837 2.8745 3.2757 19.9993
#
#
#
# Elastic Compliance Matrix: (Units=1/GPa)
#
#
# Indices 1 2 3 4 5 6 
#
# 1 0.025619 0.001632 -0.008246 0.003847 -0.001114 -0.001400
# 2 0.001632 0.014459 -0.009989 0.001967 0.008917 0.006405
# 3 -0.008246 -0.009989 0.022618 -0.005593 -0.020299 -0.002248
# 4 0.003847 0.001967 -0.005593 0.017481 -0.000005 -0.001378
# 5 -0.001114 0.008917 -0.020299 -0.000005 0.075246 -0.005749
# 6 -0.001400 0.006405 -0.002248 -0.001378 -0.005749 0.054765
#
#
# Mechanical properties :
#
#
# Convention : Reuss Voigt Hill
#
# Bulk Modulus (GPa) = 33.90995 47.39305 40.65150
# Shear Modulus (GPa) = 19.74534 32.20823 25.97679
#
# Velocity S-wave (km/s) = 3.20168 4.08911 3.67230
# Velocity P-wave (km/s) = 5.59213 6.84824 6.25181
#
# Compressibility (1/GPa) = 0.02948987
#
# Stress axis : x y z
#
# Youngs Moduli (GPa) = 39.03375 69.16029 44.21179
#
# Poissons Ratio (x) = -0.11286 0.36459
# Poissons Ratio (y) = -0.06370 0.44162
# Poissons Ratio (z) = 0.32189 0.69083
#
# Static dielectric constant tensor:
#      x y z
#    x 1.656350 0.002130 0.012670 
#    y 0.002130 1.727870 0.003380 
#    z 0.012670 0.003380 1.781580 
# 
# From -- ./inp_files/36227.got.cif
#   From: 2010.05.17/outbox.cif.g08.bks.cpg/sg2_19_cif.got.tgz:36227.got - 2010.06.03 11:33:40.
