data_PCOD9082096
_publ_section_title
;
Structure prediction by ZEFSAII (Michael W. Deem and Ramdas Pophale) SiO2 
 PCOD9082096
Probable space group: P -1
;
_chemical_formula_sum "Si O2"
_cell_formula_units_Z 14
_cell_length_a 7.724303
_cell_length_b 9.704229
_cell_length_c 13.452119
_cell_angle_alpha 44.982713
_cell_angle_beta 119.373457
_cell_angle_gamma 135.601175
_cell_volume 498.480971
_symmetry_space_group_name_H-M "P -1"
_symmetry_group_IT_number 2
_symmetry_cell_setting 'triclinic'
loop_
_space_group_symop_operation_xyz
x,y,z
-x,-y,-z
loop_
_atom_site_type_symbol
_atom_site_label
_atom_site_fract_x
_atom_site_fract_y
_atom_site_fract_z
Si Si1 0.047224 0.252627 0.358475
Si Si2 0.301781 0.123708 0.795118
Si Si3 0.726799 0.091161 0.678017
Si Si4 0.724740 0.697397 0.800732
Si Si5 0.234233 0.466571 0.513365
Si Si6 0.279894 0.955263 0.072361
Si Si7 0.131505 0.524210 0.919454
O O1 0.830809 0.254540 0.243941
O O2 0.116585 0.398648 0.405598
O O3 0.257837 0.371156 0.271187
O O4 0.000000 0.000000 0.500000
O O5 0.374107 0.345866 0.632625
O O6 0.479825 0.043860 0.868265
O O7 0.017661 0.912354 0.795034
O O8 0.305789 0.148144 0.903614
O O9 0.621193 0.249598 0.568301
O O10 0.755469 0.030329 0.829326
O O11 0.002484 0.300239 0.607908
O O12 0.609915 0.844999 0.707307
O O13 0.661409 0.500261 0.967255
O O14 0.053532 0.701522 0.089618
O O15 0.000000 0.500000 0.000000
#
# Coordination Sequence:
#
# PCOD9082096 Si02
#       7
#     2   2   2   2   2   2   2
#     4  11  17  33  52  76 106 137 173 214 250 305
#     4   9  19  33  51  78 103 142 171 211 254 319
#     4  10  19  33  50  82 108 129 171 227 257 296
#     4   9  19  34  55  78 105 134 177 213 256 303
#     4  10  20  33  51  80 108 135 175 213 262 302
#     4  10  19  34  52  77 107 135 176 214 256 306
#     4   9  19  32  51  79  98 136 175 212 247 309
#
# _framework density 28.085325000000001
#
# number of rings (size 3 to 8) (size 9 to 14) (size 15 to 20)
#    0.000    2.286    4.286    0.000    0.000    5.714 
#    0.000    0.000    0.000    3.429    7.429   17.000 
#    0.000    0.000    0.000    0.000    0.000    0.000 
#
# Total GULP energy -78330.276800 kJ/mol
# GULP energy per Si atom -5595.019771 kJ/mol
# Density = 2.802140 g / cm^3
# Si number density = 28.085325 Si / 1000 Ang^3
#
#
#
# Elastic Constant Matrix: (Units=GPa)
#
#
# Indices 1 2 3 4 5 6 
#
# 1 71.5367 16.4836 32.4180 -0.5873 -7.0098 -18.8512
# 2 16.4836 87.4475 54.9773 11.6133 1.9364 -3.3082
# 3 32.4180 54.9773 251.0759 -10.0486 6.4264 -15.8163
# 4 -0.5873 11.6133 -10.0486 66.7011 -18.1490 6.1104
# 5 -7.0098 1.9364 6.4264 -18.1490 53.7836 -2.7623
# 6 -18.8512 -3.3082 -15.8163 6.1104 -2.7623 45.5040
#
#
#
# Elastic Compliance Matrix: (Units=1/GPa)
#
#
# Indices 1 2 3 4 5 6 
#
# 1 0.017149 -0.002271 -0.001357 0.000557 0.003005 0.006575
# 2 -0.002271 0.014162 -0.002936 -0.003311 -0.001602 -0.000584
# 3 -0.001357 -0.002936 0.004900 0.001100 -0.000246 0.000764
# 4 0.000557 -0.003311 0.001100 0.017487 0.005878 -0.001619
# 5 0.003005 -0.001602 -0.000246 0.005878 0.021134 0.001536
# 6 0.006575 -0.000584 0.000764 -0.001619 0.001536 0.025234
#
#
# Mechanical properties :
#
#
# Convention : Reuss Voigt Hill
#
# Bulk Modulus (GPa) = 43.32398 68.64643 55.98521
# Shear Modulus (GPa) = 41.36027 53.60981 47.48504
#
# Velocity S-wave (km/s) = 3.84169 4.37374 4.11632
# Velocity P-wave (km/s) = 5.92769 7.07116 6.52452
#
# Compressibility (1/GPa) = 0.02308191
#
# Stress axis : x y z
#
# Youngs Moduli (GPa) = 58.31282 70.60915 204.10066
#
# Poissons Ratio (x) = 0.16035 0.27704
# Poissons Ratio (y) = 0.13242 0.59928
# Poissons Ratio (z) = 0.07915 0.20732
#
# Static dielectric constant tensor:
#      x y z
#    x 2.329040 -0.072380 0.027030 
#    y -0.072380 2.281530 -0.119370 
#    z 0.027030 -0.119370 2.190840 
# 
# From -- ./inp_files/381366.got.cif
#   From: 2010.05.17/outbox.cif.g08.bks.cpg/sg2_191_cif.got.tgz:381366.got - 2010.06.03 11:33:40.
