data_PCOD9082506
_publ_section_title
;
Structure prediction by ZEFSAII (Michael W. Deem and Ramdas Pophale) SiO2 
 PCOD9082506
Probable space group: P -1
;
_chemical_formula_sum "Si O2"
_cell_formula_units_Z 16
_cell_length_a 12.290773
_cell_length_b 7.766084
_cell_length_c 18.820859
_cell_angle_alpha 136.213013
_cell_angle_beta 52.793417
_cell_angle_gamma 95.369006
_cell_volume 775.032859
_symmetry_space_group_name_H-M "P -1"
_symmetry_group_IT_number 2
_symmetry_cell_setting 'triclinic'
loop_
_space_group_symop_operation_xyz
x,y,z
-x,-y,-z
loop_
_atom_site_type_symbol
_atom_site_label
_atom_site_fract_x
_atom_site_fract_y
_atom_site_fract_z
Si Si1 0.187787 0.645044 0.491034
Si Si2 0.077369 0.112090 0.944897
Si Si3 0.006097 0.393351 0.564216
Si Si4 0.345836 0.531133 0.003912
Si Si5 0.713578 0.269964 0.758062
Si Si6 0.408419 0.895911 0.831668
Si Si7 0.985682 0.787982 0.164188
Si Si8 0.306530 0.154837 0.094361
O O1 0.096209 0.701857 0.468817
O O2 0.395595 0.421655 0.338641
O O3 0.124949 0.461301 0.497908
O O4 0.118103 0.951751 0.655885
O O5 0.073321 0.061348 0.846628
O O6 0.276824 0.931071 0.837134
O O7 0.983158 0.493136 0.094279
O O8 0.000000 0.000000 0.000000
O O9 0.849124 0.739445 0.760527
O O10 0.163845 0.048375 0.430675
O O11 0.286848 0.760344 0.164206
O O12 0.185856 0.643534 0.051383
O O13 0.508652 0.470435 0.882134
O O14 0.415263 0.186748 0.903361
O O15 0.769588 0.489394 0.792184
O O16 0.322973 0.963294 0.962946
O O17 0.500000 0.000000 0.000000
#
# Coordination Sequence:
#
# PCOD9082506 Si02
#       8
#     2   2   2   2   2   2   2   2
#     4  11  22  37  64  91 126 166 211 253 309 389
#     4  10  24  45  69  93 121 162 222 275 327 376
#     4  11  22  36  55  95 132 167 206 243 313 388
#     4   9  18  34  60  87 118 167 207 251 308 381
#     4  10  19  33  55  85 129 165 211 245 307 379
#     4  10  21  40  60  89 124 162 211 265 316 377
#     4  10  22  42  69  92 123 170 213 265 329 376
#     4  11  23  34  55  89 129 171 206 260 311 376
#
# _framework density 20.644286999999998
#
# number of rings (size 3 to 8) (size 9 to 14) (size 15 to 20)
#    0.000    1.750    3.750    0.375    3.500    0.500 
#    0.000    0.625    0.000    0.000    0.000    0.000 
#    0.000    0.000    0.000    0.000    0.000    0.000 
#
# Total GULP energy -89134.321968 kJ/mol
# GULP energy per Si atom -5570.895123 kJ/mol
# Density = 2.059730 g / cm^3
# Si number density = 20.644287 Si / 1000 Ang^3
#
#
#
# Elastic Constant Matrix: (Units=GPa)
#
#
# Indices 1 2 3 4 5 6 
#
# 1 88.7372 5.0742 32.6020 -8.7136 0.8257 -7.8303
# 2 5.0742 85.2784 7.9345 -2.6165 3.3205 6.8396
# 3 32.6020 7.9345 120.5407 -4.4159 -2.8895 -4.7897
# 4 -8.7136 -2.6165 -4.4159 18.7389 2.9316 1.3992
# 5 0.8257 3.3205 -2.8895 2.9316 27.8212 -2.0002
# 6 -7.8303 6.8396 -4.7897 1.3992 -2.0002 24.3938
#
#
#
# Elastic Compliance Matrix: (Units=1/GPa)
#
#
# Indices 1 2 3 4 5 6 
#
# 1 0.013326 -0.000564 -0.003262 0.005246 -0.000974 0.003414
# 2 -0.000564 0.012296 -0.000798 0.001886 -0.002024 -0.004060
# 3 -0.003262 -0.000798 0.009314 0.000297 0.001206 0.001087
# 4 0.005246 0.001886 0.000297 0.057363 -0.006583 -0.002617
# 5 -0.000974 -0.002024 0.001206 -0.006583 0.037316 0.003929
# 6 0.003414 -0.004060 0.001087 -0.002617 0.003929 0.043914
#
#
# Mechanical properties :
#
#
# Convention : Reuss Voigt Hill
#
# Bulk Modulus (GPa) = 38.92976 42.86420 40.89698
# Shear Modulus (GPa) = 26.13158 30.78715 28.45937
#
# Velocity S-wave (km/s) = 3.56167 3.86595 3.71692
# Velocity P-wave (km/s) = 5.98434 6.38245 6.18660
#
# Compressibility (1/GPa) = 0.02568729
#
# Stress axis : x y z
#
# Youngs Moduli (GPa) = 75.04341 81.32482 107.36757
#
# Poissons Ratio (x) = 0.04589 0.35028
# Poissons Ratio (y) = 0.04235 0.08563
# Poissons Ratio (z) = 0.24483 0.06486
#
# Static dielectric constant tensor:
#      x y z
#    x 1.737290 -0.049400 0.032630 
#    y -0.049400 1.851260 -0.034510 
#    z 0.032630 -0.034510 1.808100 
# 
# From -- ./inp_files/203584.got.cif
#   From: 2010.05.17/outbox.cif.g08.bks.cpg/sg2_102_cif.got.tgz:203584.got - 2010.06.03 11:33:40.
