data_PCOD9082015
_publ_section_title
;
Structure prediction by ZEFSAII (Michael W. Deem and Ramdas Pophale) SiO2 
 PCOD9082015
Probable space group: P -1
;
_chemical_formula_sum "Si O2"
_cell_formula_units_Z 16
_cell_length_a 6.469175
_cell_length_b 14.631030
_cell_length_c 8.122586
_cell_angle_alpha 71.819210
_cell_angle_beta 82.978154
_cell_angle_gamma 88.962391
_cell_volume 724.784826
_symmetry_space_group_name_H-M "P -1"
_symmetry_group_IT_number 2
_symmetry_cell_setting 'triclinic'
loop_
_space_group_symop_operation_xyz
x,y,z
-x,-y,-z
loop_
_atom_site_type_symbol
_atom_site_label
_atom_site_fract_x
_atom_site_fract_y
_atom_site_fract_z
Si Si1 0.176367 0.889504 0.871162
Si Si2 0.909173 0.238939 0.365027
Si Si3 0.860142 0.378630 0.718498
Si Si4 0.035836 0.945098 0.358053
Si Si5 0.160450 0.409690 0.361041
Si Si6 0.393727 0.059684 0.119559
Si Si7 0.867692 0.794337 0.142062
Si Si8 0.505570 0.296358 0.572535
O O1 0.099843 0.818689 0.772382
O O2 0.422240 0.887323 0.833915
O O3 0.113175 0.999715 0.783587
O O4 0.087385 0.857567 0.076956
O O5 0.995193 0.166492 0.538247
O O6 0.678385 0.260602 0.445578
O O7 0.066102 0.330651 0.288483
O O8 0.824376 0.479393 0.756107
O O9 0.642813 0.331687 0.698397
O O10 0.983846 0.401623 0.524456
O O11 0.021299 0.308590 0.833115
O O12 0.268693 0.978925 0.276397
O O13 0.000000 0.000000 0.500000
O O14 0.374634 0.377575 0.444076
O O15 0.245386 0.141929 0.020705
O O16 0.500000 0.000000 0.000000
O O17 0.678309 0.774782 0.299949
#
# Coordination Sequence:
#
# PCOD9082015 Si02
#       8
#     2   2   2   2   2   2   2   2
#     4  10  23  40  55  78 116 151 182 224 278 333
#     4  10  21  37  57  83 111 145 185 228 276 326
#     4   9  18  35  56  84 115 144 180 227 278 324
#     4   9  21  38  57  81 111 146 183 226 276 328
#     4   9  19  34  57  85 113 141 181 232 276 325
#     4  11  23  37  57  84 112 147 188 228 273 326
#     4  10  21  37  58  82 114 149 183 227 275 326
#     4  10  19  32  60  87 109 141 184 228 273 324
#
# _framework density 22.075517999999999
#
# number of rings (size 3 to 8) (size 9 to 14) (size 15 to 20)
#    0.000    2.250    0.000    1.875    0.000   14.000 
#    0.000    0.625    0.000    2.250    0.000    0.000 
#    0.000    0.000    0.000    0.000    0.000    0.000 
#
# Total GULP energy -89080.776157 kJ/mol
# GULP energy per Si atom -5567.548510 kJ/mol
# Density = 2.202527 g / cm^3
# Si number density = 22.075518 Si / 1000 Ang^3
#
#
#
# Elastic Constant Matrix: (Units=GPa)
#
#
# Indices 1 2 3 4 5 6 
#
# 1 128.3522 56.1781 22.0901 3.3243 -4.1493 4.7983
# 2 56.1781 119.6866 35.7581 2.7668 10.4411 3.2162
# 3 22.0901 35.7581 44.5636 0.0216 -12.0921 2.7376
# 4 3.3243 2.7668 0.0216 22.3149 -4.3479 4.7953
# 5 -4.1493 10.4411 -12.0921 -4.3479 31.6761 3.1668
# 6 4.7983 3.2162 2.7376 4.7953 3.1668 26.7537
#
#
#
# Elastic Compliance Matrix: (Units=1/GPa)
#
#
# Indices 1 2 3 4 5 6 
#
# 1 0.010135 -0.004947 -0.000122 0.000043 0.003076 -0.001582
# 2 -0.004947 0.015799 -0.013593 -0.004057 -0.011852 0.002509
# 3 -0.000122 -0.013593 0.039520 0.007110 0.021143 -0.006165
# 4 0.000043 -0.004057 0.007110 0.049915 0.011969 -0.010611
# 5 0.003076 -0.011852 0.021143 0.011969 0.046487 -0.008938
# 6 -0.001582 0.002509 -0.006165 -0.010611 -0.008938 0.040951
#
#
# Mechanical properties :
#
#
# Convention : Reuss Voigt Hill
#
# Bulk Modulus (GPa) = 35.55131 57.85056 46.70094
# Shear Modulus (GPa) = 20.03951 28.05403 24.04677
#
# Velocity S-wave (km/s) = 3.01619 3.56873 3.30403
# Velocity P-wave (km/s) = 5.31688 6.57599 5.97967
#
# Compressibility (1/GPa) = 0.02812836
#
# Stress axis : x y z
#
# Youngs Moduli (GPa) = 98.66820 63.29640 25.30387
#
# Poissons Ratio (x) = 0.31315 0.00310
# Poissons Ratio (y) = 0.48815 0.34395
# Poissons Ratio (z) = 0.01207 0.86037
#
# Static dielectric constant tensor:
#      x y z
#    x 1.890780 0.072450 0.032460 
#    y 0.072450 1.915990 0.020500 
#    z 0.032460 0.020500 1.873340 
# 
# From -- ./inp_files/95508.got.cif
#   From: 2010.05.17/outbox.cif.g08.bks.cpg/sg2_48_cif.got.tgz:95508.got - 2010.06.03 11:33:40.
