data_PCOD9082347
_publ_section_title
;
Structure prediction by ZEFSAII (Michael W. Deem and Ramdas Pophale) SiO2 
 PCOD9082347
Probable space group: P -1
;
_chemical_formula_sum "Si O2"
_cell_formula_units_Z 16
_cell_length_a 12.870592
_cell_length_b 12.449122
_cell_length_c 11.711911
_cell_angle_alpha 24.766079
_cell_angle_beta 124.879353
_cell_angle_gamma 118.059330
_cell_volume 638.348543
_symmetry_space_group_name_H-M "P -1"
_symmetry_group_IT_number 2
_symmetry_cell_setting 'triclinic'
loop_
_space_group_symop_operation_xyz
x,y,z
-x,-y,-z
loop_
_atom_site_type_symbol
_atom_site_label
_atom_site_fract_x
_atom_site_fract_y
_atom_site_fract_z
Si Si1 0.336032 0.780217 0.613494
Si Si2 0.065847 0.757903 0.553511
Si Si3 0.423496 0.277907 0.308291
Si Si4 0.279130 0.412385 0.324050
Si Si5 0.885183 0.681842 0.313143
Si Si6 0.793804 0.215100 0.772647
Si Si7 0.362419 0.915534 0.999005
Si Si8 0.026256 0.703930 0.971154
O O1 0.183946 0.791695 0.514063
O O2 0.421125 0.765863 0.565355
O O3 0.373556 0.028709 0.463045
O O4 0.381383 0.526181 0.962863
O O5 0.942309 0.744605 0.410377
O O6 0.038985 0.007308 0.377089
O O7 0.079022 0.481444 0.889890
O O8 0.356318 0.328707 0.338708
O O9 0.278910 0.153111 0.650330
O O10 0.352960 0.636756 0.207273
O O11 0.133100 0.558856 0.094226
O O12 0.775887 0.497978 0.431679
O O13 0.000000 0.500000 0.500000
O O14 0.845620 0.969497 0.962951
O O15 0.680720 0.119205 0.865167
O O16 0.896208 0.258548 0.897170
O O17 0.500000 0.000000 0.000000
#
# Coordination Sequence:
#
# PCOD9082347 Si02
#       8
#     2   2   2   2   2   2   2   2
#     4  10  21  40  60  83 117 156 195 242 301 348
#     4  10  19  35  56  84 112 149 195 232 294 346
#     4  10  22  40  62  82 115 159 196 240 299 353
#     4  11  21  39  62  85 115 154 202 236 298 358
#     4  10  19  33  54  80 111 149 189 230 286 341
#     4   9  18  34  52  73 110 152 180 218 288 348
#     4  11  22  38  58  87 117 154 194 243 294 346
#     4   9  18  33  57  80 110 149 183 230 288 353
#
# _framework density 25.064678000000001
#
# number of rings (size 3 to 8) (size 9 to 14) (size 15 to 20)
#    0.000    2.000    0.000    6.000    0.000    0.000 
#    4.500    3.750    0.000    0.000    0.000    0.000 
#    0.000    0.000    0.000    0.000    0.000    0.000 
#
# Total GULP energy -89412.647641 kJ/mol
# GULP energy per Si atom -5588.290478 kJ/mol
# Density = 2.500763 g / cm^3
# Si number density = 25.064678 Si / 1000 Ang^3
#
#
#
# Elastic Constant Matrix: (Units=GPa)
#
#
# Indices 1 2 3 4 5 6 
#
# 1 204.4035 45.1616 52.6591 -24.2310 -13.5578 -11.8709
# 2 45.1616 54.7784 48.8854 -20.3483 -8.0244 -12.7237
# 3 52.6591 48.8854 164.0747 -47.7340 -8.0163 -12.8414
# 4 -24.2310 -20.3483 -47.7340 33.8642 3.2092 -1.1832
# 5 -13.5578 -8.0244 -8.0163 3.2092 40.9041 -13.7917
# 6 -11.8709 -12.7237 -12.8414 -1.1832 -13.7917 47.9005
#
#
#
# Elastic Compliance Matrix: (Units=1/GPa)
#
#
# Indices 1 2 3 4 5 6 
#
# 1 0.006139 -0.003839 -0.000186 0.001721 0.001414 0.000901
# 2 -0.003839 0.031889 -0.004450 0.009850 0.006151 0.008340
# 3 -0.000186 -0.004450 0.011726 0.013702 0.001161 0.002588
# 4 0.001721 0.009850 0.013702 0.055945 0.003909 0.009223
# 5 0.001414 0.006151 0.001161 0.003909 0.029737 0.010954
# 6 0.000901 0.008340 0.002588 0.009223 0.010954 0.027391
#
#
# Mechanical properties :
#
#
# Convention : Reuss Voigt Hill
#
# Bulk Modulus (GPa) = 30.48499 79.62988 55.05744
# Shear Modulus (GPa) = 26.21752 42.97045 34.59399
#
# Velocity S-wave (km/s) = 3.23769 4.14500 3.71912
# Velocity P-wave (km/s) = 5.11525 7.39911 6.36053
#
# Compressibility (1/GPa) = 0.03280302
#
# Stress axis : x y z
#
# Youngs Moduli (GPa) = 162.90444 31.35849 85.28108
#
# Poissons Ratio (x) = 0.12039 0.01587
# Poissons Ratio (y) = 0.62543 0.37951
# Poissons Ratio (z) = 0.03031 0.13955
#
# Static dielectric constant tensor:
#      x y z
#    x 2.018450 0.010370 0.041370 
#    y 0.010370 2.027590 0.064940 
#    z 0.041370 0.064940 2.024300 
# 
# From -- ./inp_files/455702.got.cif
#   From: 2010.05.17/outbox.cif.g08.bks.cpg/sg2_228_cif.got.tgz:455702.got - 2010.06.03 11:33:40.
