data_PCOD9082814
_publ_section_title
;
Structure prediction by ZEFSAII (Michael W. Deem and Ramdas Pophale) SiO2 
 PCOD9082814
Probable space group: P -1
;
_chemical_formula_sum "Si O2"
_cell_formula_units_Z 16
_cell_length_a 8.601380
_cell_length_b 11.142493
_cell_length_c 10.420562
_cell_angle_alpha 62.472728
_cell_angle_beta 81.003045
_cell_angle_gamma 64.774041
_cell_volume 800.164354
_symmetry_space_group_name_H-M "P -1"
_symmetry_group_IT_number 2
_symmetry_cell_setting 'triclinic'
loop_
_space_group_symop_operation_xyz
x,y,z
-x,-y,-z
loop_
_atom_site_type_symbol
_atom_site_label
_atom_site_fract_x
_atom_site_fract_y
_atom_site_fract_z
Si Si1 0.339091 0.126889 0.619374
Si Si2 0.700193 0.404903 0.263673
Si Si3 0.095613 0.415832 0.835464
Si Si4 0.013550 0.651741 0.384757
Si Si5 0.278501 0.499760 0.075155
Si Si6 0.445683 0.163979 0.874443
Si Si7 0.649303 0.355751 0.756401
Si Si8 0.534919 0.201744 0.323879
O O1 0.133691 0.214297 0.590926
O O2 0.395204 0.165524 0.730829
O O3 0.430111 0.181596 0.469239
O O4 0.394811 0.952123 0.684303
O O5 0.856693 0.444053 0.272807
O O6 0.531871 0.507013 0.314832
O O7 0.687318 0.248119 0.330819
O O8 0.678986 0.462128 0.090166
O O9 0.042430 0.341556 0.759398
O O10 0.280855 0.285049 0.912375
O O11 0.921622 0.473799 0.911301
O O12 0.000000 0.500000 0.500000
O O13 0.202479 0.650362 0.357611
O O14 0.299546 0.608587 0.126360
O O15 0.403052 0.336726 0.188863
O O16 0.602354 0.215179 0.836461
O O17 0.500000 0.000000 0.000000
#
# Coordination Sequence:
#
# PCOD9082814 Si02
#       8
#     2   2   2   2   2   2   2   2
#     4  10  22  38  55  83 113 148 183 224 284 333
#     4  10  19  33  58  81 113 145 187 229 271 326
#     4   9  20  35  52  88 104 138 197 222 278 322
#     4  10  19  37  60  79 111 143 182 235 274 330
#     4  10  19  35  59  81 111 145 188 230 271 326
#     4  10  22  37  57  78 117 148 182 235 277 325
#     4   9  19  34  54  83 100 141 194 216 276 327
#     4  10  21  37  57  81 113 148 184 224 279 337
#
# _framework density 19.995892000000001
#
# number of rings (size 3 to 8) (size 9 to 14) (size 15 to 20)
#    0.000    2.250    0.000    4.125    5.250    1.000 
#    2.250    7.500    0.000    3.750    0.000    0.000 
#    0.000    0.000    0.000    0.000    0.000    0.000 
#
# Total GULP energy -89184.356385 kJ/mol
# GULP energy per Si atom -5574.022274 kJ/mol
# Density = 1.995038 g / cm^3
# Si number density = 19.995892 Si / 1000 Ang^3
#
#
#
# Elastic Constant Matrix: (Units=GPa)
#
#
# Indices 1 2 3 4 5 6 
#
# 1 133.2931 55.4623 29.4613 -4.1326 -44.5254 -10.1939
# 2 55.4623 111.0886 40.2372 -11.8618 -24.0539 -7.2605
# 3 29.4613 40.2372 52.3140 -13.5617 -20.9945 -14.4706
# 4 -4.1326 -11.8618 -13.5617 23.4663 6.9478 -8.4800
# 5 -44.5254 -24.0539 -20.9945 6.9478 35.0865 3.2055
# 6 -10.1939 -7.2605 -14.4706 -8.4800 3.2055 34.6070
#
#
#
# Elastic Compliance Matrix: (Units=1/GPa)
#
#
# Indices 1 2 3 4 5 6 
#
# 1 0.014750 -0.004490 0.001689 -0.003126 0.017108 0.001758
# 2 -0.004490 0.014274 -0.009399 0.000738 -0.001506 -0.001938
# 3 0.001689 -0.009399 0.043471 0.023856 0.015055 0.021154
# 4 -0.003126 0.000738 0.023856 0.067093 -0.004857 0.026099
# 5 0.017108 -0.001506 0.015055 -0.004857 0.058749 0.004387
# 6 0.001758 -0.001938 0.021154 0.026099 0.004387 0.043841
#
#
# Mechanical properties :
#
#
# Convention : Reuss Voigt Hill
#
# Bulk Modulus (GPa) = 20.79254 60.77969 40.78611
# Shear Modulus (GPa) = 17.69220 30.06762 23.87991
#
# Velocity S-wave (km/s) = 2.97777 3.88195 3.45953
# Velocity P-wave (km/s) = 4.71633 7.11019 6.03318
#
# Compressibility (1/GPa) = 0.04809417
#
# Stress axis : x y z
#
# Youngs Moduli (GPa) = 67.79768 70.05640 23.00392
#
# Poissons Ratio (x) = 0.31456 -0.03885
# Poissons Ratio (y) = 0.30442 0.21622
# Poissons Ratio (z) = -0.11451 0.65847
#
# Static dielectric constant tensor:
#      x y z
#    x 1.786070 -0.000260 0.026160 
#    y -0.000260 1.715550 0.027260 
#    z 0.026160 0.027260 1.718350 
# 
# From -- ./inp_files/259633.got.cif
#   From: 2010.05.17/outbox.cif.g08.bks.cpg/sg2_130_cif.got.tgz:259633.got - 2010.06.03 11:33:40.
