data_PCOD9082440
_publ_section_title
;
Structure prediction by ZEFSAII (Michael W. Deem and Ramdas Pophale) SiO2 
 PCOD9082440
Probable space group: P -1
;
_chemical_formula_sum "Si O2"
_cell_formula_units_Z 16
_cell_length_a 14.264129
_cell_length_b 14.882819
_cell_length_c 9.240478
_cell_angle_alpha 38.716912
_cell_angle_beta 50.237137
_cell_angle_gamma 45.186210
_cell_volume 852.445204
_symmetry_space_group_name_H-M "P -1"
_symmetry_group_IT_number 2
_symmetry_cell_setting 'triclinic'
loop_
_space_group_symop_operation_xyz
x,y,z
-x,-y,-z
loop_
_atom_site_type_symbol
_atom_site_label
_atom_site_fract_x
_atom_site_fract_y
_atom_site_fract_z
Si Si1 0.146873 0.199450 0.187316
Si Si2 0.261969 0.370050 0.628773
Si Si3 0.455827 0.685040 0.468956
Si Si4 0.136152 0.651313 0.594013
Si Si5 0.361848 0.106288 0.338272
Si Si6 0.678469 0.897318 0.294514
Si Si7 0.372172 0.426612 0.850414
Si Si8 0.798454 0.061909 0.742054
O O1 0.266290 0.110982 0.294712
O O2 0.016501 0.311757 0.265035
O O3 0.107053 0.086008 0.265029
O O4 0.203807 0.291469 0.907100
O O5 0.421790 0.310620 0.569195
O O6 0.189313 0.556156 0.510050
O O7 0.252864 0.286969 0.593022
O O8 0.418324 0.545714 0.739021
O O9 0.518108 0.643945 0.297099
O O10 0.320247 0.838842 0.379071
O O11 0.234382 0.535784 0.765746
O O12 0.151415 0.815518 0.390261
O O13 0.305182 0.082345 0.577603
O O14 0.516215 0.977877 0.328883
O O15 0.363988 0.279783 0.122270
O O16 0.739022 0.990676 0.016024
#
# Coordination Sequence:
#
# PCOD9082440 Si02
#       8
#     2   2   2   2   2   2   2   2
#     4  11  20  33  56  82 102 136 178 214 256 305
#     4  10  19  33  55  79 105 133 174 218 254 309
#     4   9  15  29  53  81  99 125 174 212 270 292
#     4  10  20  34  56  80 105 133 175 220 258 298
#     4  11  20  35  55  76 110 138 170 217 258 309
#     4  10  22  35  53  79 106 138 176 209 263 309
#     4   9  17  29  53  79 102 133 162 221 257 305
#     4  10  19  34  57  78 106 134 173 218 259 307
#
# _framework density 18.769534
#
# number of rings (size 3 to 8) (size 9 to 14) (size 15 to 20)
#    0.000    2.000    3.750    2.250    0.000    2.000 
#    0.000    1.875    5.500    0.000    0.000    0.000 
#    0.000    0.000    0.000    0.000    0.000    0.000 
#
# Total GULP energy -89109.341206 kJ/mol
# GULP energy per Si atom -5569.333825 kJ/mol
# Density = 1.872681 g / cm^3
# Si number density = 18.769534 Si / 1000 Ang^3
#
#
#
# Elastic Constant Matrix: (Units=GPa)
#
#
# Indices 1 2 3 4 5 6 
#
# 1 13.0907 26.9009 4.4178 6.7005 -41.1705 11.0096
# 2 26.9009 52.9486 35.2631 -2.5875 11.7264 18.6453
# 3 4.4178 35.2631 42.7808 -1.2932 -24.2743 20.4425
# 4 6.7005 -2.5875 -1.2932 20.5935 12.5091 -4.9785
# 5 -41.1705 11.7264 -24.2743 12.5091 -12.4645 -4.8200
# 6 11.0096 18.6453 20.4425 -4.9785 -4.8200 26.8483
#
#
#
# Elastic Compliance Matrix: (Units=1/GPa)
#
#
# Indices 1 2 3 4 5 6 
#
# 1 0.016913 0.005891 -0.014973 0.003889 -0.016537 -0.001874
# 2 0.005891 0.022065 -0.007188 -0.009077 0.010832 -0.012005
# 3 -0.014973 -0.007188 0.033039 0.007750 -0.008421 -0.014099
# 4 0.003889 -0.009077 0.007750 0.045171 0.005683 0.008205
# 5 -0.016537 0.010832 -0.008421 0.005683 0.003822 0.007411
# 6 -0.001874 -0.012005 -0.014099 0.008205 0.007411 0.059939
#
#
# Mechanical properties :
#
#
# Convention : Reuss Voigt Hill
#
# Bulk Modulus (GPa) = 25.32996 26.88708 26.10852
# Shear Modulus (GPa) = 22.06044 9.81136 15.93590
#
# Velocity S-wave (km/s) = 3.43203 2.28880 2.91697
# Velocity P-wave (km/s) = 5.40645 4.61961 5.02844
#
# Compressibility (1/GPa) = 0.03947894
#
# Stress axis : x y z
#
# Youngs Moduli (GPa) = 59.12462 45.31977 30.26695
#
# Poissons Ratio (x) = -0.26698 0.45317
# Poissons Ratio (y) = -0.34830 0.21756
# Poissons Ratio (z) = 0.88525 0.32576
#
# Static dielectric constant tensor:
#      x y z
#    x 1.671520 0.019220 -0.038280 
#    y 0.019220 1.691200 -0.037200 
#    z -0.038280 -0.037200 1.633010 
# 
# From -- ./inp_files/269058.got.cif
#   From: 2010.05.17/outbox.cif.g08.bks.cpg/sg2_135_cif.got.tgz:269058.got - 2010.06.03 11:33:40.
