data_PCOD9082523
_publ_section_title
;
Structure prediction by ZEFSAII (Michael W. Deem and Ramdas Pophale) SiO2 
 PCOD9082523
Probable space group: P -1
;
_chemical_formula_sum "Si O2"
_cell_formula_units_Z 16
_cell_length_a 11.149834
_cell_length_b 11.653051
_cell_length_c 14.304104
_cell_angle_alpha 29.237982
_cell_angle_beta 130.664042
_cell_angle_gamma 114.402580
_cell_volume 625.039359
_symmetry_space_group_name_H-M "P -1"
_symmetry_group_IT_number 2
_symmetry_cell_setting 'triclinic'
loop_
_space_group_symop_operation_xyz
x,y,z
-x,-y,-z
loop_
_atom_site_type_symbol
_atom_site_label
_atom_site_fract_x
_atom_site_fract_y
_atom_site_fract_z
Si Si1 0.509698 0.300688 0.066796
Si Si2 0.270042 0.317327 0.781938
Si Si3 0.820710 0.483615 0.595430
Si Si4 0.003210 0.839449 0.471113
Si Si5 0.416269 0.166883 0.432417
Si Si6 0.522352 0.407510 0.731435
Si Si7 0.169783 0.642124 0.882074
Si Si8 0.885406 0.074011 0.060322
O O1 0.656336 0.308486 0.067384
O O2 0.579124 0.025112 0.347241
O O3 0.500000 0.500000 0.000000
O O4 0.325238 0.378897 0.866467
O O5 0.152332 0.529998 0.494369
O O6 0.454812 0.225106 0.886567
O O7 0.200136 0.100173 0.907042
O O8 0.852602 0.733875 0.460976
O O9 0.621765 0.518777 0.476468
O O10 0.932234 0.239288 0.889695
O O11 0.123116 0.639482 0.751891
O O12 0.966940 0.110355 0.310682
O O13 0.027901 0.902422 0.330995
O O14 0.509706 0.335722 0.406701
O O15 0.500000 0.000000 0.500000
O O16 0.226679 0.374452 0.155445
O O17 0.721987 0.276062 0.895444
#
# Coordination Sequence:
#
# PCOD9082523 Si02
#       8
#     2   2   2   2   2   2   2   2
#     4  12  23  39  64  89 119 159 201 251 303 356
#     4   9  20  33  54  88 120 147 191 252 307 351
#     4   9  21  33  57  85 125 152 197 245 301 360
#     4  10  23  38  61  86 131 164 192 243 298 373
#     4  12  23  39  61  91 121 155 201 255 303 353
#     4  10  19  33  55  90 120 150 196 254 299 351
#     4  11  23  42  57  91 125 161 203 243 300 360
#     4  11  18  34  57  90 118 160 196 245 308 357
#
# _framework density 25.598386999999999
#
# number of rings (size 3 to 8) (size 9 to 14) (size 15 to 20)
#    0.750    0.750    3.750    1.500    3.500    1.000 
#    0.000    2.500    0.000    3.750    0.000    0.000 
#    0.000    0.000    0.000    0.000    0.000    0.000 
#
# Total GULP energy -89271.258631 kJ/mol
# GULP energy per Si atom -5579.453664 kJ/mol
# Density = 2.554012 g / cm^3
# Si number density = 25.598387 Si / 1000 Ang^3
#
#
#
# Elastic Constant Matrix: (Units=GPa)
#
#
# Indices 1 2 3 4 5 6 
#
# 1 43.8502 19.5046 23.2255 -17.9803 -19.6084 -7.8122
# 2 19.5046 152.7696 50.2522 13.1546 -3.1987 -2.0961
# 3 23.2255 50.2522 169.1691 25.7395 -43.2789 5.2131
# 4 -17.9803 13.1546 25.7395 38.5198 -1.5702 -8.7943
# 5 -19.6084 -3.1987 -43.2789 -1.5702 42.8235 0.0558
# 6 -7.8122 -2.0961 5.2131 -8.7943 0.0558 19.7604
#
#
#
# Elastic Compliance Matrix: (Units=1/GPa)
#
#
# Indices 1 2 3 4 5 6 
#
# 1 0.094042 -0.011712 -0.016064 0.076751 0.028669 0.074251
# 2 -0.011712 0.008925 -0.000756 -0.010061 -0.005819 -0.007945
# 3 -0.016064 -0.000756 0.013405 -0.020320 0.005415 -0.019026
# 4 0.076751 -0.010061 -0.020320 0.097288 0.017322 0.077886
# 5 0.028669 -0.005819 0.005415 0.017322 0.042130 0.016878
# 6 0.074251 -0.007945 -0.019026 0.077886 0.016878 0.118753
#
#
# Mechanical properties :
#
#
# Convention : Reuss Voigt Hill
#
# Bulk Modulus (GPa) = 16.86136 61.30593 39.08365
# Shear Modulus (GPa) = 11.07720 38.40784 24.74252
#
# Velocity S-wave (km/s) = 2.08247 3.87770 3.11234
# Velocity P-wave (km/s) = 3.51901 6.63701 5.31194
#
# Compressibility (1/GPa) = 0.05930720
#
# Stress axis : x y z
#
# Youngs Moduli (GPa) = 10.63356 112.03900 74.60012
#
# Poissons Ratio (x) = 1.31225 1.19834
# Poissons Ratio (y) = 0.12455 0.05643
# Poissons Ratio (z) = 0.17081 0.08475
#
# Static dielectric constant tensor:
#      x y z
#    x 2.053810 -0.043750 0.042470 
#    y -0.043750 2.039830 0.038340 
#    z 0.042470 0.038340 2.122800 
# 
# From -- ./inp_files/532274.got.cif
#   From: 2010.05.17/outbox.cif.g08.bks.cpg/sg2_267_cif.got.tgz:532274.got - 2010.06.03 11:33:40.
