data_PCOD9082598
_publ_section_title
;
Structure prediction by ZEFSAII (Michael W. Deem and Ramdas Pophale) SiO2 
 PCOD9082598
Probable space group: P -1
;
_chemical_formula_sum "Si O2"
_cell_formula_units_Z 14
_cell_length_a 7.534962
_cell_length_b 13.683805
_cell_length_c 9.683751
_cell_angle_alpha 140.760232
_cell_angle_beta 112.422633
_cell_angle_gamma 57.358861
_cell_volume 530.606182
_symmetry_space_group_name_H-M "P -1"
_symmetry_group_IT_number 2
_symmetry_cell_setting 'triclinic'
loop_
_space_group_symop_operation_xyz
x,y,z
-x,-y,-z
loop_
_atom_site_type_symbol
_atom_site_label
_atom_site_fract_x
_atom_site_fract_y
_atom_site_fract_z
Si Si1 0.611893 0.664590 0.894938
Si Si2 0.981986 0.145699 0.458268
Si Si3 0.226800 0.934981 0.923376
Si Si4 0.297005 0.512677 0.713217
Si Si5 0.224728 0.757560 0.207512
Si Si6 0.823265 0.703765 0.734544
Si Si7 0.633202 0.798396 0.341349
O O1 0.499925 0.538272 0.749257
O O2 0.775535 0.625964 0.776450
O O3 0.411480 0.834140 0.972692
O O4 0.690798 0.705305 0.107842
O O5 0.153362 0.214482 0.538320
O O6 0.895548 0.225959 0.668394
O O7 0.101028 0.939357 0.291425
O O8 0.796434 0.176988 0.330695
O O9 0.254252 0.096802 0.050764
O O10 0.000000 0.000000 0.000000
O O11 0.302487 0.335405 0.469433
O O12 0.073281 0.630607 0.700158
O O13 0.245862 0.601402 0.945975
O O14 0.460432 0.740485 0.289459
O O15 0.500000 0.000000 0.500000
#
# Coordination Sequence:
#
# PCOD9082598 Si02
#       7
#     2   2   2   2   2   2   2
#     4  11  22  38  59  92 119 147 198 246 294 346
#     4  10  19  33  56  84 115 148 192 238 288 340
#     4  12  22  39  57  91 127 148 188 249 302 340
#     4  10  20  39  60  86 117 153 203 240 281 352
#     4   9  17  33  54  82 109 144 196 239 276 334
#     4  11  22  36  59  86 118 163 189 238 297 348
#     4   9  18  31  54  82 111 146 187 237 283 334
#
# _framework density 26.384917000000002
#
# number of rings (size 3 to 8) (size 9 to 14) (size 15 to 20)
#    0.000    1.714    2.857    3.429    4.000    0.000 
#    2.571    0.000    0.000    1.714    3.714    4.000 
#    0.000    0.000    0.000    0.000    0.000    0.000 
#
# Total GULP energy -78437.133766 kJ/mol
# GULP energy per Si atom -5602.652412 kJ/mol
# Density = 2.632486 g / cm^3
# Si number density = 26.384917 Si / 1000 Ang^3
#
#
#
# Elastic Constant Matrix: (Units=GPa)
#
#
# Indices 1 2 3 4 5 6 
#
# 1 118.0188 27.5217 65.9485 17.2918 0.6608 21.5596
# 2 27.5217 43.3797 21.5388 -4.5977 0.2053 -0.3735
# 3 65.9485 21.5388 160.3403 2.0916 31.0850 11.0269
# 4 17.2918 -4.5977 2.0916 15.4666 -1.8064 -4.6570
# 5 0.6608 0.2053 31.0850 -1.8064 48.0320 -5.2608
# 6 21.5596 -0.3735 11.0269 -4.6570 -5.2608 38.5007
#
#
#
# Elastic Compliance Matrix: (Units=1/GPa)
#
#
# Indices 1 2 3 4 5 6 
#
# 1 0.023545 -0.015693 -0.006184 -0.034788 0.000720 -0.015675
# 2 -0.015693 0.036849 -0.000471 0.033051 0.003107 0.013702
# 3 -0.006184 -0.000471 0.009944 0.004820 -0.006128 0.000356
# 4 -0.034788 0.033051 0.004820 0.123657 0.005608 0.034144
# 5 0.000720 0.003107 -0.006128 0.005608 0.025582 0.005556
# 6 -0.015675 0.013702 0.000356 0.034144 0.005556 0.039672
#
#
# Mechanical properties :
#
#
# Convention : Reuss Voigt Hill
#
# Bulk Modulus (GPa) = 38.99872 61.30629 50.15251
# Shear Modulus (GPa) = 16.00047 34.18184 25.09116
#
# Velocity S-wave (km/s) = 2.46524 3.60322 3.08712
# Velocity P-wave (km/s) = 4.78707 6.37156 5.63528
#
# Compressibility (1/GPa) = 0.02564187
#
# Stress axis : x y z
#
# Youngs Moduli (GPa) = 42.47249 27.13810 100.56125
#
# Poissons Ratio (x) = 0.42587 0.62185
# Poissons Ratio (y) = 0.66651 0.04740
# Poissons Ratio (z) = 0.26264 0.01279
#
# Static dielectric constant tensor:
#      x y z
#    x 1.995620 0.010440 -0.025310 
#    y 0.010440 2.188190 -0.023400 
#    z -0.025310 -0.023400 2.060510 
# 
# From -- ./inp_files/204822.got.cif
#   From: 2010.05.17/outbox.cif.g08.bks.cpg/sg2_103_cif.got.tgz:204822.got - 2010.06.03 11:33:40.
