data_PCOD9082206
_publ_section_title
;
Structure prediction by ZEFSAII (Michael W. Deem and Ramdas Pophale) SiO2 
 PCOD9082206
Probable space group: P -1
;
_chemical_formula_sum "Si O2"
_cell_formula_units_Z 16
_cell_length_a 10.090679
_cell_length_b 10.214921
_cell_length_c 8.886288
_cell_angle_alpha 66.122159
_cell_angle_beta 128.250703
_cell_angle_gamma 86.107421
_cell_volume 589.512800
_symmetry_space_group_name_H-M "P -1"
_symmetry_group_IT_number 2
_symmetry_cell_setting 'triclinic'
loop_
_space_group_symop_operation_xyz
x,y,z
-x,-y,-z
loop_
_atom_site_type_symbol
_atom_site_label
_atom_site_fract_x
_atom_site_fract_y
_atom_site_fract_z
Si Si1 0.856526 0.606799 0.008400
Si Si2 0.867247 0.937840 0.165471
Si Si3 0.868677 0.706012 0.514810
Si Si4 0.447744 0.757933 0.730706
Si Si5 0.231207 0.837875 0.263767
Si Si6 0.784773 0.230604 0.184923
Si Si7 0.342373 0.103671 0.466643
Si Si8 0.687083 0.430941 0.761516
O O1 0.668716 0.667363 0.953074
O O2 0.817346 0.770763 0.815957
O O3 0.811367 0.511040 0.883727
O O4 0.028747 0.485394 0.290463
O O5 0.845606 0.788497 0.294642
O O6 0.068015 0.900758 0.245555
O O7 0.830163 0.062148 0.217413
O O8 0.743054 0.036208 0.888436
O O9 0.020895 0.757140 0.672729
O O10 0.683444 0.787845 0.452016
O O11 0.417758 0.747483 0.536161
O O12 0.318307 0.704213 0.760615
O O13 0.348835 0.944449 0.619549
O O14 0.186375 0.720991 0.181992
O O15 0.639911 0.356677 0.909456
O O16 0.500000 0.000000 0.500000
O O17 0.500000 0.500000 0.500000
#
# Coordination Sequence:
#
# PCOD9082206 Si02
#       8
#     2   2   2   2   2   2   2   2
#     4  10  23  36  58  90 119 163 198 237 298 351
#     4  10  19  33  52  90 120 151 191 240 303 344
#     4  11  19  35  60  85 124 150 198 254 288 349
#     4  11  19  37  62  90 118 148 204 248 292 354
#     4  10  20  32  57  86 122 153 187 241 301 360
#     4  10  20  32  60  93 114 152 199 246 305 344
#     4  10  22  38  60  86 117 160 207 244 285 352
#     4  10  20  36  54  83 123 157 186 243 302 355
#
# _framework density 27.141054
#
# number of rings (size 3 to 8) (size 9 to 14) (size 15 to 20)
#    0.000    1.750    3.750    1.500    0.000    4.000 
#    0.000    0.000    0.000   11.250    0.000    0.000 
#    0.000    0.000    0.000    0.000    0.000    0.000 
#
# Total GULP energy -89091.900680 kJ/mol
# GULP energy per Si atom -5568.243792 kJ/mol
# Density = 2.707928 g / cm^3
# Si number density = 27.141054 Si / 1000 Ang^3
#
#
#
# Elastic Constant Matrix: (Units=GPa)
#
#
# Indices 1 2 3 4 5 6 
#
# 1 99.6865 10.9903 45.5788 4.4618 -13.3872 -43.3481
# 2 10.9903 104.5004 33.9766 3.4294 -0.4141 -6.8295
# 3 45.5788 33.9766 178.0356 -8.0995 -13.3255 -23.5513
# 4 4.4618 3.4294 -8.0995 39.4371 -4.0758 -3.1700
# 5 -13.3872 -0.4141 -13.3255 -4.0758 44.8081 8.5121
# 6 -43.3481 -6.8295 -23.5513 -3.1700 8.5121 33.0723
#
#
#
# Elastic Compliance Matrix: (Units=1/GPa)
#
#
# Indices 1 2 3 4 5 6 
#
# 1 0.024135 0.000164 -0.002241 -0.000726 0.000820 0.029792
# 2 0.000164 0.010306 -0.001995 -0.001323 -0.000757 0.000991
# 3 -0.002241 -0.001995 0.006959 0.002108 0.001293 0.001476
# 4 -0.000726 -0.001323 0.002108 0.026410 0.002383 0.002195
# 5 0.000820 -0.000757 0.001293 0.002383 0.023934 -0.004092
# 6 0.029792 0.000991 0.001476 0.002195 -0.004092 0.071805
#
#
# Mechanical properties :
#
#
# Convention : Reuss Voigt Hill
#
# Bulk Modulus (GPa) = 30.06787 62.59043 46.32915
# Shear Modulus (GPa) = 27.35571 42.90860 35.13215
#
# Velocity S-wave (km/s) = 3.17820 3.98043 3.60172
# Velocity P-wave (km/s) = 4.95685 6.65104 5.86544
#
# Compressibility (1/GPa) = 0.03325809
#
# Stress axis : x y z
#
# Youngs Moduli (GPa) = 41.43296 97.03299 143.69584
#
# Poissons Ratio (x) = -0.01595 0.32200
# Poissons Ratio (y) = -0.00681 0.28661
# Poissons Ratio (z) = 0.09284 0.19354
#
# Static dielectric constant tensor:
#      x y z
#    x 2.256130 0.081740 -0.023550 
#    y 0.081740 2.203900 -0.145090 
#    z -0.023550 -0.145090 2.327160 
# 
# From -- ./inp_files/266825.got.cif
#   From: 2010.05.17/outbox.cif.g08.bks.cpg/sg2_134_cif.got.tgz:266825.got - 2010.06.03 11:33:40.
