data_PCOD9082484
_publ_section_title
;
Structure prediction by ZEFSAII (Michael W. Deem and Ramdas Pophale) SiO2 
 PCOD9082484
Probable space group: P -1
;
_chemical_formula_sum "Si O2"
_cell_formula_units_Z 16
_cell_length_a 16.092186
_cell_length_b 8.364856
_cell_length_c 9.096835
_cell_angle_alpha 113.752618
_cell_angle_beta 62.422714
_cell_angle_gamma 63.347292
_cell_volume 618.258945
_symmetry_space_group_name_H-M "P -1"
_symmetry_group_IT_number 2
_symmetry_cell_setting 'triclinic'
loop_
_space_group_symop_operation_xyz
x,y,z
-x,-y,-z
loop_
_atom_site_type_symbol
_atom_site_label
_atom_site_fract_x
_atom_site_fract_y
_atom_site_fract_z
Si Si1 0.109906 0.500768 0.928281
Si Si2 0.442572 0.894296 0.455521
Si Si3 0.204300 0.536284 0.417707
Si Si4 0.128694 0.854620 0.053131
Si Si5 0.315046 0.890038 0.823475
Si Si6 0.289269 0.052247 0.222433
Si Si7 0.945319 0.467005 0.708953
Si Si8 0.695966 0.348648 0.855725
O O1 0.272592 0.178777 0.652043
O O2 0.126377 0.668185 0.911671
O O3 0.046268 0.657309 0.197385
O O4 0.000000 0.500000 0.000000
O O5 0.425670 0.785567 0.565962
O O6 0.500000 0.000000 0.500000
O O7 0.555338 0.654527 0.155399
O O8 0.301569 0.243324 0.314241
O O9 0.160209 0.489094 0.292460
O O10 0.274585 0.606430 0.311039
O O11 0.037825 0.826086 0.717757
O O12 0.178234 0.807633 0.170812
O O13 0.259520 0.774367 0.837363
O O14 0.361526 0.896018 0.947647
O O15 0.156280 0.220904 0.046613
O O16 0.106087 0.291508 0.454030
O O17 0.330086 0.821882 0.199827
#
# Coordination Sequence:
#
# PCOD9082484 Si02
#       8
#     2   2   2   2   2   2   2   2
#     4  11  24  38  57  82 116 162 199 231 284 350
#     4  11  21  39  54  81 125 154 193 236 284 357
#     4  11  17  32  56  92 119 137 191 254 296 330
#     4  11  18  33  57  88 116 144 201 239 296 337
#     4   9  18  29  53  86 116 147 180 244 294 332
#     4  10  18  28  52  87 118 135 183 247 302 327
#     4  10  15  32  52  77 115 140 182 244 283 328
#     4  11  20  30  53  88 116 155 177 233 306 347
#
# _framework density 25.879125999999999
#
# number of rings (size 3 to 8) (size 9 to 14) (size 15 to 20)
#    0.000    1.500    6.250    3.375    0.000    2.000 
#    2.250    2.500    0.000    3.000    0.000    4.375 
#    0.000    0.000    0.000    0.000    0.000    0.000 
#
# Total GULP energy -89237.301836 kJ/mol
# GULP energy per Si atom -5577.331365 kJ/mol
# Density = 2.582022 g / cm^3
# Si number density = 25.879126 Si / 1000 Ang^3
#
#
#
# Elastic Constant Matrix: (Units=GPa)
#
#
# Indices 1 2 3 4 5 6 
#
# 1 67.3425 42.6069 23.9097 13.2255 -4.0807 17.6314
# 2 42.6069 154.4883 41.3420 3.9320 -4.8227 47.4904
# 3 23.9097 41.3420 104.9181 12.2935 -16.4652 17.2336
# 4 13.2255 3.9320 12.2935 50.5152 3.2309 10.6170
# 5 -4.0807 -4.8227 -16.4652 3.2309 21.2346 -4.1054
# 6 17.6314 47.4904 17.2336 10.6170 -4.1054 36.6216
#
#
#
# Elastic Compliance Matrix: (Units=1/GPa)
#
#
# Indices 1 2 3 4 5 6 
#
# 1 0.019502 -0.004231 -0.001746 -0.004106 0.001730 -0.001696
# 2 -0.004231 0.012648 -0.002621 0.004070 -0.003434 -0.014696
# 3 -0.001746 -0.002621 0.012783 -0.003096 0.009488 0.000185
# 4 -0.004106 0.004070 -0.003096 0.023825 -0.007750 -0.009620
# 5 0.001730 -0.003434 0.009488 -0.007750 0.056681 0.007756
# 6 -0.001696 -0.014696 0.000185 -0.009620 0.007756 0.050752
#
#
# Mechanical properties :
#
#
# Convention : Reuss Voigt Hill
#
# Bulk Modulus (GPa) = 36.05393 60.27402 48.16398
# Shear Modulus (GPa) = 24.67502 36.26697 30.47100
#
# Velocity S-wave (km/s) = 3.09118 3.74759 3.43510
# Velocity P-wave (km/s) = 5.16744 6.48591 5.86385
#
# Compressibility (1/GPa) = 0.02773623
#
# Stress axis : x y z
#
# Youngs Moduli (GPa) = 51.27774 79.06148 78.22695
#
# Poissons Ratio (x) = 0.33454 0.13656
# Poissons Ratio (y) = 0.21698 0.20507
# Poissons Ratio (z) = 0.08952 0.20726
#
# Static dielectric constant tensor:
#      x y z
#    x 2.099530 -0.094710 0.046390 
#    y -0.094710 2.322610 -0.043300 
#    z 0.046390 -0.043300 2.000760 
# 
# From -- ./inp_files/254679.got.cif
#   From: 2010.05.17/outbox.cif.g08.bks.cpg/sg2_128_cif.got.tgz:254679.got - 2010.06.03 11:33:40.
