data_PCOD9082412
_publ_section_title
;
Structure prediction by ZEFSAII (Michael W. Deem and Ramdas Pophale) SiO2 
 PCOD9082412
Probable space group: P -1
;
_chemical_formula_sum "Si O2"
_cell_formula_units_Z 16
_cell_length_a 15.905849
_cell_length_b 16.751367
_cell_length_c 5.014841
_cell_angle_alpha 84.203530
_cell_angle_beta 86.044939
_cell_angle_gamma 35.783745
_cell_volume 777.112375
_symmetry_space_group_name_H-M "P -1"
_symmetry_group_IT_number 2
_symmetry_cell_setting 'triclinic'
loop_
_space_group_symop_operation_xyz
x,y,z
-x,-y,-z
loop_
_atom_site_type_symbol
_atom_site_label
_atom_site_fract_x
_atom_site_fract_y
_atom_site_fract_z
Si Si1 0.748174 0.498746 0.871404
Si Si2 0.674437 0.787241 0.186295
Si Si3 0.575306 0.206609 0.246013
Si Si4 0.216434 0.204153 0.355518
Si Si5 0.368803 0.937395 0.214925
Si Si6 0.416088 0.622812 0.765658
Si Si7 0.923233 0.484422 0.158638
Si Si8 0.695784 0.434450 0.426573
O O1 0.870794 0.464281 0.949130
O O2 0.711614 0.475877 0.149927
O O3 0.599116 0.659697 0.784851
O O4 0.781966 0.411464 0.652589
O O5 0.707943 0.831740 0.372742
O O6 0.513847 0.879160 0.209362
O O7 0.782307 0.629806 0.279815
O O8 0.714088 0.790108 0.884587
O O9 0.614474 0.147842 0.551656
O O10 0.624604 0.259307 0.150339
O O11 0.641106 0.092864 0.063500
O O12 0.046070 0.351599 0.358869
O O13 0.245346 0.092629 0.284199
O O14 0.534103 0.556492 0.539829
O O15 0.289881 0.668247 0.642443
O O16 0.500000 0.500000 0.000000
O O17 0.000000 0.500000 0.000000
#
# Coordination Sequence:
#
# PCOD9082412 Si02
#       8
#     2   2   2   2   2   2   2   2
#     4  11  21  36  55  84 118 152 194 236 293 340
#     4  11  22  39  61  81 112 151 203 250 291 336
#     4  11  22  34  58  87 119 151 188 235 298 349
#     4  11  24  41  56  83 113 159 199 242 293 338
#     4  12  23  37  58  84 119 154 193 239 292 358
#     4  10  19  33  54  87 125 147 180 238 308 347
#     4  10  24  40  61  86 118 155 204 250 287 332
#     4  10  20  32  55  82 120 151 181 234 300 356
#
# _framework density 20.589041999999999
#
# number of rings (size 3 to 8) (size 9 to 14) (size 15 to 20)
#    0.000    1.250    3.750    4.125    3.500    2.000 
#    0.000    0.000    0.000    0.000    0.000    5.250 
#    0.000    0.000    0.000    0.000    0.000    0.000 
#
# Total GULP energy -89378.671216 kJ/mol
# GULP energy per Si atom -5586.166951 kJ/mol
# Density = 2.054218 g / cm^3
# Si number density = 20.589042 Si / 1000 Ang^3
#
#
#
# Elastic Constant Matrix: (Units=GPa)
#
#
# Indices 1 2 3 4 5 6 
#
# 1 98.9530 7.6504 7.4748 2.0299 14.2899 24.5670
# 2 7.6504 43.3888 -11.6927 0.2483 -3.4744 10.0722
# 3 7.4748 -11.6927 68.3776 11.2245 -7.0558 -0.0602
# 4 2.0299 0.2483 11.2245 20.6673 16.4715 3.1614
# 5 14.2899 -3.4744 -7.0558 16.4715 30.2049 10.7189
# 6 24.5670 10.0722 -0.0602 3.1614 10.7189 21.6139
#
#
#
# Elastic Compliance Matrix: (Units=1/GPa)
#
#
# Indices 1 2 3 4 5 6 
#
# 1 0.015012 -0.001719 -0.004716 0.010800 -0.009654 -0.013067
# 2 -0.001719 0.038287 0.016800 -0.036482 0.039762 -0.030224
# 3 -0.004716 0.016800 0.030517 -0.048681 0.043881 -0.017026
# 4 0.010800 -0.036482 -0.048681 0.170427 -0.129123 0.043698
# 5 -0.009654 0.039762 0.043881 -0.129123 0.144233 -0.060077
# 6 -0.013067 -0.030224 -0.017026 0.043698 -0.060077 0.098558
#
#
# Mechanical properties :
#
#
# Convention : Reuss Voigt Hill
#
# Bulk Modulus (GPa) = 9.56507 24.17605 16.87056
# Shear Modulus (GPa) = 9.78182 28.31634 19.04908
#
# Velocity S-wave (km/s) = 2.18204 3.71254 3.04502
# Velocity P-wave (km/s) = 3.31726 5.49044 4.53592
#
# Compressibility (1/GPa) = 0.10454708
#
# Stress axis : x y z
#
# Youngs Moduli (GPa) = 66.61542 26.11849 32.76820
#
# Poissons Ratio (x) = 0.04490 0.15452
# Poissons Ratio (y) = 0.11453 -0.55051
# Poissons Ratio (z) = 0.31413 -0.43880
#
# Static dielectric constant tensor:
#      x y z
#    x 1.776390 0.020880 0.007250 
#    y 0.020880 1.844370 0.042950 
#    z 0.007250 0.042950 1.774270 
# 
# From -- ./inp_files/97003.got.cif
#   From: 2010.05.17/outbox.cif.g08.bks.cpg/sg2_49_cif.got.tgz:97003.got - 2010.06.03 11:33:40.
