data_PCOD9082137
_publ_section_title
;
Structure prediction by ZEFSAII (Michael W. Deem and Ramdas Pophale) SiO2 
 PCOD9082137
Probable space group: P -1
;
_chemical_formula_sum "Si O2"
_cell_formula_units_Z 16
_cell_length_a 11.831331
_cell_length_b 9.876520
_cell_length_c 14.104866
_cell_angle_alpha 109.031481
_cell_angle_beta 35.161829
_cell_angle_gamma 83.564740
_cell_volume 644.678054
_symmetry_space_group_name_H-M "P -1"
_symmetry_group_IT_number 2
_symmetry_cell_setting 'triclinic'
loop_
_space_group_symop_operation_xyz
x,y,z
-x,-y,-z
loop_
_atom_site_type_symbol
_atom_site_label
_atom_site_fract_x
_atom_site_fract_y
_atom_site_fract_z
Si Si1 0.550076 0.170174 0.307175
Si Si2 0.203212 0.135961 0.787495
Si Si3 0.227790 0.053048 0.072082
Si Si4 0.844915 0.874449 0.509096
Si Si5 0.672058 0.485736 0.793629
Si Si6 0.638510 0.080539 0.861144
Si Si7 0.210668 0.614548 0.041660
Si Si8 0.998564 0.592924 0.829246
O O1 0.380898 0.107856 0.385686
O O2 0.320580 0.395424 0.551866
O O3 0.756646 0.030537 0.218437
O O4 0.697947 0.110437 0.090511
O O5 0.961661 0.278128 0.910569
O O6 0.500000 0.000000 0.500000
O O7 0.114755 0.291225 0.966651
O O8 0.064234 0.255633 0.172235
O O9 0.144255 0.045930 0.231990
O O10 0.498544 0.001908 0.907523
O O11 0.020252 0.698500 0.428145
O O12 0.059569 0.795732 0.261255
O O13 0.741129 0.065058 0.680892
O O14 0.500000 0.500000 0.000000
O O15 0.594846 0.691621 0.894415
O O16 0.529429 0.491251 0.799380
O O17 0.151236 0.484974 0.093719
#
# Coordination Sequence:
#
# PCOD9082137 Si02
#       8
#     2   2   2   2   2   2   2   2
#     4   9  18  32  52  79 103 132 168 218 260 298
#     4  11  19  32  52  80 105 131 171 215 263 306
#     4   9  19  32  53  78 103 134 177 214 257 297
#     4   9  18  33  50  74 105 137 172 199 253 308
#     4  10  21  35  48  74 110 141 173 203 250 314
#     4  10  19  34  52  75 105 141 173 213 251 301
#     4  10  20  34  49  77 109 139 167 208 258 313
#     4  10  19  33  52  75 106 132 166 218 261 301
#
# _framework density 24.81859
#
# number of rings (size 3 to 8) (size 9 to 14) (size 15 to 20)
#    0.000    2.250    2.500    2.625    0.000    3.000 
#    2.250    5.625    0.000    3.000    0.000    5.250 
#    0.000    0.000    0.000    0.000    0.000    0.000 
#
# Total GULP energy -89153.004191 kJ/mol
# GULP energy per Si atom -5572.062762 kJ/mol
# Density = 2.476210 g / cm^3
# Si number density = 24.818590 Si / 1000 Ang^3
#
#
#
# Elastic Constant Matrix: (Units=GPa)
#
#
# Indices 1 2 3 4 5 6 
#
# 1 117.4193 43.8144 48.3642 13.7148 -1.4379 -40.0461
# 2 43.8144 85.8110 25.7159 19.2540 5.7396 -10.3283
# 3 48.3642 25.7159 99.0214 29.0787 21.8341 -9.8783
# 4 13.7148 19.2540 29.0787 30.3508 -9.3334 -5.1644
# 5 -1.4379 5.7396 21.8341 -9.3334 46.1285 -5.2971
# 6 -40.0461 -10.3283 -9.8783 -5.1644 -5.2971 40.5030
#
#
#
# Elastic Compliance Matrix: (Units=1/GPa)
#
#
# Indices 1 2 3 4 5 6 
#
# 1 0.025214 -0.010860 -0.017227 0.021192 0.017211 0.022912
# 2 -0.010860 0.019018 0.007720 -0.019344 -0.011184 -0.007934
# 3 -0.017227 0.007720 0.032075 -0.038578 -0.026277 -0.015597
# 4 0.021192 -0.019344 -0.038578 0.089575 0.042156 0.023546
# 5 0.017211 -0.011184 -0.026277 0.042156 0.046784 0.019250
# 6 0.022912 -0.007934 -0.015597 0.023546 0.019250 0.047036
#
#
# Mechanical properties :
#
#
# Convention : Reuss Voigt Hill
#
# Bulk Modulus (GPa) = 28.11101 59.78227 43.94664
# Shear Modulus (GPa) = 16.01053 35.68694 25.84874
#
# Velocity S-wave (km/s) = 2.54264 3.79609 3.23074
# Velocity P-wave (km/s) = 4.46892 6.58436 5.62694
#
# Compressibility (1/GPa) = 0.03557326
#
# Stress axis : x y z
#
# Youngs Moduli (GPa) = 39.65998 52.58090 31.17689
#
# Poissons Ratio (x) = 0.57103 0.53710
# Poissons Ratio (y) = 0.43071 -0.24069
# Poissons Ratio (z) = 0.68324 -0.40594
#
# Static dielectric constant tensor:
#      x y z
#    x 2.027050 -0.016150 0.014390 
#    y -0.016150 2.238730 -0.259710 
#    z 0.014390 -0.259710 2.272870 
# 
# From -- ./inp_files/518078.got.cif
#   From: 2010.05.17/outbox.cif.g08.bks.cpg/sg2_260_cif.got.tgz:518078.got - 2010.06.03 11:33:40.
