data_PCOD9082429
_publ_section_title
;
Structure prediction by ZEFSAII (Michael W. Deem and Ramdas Pophale) SiO2 
 PCOD9082429
Probable space group: P -1
;
_chemical_formula_sum "Si O2"
_cell_formula_units_Z 16
_cell_length_a 19.026482
_cell_length_b 12.645129
_cell_length_c 12.928631
_cell_angle_alpha 148.182649
_cell_angle_beta 44.179510
_cell_angle_gamma 143.284866
_cell_volume 973.984338
_symmetry_space_group_name_H-M "P -1"
_symmetry_group_IT_number 2
_symmetry_cell_setting 'triclinic'
loop_
_space_group_symop_operation_xyz
x,y,z
-x,-y,-z
loop_
_atom_site_type_symbol
_atom_site_label
_atom_site_fract_x
_atom_site_fract_y
_atom_site_fract_z
Si Si1 0.471418 0.703268 0.685406
Si Si2 0.654965 0.572516 0.798013
Si Si3 0.652446 0.243125 0.937287
Si Si4 0.836398 0.097071 0.002607
Si Si5 0.976358 0.186730 0.730200
Si Si6 0.081447 0.484302 0.054610
Si Si7 0.542123 0.294325 0.889546
Si Si8 0.352905 0.751695 0.645906
O O1 0.500000 0.500000 0.500000
O O2 0.394922 0.679715 0.645005
O O3 0.591682 0.960275 0.764069
O O4 0.401550 0.707101 0.863130
O O5 0.625154 0.430717 0.818520
O O6 0.670473 0.430001 0.571357
O O7 0.765667 0.838383 0.909657
O O8 0.543780 0.604085 0.918341
O O9 0.793329 0.387247 0.917265
O O10 0.611041 0.315709 0.939073
O O11 0.864764 0.076514 0.835031
O O12 0.758065 0.216356 0.190550
O O13 0.967481 0.271064 0.054531
O O14 0.955460 0.330426 0.784833
O O15 0.000000 0.000000 0.500000
O O16 0.081470 0.367214 0.846433
O O17 0.458703 0.015485 0.723147
#
# Coordination Sequence:
#
# PCOD9082429 Si02
#       8
#     2   2   2   2   2   2   2   2
#     4  10  21  33  51  81 103 139 174 205 268 321
#     4  10  19  34  58  77 104 135 182 223 253 306
#     4  10  20  37  52  71 116 138 165 219 262 314
#     4   9  20  32  50  81 102 133 178 215 260 307
#     4   9  19  33  51  74 104 138 175 211 254 310
#     4   9  20  34  49  76 106 139 170 209 264 314
#     4   9  20  36  53  80 101 141 179 215 264 305
#     4  10  19  33  55  77 109 134 171 223 264 307
#
# _framework density 16.427368000000001
#
# number of rings (size 3 to 8) (size 9 to 14) (size 15 to 20)
#    0.750    1.750    0.000    1.875    1.750    4.000 
#    0.000    0.625    0.000    0.750    0.000    0.000 
#    0.000    0.000    0.000    0.000    0.000    0.000 
#
# Total GULP energy -89127.518924 kJ/mol
# GULP energy per Si atom -5570.469933 kJ/mol
# Density = 1.638998 g / cm^3
# Si number density = 16.427368 Si / 1000 Ang^3
#
#
#
# Elastic Constant Matrix: (Units=GPa)
#
#
# Indices 1 2 3 4 5 6 
#
# 1 83.6909 72.6695 34.6758 9.8038 4.8933 -0.7081
# 2 72.6695 122.6464 46.3050 7.6263 2.0485 4.6162
# 3 34.6758 46.3050 115.1747 -2.4783 -13.2531 -7.2816
# 4 9.8038 7.6263 -2.4783 14.1691 -4.0251 -0.7751
# 5 4.8933 2.0485 -13.2531 -4.0251 13.6353 4.4199
# 6 -0.7081 4.6162 -7.2816 -0.7751 4.4199 29.3138
#
#
#
# Elastic Compliance Matrix: (Units=1/GPa)
#
#
# Indices 1 2 3 4 5 6 
#
# 1 0.030849 -0.014398 -0.006272 -0.020865 -0.022558 0.004304
# 2 -0.014398 0.018012 -0.003091 -0.000301 0.000685 -0.004063
# 3 -0.006272 -0.003091 0.014596 0.014531 0.020799 0.001209
# 4 -0.020865 -0.000301 0.014531 0.102545 0.052598 -0.002066
# 5 -0.022558 0.000685 0.020799 0.052598 0.121079 -0.012351
# 6 0.004304 -0.004063 0.001209 -0.002066 -0.012351 0.036966
#
#
# Mechanical properties :
#
#
# Convention : Reuss Voigt Hill
#
# Bulk Modulus (GPa) = 62.75626 69.86805 66.31215
# Shear Modulus (GPa) = 13.26683 22.61442 17.94062
#
# Velocity S-wave (km/s) = 2.84492 3.71432 3.30831
# Velocity P-wave (km/s) = 7.00547 7.81145 7.41941
#
# Compressibility (1/GPa) = 0.01593467
#
# Stress axis : x y z
#
# Youngs Moduli (GPa) = 32.41600 55.51855 68.51240
#
# Poissons Ratio (x) = 0.79938 0.42968
# Poissons Ratio (y) = 0.46674 0.21178
# Poissons Ratio (z) = 0.20330 0.17162
#
# Static dielectric constant tensor:
#      x y z
#    x 1.520360 0.010960 0.002910 
#    y 0.010960 1.576310 0.014200 
#    z 0.002910 0.014200 1.546330 
# 
# From -- ./inp_files/464946.got.cif
#   From: 2010.05.17/outbox.cif.g08.bks.cpg/sg2_233_cif.got.tgz:464946.got - 2010.06.03 11:33:40.
