data_PCOD9082363
_publ_section_title
;
Structure prediction by ZEFSAII (Michael W. Deem and Ramdas Pophale) SiO2 
 PCOD9082363
Probable space group: P -1
;
_chemical_formula_sum "Si O2"
_cell_formula_units_Z 16
_cell_length_a 7.687522
_cell_length_b 24.715277
_cell_length_c 9.382255
_cell_angle_alpha 149.658830
_cell_angle_beta 133.944468
_cell_angle_gamma 48.824611
_cell_volume 639.641077
_symmetry_space_group_name_H-M "P -1"
_symmetry_group_IT_number 2
_symmetry_cell_setting 'triclinic'
loop_
_space_group_symop_operation_xyz
x,y,z
-x,-y,-z
loop_
_atom_site_type_symbol
_atom_site_label
_atom_site_fract_x
_atom_site_fract_y
_atom_site_fract_z
Si Si1 0.417746 0.734201 0.493778
Si Si2 0.709041 0.916251 0.086444
Si Si3 0.706666 0.779343 0.397668
Si Si4 0.287609 0.577221 0.472397
Si Si5 0.256615 0.019222 0.260887
Si Si6 0.231509 0.804804 0.862611
Si Si7 0.811501 0.130522 0.557736
Si Si8 0.260069 0.429037 0.876330
O O1 0.354860 0.759536 0.679362
O O2 0.190164 0.791275 0.399630
O O3 0.532896 0.619684 0.230030
O O4 0.624182 0.807618 0.738580
O O5 0.480647 0.972838 0.179356
O O6 0.946847 0.882293 0.241004
O O7 0.768200 0.008170 0.220651
O O8 0.429120 0.820266 0.380205
O O9 0.737399 0.652455 0.169754
O O10 0.940719 0.809553 0.686802
O O11 0.736204 0.851790 0.436960
O O12 0.500000 0.500000 0.500000
O O13 0.313165 0.704091 0.785911
O O14 0.010561 0.564260 0.329425
O O15 0.299030 0.539245 0.226207
O O16 0.281761 0.928116 0.193848
O O17 0.000000 0.000000 0.000000
#
# Coordination Sequence:
#
# PCOD9082363 Si02
#       8
#     2   2   2   2   2   2   2   2
#     4  10  19  33  54  81 114 142 174 231 286 323
#     4   9  17  29  49  79 113 151 192 218 257 327
#     4   8  15  31  53  77 109 144 179 217 260 320
#     4  10  21  40  59  75 103 143 188 233 271 322
#     4   8  14  28  52  78 112 147 173 215 268 319
#     4   9  18  33  56  83 110 145 183 222 278 333
#     4   9  17  30  51  77 112 156 190 221 258 317
#     4   9  20  36  57  83 104 139 188 223 269 335
#
# _framework density 25.014030000000002
#
# number of rings (size 3 to 8) (size 9 to 14) (size 15 to 20)
#    0.000    3.000    0.000    0.375    0.000    3.500 
#    0.000    8.125    0.000   24.000    0.000    0.000 
#    0.000    0.000    0.000    0.000    0.000    0.000 
#
# Total GULP energy -89235.076521 kJ/mol
# GULP energy per Si atom -5577.192283 kJ/mol
# Density = 2.495710 g / cm^3
# Si number density = 25.014030 Si / 1000 Ang^3
#
#
#
# Elastic Constant Matrix: (Units=GPa)
#
#
# Indices 1 2 3 4 5 6 
#
# 1 119.8522 33.0205 21.7379 -3.4816 -5.9451 -34.7379
# 2 33.0205 169.4176 24.1981 -11.0357 21.6082 -7.2178
# 3 21.7379 24.1981 85.2342 18.5938 3.8788 5.1000
# 4 -3.4816 -11.0357 18.5938 41.1695 8.2619 11.7411
# 5 -5.9451 21.6082 3.8788 8.2619 24.8883 5.8097
# 6 -34.7379 -7.2178 5.1000 11.7411 5.8097 38.4388
#
#
#
# Elastic Compliance Matrix: (Units=1/GPa)
#
#
# Indices 1 2 3 4 5 6 
#
# 1 0.013086 -0.002173 -0.003120 -0.002169 0.003423 0.011978
# 2 -0.002173 0.008087 -0.002397 0.004905 -0.008724 -0.000306
# 3 -0.003120 -0.002397 0.014858 -0.007080 0.002165 -0.003406
# 4 -0.002169 0.004905 -0.007080 0.033601 -0.012862 -0.008420
# 5 0.003423 -0.008724 0.002165 -0.012862 0.053190 -0.002943
# 6 0.011978 -0.000306 -0.003406 -0.008420 -0.002943 0.040251
#
#
# Mechanical properties :
#
#
# Convention : Reuss Voigt Hill
#
# Bulk Modulus (GPa) = 48.41681 59.15747 53.78714
# Shear Modulus (GPa) = 26.97795 40.60249 33.79022
#
# Velocity S-wave (km/s) = 3.28763 4.03325 3.67938
# Velocity P-wave (km/s) = 5.81457 6.73725 6.29285
#
# Compressibility (1/GPa) = 0.02065398
#
# Stress axis : x y z
#
# Youngs Moduli (GPa) = 76.41504 123.64944 67.30280
#
# Poissons Ratio (x) = 0.26863 0.20998
# Poissons Ratio (y) = 0.16601 0.16129
# Poissons Ratio (z) = 0.23841 0.29633
#
# Static dielectric constant tensor:
#      x y z
#    x 2.039490 0.091890 -0.018760 
#    y 0.091890 2.067220 0.013930 
#    z -0.018760 0.013930 2.003760 
# 
# From -- ./inp_files/407460.got.cif
#   From: 2010.05.17/outbox.cif.g08.bks.cpg/sg2_204_cif.got.tgz:407460.got - 2010.06.03 11:33:40.
