data_PCOD9082625
_publ_section_title
;
Structure prediction by ZEFSAII (Michael W. Deem and Ramdas Pophale) SiO2 
 PCOD9082625
Probable space group: P -1
;
_chemical_formula_sum "Si O2"
_cell_formula_units_Z 16
_cell_length_a 7.533517
_cell_length_b 10.202178
_cell_length_c 9.580498
_cell_angle_alpha 76.961020
_cell_angle_beta 72.715417
_cell_angle_gamma 101.637910
_cell_volume 655.748802
_symmetry_space_group_name_H-M "P -1"
_symmetry_group_IT_number 2
_symmetry_cell_setting 'triclinic'
loop_
_space_group_symop_operation_xyz
x,y,z
-x,-y,-z
loop_
_atom_site_type_symbol
_atom_site_label
_atom_site_fract_x
_atom_site_fract_y
_atom_site_fract_z
Si Si1 0.541385 0.884169 0.172599
Si Si2 0.905216 0.123654 0.032120
Si Si3 0.570477 0.742910 0.909288
Si Si4 0.720500 0.484959 0.861241
Si Si5 0.954508 0.891743 0.705335
Si Si6 0.066851 0.667135 0.577782
Si Si7 0.071161 0.810446 0.289802
Si Si8 0.556037 0.388512 0.610080
O O1 0.309030 0.859153 0.240082
O O2 0.587280 0.768550 0.292072
O O3 0.676706 0.041402 0.127699
O O4 0.592683 0.841205 0.016102
O O5 0.002215 0.175113 0.142748
O O6 0.952361 0.218947 0.861834
O O7 0.000000 0.000000 0.000000
O O8 0.656612 0.609017 0.921765
O O9 0.722380 0.836314 0.740482
O O10 0.343318 0.652090 0.991001
O O11 0.613391 0.441879 0.744270
O O12 0.937258 0.555955 0.740723
O O13 0.074455 0.824085 0.589244
O O14 0.003068 0.057281 0.679515
O O15 0.981307 0.675345 0.439792
O O16 0.268239 0.641472 0.508139
O O17 0.500000 0.500000 0.500000
#
# Coordination Sequence:
#
# PCOD9082625 Si02
#       8
#     2   2   2   2   2   2   2   2
#     4  10  19  36  58  82 117 153 191 231 280 348
#     4  10  19  33  56  86 117 150 187 230 285 339
#     4   9  17  34  59  81 110 148 192 233 279 325
#     4   9  19  36  60  78 109 150 197 235 276 336
#     4  10  20  36  58  87 122 147 189 238 284 339
#     4  10  21  39  59  85 115 153 193 234 283 351
#     4  10  20  34  58  86 118 154 187 229 284 348
#     4  10  22  39  58  81 115 150 190 244 292 331
#
# _framework density 24.399585999999999
#
# number of rings (size 3 to 8) (size 9 to 14) (size 15 to 20)
#    0.000    2.250    2.500    1.125    0.000    2.000 
#    2.250    2.500    0.000    6.750    0.000    0.000 
#    0.000    0.000    0.000    0.000    0.000    0.000 
#
# Total GULP energy -89131.884006 kJ/mol
# GULP energy per Si atom -5570.742750 kJ/mol
# Density = 2.434405 g / cm^3
# Si number density = 24.399586 Si / 1000 Ang^3
#
#
#
# Elastic Constant Matrix: (Units=GPa)
#
#
# Indices 1 2 3 4 5 6 
#
# 1 59.2136 20.9854 33.5091 6.0241 -15.0816 -8.5679
# 2 20.9854 95.1975 28.6149 9.1539 -12.0893 -14.3065
# 3 33.5091 28.6149 87.8453 -4.8741 -5.3970 -16.2383
# 4 6.0241 9.1539 -4.8741 48.2136 -7.8264 -8.4750
# 5 -15.0816 -12.0893 -5.3970 -7.8264 33.3480 -0.7659
# 6 -8.5679 -14.3065 -16.2383 -8.4750 -0.7659 37.9341
#
#
#
# Elastic Compliance Matrix: (Units=1/GPa)
#
#
# Indices 1 2 3 4 5 6 
#
# 1 0.024745 -0.001456 -0.008305 -0.002000 0.008877 0.001217
# 2 -0.001456 0.012694 -0.002923 -0.001490 0.003188 0.002939
# 3 -0.008305 -0.002923 0.016578 0.003968 -0.001087 0.004983
# 4 -0.002000 -0.001490 0.003968 0.023525 0.004857 0.006039
# 5 0.008877 0.003188 -0.001087 0.004857 0.036226 0.004559
# 6 0.001217 0.002939 0.004983 0.006039 0.004559 0.031319
#
#
# Mechanical properties :
#
#
# Convention : Reuss Voigt Hill
#
# Bulk Modulus (GPa) = 34.90587 45.38611 40.14599
# Shear Modulus (GPa) = 27.77705 34.50896 31.14301
#
# Velocity S-wave (km/s) = 3.37771 3.76483 3.57651
# Velocity P-wave (km/s) = 5.43589 6.12700 5.79177
#
# Compressibility (1/GPa) = 0.02864847
#
# Stress axis : x y z
#
# Youngs Moduli (GPa) = 40.41293 78.77868 60.31930
#
# Poissons Ratio (x) = 0.11467 0.50097
# Poissons Ratio (y) = 0.05883 0.17632
# Poissons Ratio (z) = 0.33564 0.23028
#
# Static dielectric constant tensor:
#      x y z
#    x 2.113690 -0.008640 -0.035560 
#    y -0.008640 1.969370 -0.056140 
#    z -0.035560 -0.056140 2.038860 
# 
# From -- ./inp_files/176127.got.cif
#   From: 2010.05.17/outbox.cif.g08.bks.cpg/sg2_89_cif.got.tgz:176127.got - 2010.06.03 11:33:40.
