data_PCOD9082486
_publ_section_title
;
Structure prediction by ZEFSAII (Michael W. Deem and Ramdas Pophale) SiO2 
 PCOD9082486
Probable space group: P -1
;
_chemical_formula_sum "Si O2"
_cell_formula_units_Z 16
_cell_length_a 15.657022
_cell_length_b 11.284183
_cell_length_c 11.641359
_cell_angle_alpha 139.244950
_cell_angle_beta 55.651078
_cell_angle_gamma 94.574326
_cell_volume 847.121501
_symmetry_space_group_name_H-M "P -1"
_symmetry_group_IT_number 2
_symmetry_cell_setting 'triclinic'
loop_
_space_group_symop_operation_xyz
x,y,z
-x,-y,-z
loop_
_atom_site_type_symbol
_atom_site_label
_atom_site_fract_x
_atom_site_fract_y
_atom_site_fract_z
Si Si1 0.945942 0.972586 0.902049
Si Si2 0.548364 0.563567 0.398440
Si Si3 0.035455 0.723863 0.211527
Si Si4 0.086996 0.546282 0.304283
Si Si5 0.788677 0.111454 0.786899
Si Si6 0.797357 0.476709 0.260596
Si Si7 0.714960 0.932397 0.090802
Si Si8 0.195697 0.259554 0.350012
O O1 0.053281 0.746661 0.568938
O O2 0.829723 0.957780 0.009436
O O3 0.874073 0.218009 0.068350
O O4 0.000000 0.000000 0.000000
O O5 0.500000 0.500000 0.500000
O O6 0.659601 0.573412 0.374471
O O7 0.426926 0.804263 0.604368
O O8 0.634994 0.351231 0.083016
O O9 0.073095 0.618495 0.234377
O O10 0.114406 0.827168 0.214492
O O11 0.100593 0.545956 0.924931
O O12 0.872986 0.930799 0.484791
O O13 0.962828 0.545041 0.417269
O O14 0.226904 0.281473 0.022333
O O15 0.792262 0.958692 0.772306
O O16 0.766075 0.648879 0.512464
O O17 0.715246 0.824064 0.890625
#
# Coordination Sequence:
#
# PCOD9082486 Si02
#       8
#     2   2   2   2   2   2   2   2
#     4  11  20  34  56  81 110 139 182 230 276 321
#     4  11  19  36  54  79 109 150 178 216 277 330
#     4   9  18  35  57  78 105 146 187 225 263 315
#     4  10  20  34  53  78 111 146 178 224 277 314
#     4   9  17  33  53  75 102 140 181 218 267 308
#     4  11  21  34  57  86 109 141 188 222 268 324
#     4  11  20  35  53  78 117 144 175 220 280 326
#     4  10  19  33  55  84 110 136 180 236 272 311
#
# _framework density 18.88749
#
# number of rings (size 3 to 8) (size 9 to 14) (size 15 to 20)
#    0.000    1.750    2.500    7.500    0.000    2.500 
#    0.000    3.750    0.000    0.000    0.000   15.750 
#    0.000    0.000    0.000    0.000    0.000    0.000 
#
# Total GULP energy -89079.322106 kJ/mol
# GULP energy per Si atom -5567.457632 kJ/mol
# Density = 1.884450 g / cm^3
# Si number density = 18.887490 Si / 1000 Ang^3
#
#
#
# Elastic Constant Matrix: (Units=GPa)
#
#
# Indices 1 2 3 4 5 6 
#
# 1 60.4891 15.8009 37.1114 1.1438 4.8534 -13.7295
# 2 15.8009 74.7409 45.6489 15.1296 -4.2622 -11.1065
# 3 37.1114 45.6489 135.2448 13.7844 -17.9437 -16.0318
# 4 1.1438 15.1296 13.7844 34.4958 -11.1721 -3.7092
# 5 4.8534 -4.2622 -17.9437 -11.1721 28.7787 -0.1947
# 6 -13.7295 -11.1065 -16.0318 -3.7092 -0.1947 20.0568
#
#
#
# Elastic Compliance Matrix: (Units=1/GPa)
#
#
# Indices 1 2 3 4 5 6 
#
# 1 0.023432 -0.000081 -0.006132 0.000464 -0.007532 0.011106
# 2 -0.000081 0.018539 -0.005439 -0.006463 -0.003110 0.004637
# 3 -0.006132 -0.005439 0.012258 0.000624 0.008132 0.002782
# 4 0.000464 -0.006463 0.000624 0.036372 0.013501 0.004095
# 5 -0.007532 -0.003110 0.008132 0.013501 0.045887 0.002565
# 6 0.011106 0.004637 0.002782 0.004095 0.002565 0.063035
#
#
# Mechanical properties :
#
#
# Convention : Reuss Voigt Hill
#
# Bulk Modulus (GPa) = 32.33888 51.95523 42.14706
# Shear Modulus (GPa) = 21.44676 28.12716 24.78696
#
# Velocity S-wave (km/s) = 3.37337 3.86320 3.62656
# Velocity P-wave (km/s) = 5.68611 6.88959 6.31658
#
# Compressibility (1/GPa) = 0.03092253
#
# Stress axis : x y z
#
# Youngs Moduli (GPa) = 42.67708 53.94047 81.58038
#
# Poissons Ratio (x) = 0.00439 0.50028
# Poissons Ratio (y) = 0.00348 0.44373
# Poissons Ratio (z) = 0.26171 0.29339
#
# Static dielectric constant tensor:
#      x y z
#    x 1.687880 -0.008170 0.044300 
#    y -0.008170 1.691790 0.012360 
#    z 0.044300 0.012360 1.769110 
# 
# From -- ./inp_files/337771.got.cif
#   From: 2010.05.17/outbox.cif.g08.bks.cpg/sg2_169_cif.got.tgz:337771.got - 2010.06.03 11:33:40.
