data_PCOD9082436
_publ_section_title
;
Structure prediction by ZEFSAII (Michael W. Deem and Ramdas Pophale) SiO2 
 PCOD9082436
Probable space group: P -1
;
_chemical_formula_sum "Si O2"
_cell_formula_units_Z 15
_cell_length_a 5.090843
_cell_length_b 8.724688
_cell_length_c 16.143290
_cell_angle_alpha 48.890046
_cell_angle_beta 100.010047
_cell_angle_gamma 88.813573
_cell_volume 523.135446
_symmetry_space_group_name_H-M "P -1"
_symmetry_group_IT_number 2
_symmetry_cell_setting 'triclinic'
loop_
_space_group_symop_operation_xyz
x,y,z
-x,-y,-z
loop_
_atom_site_type_symbol
_atom_site_label
_atom_site_fract_x
_atom_site_fract_y
_atom_site_fract_z
Si Si1 0.594848 0.575365 0.565877
Si Si2 0.255462 0.240432 0.874424
Si Si3 0.827839 0.888041 0.679859
Si Si4 0.725266 0.144560 0.821568
Si Si5 0.500000 0.500000 0.000000
Si Si6 0.887766 0.315342 0.388042
Si Si7 0.632968 0.064372 0.249771
Si Si8 0.894533 0.437356 0.925243
O O1 0.500000 0.500000 0.500000
O O2 0.662890 0.373498 0.698695
O O3 0.878489 0.649684 0.548301
O O4 0.363815 0.720138 0.556656
O O5 0.047181 0.111560 0.863283
O O6 0.204787 0.471310 0.745779
O O7 0.117046 0.281671 0.943140
O O8 0.561861 0.149973 0.896749
O O9 0.962768 0.849545 0.611285
O O10 0.518304 0.971258 0.659515
O O11 0.843753 0.649254 0.796753
O O12 0.042438 0.998992 0.703068
O O13 0.562041 0.021351 0.795027
O O14 0.402713 0.697238 0.863944
O O15 0.630253 0.367542 0.970583
O O16 0.000000 0.500000 0.000000
#
# Coordination Sequence:
#
# PCOD9082436 Si02
#       8
#     2   2   2   2   1   2   2   2
#     4  10  19  34  59  85 111 139 173 223 274 331
#     4   9  20  34  55  77 109 145 179 224 271 324
#     4  10  20  34  57  79 104 148 184 228 262 322
#     4  10  21  38  54  80 111 145 180 219 278 338
#     4  10  22  34  54  78 104 138 192 236 260 316
#     4   9  18  33  55  85 108 138 187 216 265 326
#     4  11  21  36  57  77 108 145 190 224 277 320
#     4  10  19  33  55  78 105 138 188 230 267 311
#
# _framework density 28.673264
#
# number of rings (size 3 to 8) (size 9 to 14) (size 15 to 20)
#    0.000    2.133    1.333    2.000    1.867    3.200 
#    0.000    1.333    0.000    4.800    0.000    0.000 
#    0.000    0.000    0.000    0.000    0.000    0.000 
#
# Total GULP energy -83707.048535 kJ/mol
# GULP energy per Si atom -5580.469902 kJ/mol
# Density = 2.860800 g / cm^3
# Si number density = 28.673264 Si / 1000 Ang^3
#
#
#
# Elastic Constant Matrix: (Units=GPa)
#
#
# Indices 1 2 3 4 5 6 
#
# 1 154.0643 15.6916 21.7960 4.4289 -33.2504 -9.4464
# 2 15.6916 68.1121 6.4162 24.2016 -3.2989 -11.5385
# 3 21.7960 6.4162 134.4652 1.0765 -47.7185 -9.3799
# 4 4.4289 24.2016 1.0765 52.6234 -4.9393 -2.5312
# 5 -33.2504 -3.2989 -47.7185 -4.9393 49.3331 10.0081
# 6 -9.4464 -11.5385 -9.3799 -2.5312 10.0081 39.7797
#
#
#
# Elastic Compliance Matrix: (Units=1/GPa)
#
#
# Indices 1 2 3 4 5 6 
#
# 1 0.007862 -0.001869 0.001023 0.000764 0.006231 0.000047
# 2 -0.001869 0.018985 -0.001290 -0.008599 -0.003113 0.004995
# 3 0.001023 -0.001290 0.011550 0.001379 0.011981 -0.000334
# 4 0.000764 -0.008599 0.001379 0.023159 0.003896 -0.001494
# 5 0.006231 -0.003113 0.011981 0.003896 0.037410 -0.005762
# 6 0.000047 0.004995 -0.000334 -0.001494 -0.005762 0.027874
#
#
# Mechanical properties :
#
#
# Convention : Reuss Voigt Hill
#
# Bulk Modulus (GPa) = 29.30518 49.38325 39.34421
# Shear Modulus (GPa) = 35.09072 49.19641 42.14356
#
# Velocity S-wave (km/s) = 3.50210 4.14667 3.83794
# Velocity P-wave (km/s) = 5.15708 6.33929 5.77850
#
# Compressibility (1/GPa) = 0.03412366
#
# Stress axis : x y z
#
# Youngs Moduli (GPa) = 127.19305 52.67388 86.57924
#
# Poissons Ratio (x) = 0.09847 -0.08857
# Poissons Ratio (y) = 0.23778 0.11171
# Poissons Ratio (z) = -0.13012 0.06796
#
# Static dielectric constant tensor:
#      x y z
#    x 2.373290 -0.014770 -0.050760 
#    y -0.014770 2.283660 -0.008030 
#    z -0.050760 -0.008030 2.281190 
# 
# From -- ./inp_files/39842.got.cif
#   From: 2010.05.17/outbox.cif.g08.bks.cpg/sg2_20_cif.got.tgz:39842.got - 2010.06.03 11:33:40.
