data_PCOD9082817
_publ_section_title
;
Structure prediction by ZEFSAII (Michael W. Deem and Ramdas Pophale) SiO2 
 PCOD9082817
Probable space group: P -1
;
_chemical_formula_sum "Si O2"
_cell_formula_units_Z 14
_cell_length_a 9.416662
_cell_length_b 15.771101
_cell_length_c 15.026388
_cell_angle_alpha 36.196650
_cell_angle_beta 139.749693
_cell_angle_gamma 131.332531
_cell_volume 845.708477
_symmetry_space_group_name_H-M "P -1"
_symmetry_group_IT_number 2
_symmetry_cell_setting 'triclinic'
loop_
_space_group_symop_operation_xyz
x,y,z
-x,-y,-z
loop_
_atom_site_type_symbol
_atom_site_label
_atom_site_fract_x
_atom_site_fract_y
_atom_site_fract_z
Si Si1 0.095110 0.565559 0.851523
Si Si2 0.222842 0.431639 0.687140
Si Si3 0.583800 0.186281 0.298815
Si Si4 0.679652 0.585605 0.750294
Si Si5 0.045859 0.837775 0.173700
Si Si6 0.841429 0.655668 0.082904
Si Si7 0.529659 0.144842 0.513842
O O1 0.233965 0.705073 0.756083
O O2 0.082356 0.438353 0.880366
O O3 0.856304 0.595534 0.747365
O O4 0.224855 0.509154 0.045826
O O5 0.437763 0.504549 0.679189
O O6 0.965275 0.244378 0.857228
O O7 0.000000 0.500000 0.500000
O O8 0.156157 0.259712 0.789976
O O9 0.618286 0.180447 0.426299
O O10 0.569912 0.022977 0.393842
O O11 0.347596 0.247229 0.118966
O O12 0.639426 0.742321 0.635985
O O13 0.268551 0.834078 0.338097
O O14 0.738176 0.551138 0.202144
O O15 0.000000 0.000000 0.000000
#
# Coordination Sequence:
#
# PCOD9082817 Si02
#       7
#     2   2   2   2   2   2   2
#     4  11  22  35  56  84 121 147 182 226 288 332
#     4  10  19  33  58  82 105 145 190 232 268 325
#     4  11  21  35  60  86 109 146 188 243 266 329
#     4  11  21  36  55  86 116 151 181 229 282 339
#     4  10  20  34  58  83 108 140 183 237 280 321
#     4  10  19  34  59  82 110 142 188 233 273 324
#     4  11  21  36  59  86 112 141 195 230 282 321
#
# _framework density 16.554169000000002
#
# number of rings (size 3 to 8) (size 9 to 14) (size 15 to 20)
#    0.857    0.571    5.714    1.286    0.000    0.571 
#    0.000    2.857    0.000    0.857    0.000    0.000 
#    0.000    0.000    0.000    0.000    0.000    0.000 
#
# Total GULP energy -77990.847530 kJ/mol
# GULP energy per Si atom -5570.774824 kJ/mol
# Density = 1.651649 g / cm^3
# Si number density = 16.554169 Si / 1000 Ang^3
#
#
#
# Elastic Constant Matrix: (Units=GPa)
#
#
# Indices 1 2 3 4 5 6 
#
# 1 102.6403 60.9397 45.0246 -13.3524 13.3566 10.8693
# 2 60.9397 117.7801 45.2113 -21.0717 6.9307 12.3447
# 3 45.0246 45.2113 89.7049 -8.0150 1.6278 16.0065
# 4 -13.3524 -21.0717 -8.0150 37.3023 -3.0606 -0.1724
# 5 13.3566 6.9307 1.6278 -3.0606 25.3557 1.5640
# 6 10.8693 12.3447 16.0065 -0.1724 1.5640 5.4442
#
#
#
# Elastic Compliance Matrix: (Units=1/GPa)
#
#
# Indices 1 2 3 4 5 6 
#
# 1 0.016618 -0.005781 -0.004108 0.001248 -0.006382 -0.006117
# 2 -0.005781 0.014900 -0.000158 0.006302 0.001094 -0.021894
# 3 -0.004108 -0.000158 0.025834 0.004107 0.005287 -0.068782
# 4 0.001248 0.006302 0.004107 0.031808 0.002966 -0.028701
# 5 -0.006382 0.001094 0.005287 0.002966 0.043613 -0.017719
# 6 -0.006117 -0.021894 -0.068782 -0.028701 -0.017719 0.451951
#
#
# Mechanical properties :
#
#
# Convention : Reuss Voigt Hill
#
# Bulk Modulus (GPa) = 26.84097 68.05295 47.44696
# Shear Modulus (GPa) = 8.10061 24.21707 16.15884
#
# Velocity S-wave (km/s) = 2.21450 3.82894 3.12768
# Velocity P-wave (km/s) = 4.77367 7.79398 6.46274
#
# Compressibility (1/GPa) = 0.03725648
#
# Stress axis : x y z
#
# Youngs Moduli (GPa) = 60.17585 67.11343 38.70936
#
# Poissons Ratio (x) = 0.38799 0.15903
# Poissons Ratio (y) = 0.34789 0.00612
# Poissons Ratio (z) = 0.24722 0.01061
#
# Static dielectric constant tensor:
#      x y z
#    x 1.536970 0.005000 -0.020440 
#    y 0.005000 1.576000 -0.001940 
#    z -0.020440 -0.001940 1.577780 
# 
# From -- ./inp_files/187791.got.cif
#   From: 2010.05.17/outbox.cif.g08.bks.cpg/sg2_94_cif.got.tgz:187791.got - 2010.06.03 11:33:40.
