data_PCOD9082967
_publ_section_title
;
Structure prediction by ZEFSAII (Michael W. Deem and Ramdas Pophale) SiO2 
 PCOD9082967
Probable space group: P -1
;
_chemical_formula_sum "Si O2"
_cell_formula_units_Z 16
_cell_length_a 20.428210
_cell_length_b 12.360649
_cell_length_c 9.330872
_cell_angle_alpha 106.878838
_cell_angle_beta 84.330756
_cell_angle_gamma 30.524009
_cell_volume 797.204984
_symmetry_space_group_name_H-M "P -1"
_symmetry_group_IT_number 2
_symmetry_cell_setting 'triclinic'
loop_
_space_group_symop_operation_xyz
x,y,z
-x,-y,-z
loop_
_atom_site_type_symbol
_atom_site_label
_atom_site_fract_x
_atom_site_fract_y
_atom_site_fract_z
Si Si1 0.169152 0.169632 0.999629
Si Si2 0.233020 0.882063 0.643220
Si Si3 0.434835 0.254444 0.982101
Si Si4 0.346876 0.297402 0.320050
Si Si5 0.761617 0.910732 0.458959
Si Si6 0.514216 0.231149 0.411141
Si Si7 0.390982 0.788877 0.095888
Si Si8 0.935735 0.222694 0.658906
O O1 0.968131 0.545146 0.222887
O O2 0.275742 0.966164 0.043242
O O3 0.153851 0.082746 0.869706
O O4 0.304831 0.038927 0.834544
O O5 0.387611 0.545349 0.531195
O O6 0.298851 0.873230 0.516740
O O7 0.085538 0.050970 0.645611
O O8 0.466425 0.335554 0.996972
O O9 0.572193 0.953051 0.751660
O O10 0.455516 0.182718 0.117450
O O11 0.229687 0.541064 0.105549
O O12 0.384147 0.332802 0.443364
O O13 0.153285 0.581556 0.391118
O O14 0.607036 0.076535 0.488228
O O15 0.743927 0.956568 0.648506
O O16 0.500000 0.500000 0.000000
O O17 0.000000 0.000000 0.500000
#
# Coordination Sequence:
#
# PCOD9082967 Si02
#       8
#     2   2   2   2   2   2   2   2
#     4  11  23  39  60  88 122 159 210 256 296 359
#     4  11  21  36  65  93 124 154 206 260 302 353
#     4   9  21  36  60  87 115 162 193 247 302 351
#     4   9  19  35  62  87 117 154 198 255 287 358
#     4  11  26  35  62  91 122 165 200 258 301 366
#     4  11  19  39  61  93 119 156 207 251 312 342
#     4  12  24  44  61  85 129 164 202 241 315 378
#     4  10  19  33  59  97 118 146 204 253 296 348
#
# _framework density 20.070122000000001
#
# number of rings (size 3 to 8) (size 9 to 14) (size 15 to 20)
#    0.750    0.750    2.500    4.875    7.000    0.000 
#    0.000    0.625    0.000    1.500    0.000    0.000 
#    0.000    0.000    0.000    0.000    0.000    0.000 
#
# Total GULP energy -89111.095737 kJ/mol
# GULP energy per Si atom -5569.443484 kJ/mol
# Density = 2.002444 g / cm^3
# Si number density = 20.070122 Si / 1000 Ang^3
#
#
#
# Elastic Constant Matrix: (Units=GPa)
#
#
# Indices 1 2 3 4 5 6 
#
# 1 87.1225 36.1980 -4.0706 -4.3545 13.0547 -24.0808
# 2 36.1980 86.8833 15.5179 -0.0341 6.1688 -21.7305
# 3 -4.0706 15.5179 46.8764 -7.9939 6.1215 -15.9030
# 4 -4.3545 -0.0341 -7.9939 33.9054 -8.8433 4.4315
# 5 13.0547 6.1688 6.1215 -8.8433 14.1233 -1.7611
# 6 -24.0808 -21.7305 -15.9030 4.4315 -1.7611 43.1884
#
#
#
# Elastic Compliance Matrix: (Units=1/GPa)
#
#
# Indices 1 2 3 4 5 6 
#
# 1 0.020627 -0.006058 0.010066 -0.001834 -0.020496 0.011512
# 2 -0.006058 0.015676 -0.005132 -0.002388 -0.000162 0.002859
# 3 0.010066 -0.005132 0.031179 0.002319 -0.017433 0.013562
# 4 -0.001834 -0.002388 0.002319 0.036647 0.024163 -0.004145
# 5 -0.020496 -0.000162 -0.017433 0.024163 0.110524 -0.015901
# 6 0.011512 0.002859 0.013562 -0.004145 -0.015901 0.035782
#
#
# Mechanical properties :
#
#
# Convention : Reuss Voigt Hill
#
# Bulk Modulus (GPa) = 15.32957 35.13031 25.22994
# Shear Modulus (GPa) = 18.21994 29.79255 24.00625
#
# Velocity S-wave (km/s) = 3.01626 3.85700 3.46225
# Velocity P-wave (km/s) = 4.44804 6.11368 5.34613
#
# Compressibility (1/GPa) = 0.06523338
#
# Stress axis : x y z
#
# Youngs Moduli (GPa) = 48.48120 63.79373 32.07331
#
# Poissons Ratio (x) = 0.38644 -0.32284
# Poissons Ratio (y) = 0.29368 0.16459
# Poissons Ratio (z) = -0.48799 0.32736
#
# Static dielectric constant tensor:
#      x y z
#    x 1.715560 -0.008890 0.023500 
#    y -0.008890 1.703100 -0.028870 
#    z 0.023500 -0.028870 1.754090 
# 
# From -- ./inp_files/345447.got.cif
#   From: 2010.05.17/outbox.cif.g08.bks.cpg/sg2_173_cif.got.tgz:345447.got - 2010.06.03 11:33:40.
