data_PCOD9082153
_publ_section_title
;
Structure prediction by ZEFSAII (Michael W. Deem and Ramdas Pophale) SiO2 
 PCOD9082153
Probable space group: P -1
;
_chemical_formula_sum "Si O2"
_cell_formula_units_Z 14
_cell_length_a 10.140966
_cell_length_b 11.205579
_cell_length_c 11.675880
_cell_angle_alpha 42.337797
_cell_angle_beta 133.026262
_cell_angle_gamma 140.692098
_cell_volume 546.807446
_symmetry_space_group_name_H-M "P -1"
_symmetry_group_IT_number 2
_symmetry_cell_setting 'triclinic'
loop_
_space_group_symop_operation_xyz
x,y,z
-x,-y,-z
loop_
_atom_site_type_symbol
_atom_site_label
_atom_site_fract_x
_atom_site_fract_y
_atom_site_fract_z
Si Si1 0.919712 0.192221 0.780888
Si Si2 0.372716 0.118517 0.335959
Si Si3 0.170963 0.453150 0.312576
Si Si4 0.748252 0.505358 0.411698
Si Si5 0.756003 0.100277 0.984028
Si Si6 0.196633 0.131486 0.435503
Si Si7 0.296233 0.882576 0.805262
O O1 0.844657 0.357505 0.597797
O O2 0.931516 0.165805 0.942266
O O3 0.117323 0.299188 0.734292
O O4 0.736762 0.956574 0.798098
O O5 0.534903 0.349586 0.320804
O O6 0.175065 0.043075 0.359861
O O7 0.500000 0.000000 0.500000
O O8 0.241427 0.421638 0.502406
O O9 0.258572 0.693340 0.170061
O O10 0.254397 0.364239 0.327498
O O11 0.907587 0.319871 0.234158
O O12 0.518465 0.901688 0.949915
O O13 0.792093 0.085236 0.149652
O O14 0.365471 0.081409 0.623163
O O15 0.000000 0.000000 0.500000
#
# Coordination Sequence:
#
# PCOD9082153 Si02
#       7
#     2   2   2   2   2   2   2
#     4   9  17  30  47  74 103 135 179 221 260 313
#     4  10  19  33  52  78 110 142 179 226 268 318
#     4  10  20  35  54  80 110 138 178 232 277 319
#     4   9  18  29  50  77 102 136 177 220 270 313
#     4  10  21  34  55  80 109 148 185 220 271 327
#     4  10  20  34  58  85 112 142 178 229 283 319
#     4  10  20  35  51  80 113 144 181 223 271 328
#
# _framework density 25.603164
#
# number of rings (size 3 to 8) (size 9 to 14) (size 15 to 20)
#    0.000    2.286    0.000    4.714    0.000    8.000 
#    0.000    0.000    0.000    7.714    0.000   18.000 
#    0.000    0.000    0.000    0.000    0.000    0.000 
#
# Total GULP energy -77987.394105 kJ/mol
# GULP energy per Si atom -5570.528150 kJ/mol
# Density = 2.554489 g / cm^3
# Si number density = 25.603164 Si / 1000 Ang^3
#
#
#
# Elastic Constant Matrix: (Units=GPa)
#
#
# Indices 1 2 3 4 5 6 
#
# 1 100.3377 22.9399 16.0666 2.7668 -30.8721 -14.8072
# 2 22.9399 127.7302 22.5976 22.5841 -10.7965 6.9655
# 3 16.0666 22.5976 84.8642 3.3403 -38.1082 -3.5375
# 4 2.7668 22.5841 3.3403 24.7405 -7.4971 -4.8761
# 5 -30.8721 -10.7965 -38.1082 -7.4971 41.0062 8.8372
# 6 -14.8072 6.9655 -3.5375 -4.8761 8.8372 41.2103
#
#
#
# Elastic Compliance Matrix: (Units=1/GPa)
#
#
# Indices 1 2 3 4 5 6 
#
# 1 0.015121 -0.003628 0.004877 0.006369 0.015276 0.003943
# 2 -0.003628 0.011014 -0.004198 -0.011342 -0.004988 -0.003798
# 3 0.004877 -0.004198 0.023121 0.007878 0.025513 -0.000093
# 4 0.006369 -0.011342 0.007878 0.055874 0.017686 0.007700
# 5 0.015276 -0.004988 0.025513 0.017686 0.062100 -0.002702
# 6 0.003943 -0.003798 -0.000093 0.007700 -0.002702 0.027807
#
#
# Mechanical properties :
#
#
# Convention : Reuss Voigt Hill
#
# Bulk Modulus (GPa) = 23.06411 48.46004 35.76207
# Shear Modulus (GPa) = 23.21389 38.14658 30.68023
#
# Velocity S-wave (km/s) = 3.01438 3.86413 3.46540
# Velocity P-wave (km/s) = 4.59817 6.23515 5.47815
#
# Compressibility (1/GPa) = 0.04335741
#
# Stress axis : x y z
#
# Youngs Moduli (GPa) = 66.13190 90.79262 43.25104
#
# Poissons Ratio (x) = 0.32943 -0.21091
# Poissons Ratio (y) = 0.23995 0.18155
# Poissons Ratio (z) = -0.32249 0.38111
#
# Static dielectric constant tensor:
#      x y z
#    x 2.152260 0.056740 0.016640 
#    y 0.056740 2.135020 -0.049830 
#    z 0.016640 -0.049830 2.115970 
# 
# From -- ./inp_files/420954.got.cif
#   From: 2010.05.17/outbox.cif.g08.bks.cpg/sg2_211_cif.got.tgz:420954.got - 2010.06.03 11:33:40.
