data_PCOD9082119
_publ_section_title
;
Structure prediction by ZEFSAII (Michael W. Deem and Ramdas Pophale) SiO2 
 PCOD9082119
Probable space group: P -1
;
_chemical_formula_sum "Si O2"
_cell_formula_units_Z 16
_cell_length_a 11.206117
_cell_length_b 10.892625
_cell_length_c 12.108598
_cell_angle_alpha 108.318526
_cell_angle_beta 139.828744
_cell_angle_gamma 97.663664
_cell_volume 717.257031
_symmetry_space_group_name_H-M "P -1"
_symmetry_group_IT_number 2
_symmetry_cell_setting 'triclinic'
loop_
_space_group_symop_operation_xyz
x,y,z
-x,-y,-z
loop_
_atom_site_type_symbol
_atom_site_label
_atom_site_fract_x
_atom_site_fract_y
_atom_site_fract_z
Si Si1 0.160506 0.146002 0.741952
Si Si2 0.547924 0.042565 0.783236
Si Si3 0.319763 0.189500 0.271038
Si Si4 0.814038 0.456937 0.699717
Si Si5 0.916845 0.284340 0.548569
Si Si6 0.631180 0.184712 0.104134
Si Si7 0.089935 0.965596 0.231657
Si Si8 0.775502 0.244652 0.812728
O O1 0.034729 0.068944 0.749473
O O2 0.138713 0.286336 0.726371
O O3 0.427042 0.206597 0.957000
O O4 0.000000 0.000000 0.500000
O O5 0.567589 0.150906 0.727456
O O6 0.632889 0.940129 0.769199
O O7 0.294122 0.898888 0.609299
O O8 0.698934 0.169755 0.024640
O O9 0.547188 0.371019 0.456363
O O10 0.115309 0.141653 0.032915
O O11 0.238687 0.142763 0.327849
O O12 0.918726 0.408575 0.665456
O O13 0.773493 0.356227 0.754190
O O14 0.995336 0.641579 0.916711
O O15 0.835792 0.291335 0.369597
O O16 0.500000 0.000000 0.000000
O O17 0.216835 0.881640 0.289171
#
# Coordination Sequence:
#
# PCOD9082119 Si02
#       8
#     2   2   2   2   2   2   2   2
#     4  12  20  29  54  84 109 139 174 217 275 325
#     4   9  18  33  54  79 105 140 173 223 269 317
#     4   9  20  33  56  77 112 133 172 234 271 311
#     4  10  20  36  52  79 104 146 178 221 268 317
#     4  10  20  34  55  81 107 144 176 227 269 316
#     4  10  19  33  51  81 112 138 175 224 268 320
#     4  10  20  35  51  86 105 135 179 223 270 324
#     4  10  21  34  56  76 107 141 183 217 267 326
#
# _framework density 22.307206999999998
#
# number of rings (size 3 to 8) (size 9 to 14) (size 15 to 20)
#    0.000    2.000    3.750    2.250    1.750    2.000 
#    0.000    0.625    0.000    0.750    3.250    0.000 
#    0.000    0.000    0.000    0.000    0.000    0.000 
#
# Total GULP energy -89206.516795 kJ/mol
# GULP energy per Si atom -5575.407300 kJ/mol
# Density = 2.225643 g / cm^3
# Si number density = 22.307207 Si / 1000 Ang^3
#
#
#
# Elastic Constant Matrix: (Units=GPa)
#
#
# Indices 1 2 3 4 5 6 
#
# 1 67.1935 23.0254 25.0440 -5.9194 -26.5977 0.5895
# 2 23.0254 35.1579 29.0799 -7.9806 -10.4283 -3.8660
# 3 25.0440 29.0799 111.1812 -6.3810 -12.2095 -3.3716
# 4 -5.9194 -7.9806 -6.3810 35.9450 -2.4002 -1.2896
# 5 -26.5977 -10.4283 -12.2095 -2.4002 42.6061 -10.3355
# 6 0.5895 -3.8660 -3.3716 -1.2896 -10.3355 25.7303
#
#
#
# Elastic Compliance Matrix: (Units=1/GPa)
#
#
# Indices 1 2 3 4 5 6 
#
# 1 0.024182 -0.010046 -0.001120 0.002554 0.013246 0.003238
# 2 -0.010046 0.046342 -0.008594 0.007755 0.005109 0.008508
# 3 -0.001120 -0.008594 0.011582 0.000025 0.000642 0.000511
# 4 0.002554 0.007755 0.000025 0.030589 0.006497 0.005253
# 5 0.013246 0.005109 0.000642 0.006497 0.037396 0.015895
# 6 0.003238 0.008508 0.000511 0.005253 0.015895 0.046784
#
#
# Mechanical properties :
#
#
# Convention : Reuss Voigt Hill
#
# Bulk Modulus (GPa) = 23.48203 40.87015 32.17609
# Shear Modulus (GPa) = 19.95284 29.94849 24.95066
#
# Velocity S-wave (km/s) = 2.99399 3.66805 3.34803
# Velocity P-wave (km/s) = 4.74357 6.02501 5.42228
#
# Compressibility (1/GPa) = 0.04258576
#
# Stress axis : x y z
#
# Youngs Moduli (GPa) = 41.35288 21.57867 86.34261
#
# Poissons Ratio (x) = 0.21678 0.09672
# Poissons Ratio (y) = 0.41544 0.74201
# Poissons Ratio (z) = 0.04632 0.18544
#
# Static dielectric constant tensor:
#      x y z
#    x 1.893370 0.009360 0.062420 
#    y 0.009360 1.834800 -0.042510 
#    z 0.062420 -0.042510 2.010340 
# 
# From -- ./inp_files/423832.got.cif
#   From: 2010.05.17/outbox.cif.g08.bks.cpg/sg2_212_cif.got.tgz:423832.got - 2010.06.03 11:33:40.
