data_PCOD9082698
_publ_section_title
;
Structure prediction by ZEFSAII (Michael W. Deem and Ramdas Pophale) SiO2 
 PCOD9082698
Probable space group: P -1
;
_chemical_formula_sum "Si O2"
_cell_formula_units_Z 16
_cell_length_a 8.034311
_cell_length_b 23.380754
_cell_length_c 11.167156
_cell_angle_alpha 142.461243
_cell_angle_beta 41.751400
_cell_angle_gamma 108.336672
_cell_volume 621.959989
_symmetry_space_group_name_H-M "P -1"
_symmetry_group_IT_number 2
_symmetry_cell_setting 'triclinic'
loop_
_space_group_symop_operation_xyz
x,y,z
-x,-y,-z
loop_
_atom_site_type_symbol
_atom_site_label
_atom_site_fract_x
_atom_site_fract_y
_atom_site_fract_z
Si Si1 0.675869 0.029635 0.091367
Si Si2 0.598562 0.206539 0.620115
Si Si3 0.202426 0.246993 0.556464
Si Si4 0.099829 0.471764 0.038225
Si Si5 0.394649 0.168716 0.890223
Si Si6 0.125426 0.063058 0.599620
Si Si7 0.369452 0.702801 0.889933
Si Si8 0.183227 0.658729 0.331479
O O1 0.679398 0.124348 0.324370
O O2 0.520898 0.097636 0.160348
O O3 0.425866 0.028931 0.300941
O O4 0.045705 0.890207 0.657867
O O5 0.346595 0.212089 0.850358
O O6 0.539054 0.331940 0.834401
O O7 0.071914 0.282602 0.550091
O O8 0.294941 0.324294 0.690705
O O9 0.898963 0.286022 0.868891
O O10 0.729940 0.558486 0.443585
O O11 0.273950 0.524689 0.072481
O O12 0.000000 0.500000 0.000000
O O13 0.684910 0.015696 0.509721
O O14 0.532282 0.227742 0.978376
O O15 0.041009 0.243883 0.276224
O O16 0.000000 0.000000 0.500000
O O17 0.811861 0.216503 0.002703
#
# Coordination Sequence:
#
# PCOD9082698 Si02
#       8
#     2   2   2   2   2   2   2   2
#     4  10  23  38  56  86 121 151 193 233 286 342
#     4  11  22  39  58  83 120 159 185 233 285 345
#     4  10  19  36  59  85 113 146 193 244 280 332
#     4   9  19  32  54  85 115 143 187 244 284 334
#     4  10  19  33  57  82 114 151 190 226 284 343
#     4   9  18  33  54  86 117 141 188 238 280 337
#     4   9  17  30  54  85 109 147 181 238 291 328
#     4  10  20  37  60  84 114 148 195 235 285 339
#
# _framework density 25.725128000000002
#
# number of rings (size 3 to 8) (size 9 to 14) (size 15 to 20)
#    0.000    2.250    2.500    0.375    0.000    6.000 
#    0.000    0.625    0.000    3.000    0.000    0.000 
#    0.000    0.000    0.000    0.000    0.000    0.000 
#
# Total GULP energy -89451.545113 kJ/mol
# GULP energy per Si atom -5590.721570 kJ/mol
# Density = 2.566658 g / cm^3
# Si number density = 25.725128 Si / 1000 Ang^3
#
#
#
# Elastic Constant Matrix: (Units=GPa)
#
#
# Indices 1 2 3 4 5 6 
#
# 1 78.6900 18.0688 10.5332 -2.0447 5.2688 17.0228
# 2 18.0688 118.0694 30.0812 5.2917 4.1724 14.7626
# 3 10.5332 30.0812 56.7819 -2.2208 13.5324 -1.5193
# 4 -2.0447 5.2917 -2.2208 38.9025 3.4036 5.6854
# 5 5.2688 4.1724 13.5324 3.4036 21.9553 -2.7003
# 6 17.0228 14.7626 -1.5193 5.6854 -2.7003 30.3593
#
#
#
# Elastic Compliance Matrix: (Units=1/GPa)
#
#
# Indices 1 2 3 4 5 6 
#
# 1 0.015430 -0.000764 -0.001634 0.002522 -0.004072 -0.009196
# 2 -0.000764 0.010730 -0.006079 -0.001289 0.001511 -0.004717
# 3 -0.001634 -0.006079 0.024586 0.002847 -0.013635 0.003357
# 4 0.002522 -0.001289 0.002847 0.027755 -0.007215 -0.006484
# 5 -0.004072 0.001511 -0.013635 -0.007215 0.056652 0.007256
# 6 -0.009196 -0.004717 0.003357 -0.006484 0.007256 0.042417
#
#
# Mechanical properties :
#
#
# Convention : Reuss Voigt Hill
#
# Bulk Modulus (GPa) = 29.59491 41.21197 35.40344
# Shear Modulus (GPa) = 24.29695 31.23396 27.76545
#
# Velocity S-wave (km/s) = 3.07658 3.48823 3.28885
# Velocity P-wave (km/s) = 4.91423 5.68143 5.31170
#
# Compressibility (1/GPa) = 0.03378960
#
# Stress axis : x y z
#
# Youngs Moduli (GPa) = 64.80888 93.20027 40.67427
#
# Poissons Ratio (x) = 0.07122 0.06648
# Poissons Ratio (y) = 0.04953 0.24727
# Poissons Ratio (z) = 0.10592 0.56658
#
# Static dielectric constant tensor:
#      x y z
#    x 2.033110 -0.016840 -0.030650 
#    y -0.016840 2.119410 0.019080 
#    z -0.030650 0.019080 2.046190 
# 
# From -- ./inp_files/200269.got.cif
#   From: 2010.05.17/outbox.cif.g08.bks.cpg/sg2_101_cif.got.tgz:200269.got - 2010.06.03 11:33:40.
