data_PCOD9082879
_publ_section_title
;
Structure prediction by ZEFSAII (Michael W. Deem and Ramdas Pophale) SiO2 
 PCOD9082879
Probable space group: P -1
;
_chemical_formula_sum "Si O2"
_cell_formula_units_Z 12
_cell_length_a 11.331776
_cell_length_b 5.582510
_cell_length_c 12.904840
_cell_angle_alpha 129.501692
_cell_angle_beta 52.742950
_cell_angle_gamma 121.181598
_cell_volume 489.522657
_symmetry_space_group_name_H-M "P -1"
_symmetry_group_IT_number 2
_symmetry_cell_setting 'triclinic'
loop_
_space_group_symop_operation_xyz
x,y,z
-x,-y,-z
loop_
_atom_site_type_symbol
_atom_site_label
_atom_site_fract_x
_atom_site_fract_y
_atom_site_fract_z
Si Si1 0.095956 0.880685 0.323666
Si Si2 0.816761 0.377365 0.069937
Si Si3 0.142185 0.245433 0.044186
Si Si4 0.639416 0.908063 0.625904
Si Si5 0.615232 0.169255 0.395996
Si Si6 0.840984 0.952111 0.342048
O O1 0.083540 0.503739 0.217021
O O2 0.014726 0.987375 0.294403
O O3 0.272947 0.011180 0.291198
O O4 0.000000 0.000000 0.500000
O O5 0.779534 0.577769 0.243716
O O6 0.766136 0.526845 0.032345
O O7 0.000000 0.500000 0.000000
O O8 0.778366 0.001191 0.004692
O O9 0.000000 0.000000 0.000000
O O10 0.626659 0.537365 0.511398
O O11 0.474357 0.958883 0.696709
O O12 0.756127 0.066829 0.516720
O O13 0.500000 0.000000 0.500000
O O14 0.779713 0.105541 0.317011
#
# Coordination Sequence:
#
# PCOD9082879 Si02
#       6
#     2   2   2   2   2   2
#     4  10  20  36  56  94 120 148 194 255 307 346
#     4  10  20  34  58  82 121 163 200 236 293 366
#     4  10  20  38  54  83 125 163 193 237 303 364
#     4   9  20  36  56  84 122 152 194 252 305 354
#     4   9  19  37  55  81 114 160 199 242 300 363
#     4  10  19  33  58  90 112 154 201 244 295 360
#
# _framework density 24.513674999999999
#
# number of rings (size 3 to 8) (size 9 to 14) (size 15 to 20)
#    0.000    2.333    3.333    0.000    2.333    2.000 
#    9.000    0.000    0.000    2.000    0.000    0.000 
#    0.000    0.000    0.000    0.000    0.000    0.000 
#
# Total GULP energy -66847.736280 kJ/mol
# GULP energy per Si atom -5570.644690 kJ/mol
# Density = 2.445788 g / cm^3
# Si number density = 24.513675 Si / 1000 Ang^3
#
#
#
# Elastic Constant Matrix: (Units=GPa)
#
#
# Indices 1 2 3 4 5 6 
#
# 1 244.6583 52.6844 23.1900 25.2400 6.3589 -13.7519
# 2 52.6844 77.1085 25.9091 5.7372 -4.9974 -20.1644
# 3 23.1900 25.9091 118.4781 11.2740 7.6094 -6.4028
# 4 25.2400 5.7372 11.2740 35.8204 -0.7409 -7.8767
# 5 6.3589 -4.9974 7.6094 -0.7409 24.2647 13.1530
# 6 -13.7519 -20.1644 -6.4028 -7.8767 13.1530 39.9221
#
#
#
# Elastic Compliance Matrix: (Units=1/GPa)
#
#
# Indices 1 2 3 4 5 6 
#
# 1 0.005224 -0.003499 0.000210 -0.003188 -0.002371 0.000218
# 2 -0.003499 0.018333 -0.003250 0.002213 0.001776 0.007385
# 3 0.000210 -0.003250 0.009681 -0.002565 -0.004328 0.000903
# 4 -0.003188 0.002213 -0.002565 0.031923 -0.000160 0.005959
# 5 -0.002371 0.001776 -0.004328 -0.000160 0.053447 -0.018254
# 6 0.000218 0.007385 0.000903 0.005959 -0.018254 0.036189
#
#
# Mechanical properties :
#
#
# Convention : Reuss Voigt Hill
#
# Bulk Modulus (GPa) = 49.60324 71.53463 60.56894
# Shear Modulus (GPa) = 28.63792 42.56554 35.60173
#
# Velocity S-wave (km/s) = 3.42166 4.17153 3.81507
# Velocity P-wave (km/s) = 5.99076 7.24204 6.64591
#
# Compressibility (1/GPa) = 0.02015997
#
# Stress axis : x y z
#
# Youngs Moduli (GPa) = 191.43783 54.54602 103.29665
#
# Poissons Ratio (x) = 0.19087 -0.02171
# Poissons Ratio (y) = 0.66987 0.33569
# Poissons Ratio (z) = -0.04023 0.17726
#
# Static dielectric constant tensor:
#      x y z
#    x 2.051690 -0.085250 -0.003960 
#    y -0.085250 2.022500 -0.058600 
#    z -0.003960 -0.058600 1.991470 
# 
# From -- ./inp_files/67023.got.cif
#   From: 2010.05.17/outbox.cif.g08.bks.cpg/sg2_34_cif.got.tgz:67023.got - 2010.06.03 11:33:40.
