data_PCOD9082147
_publ_section_title
;
Structure prediction by ZEFSAII (Michael W. Deem and Ramdas Pophale) SiO2 
 PCOD9082147
Probable space group: P -1
;
_chemical_formula_sum "Si O2"
_cell_formula_units_Z 16
_cell_length_a 19.829671
_cell_length_b 7.888929
_cell_length_c 7.365088
_cell_angle_alpha 57.403216
_cell_angle_beta 136.718177
_cell_angle_gamma 114.562839
_cell_volume 664.929168
_symmetry_space_group_name_H-M "P -1"
_symmetry_group_IT_number 2
_symmetry_cell_setting 'triclinic'
loop_
_space_group_symop_operation_xyz
x,y,z
-x,-y,-z
loop_
_atom_site_type_symbol
_atom_site_label
_atom_site_fract_x
_atom_site_fract_y
_atom_site_fract_z
Si Si1 0.947586 0.314609 0.615026
Si Si2 0.560584 0.133491 0.194379
Si Si3 0.607575 0.732126 0.667461
Si Si4 0.266962 0.609634 0.811890
Si Si5 0.085518 0.371331 0.154732
Si Si6 0.566144 0.523563 0.329208
Si Si7 0.249064 0.687987 0.157419
Si Si8 0.891936 0.001926 0.373979
O O1 0.846121 0.376821 0.475040
O O2 0.912070 0.147683 0.500099
O O3 0.000000 0.500000 0.500000
O O4 0.027313 0.248476 0.953431
O O5 0.655876 0.242167 0.225446
O O6 0.592933 0.969875 0.499390
O O7 0.486726 0.312601 0.994161
O O8 0.500000 0.000000 0.000000
O O9 0.610460 0.661797 0.502610
O O10 0.513750 0.621387 0.642287
O O11 0.698461 0.619424 0.997750
O O12 0.273827 0.679076 0.996709
O O13 0.165538 0.519014 0.135673
O O14 0.132276 0.219412 0.472582
O O15 0.000000 0.500000 0.000000
O O16 0.653770 0.388409 0.509675
O O17 0.195012 0.896279 0.967127
O O18 0.000000 0.000000 0.500000
#
# Coordination Sequence:
#
# PCOD9082147 Si02
#       8
#     2   2   2   2   2   2   2   2
#     4  11  21  40  58  85 120 160 200 248 292 350
#     4   9  15  26  45  75 114 146 181 231 288 352
#     4   8  14  26  43  68 111 144 175 228 288 339
#     4   9  18  30  48  77 114 150 186 235 289 343
#     4  12  23  40  60  81 116 161 201 251 300 345
#     4   8  15  25  43  72 105 146 177 229 283 342
#     4  10  19  33  52  77 114 148 196 236 291 344
#     4  11  22  39  58  81 116 156 199 249 294 348
#
# _framework density 24.062712999999999
#
# number of rings (size 3 to 8) (size 9 to 14) (size 15 to 20)
#    0.000    2.250    3.750    2.625    0.000    7.000 
#    2.250    0.000    0.000    0.000    0.000    3.500 
#    0.000   14.000    0.000    0.000    0.000    0.500 
#
# Total GULP energy -89426.926560 kJ/mol
# GULP energy per Si atom -5589.182910 kJ/mol
# Density = 2.400795 g / cm^3
# Si number density = 24.062713 Si / 1000 Ang^3
#
#
#
# Elastic Constant Matrix: (Units=GPa)
#
#
# Indices 1 2 3 4 5 6 
#
# 1 64.7320 24.4951 33.7748 -2.4352 21.2151 -0.2844
# 2 24.4951 91.1913 52.3220 -32.4926 4.8902 0.6923
# 3 33.7748 52.3220 182.7626 -29.8785 39.3378 11.9505
# 4 -2.4352 -32.4926 -29.8785 53.8033 -5.1270 -0.4149
# 5 21.2151 4.8902 39.3378 -5.1270 41.5640 -3.9935
# 6 -0.2844 0.6923 11.9505 -0.4149 -3.9935 27.2590
#
#
#
# Elastic Compliance Matrix: (Units=1/GPa)
#
#
# Indices 1 2 3 4 5 6 
#
# 1 0.021320 -0.006338 -0.000540 -0.004145 -0.010227 -0.000941
# 2 -0.006338 0.017728 -0.003936 0.008840 0.006181 0.002250
# 3 -0.000540 -0.003936 0.009071 0.001824 -0.008106 -0.005042
# 4 -0.004145 0.008840 0.001824 0.024976 0.002397 -0.000336
# 5 -0.010227 0.006181 -0.008106 0.002397 0.037365 0.008800
# 6 -0.000941 0.002250 -0.005042 -0.000336 0.008800 0.040113
#
#
# Mechanical properties :
#
#
# Convention : Reuss Voigt Hill
#
# Bulk Modulus (GPa) = 37.75038 62.20775 49.97906
# Shear Modulus (GPa) = 27.61933 39.73154 33.67543
#
# Velocity S-wave (km/s) = 3.39160 4.06786 3.74503
# Velocity P-wave (km/s) = 5.57312 6.92617 6.28616
#
# Compressibility (1/GPa) = 0.02648980
#
# Stress axis : x y z
#
# Youngs Moduli (GPa) = 46.90367 56.40736 110.24188
#
# Poissons Ratio (x) = 0.35751 0.05957
# Poissons Ratio (y) = 0.29728 0.43396
# Poissons Ratio (z) = 0.02534 0.22204
#
# Static dielectric constant tensor:
#      x y z
#    x 1.940400 -0.055250 -0.009310 
#    y -0.055250 1.910420 0.005580 
#    z -0.009310 0.005580 2.007250 
# 
# From -- ./inp_files/342483.got.cif
#   From: 2010.05.17/outbox.cif.g08.bks.cpg/sg2_172_cif.got.tgz:342483.got - 2010.06.03 11:33:40.
