data_PCOD9082004
_publ_section_title
;
Structure prediction by ZEFSAII (Michael W. Deem and Ramdas Pophale) SiO2 
 PCOD9082004
Probable space group: P -1
;
_chemical_formula_sum "Si O2"
_cell_formula_units_Z 16
_cell_length_a 11.965978
_cell_length_b 9.585547
_cell_length_c 10.466041
_cell_angle_alpha 82.520424
_cell_angle_beta 127.892558
_cell_angle_gamma 124.132991
_cell_volume 740.700156
_symmetry_space_group_name_H-M "P -1"
_symmetry_group_IT_number 2
_symmetry_cell_setting 'triclinic'
loop_
_space_group_symop_operation_xyz
x,y,z
-x,-y,-z
loop_
_atom_site_type_symbol
_atom_site_label
_atom_site_fract_x
_atom_site_fract_y
_atom_site_fract_z
Si Si1 0.839814 0.978645 0.207276
Si Si2 0.807217 0.438232 0.004487
Si Si3 0.441485 0.810672 0.927866
Si Si4 0.818637 0.344536 0.463223
Si Si5 0.973944 0.711178 0.888285
Si Si6 0.647417 0.471147 0.504887
Si Si7 0.900035 0.096425 0.514034
Si Si8 0.546941 0.709496 0.374340
O O1 0.909084 0.089751 0.110155
O O2 0.900998 0.114586 0.356676
O O3 0.930736 0.887346 0.319422
O O4 0.626107 0.838486 0.064100
O O5 0.627138 0.325595 0.805052
O O6 0.918586 0.640334 0.004341
O O7 0.717946 0.367419 0.088191
O O8 0.924635 0.370059 0.073674
O O9 0.355780 0.780672 0.733691
O O10 0.500000 0.000000 0.000000
O O11 0.756496 0.423559 0.508846
O O12 0.870097 0.219764 0.556849
O O13 0.000000 0.500000 0.500000
O O14 0.788673 0.613505 0.692333
O O15 0.571863 0.561344 0.369067
O O16 0.487530 0.308595 0.495872
O O17 0.725884 0.895464 0.437839
#
# Coordination Sequence:
#
# PCOD9082004 Si02
#       8
#     2   2   2   2   2   2   2   2
#     4  11  21  36  64  92 125 163 227 261 308 388
#     4  10  19  32  59  94 120 158 216 260 309 373
#     4  12  21  39  64  95 128 171 218 265 321 391
#     4  12  26  41  64  96 138 168 211 279 331 378
#     4  10  19  35  59  93 123 161 211 269 309 382
#     4  10  22  40  62  95 132 168 212 272 328 379
#     4  11  22  38  65  94 125 172 218 265 326 389
#     4  10  20  39  67  93 123 173 222 260 317 407
#
# _framework density 21.601185000000001
#
# number of rings (size 3 to 8) (size 9 to 14) (size 15 to 20)
#    0.000    1.250    5.000    1.500    1.750    0.500 
#    0.000    3.750    2.750    0.750    0.000    0.000 
#    0.000    0.000    0.000    0.000    0.000    0.000 
#
# Total GULP energy -89248.450591 kJ/mol
# GULP energy per Si atom -5578.028162 kJ/mol
# Density = 2.155202 g / cm^3
# Si number density = 21.601185 Si / 1000 Ang^3
#
#
#
# Elastic Constant Matrix: (Units=GPa)
#
#
# Indices 1 2 3 4 5 6 
#
# 1 109.6300 37.0737 18.4594 -7.6686 20.9785 3.0078
# 2 37.0737 61.6019 12.8093 -19.5386 -2.6028 9.0334
# 3 18.4594 12.8093 84.7955 -8.2449 34.7676 -2.4516
# 4 -7.6686 -19.5386 -8.2449 20.5028 -1.0666 -2.0125
# 5 20.9785 -2.6028 34.7676 -1.0666 36.1020 -1.7286
# 6 3.0078 9.0334 -2.4516 -2.0125 -1.7286 27.8577
#
#
#
# Elastic Compliance Matrix: (Units=1/GPa)
#
#
# Indices 1 2 3 4 5 6 
#
# 1 0.014566 -0.011763 0.003333 -0.004940 -0.012601 0.001396
# 2 -0.011763 0.034950 -0.007281 0.026087 0.016766 -0.007779
# 3 0.003333 -0.007281 0.022131 0.002240 -0.023581 0.002648
# 4 -0.004940 0.026087 0.002240 0.072714 0.004638 -0.002188
# 5 -0.012601 0.016766 -0.023581 0.004638 0.058973 -0.002157
# 6 0.001396 -0.007779 0.002648 -0.002188 -0.002157 0.038210
#
#
# Mechanical properties :
#
#
# Convention : Reuss Voigt Hill
#
# Bulk Modulus (GPa) = 24.86183 43.63470 34.24826
# Shear Modulus (GPa) = 17.45962 29.40483 23.43223
#
# Velocity S-wave (km/s) = 2.84610 3.69353 3.29715
# Velocity P-wave (km/s) = 4.72597 6.19948 5.51218
#
# Compressibility (1/GPa) = 0.04022230
#
# Stress axis : x y z
#
# Youngs Moduli (GPa) = 68.65420 28.61220 45.18636
#
# Poissons Ratio (x) = 0.33657 -0.15059
# Poissons Ratio (y) = 0.80759 0.32902
# Poissons Ratio (z) = -0.22879 0.20834
#
# Static dielectric constant tensor:
#      x y z
#    x 1.834010 0.015360 -0.038710 
#    y 0.015360 1.898990 -0.067730 
#    z -0.038710 -0.067730 1.792310 
# 
# From -- ./inp_files/417210.got.cif
#   From: 2010.05.17/outbox.cif.g08.bks.cpg/sg2_209_cif.got.tgz:417210.got - 2010.06.03 11:33:40.
