data_PCOD9082373
_publ_section_title
;
Structure prediction by ZEFSAII (Michael W. Deem and Ramdas Pophale) SiO2 
 PCOD9082373
Probable space group: P -1
;
_chemical_formula_sum "Si O2"
_cell_formula_units_Z 14
_cell_length_a 15.208755
_cell_length_b 16.510334
_cell_length_c 5.219837
_cell_angle_alpha 116.577301
_cell_angle_beta 120.815588
_cell_angle_gamma 36.129362
_cell_volume 662.236634
_symmetry_space_group_name_H-M "P -1"
_symmetry_group_IT_number 2
_symmetry_cell_setting 'triclinic'
loop_
_space_group_symop_operation_xyz
x,y,z
-x,-y,-z
loop_
_atom_site_type_symbol
_atom_site_label
_atom_site_fract_x
_atom_site_fract_y
_atom_site_fract_z
Si Si1 0.992150 0.791013 0.358411
Si Si2 0.300704 0.932663 0.988082
Si Si3 0.098526 0.907403 0.768834
Si Si4 0.086142 0.553592 0.933973
Si Si5 0.545434 0.850017 0.943303
Si Si6 0.727511 0.888614 0.392367
Si Si7 0.207545 0.376048 0.379190
O O1 0.905934 0.783732 0.427718
O O2 0.108292 0.791850 0.624472
O O3 0.069412 0.671952 0.104764
O O4 0.844352 0.942853 0.234630
O O5 0.305397 0.012522 0.309194
O O6 0.250863 0.869437 0.941032
O O7 0.465196 0.820835 0.930341
O O8 0.000000 0.000000 0.500000
O O9 0.000000 0.000000 0.000000
O O10 0.188170 0.451916 0.704511
O O11 0.913047 0.626068 0.756770
O O12 0.150942 0.469157 0.175238
O O13 0.628614 0.769243 0.687943
O O14 0.389412 0.011262 0.876258
O O15 0.668759 0.825480 0.261715
#
# Coordination Sequence:
#
# PCOD9082373 Si02
#       7
#     2   2   2   2   2   2   2
#     4  10  20  35  56  83 114 140 188 232 274 330
#     4  10  21  33  56  83 114 148 179 226 286 337
#     4  10  20  35  56  83 113 145 181 228 279 326
#     4  10  22  36  56  79 106 150 186 227 272 317
#     4  10  21  34  51  83 114 148 181 226 276 342
#     4  10  19  33  54  82 112 147 177 222 289 334
#     4  10  22  37  54  78 110 147 188 224 269 327
#
# _framework density 21.14048
#
# number of rings (size 3 to 8) (size 9 to 14) (size 15 to 20)
#    0.000    2.000    2.857    0.429    4.000    1.143 
#    0.000    0.000    0.000    1.714    0.000    0.000 
#    0.000    0.000    0.000    0.000    0.000    0.000 
#
# Total GULP energy -78090.062604 kJ/mol
# GULP energy per Si atom -5577.861615 kJ/mol
# Density = 2.109236 g / cm^3
# Si number density = 21.140480 Si / 1000 Ang^3
#
#
#
# Elastic Constant Matrix: (Units=GPa)
#
#
# Indices 1 2 3 4 5 6 
#
# 1 160.9009 18.6718 80.9182 22.6897 22.1934 -26.8932
# 2 18.6718 46.6676 20.9397 12.5781 1.3326 -8.3902
# 3 80.9182 20.9397 140.8952 33.1035 0.1059 -11.7244
# 4 22.6897 12.5781 33.1035 38.0160 8.1019 -9.0280
# 5 22.1934 1.3326 0.1059 8.1019 33.3053 1.2086
# 6 -26.8932 -8.3902 -11.7244 -9.0280 1.2086 16.8577
#
#
#
# Elastic Compliance Matrix: (Units=1/GPa)
#
#
# Indices 1 2 3 4 5 6 
#
# 1 0.014771 0.000460 -0.008086 0.005921 -0.012082 0.022207
# 2 0.000460 0.025103 -0.002200 -0.004294 -0.000602 0.009441
# 3 -0.008086 -0.002200 0.013682 -0.010729 0.008436 -0.010830
# 4 0.005921 -0.004294 -0.010729 0.042304 -0.014886 0.023570
# 5 -0.012082 -0.000602 0.008436 -0.014886 0.042592 -0.024733
# 6 0.022207 0.009441 -0.010830 0.023570 -0.024733 0.106310
#
#
# Mechanical properties :
#
#
# Convention : Reuss Voigt Hill
#
# Bulk Modulus (GPa) = 29.49491 65.50255 47.49873
# Shear Modulus (GPa) = 18.13456 32.83140 25.48298
#
# Velocity S-wave (km/s) = 2.93202 3.94510 3.47567
# Velocity P-wave (km/s) = 5.04425 7.19746 6.21482
#
# Compressibility (1/GPa) = 0.03390416
#
# Stress axis : x y z
#
# Youngs Moduli (GPa) = 67.69828 39.83556 73.09050
#
# Poissons Ratio (x) = -0.01831 0.59101
# Poissons Ratio (y) = -0.03112 0.16078
# Poissons Ratio (z) = 0.54741 0.08763
#
# Static dielectric constant tensor:
#      x y z
#    x 1.890190 0.062140 -0.004740 
#    y 0.062140 1.808230 -0.039360 
#    z -0.004740 -0.039360 1.806940 
# 
# From -- ./inp_files/53722.got.cif
#   From: 2010.05.17/outbox.cif.g08.bks.cpg/sg2_27_cif.got.tgz:53722.got - 2010.06.03 11:33:40.
