data_PCOD9082958
_publ_section_title
;
Structure prediction by ZEFSAII (Michael W. Deem and Ramdas Pophale) SiO2 
 PCOD9082958
Probable space group: P -1
;
_chemical_formula_sum "Si O2"
_cell_formula_units_Z 14
_cell_length_a 8.061122
_cell_length_b 11.434878
_cell_length_c 14.508155
_cell_angle_alpha 148.985957
_cell_angle_beta 109.673268
_cell_angle_gamma 69.941134
_cell_volume 644.735755
_symmetry_space_group_name_H-M "P -1"
_symmetry_group_IT_number 2
_symmetry_cell_setting 'triclinic'
loop_
_space_group_symop_operation_xyz
x,y,z
-x,-y,-z
loop_
_atom_site_type_symbol
_atom_site_label
_atom_site_fract_x
_atom_site_fract_y
_atom_site_fract_z
Si Si1 0.604913 0.877805 0.021881
Si Si2 0.411034 0.652600 0.386856
Si Si3 0.631414 0.938297 0.723395
Si Si4 0.013036 0.928615 0.160796
Si Si5 0.212313 0.445845 0.907866
Si Si6 0.462595 0.736956 0.251466
Si Si7 0.918184 0.022177 0.398553
O O1 0.604504 0.606839 0.819179
O O2 0.805392 0.949486 0.111869
O O3 0.500000 0.000000 0.000000
O O4 0.494306 0.962294 0.149861
O O5 0.575324 0.696947 0.513672
O O6 0.419418 0.793542 0.386985
O O7 0.238874 0.774247 0.488641
O O8 0.582276 0.097059 0.731452
O O9 0.837961 0.962613 0.798095
O O10 0.033824 0.040541 0.341883
O O11 0.074462 0.656778 0.995210
O O12 0.332032 0.358182 0.784023
O O13 0.141504 0.229613 0.793839
O O14 0.342836 0.538647 0.068836
O O15 0.000000 0.000000 0.500000
#
# Coordination Sequence:
#
# PCOD9082958 Si02
#       7
#     2   2   2   2   2   2   2
#     4  12  28  52  71  90 131 187 239 290 331 377
#     4  12  23  41  70 101 140 178 220 274 344 402
#     4  11  24  45  68 106 137 172 225 278 338 414
#     4  11  23  43  65  97 140 174 227 280 328 404
#     4  10  19  33  59  93 143 180 212 251 328 413
#     4  10  19  36  65 101 142 176 203 265 343 417
#     4  12  22  33  59 103 142 176 212 260 338 419
#
# _framework density 21.714324000000001
#
# number of rings (size 3 to 8) (size 9 to 14) (size 15 to 20)
#    0.000    0.857    2.857    6.857    2.000    1.143 
#    2.571    0.714    0.000    0.000    0.000    0.000 
#    0.000    0.000    0.000    0.000    0.000    0.000 
#
# Total GULP energy -78174.091087 kJ/mol
# GULP energy per Si atom -5583.863649 kJ/mol
# Density = 2.166490 g / cm^3
# Si number density = 21.714324 Si / 1000 Ang^3
#
#
#
# Elastic Constant Matrix: (Units=GPa)
#
#
# Indices 1 2 3 4 5 6 
#
# 1 149.4324 22.4792 30.0461 -17.4055 -6.4880 -14.9236
# 2 22.4792 59.8641 5.4065 -9.7398 -1.1327 -12.4873
# 3 30.0461 5.4065 83.0095 -20.1898 6.7384 4.8842
# 4 -17.4055 -9.7398 -20.1898 12.8796 -0.2196 2.4536
# 5 -6.4880 -1.1327 6.7384 -0.2196 37.5851 -4.1098
# 6 -14.9236 -12.4873 4.8842 2.4536 -4.1098 18.0637
#
#
#
# Elastic Compliance Matrix: (Units=1/GPa)
#
#
# Indices 1 2 3 4 5 6 
#
# 1 0.008837 -0.000431 -0.002131 0.006939 0.002729 0.007257
# 2 -0.000431 0.022056 0.001924 0.016763 0.001708 0.012482
# 3 -0.002131 0.001924 0.022838 0.036732 -0.005597 -0.012869
# 4 0.006939 0.016763 0.036732 0.160161 -0.005658 -0.015653
# 5 0.002729 0.001708 -0.005597 -0.005658 0.029457 0.012419
# 6 0.007257 0.012482 -0.012869 -0.015653 0.012419 0.078415
#
#
# Mechanical properties :
#
#
# Convention : Reuss Voigt Hill
#
# Bulk Modulus (GPa) = 19.06454 45.35216 32.20835
# Shear Modulus (GPa) = 14.68313 29.33066 22.00689
#
# Velocity S-wave (km/s) = 2.60320 3.67924 3.18696
# Velocity P-wave (km/s) = 4.22307 6.24342 5.32985
#
# Compressibility (1/GPa) = 0.05245339
#
# Stress axis : x y z
#
# Youngs Moduli (GPa) = 113.16218 45.33879 43.78580
#
# Poissons Ratio (x) = 0.01956 0.09332
# Poissons Ratio (y) = 0.04882 -0.08423
# Poissons Ratio (z) = 0.24117 -0.08721
#
# Static dielectric constant tensor:
#      x y z
#    x 1.869830 0.006670 0.049990 
#    y 0.006670 1.793830 -0.029060 
#    z 0.049990 -0.029060 1.915670 
# 
# From -- ./inp_files/501247.got.cif
#   From: 2010.05.17/outbox.cif.g08.bks.cpg/sg2_251_cif.got.tgz:501247.got - 2010.06.03 11:33:40.
