data_PCOD9082306
_publ_section_title
;
Structure prediction by ZEFSAII (Michael W. Deem and Ramdas Pophale) SiO2 
 PCOD9082306
Probable space group: P -1
;
_chemical_formula_sum "Si O2"
_cell_formula_units_Z 16
_cell_length_a 21.407913
_cell_length_b 21.176743
_cell_length_c 7.266921
_cell_angle_alpha 120.270306
_cell_angle_beta 58.685810
_cell_angle_gamma 166.420835
_cell_volume 660.815122
_symmetry_space_group_name_H-M "P -1"
_symmetry_group_IT_number 2
_symmetry_cell_setting 'triclinic'
loop_
_space_group_symop_operation_xyz
x,y,z
-x,-y,-z
loop_
_atom_site_type_symbol
_atom_site_label
_atom_site_fract_x
_atom_site_fract_y
_atom_site_fract_z
Si Si1 0.509429 0.423008 0.840379
Si Si2 0.603147 0.914584 0.593836
Si Si3 0.271957 0.728885 0.213732
Si Si4 0.058083 0.886264 0.718745
Si Si5 0.886281 0.058103 0.734205
Si Si6 0.728881 0.271957 0.342961
Si Si7 0.423027 0.509449 0.599646
Si Si8 0.085418 0.396858 0.840468
O O1 0.228340 0.117189 0.873172
O O2 0.547729 0.452250 0.606780
O O3 0.500000 0.500000 0.000000
O O4 0.751885 0.608729 0.826633
O O5 0.778145 0.030055 0.363501
O O6 0.431825 0.813031 0.609784
O O7 0.361417 0.638586 0.665748
O O8 0.833791 0.166209 0.748623
O O9 0.272730 0.727272 0.431808
O O10 0.042044 0.562685 0.248195
O O11 0.562684 0.042047 0.186275
O O12 0.186970 0.568180 0.033823
O O13 0.086184 0.913800 0.491425
O O14 0.117211 0.228367 0.706637
O O15 0.969949 0.221866 0.892234
O O16 0.608753 0.751909 0.756104
O O17 0.500000 0.500000 0.500000
#
# Coordination Sequence:
#
# PCOD9082306 Si02
#       8
#     2   2   2   2   2   2   2   2
#     4  10  19  33  54  76 104 139 176 217 268 326
#     4  11  21  35  59  86 110 143 192 241 280 328
#     4  10  22  39  57  80 116 157 188 225 288 347
#     4   9  18  33  52  76 105 139 174 219 278 326
#     4   9  18  33  52  76 105 139 174 219 278 326
#     4  10  22  39  57  80 116 157 188 225 288 347
#     4  10  19  33  54  76 104 139 176 217 268 326
#     4  11  21  35  59  86 110 143 192 241 280 328
#
# _framework density 24.212520999999999
#
# number of rings (size 3 to 8) (size 9 to 14) (size 15 to 20)
#    0.000    2.000    0.000    6.000    0.000    3.000 
#    0.000    1.250    0.000    9.000    0.000    0.000 
#    0.000    0.000    0.000    0.000    0.000    0.000 
#
# Total GULP energy -89359.067252 kJ/mol
# GULP energy per Si atom -5584.941703 kJ/mol
# Density = 2.415741 g / cm^3
# Si number density = 24.212521 Si / 1000 Ang^3
#
#
#
# Elastic Constant Matrix: (Units=GPa)
#
#
# Indices 1 2 3 4 5 6 
#
# 1 82.2812 36.5425 52.6086 4.5174 -23.3293 22.4580
# 2 36.5425 158.4589 37.9332 15.4413 -8.6281 18.5267
# 3 52.6086 37.9332 82.1205 22.7667 -26.1461 5.2559
# 4 4.5174 15.4413 22.7667 37.0572 -5.1582 -9.7664
# 5 -23.3293 -8.6281 -26.1461 -5.1582 49.4660 -5.1688
# 6 22.4580 18.5267 5.2559 -9.7664 -5.1688 33.8399
#
#
#
# Elastic Compliance Matrix: (Units=1/GPa)
#
#
# Indices 1 2 3 4 5 6 
#
# 1 0.027384 -0.001063 -0.016315 0.004026 0.003124 -0.013418
# 2 -0.001063 0.007812 -0.002123 -0.003096 -0.001032 -0.004293
# 3 -0.016315 -0.002123 0.028846 -0.012693 0.006362 0.004818
# 4 0.004026 -0.003096 -0.012693 0.038790 -0.000032 0.012184
# 5 0.003124 -0.001032 0.006362 -0.000032 0.025006 0.001314
# 6 -0.013418 -0.004293 0.004818 0.012184 0.001314 0.043775
#
#
# Mechanical properties :
#
#
# Convention : Reuss Voigt Hill
#
# Bulk Modulus (GPa) = 39.93618 64.11435 52.02526
# Shear Modulus (GPa) = 22.83530 37.12438 29.97984
#
# Velocity S-wave (km/s) = 3.07436 3.91995 3.52262
# Velocity P-wave (km/s) = 5.39741 6.85750 6.17079
#
# Compressibility (1/GPa) = 0.02503995
#
# Stress axis : x y z
#
# Youngs Moduli (GPa) = 36.51803 128.01612 34.66715
#
# Poissons Ratio (x) = 0.13607 0.56558
# Poissons Ratio (y) = 0.03882 0.07360
# Poissons Ratio (z) = 0.59578 0.27177
#
# Static dielectric constant tensor:
#      x y z
#    x 1.979250 0.001010 0.016430 
#    y 0.001010 1.896820 0.006050 
#    z 0.016430 0.006050 1.976270 
# 
# From -- ./inp_files/477160.got.cif
#   From: 2010.05.17/outbox.cif.g08.bks.cpg/sg2_239_cif.got.tgz:477160.got - 2010.06.03 11:33:40.
