data_PCOD9082788
_publ_section_title
;
Structure prediction by ZEFSAII (Michael W. Deem and Ramdas Pophale) SiO2 
 PCOD9082788
Probable space group: P -1
;
_chemical_formula_sum "Si O2"
_cell_formula_units_Z 14
_cell_length_a 28.425579
_cell_length_b 10.941969
_cell_length_c 18.047595
_cell_angle_alpha 155.570810
_cell_angle_beta 17.038579
_cell_angle_gamma 157.552023
_cell_volume 609.758976
_symmetry_space_group_name_H-M "P -1"
_symmetry_group_IT_number 2
_symmetry_cell_setting 'triclinic'
loop_
_space_group_symop_operation_xyz
x,y,z
-x,-y,-z
loop_
_atom_site_type_symbol
_atom_site_label
_atom_site_fract_x
_atom_site_fract_y
_atom_site_fract_z
Si Si1 0.570143 0.421210 0.474886
Si Si2 0.188998 0.418293 0.286994
Si Si3 0.763221 0.720265 0.018792
Si Si4 0.510479 0.833802 0.132772
Si Si5 0.199144 0.773897 0.871088
Si Si6 0.918205 0.224402 0.711095
Si Si7 0.072644 0.156213 0.897580
O O1 0.404436 0.476295 0.784504
O O2 0.684323 0.379096 0.348562
O O3 0.717735 0.708381 0.361169
O O4 0.493666 0.083350 0.355676
O O5 0.014669 0.368439 0.567524
O O6 0.205150 0.470178 0.203267
O O7 0.354325 0.700592 0.234724
O O8 0.194404 0.062678 0.089520
O O9 0.722175 0.009748 0.202332
O O10 0.947229 0.911815 0.890380
O O11 0.500000 0.500000 0.000000
O O12 0.707141 0.027087 0.909143
O O13 0.000000 0.500000 0.000000
O O14 0.952860 0.511796 0.876528
O O15 0.000000 0.000000 0.500000
O O16 0.000000 0.000000 0.000000
#
# Coordination Sequence:
#
# PCOD9082788 Si02
#       7
#     2   2   2   2   2   2   2
#     4  11  20  38  60  90 121 165 206 251 309 370
#     4  10  21  34  53  91 120 152 196 252 307 352
#     4  10  23  36  61  87 126 159 207 256 309 367
#     4  11  19  31  54  87 124 151 195 246 307 363
#     4  10  19  33  57  92 128 154 196 258 311 357
#     4  11  22  37  64  89 121 160 205 253 304 360
#     4  11  25  44  63  88 124 168 210 253 306 372
#
# _framework density 22.959892
#
# number of rings (size 3 to 8) (size 9 to 14) (size 15 to 20)
#    0.857    0.571    4.286    2.143    0.000    2.857 
#    0.000    0.714    0.000    4.286    0.000    0.000 
#    0.000    0.000    0.000    0.000    0.000    0.000 
#
# Total GULP energy -78257.673812 kJ/mol
# GULP energy per Si atom -5589.833844 kJ/mol
# Density = 2.290763 g / cm^3
# Si number density = 22.959892 Si / 1000 Ang^3
#
#
#
# Elastic Constant Matrix: (Units=GPa)
#
#
# Indices 1 2 3 4 5 6 
#
# 1 84.6928 74.5374 28.2727 -5.9292 27.6336 26.0867
# 2 74.5374 79.2495 57.6877 -15.7118 -8.4659 23.9926
# 3 28.2727 57.6877 135.0708 -25.1204 40.5751 13.9283
# 4 -5.9292 -15.7118 -25.1204 37.6552 -13.0442 -8.1484
# 5 27.6336 -8.4659 40.5751 -13.0442 27.4784 4.2950
# 6 26.0867 23.9926 13.9283 -8.1484 4.2950 43.5998
#
#
#
# Elastic Compliance Matrix: (Units=1/GPa)
#
#
# Indices 1 2 3 4 5 6 
#
# 1 0.000184 0.011229 -0.009674 0.004346 0.020309 -0.004387
# 2 0.011229 -0.005007 0.006600 -0.005384 -0.024406 -0.004674
# 3 -0.009674 0.006600 0.006022 0.007673 0.006350 0.001041
# 4 0.004346 -0.005384 0.007673 0.029586 -0.003913 0.003826
# 5 0.020309 -0.024406 0.006350 -0.003913 -0.002593 -0.001226
# 6 -0.004387 -0.004674 0.001041 0.003826 -0.001226 0.028636
#
#
# Mechanical properties :
#
#
# Convention : Reuss Voigt Hill
#
# Bulk Modulus (GPa) = 57.11750 68.88984 63.00367
# Shear Modulus (GPa) = 107.86635 30.98104 69.42370
#
# Velocity S-wave (km/s) = 6.86166 3.67734 5.50478
# Velocity P-wave (km/s) = 9.36523 6.93542 8.24037
#
# Compressibility (1/GPa) = 0.01750777
#
# Stress axis : x y z
#
# Youngs Moduli (GPa) = 5447.34801 -199.73364 166.06467
#
# Poissons Ratio (x) = 2.24277 1.60656
# Poissons Ratio (y) = -61.16726 -1.09603
# Poissons Ratio (z) = 52.69926 1.31825
#
# Static dielectric constant tensor:
#      x y z
#    x 1.882420 -0.066870 0.013190 
#    y -0.066870 1.855510 0.005880 
#    z 0.013190 0.005880 1.843540 
# 
# From -- ./inp_files/580118.got.cif
#   From: 2010.05.17/outbox.cif.g08.bks.cpg/sg2_291_cif.got.tgz:580118.got - 2010.06.03 11:33:40.
