data_PCOD9082976
_publ_section_title
;
Structure prediction by ZEFSAII (Michael W. Deem and Ramdas Pophale) SiO2 
 PCOD9082976
Probable space group: P -1
;
_chemical_formula_sum "Si O2"
_cell_formula_units_Z 14
_cell_length_a 17.700697
_cell_length_b 17.015395
_cell_length_c 8.665235
_cell_angle_alpha 50.515797
_cell_angle_beta 120.266453
_cell_angle_gamma 157.102626
_cell_volume 754.123133
_symmetry_space_group_name_H-M "P -1"
_symmetry_group_IT_number 2
_symmetry_cell_setting 'triclinic'
loop_
_space_group_symop_operation_xyz
x,y,z
-x,-y,-z
loop_
_atom_site_type_symbol
_atom_site_label
_atom_site_fract_x
_atom_site_fract_y
_atom_site_fract_z
Si Si1 0.792680 0.810429 0.447556
Si Si2 0.277347 0.842026 0.722627
Si Si3 0.180030 0.945936 0.908796
Si Si4 0.909206 0.557701 0.880938
Si Si5 0.479982 0.624752 0.471895
Si Si6 0.307950 0.621798 0.439240
Si Si7 0.070605 0.685967 0.394114
O O1 0.611186 0.843415 0.234725
O O2 0.692208 0.609167 0.513754
O O3 0.819937 0.933714 0.202688
O O4 0.000000 0.000000 0.500000
O O5 0.221507 0.828707 0.514800
O O6 0.114625 0.720222 0.825400
O O7 0.503297 0.106007 0.675169
O O8 0.224891 0.667587 0.890050
O O9 0.992926 0.728653 0.872234
O O10 0.357462 0.296496 0.445558
O O11 0.167215 0.852485 0.148734
O O12 0.787632 0.466256 0.720170
O O13 0.393439 0.596145 0.561758
O O14 0.127184 0.460948 0.567728
O O15 0.000000 0.500000 0.500000
#
# Coordination Sequence:
#
# PCOD9082976 Si02
#       7
#     2   2   2   2   2   2   2
#     4   9  18  37  65  90 113 141 199 257 296 335
#     4  10  20  37  54  81 117 160 199 238 281 345
#     4  10  19  39  60  88 119 153 193 246 296 345
#     4  10  19  33  60  82 113 155 206 241 277 335
#     4   9  20  36  62  90 109 146 205 243 288 353
#     4  11  22  37  58  87 118 160 201 241 288 344
#     4  11  24  40  54  84 133 161 188 238 297 353
#
# _framework density 18.564608
#
# number of rings (size 3 to 8) (size 9 to 14) (size 15 to 20)
#    0.857    1.143    2.857    1.286    0.000    1.714 
#    5.143    0.714    0.000    1.714    0.000    0.000 
#    0.000    0.000    0.000    0.000    0.000    0.000 
#
# Total GULP energy -77953.753485 kJ/mol
# GULP energy per Si atom -5568.125249 kJ/mol
# Density = 1.852235 g / cm^3
# Si number density = 18.564608 Si / 1000 Ang^3
#
#
#
# Elastic Constant Matrix: (Units=GPa)
#
#
# Indices 1 2 3 4 5 6 
#
# 1 83.5974 19.1308 14.4655 -13.7726 4.1938 -6.1614
# 2 19.1308 96.7125 17.6285 -20.1951 2.2920 -14.5387
# 3 14.4655 17.6285 49.7866 -0.2760 9.8341 -18.1486
# 4 -13.7726 -20.1951 -0.2760 18.6537 -5.6109 5.2845
# 5 4.1938 2.2920 9.8341 -5.6109 19.0256 -6.8901
# 6 -6.1614 -14.5387 -18.1486 5.2845 -6.8901 28.1335
#
#
#
# Elastic Compliance Matrix: (Units=1/GPa)
#
#
# Indices 1 2 3 4 5 6 
#
# 1 0.014604 0.000356 -0.005480 0.012379 0.002550 -0.001853
# 2 0.000356 0.015414 -0.006016 0.018403 0.007525 0.002548
# 3 -0.005480 -0.006016 0.032715 -0.019222 -0.014547 0.016843
# 4 0.012379 0.018403 -0.019222 0.094120 0.028838 -0.010796
# 5 0.002550 0.007525 -0.014547 0.028838 0.069534 0.006676
# 6 -0.001853 0.002548 0.016843 -0.010796 0.006676 0.050984
#
#
# Mechanical properties :
#
#
# Convention : Reuss Voigt Hill
#
# Bulk Modulus (GPa) = 24.72112 36.94957 30.83535
# Shear Modulus (GPa) = 15.96763 25.08733 20.52748
#
# Velocity S-wave (km/s) = 2.93595 3.68006 3.32886
# Velocity P-wave (km/s) = 4.98380 6.16471 5.60544
#
# Compressibility (1/GPa) = 0.04045124
#
# Stress axis : x y z
#
# Youngs Moduli (GPa) = 68.47577 64.87717 30.56747
#
# Poissons Ratio (x) = -0.02309 0.16750
# Poissons Ratio (y) = -0.02437 0.18391
# Poissons Ratio (z) = 0.37523 0.39033
#
# Static dielectric constant tensor:
#      x y z
#    x 1.684340 0.022200 0.015680 
#    y 0.022200 1.636850 -0.004510 
#    z 0.015680 -0.004510 1.629940 
# 
# From -- ./inp_files/293524.got.cif
#   From: 2010.05.17/outbox.cif.g08.bks.cpg/sg2_147_cif.got.tgz:293524.got - 2010.06.03 11:33:40.
