data_PCOD9082071
_publ_section_title
;
Structure prediction by ZEFSAII (Michael W. Deem and Ramdas Pophale) SiO2 
 PCOD9082071
Probable space group: P -1
;
_chemical_formula_sum "Si O2"
_cell_formula_units_Z 16
_cell_length_a 11.381289
_cell_length_b 8.094850
_cell_length_c 16.416006
_cell_angle_alpha 98.645204
_cell_angle_beta 131.879376
_cell_angle_gamma 116.022001
_cell_volume 758.082044
_symmetry_space_group_name_H-M "P -1"
_symmetry_group_IT_number 2
_symmetry_cell_setting 'triclinic'
loop_
_space_group_symop_operation_xyz
x,y,z
-x,-y,-z
loop_
_atom_site_type_symbol
_atom_site_label
_atom_site_fract_x
_atom_site_fract_y
_atom_site_fract_z
Si Si1 0.939353 0.251992 0.795292
Si Si2 0.599206 0.546634 0.188732
Si Si3 0.520958 0.475913 0.694401
Si Si4 0.731598 0.947334 0.097862
Si Si5 0.574280 0.216715 0.922564
Si Si6 0.935168 0.018909 0.632885
Si Si7 0.028355 0.052001 0.113345
Si Si8 0.730221 0.286058 0.833043
O O1 0.859550 0.110437 0.663677
O O2 0.735844 0.174454 0.748487
O O3 0.031226 0.168271 0.886843
O O4 0.161380 0.545485 0.907951
O O5 0.518176 0.449204 0.235690
O O6 0.519335 0.672318 0.138436
O O7 0.875908 0.762104 0.325921
O O8 0.481136 0.333297 0.052870
O O9 0.699586 0.700387 0.732329
O O10 0.646899 0.402958 0.775388
O O11 0.277423 0.237358 0.525824
O O12 0.606202 0.976744 0.105136
O O13 0.918752 0.994445 0.243344
O O14 0.875832 0.077516 0.089301
O O15 0.590585 0.129169 0.838538
O O16 0.000000 0.000000 0.000000
O O17 0.000000 0.500000 0.000000
#
# Coordination Sequence:
#
# PCOD9082071 Si02
#       8
#     2   2   2   2   2   2   2   2
#     4  10  18  31  52  72 100 140 166 203 250 300
#     4  10  15  31  51  75 101 134 169 206 249 296
#     4  11  22  32  49  81 111 126 161 220 254 296
#     4  10  17  29  54  74 102 136 168 206 251 300
#     4   9  14  29  50  74  92 127 179 208 229 287
#     4  10  19  30  51  79 105 128 170 211 258 287
#     4  11  19  31  52  77 104 131 167 206 259 300
#     4   9  19  33  52  71 100 136 175 205 243 301
#
# _framework density 21.105892999999998
#
# number of rings (size 3 to 8) (size 9 to 14) (size 15 to 20)
#    0.000    2.000    5.000    2.625    0.000    2.500 
#    0.000    0.000    0.000    8.250    0.000   13.125 
#    0.000    0.000    0.000    0.000    0.000    0.000 
#
# Total GULP energy -89153.814577 kJ/mol
# GULP energy per Si atom -5572.113411 kJ/mol
# Density = 2.105786 g / cm^3
# Si number density = 21.105893 Si / 1000 Ang^3
#
#
#
# Elastic Constant Matrix: (Units=GPa)
#
#
# Indices 1 2 3 4 5 6 
#
# 1 155.5010 19.1575 21.7662 3.2992 3.5978 44.1183
# 2 19.1575 34.4833 7.8932 0.9228 11.9338 12.0808
# 3 21.7662 7.8932 99.4276 19.0697 7.8963 12.5031
# 4 3.2992 0.9228 19.0697 17.4096 6.9409 8.1626
# 5 3.5978 11.9338 7.8963 6.9409 18.1979 5.5015
# 6 44.1183 12.0808 12.5031 8.1626 5.5015 33.1230
#
#
#
# Elastic Compliance Matrix: (Units=1/GPa)
#
#
# Indices 1 2 3 4 5 6 
#
# 1 0.011033 -0.000923 -0.001769 0.006646 0.001359 -0.015554
# 2 -0.000923 0.045619 -0.003031 0.020373 -0.031964 -0.013976
# 3 -0.001769 -0.003031 0.013308 -0.015814 0.001988 0.002004
# 4 0.006646 0.020373 -0.015814 0.100979 -0.037572 -0.028958
# 5 0.001359 -0.031964 0.001988 -0.037572 0.087980 0.003743
# 6 -0.015554 -0.013976 0.002004 -0.028958 0.003743 0.061763
#
#
# Mechanical properties :
#
#
# Convention : Reuss Voigt Hill
#
# Bulk Modulus (GPa) = 17.08974 43.00510 30.04742
# Shear Modulus (GPa) = 14.21937 29.78577 22.00257
#
# Velocity S-wave (km/s) = 2.59842 3.76074 3.23226
# Velocity P-wave (km/s) = 4.13728 6.26719 5.31012
#
# Compressibility (1/GPa) = 0.05851464
#
# Stress axis : x y z
#
# Youngs Moduli (GPa) = 90.63955 21.92053 75.14014
#
# Poissons Ratio (x) = 0.02024 0.13290
# Poissons Ratio (y) = 0.08370 0.22774
# Poissons Ratio (z) = 0.16031 0.06644
#
# Static dielectric constant tensor:
#      x y z
#    x 1.866590 0.020180 0.016420 
#    y 0.020180 1.855050 -0.005830 
#    z 0.016420 -0.005830 1.727640 
# 
# From -- ./inp_files/256468.got.cif
#   From: 2010.05.17/outbox.cif.g08.bks.cpg/sg2_129_cif.got.tgz:256468.got - 2010.06.03 11:33:40.
