data_PCOD9082997
_publ_section_title
;
Structure prediction by ZEFSAII (Michael W. Deem and Ramdas Pophale) SiO2 
 PCOD9082997
Probable space group: P -1
;
_chemical_formula_sum "Si O2"
_cell_formula_units_Z 16
_cell_length_a 26.265776
_cell_length_b 5.222005
_cell_length_c 10.043027
_cell_angle_alpha 101.807854
_cell_angle_beta 38.104449
_cell_angle_gamma 117.595582
_cell_volume 720.439880
_symmetry_space_group_name_H-M "P -1"
_symmetry_group_IT_number 2
_symmetry_cell_setting 'triclinic'
loop_
_space_group_symop_operation_xyz
x,y,z
-x,-y,-z
loop_
_atom_site_type_symbol
_atom_site_label
_atom_site_fract_x
_atom_site_fract_y
_atom_site_fract_z
Si Si1 0.135403 0.166471 0.514723
Si Si2 0.771480 0.498680 0.923895
Si Si3 0.293518 0.022274 0.171218
Si Si4 0.605965 0.903183 0.560903
Si Si5 0.411716 0.699458 0.581648
Si Si6 0.969340 0.738597 0.644898
Si Si7 0.725330 0.306002 0.563518
Si Si8 0.438333 0.594263 0.044648
O O1 0.195467 0.006466 0.411301
O O2 0.169309 0.428093 0.584671
O O3 0.181223 0.328869 0.294568
O O4 0.028233 0.913037 0.673865
O O5 0.678637 0.505532 0.159282
O O6 0.855589 0.591251 0.866660
O O7 0.727716 0.149871 0.939933
O O8 0.316222 0.863570 0.228442
O O9 0.380777 0.353141 0.021404
O O10 0.573945 0.563487 0.542946
O O11 0.518979 0.878048 0.828870
O O12 0.622262 0.138325 0.437443
O O13 0.700780 0.057162 0.474889
O O14 0.500000 0.000000 0.500000
O O15 0.000000 0.500000 0.500000
O O16 0.000000 0.000000 0.500000
O O17 0.653599 0.432472 0.693563
O O18 0.500000 0.500000 0.000000
#
# Coordination Sequence:
#
# PCOD9082997 Si02
#       8
#     2   2   2   2   2   2   2   2
#     4   9  20  35  63  94 122 146 191 266 318 360
#     4  10  22  38  60  87 126 163 202 242 303 364
#     4  10  19  33  60  87 122 146 195 254 319 351
#     4  12  26  42  60  84 121 162 212 245 290 363
#     4  12  29  43  60  84 125 176 208 237 280 363
#     4  10  19  36  61  95 122 152 195 252 318 363
#     4  10  22  36  60  91 116 153 197 263 323 348
#     4  11  21  35  58  86 120 153 202 257 314 347
#
# _framework density 22.208653000000002
#
# number of rings (size 3 to 8) (size 9 to 14) (size 15 to 20)
#    0.000    1.500    2.500    2.250   10.500    0.000 
#    0.000    0.000    0.000    1.500    0.000    0.000 
#    0.000    0.000    0.000    0.000    0.000    0.000 
#
# Total GULP energy -89086.328651 kJ/mol
# GULP energy per Si atom -5567.895541 kJ/mol
# Density = 2.215811 g / cm^3
# Si number density = 22.208653 Si / 1000 Ang^3
#
#
#
# Elastic Constant Matrix: (Units=GPa)
#
#
# Indices 1 2 3 4 5 6 
#
# 1 112.2559 50.5757 11.8617 -10.7240 -14.5571 33.8698
# 2 50.5757 114.5143 10.1426 9.9384 -3.8232 30.5321
# 3 11.8617 10.1426 31.2025 -1.1883 -7.0152 13.0678
# 4 -10.7240 9.9384 -1.1883 16.5407 -1.8438 -1.2717
# 5 -14.5571 -3.8232 -7.0152 -1.8438 23.1829 -9.2546
# 6 33.8698 30.5321 13.0678 -1.2717 -9.2546 60.2494
#
#
#
# Elastic Compliance Matrix: (Units=1/GPa)
#
#
# Indices 1 2 3 4 5 6 
#
# 1 0.015686 -0.006988 0.000358 0.015057 0.008515 -0.003729
# 2 -0.006988 0.014072 -0.002029 -0.014025 -0.005345 -0.003880
# 3 0.000358 -0.002029 0.037229 0.004715 0.009244 -0.005728
# 4 0.015057 -0.014025 0.004715 0.080867 0.015694 0.001738
# 5 0.008515 -0.005345 0.009244 0.015694 0.053424 0.004455
# 6 -0.003729 -0.003880 -0.005728 0.001738 0.004455 0.022623
#
#
# Mechanical properties :
#
#
# Convention : Reuss Voigt Hill
#
# Bulk Modulus (GPa) = 20.13312 44.79253 32.46282
# Shear Modulus (GPa) = 19.39668 32.35412 25.87540
#
# Velocity S-wave (km/s) = 2.95851 3.82098 3.41707
# Velocity P-wave (km/s) = 4.55582 6.29915 5.49703
#
# Compressibility (1/GPa) = 0.04966940
#
# Stress axis : x y z
#
# Youngs Moduli (GPa) = 63.74941 71.06503 26.86067
#
# Poissons Ratio (x) = 0.49660 -0.00961
# Poissons Ratio (y) = 0.44547 0.05449
# Poissons Ratio (z) = -0.02280 0.14417
#
# Static dielectric constant tensor:
#      x y z
#    x 1.888400 -0.016290 0.005020 
#    y -0.016290 1.984900 0.075570 
#    z 0.005020 0.075570 1.978220 
# 
# From -- ./inp_files/350769.got.cif
#   From: 2010.05.17/outbox.cif.g08.bks.cpg/sg2_176_cif.got.tgz:350769.got - 2010.06.03 11:33:40.
