data_PCOD9082723
_publ_section_title
;
Structure prediction by ZEFSAII (Michael W. Deem and Ramdas Pophale) SiO2 
 PCOD9082723
Probable space group: P -1
;
_chemical_formula_sum "Si O2"
_cell_formula_units_Z 14
_cell_length_a 14.215502
_cell_length_b 8.342183
_cell_length_c 11.528466
_cell_angle_alpha 68.926525
_cell_angle_beta 51.147917
_cell_angle_gamma 43.912768
_cell_volume 727.552942
_symmetry_space_group_name_H-M "P -1"
_symmetry_group_IT_number 2
_symmetry_cell_setting 'triclinic'
loop_
_space_group_symop_operation_xyz
x,y,z
-x,-y,-z
loop_
_atom_site_type_symbol
_atom_site_label
_atom_site_fract_x
_atom_site_fract_y
_atom_site_fract_z
Si Si1 0.511011 0.536308 0.795442
Si Si2 0.972377 0.035502 0.832232
Si Si3 0.225830 0.223976 0.130816
Si Si4 0.345045 0.647514 0.668370
Si Si5 0.144928 0.937488 0.331382
Si Si6 0.560191 0.716908 0.921973
Si Si7 0.884198 0.367989 0.028195
O O1 0.400939 0.690345 0.730797
O O2 0.551605 0.656654 0.814389
O O3 0.682764 0.285524 0.688119
O O4 0.435549 0.456880 0.954158
O O5 0.167845 0.884227 0.695999
O O6 0.978567 0.838857 0.936416
O O7 0.868703 0.125582 0.772232
O O8 0.912479 0.222151 0.929815
O O9 0.131028 0.155828 0.275971
O O10 0.294094 0.295195 0.153079
O O11 0.124879 0.430720 0.060959
O O12 0.389360 0.980142 0.012786
O O13 0.500000 0.500000 0.500000
O O14 0.286207 0.520374 0.802498
O O15 0.000000 0.000000 0.500000
#
# Coordination Sequence:
#
# PCOD9082723 Si02
#       7
#     2   2   2   2   2   2   2
#     4  10  19  34  61  77 114 144 193 226 278 352
#     4   9  20  37  58  80 117 152 193 224 284 350
#     4  10  19  33  57  85 115 145 189 244 275 330
#     4  10  19  34  60  83 110 153 191 232 277 339
#     4  11  23  36  56  86 115 151 188 232 295 341
#     4   9  18  32  54  90 105 141 189 240 278 318
#     4   9  19  36  58  81 112 147 200 225 283 330
#
# _framework density 19.242585999999999
#
# number of rings (size 3 to 8) (size 9 to 14) (size 15 to 20)
#    0.857    1.429    1.429    1.714    4.000    0.571 
#    0.000    2.857    0.000    0.857    0.000    0.000 
#    0.000    0.000    0.000    0.000    0.000    0.000 
#
# Total GULP energy -77957.934076 kJ/mol
# GULP energy per Si atom -5568.423863 kJ/mol
# Density = 1.919879 g / cm^3
# Si number density = 19.242586 Si / 1000 Ang^3
#
#
#
# Elastic Constant Matrix: (Units=GPa)
#
#
# Indices 1 2 3 4 5 6 
#
# 1 55.9777 11.1698 16.3039 -1.8929 2.3468 4.3306
# 2 11.1698 65.8499 19.4635 -6.3183 -7.8269 3.8990
# 3 16.3039 19.4635 87.3840 3.2307 -23.5140 16.8070
# 4 -1.8929 -6.3183 3.2307 19.0629 -0.5552 -4.1306
# 5 2.3468 -7.8269 -23.5140 -0.5552 30.1418 0.6772
# 6 4.3306 3.8990 16.8070 -4.1306 0.6772 30.9554
#
#
#
# Elastic Compliance Matrix: (Units=1/GPa)
#
#
# Indices 1 2 3 4 5 6 
#
# 1 0.020104 -0.002496 -0.005038 0.001982 -0.006121 0.000635
# 2 -0.002496 0.017375 -0.003119 0.006246 0.002374 0.000636
# 3 -0.005038 -0.003119 0.019349 -0.006684 0.014792 -0.010623
# 4 0.001982 0.006246 -0.006684 0.058020 -0.002911 0.010371
# 5 -0.006121 0.002374 0.014792 -0.002911 0.045955 -0.008868
# 6 0.000635 0.000636 -0.010623 0.010371 -0.008868 0.039481
#
#
# Mechanical properties :
#
#
# Convention : Reuss Voigt Hill
#
# Bulk Modulus (GPa) = 28.15043 33.67622 30.91333
# Shear Modulus (GPa) = 21.41961 26.85032 24.13497
#
# Velocity S-wave (km/s) = 3.33999 3.73950 3.54538
# Velocity P-wave (km/s) = 5.43461 6.01532 5.73232
#
# Compressibility (1/GPa) = 0.03552344
#
# Stress axis : x y z
#
# Youngs Moduli (GPa) = 49.74117 57.55342 51.68188
#
# Poissons Ratio (x) = 0.14366 0.26035
# Poissons Ratio (y) = 0.12416 0.16118
# Poissons Ratio (z) = 0.25058 0.17949
#
# Static dielectric constant tensor:
#      x y z
#    x 1.709250 -0.023720 -0.007240 
#    y -0.023720 1.688000 0.013510 
#    z -0.007240 0.013510 1.671640 
# 
# From -- ./inp_files/300647.got.cif
#   From: 2010.05.17/outbox.cif.g08.bks.cpg/sg2_151_cif.got.tgz:300647.got - 2010.06.03 11:33:40.
