data_PCOD9082621
_publ_section_title
;
Structure prediction by ZEFSAII (Michael W. Deem and Ramdas Pophale) SiO2 
 PCOD9082621
Probable space group: P -1
;
_chemical_formula_sum "Si O2"
_cell_formula_units_Z 16
_cell_length_a 4.828880
_cell_length_b 19.955665
_cell_length_c 18.106875
_cell_angle_alpha 27.014121
_cell_angle_beta 106.400833
_cell_angle_gamma 108.083126
_cell_volume 753.311264
_symmetry_space_group_name_H-M "P -1"
_symmetry_group_IT_number 2
_symmetry_cell_setting 'triclinic'
loop_
_space_group_symop_operation_xyz
x,y,z
-x,-y,-z
loop_
_atom_site_type_symbol
_atom_site_label
_atom_site_fract_x
_atom_site_fract_y
_atom_site_fract_z
Si Si1 0.292066 0.174350 0.786241
Si Si2 0.543813 0.966028 0.913852
Si Si3 0.120858 0.570817 0.860116
Si Si4 0.223585 0.278891 0.062220
Si Si5 0.064629 0.207640 0.963997
Si Si6 0.714695 0.780302 0.657665
Si Si7 0.777846 0.113642 0.287841
Si Si8 0.104161 0.664201 0.324883
O O1 0.987434 0.232394 0.717024
O O2 0.553767 0.305312 0.692023
O O3 0.375602 0.104637 0.784202
O O4 0.316733 0.064077 0.965852
O O5 0.779903 0.938755 0.897793
O O6 0.276071 0.838388 0.001952
O O7 0.426885 0.683487 0.766091
O O8 0.867183 0.671002 0.722530
O O9 0.169382 0.429796 0.951651
O O10 0.000000 0.500000 0.000000
O O11 0.216699 0.295890 0.957160
O O12 0.517957 0.214215 0.170893
O O13 0.957924 0.151279 0.189533
O O14 0.065059 0.293547 0.802238
O O15 0.972751 0.830781 0.687138
O O16 0.661093 0.939513 0.463407
O O17 0.000000 0.500000 0.500000
#
# Coordination Sequence:
#
# PCOD9082621 Si02
#       8
#     2   2   2   2   2   2   2   2
#     4   9  17  30  55  84 107 136 188 244 286 331
#     4   9  17  33  55  83 107 140 189 241 291 336
#     4  12  24  40  63  98 124 162 211 266 308 370
#     4  12  24  40  63  90 123 167 215 252 316 386
#     4  10  21  36  58  81 119 156 192 244 299 362
#     4  11  24  42  64  93 127 155 208 269 320 356
#     4  11  24  41  65  94 120 164 205 264 318 374
#     4  10  19  33  56  86 115 154 193 240 291 354
#
# _framework density 21.239560999999998
#
# number of rings (size 3 to 8) (size 9 to 14) (size 15 to 20)
#    0.000    1.500    1.250    4.500    0.000    5.000 
#    0.000    0.000   16.500    0.000    0.000    0.000 
#    0.000    0.000    0.000    0.000    0.000    0.000 
#
# Total GULP energy -89188.227569 kJ/mol
# GULP energy per Si atom -5574.264223 kJ/mol
# Density = 2.119122 g / cm^3
# Si number density = 21.239561 Si / 1000 Ang^3
#
#
#
# Elastic Constant Matrix: (Units=GPa)
#
#
# Indices 1 2 3 4 5 6 
#
# 1 153.6260 27.3999 37.6039 -8.1561 -13.3223 -6.7097
# 2 27.3999 75.4550 26.1864 -5.2511 0.7447 -9.7127
# 3 37.6039 26.1864 102.4869 -18.2633 -16.0862 6.0027
# 4 -8.1561 -5.2511 -18.2633 15.4694 1.9609 -0.0869
# 5 -13.3223 0.7447 -16.0862 1.9609 34.2374 -5.1174
# 6 -6.7097 -9.7127 6.0027 -0.0869 -5.1174 21.6726
#
#
#
# Elastic Compliance Matrix: (Units=1/GPa)
#
#
# Indices 1 2 3 4 5 6 
#
# 1 0.007682 -0.001703 -0.002020 0.000793 0.002443 0.002755
# 2 -0.001703 0.016351 -0.004325 -0.000169 -0.001913 0.007546
# 3 -0.002020 -0.004325 0.015354 0.014951 0.004826 -0.005617
# 4 0.000793 -0.000169 0.014951 0.082365 0.002151 -0.003133
# 5 0.002443 -0.001913 0.004826 0.002151 0.033306 0.006435
# 6 0.002755 0.007546 -0.005617 -0.003133 0.006435 0.053439
#
#
# Mechanical properties :
#
#
# Convention : Reuss Voigt Hill
#
# Bulk Modulus (GPa) = 42.93543 57.10537 50.02040
# Shear Modulus (GPa) = 21.51855 30.30106 25.90980
#
# Velocity S-wave (km/s) = 3.18643 3.78118 3.49647
# Velocity P-wave (km/s) = 5.81348 6.78290 6.31681
#
# Compressibility (1/GPa) = 0.02329079
#
# Stress axis : x y z
#
# Youngs Moduli (GPa) = 130.17848 61.15892 65.12749
#
# Poissons Ratio (x) = 0.10414 0.13156
# Poissons Ratio (y) = 0.22167 0.28170
# Poissons Ratio (z) = 0.26296 0.26454
#
# Static dielectric constant tensor:
#      x y z
#    x 1.807870 -0.010610 0.005490 
#    y -0.010610 1.856140 -0.047550 
#    z 0.005490 -0.047550 1.808120 
# 
# From -- ./inp_files/550529.got.cif
#   From: 2010.05.17/outbox.cif.g08.bks.cpg/sg2_276_cif.got.tgz:550529.got - 2010.06.03 11:33:40.
