data_PCOD9082638
_publ_section_title
;
Structure prediction by ZEFSAII (Michael W. Deem and Ramdas Pophale) SiO2 
 PCOD9082638
Probable space group: P -1
;
_chemical_formula_sum "Si O2"
_cell_formula_units_Z 14
_cell_length_a 9.177936
_cell_length_b 11.511702
_cell_length_c 14.772673
_cell_angle_alpha 31.595706
_cell_angle_beta 116.123893
_cell_angle_gamma 119.111605
_cell_volume 713.283628
_symmetry_space_group_name_H-M "P -1"
_symmetry_group_IT_number 2
_symmetry_cell_setting 'triclinic'
loop_
_space_group_symop_operation_xyz
x,y,z
-x,-y,-z
loop_
_atom_site_type_symbol
_atom_site_label
_atom_site_fract_x
_atom_site_fract_y
_atom_site_fract_z
Si Si1 0.830254 0.061066 0.435639
Si Si2 0.345805 0.371027 0.982430
Si Si3 0.053383 0.472141 0.929831
Si Si4 0.523420 0.686878 0.522231
Si Si5 0.547619 0.012507 0.850918
Si Si6 0.307448 0.721226 0.121199
Si Si7 0.654353 0.213415 0.428974
O O1 0.832797 0.283445 0.229868
O O2 0.810235 0.124468 0.492694
O O3 0.680437 0.861159 0.495033
O O4 0.000000 0.000000 0.500000
O O5 0.177864 0.315996 0.035108
O O6 0.340843 0.556493 0.779258
O O7 0.500000 0.500000 0.000000
O O8 0.386606 0.150596 0.092821
O O9 0.881237 0.408520 0.868119
O O10 0.000000 0.500000 0.000000
O O11 0.499149 0.781332 0.354171
O O12 0.572670 0.447413 0.708017
O O13 0.368039 0.718236 0.520094
O O14 0.679934 0.113278 0.898946
O O15 0.388953 0.863482 0.961125
O O16 0.500000 0.000000 0.500000
#
# Coordination Sequence:
#
# PCOD9082638 Si02
#       7
#     2   2   2   2   2   2   2
#     4  10  19  33  56  87 119 150 197 254 305 356
#     4  11  21  38  62  90 124 157 205 255 302 371
#     4  11  23  37  62  93 121 159 200 255 316 356
#     4  11  20  39  62  87 121 161 205 246 306 364
#     4  11  24  40  63  91 118 168 212 244 303 372
#     4  11  23  42  62  87 128 162 204 257 301 363
#     4   9  19  32  55  86 114 154 194 245 299 350
#
# _framework density 19.627537
#
# number of rings (size 3 to 8) (size 9 to 14) (size 15 to 20)
#    0.000    1.429    2.857    4.714    0.000    1.714 
#    0.000    0.000    0.000    3.429    0.000    0.000 
#    0.000    0.000    0.000    0.000    0.000    0.000 
#
# Total GULP energy -78039.489791 kJ/mol
# GULP energy per Si atom -5574.249271 kJ/mol
# Density = 1.958286 g / cm^3
# Si number density = 19.627537 Si / 1000 Ang^3
#
#
#
# Elastic Constant Matrix: (Units=GPa)
#
#
# Indices 1 2 3 4 5 6 
#
# 1 122.5188 36.9449 25.6076 11.8392 6.5572 -28.3988
# 2 36.9449 78.2425 6.5846 1.2423 6.0960 -23.5310
# 3 25.6076 6.5846 70.3905 9.0149 -14.2335 -10.9290
# 4 11.8392 1.2423 9.0149 21.6778 0.8679 -2.4575
# 5 6.5572 6.0960 -14.2335 0.8679 26.9816 1.3732
# 6 -28.3988 -23.5310 -10.9290 -2.4575 1.3732 25.0347
#
#
#
# Elastic Compliance Matrix: (Units=1/GPa)
#
#
# Indices 1 2 3 4 5 6 
#
# 1 0.012580 -0.001963 -0.003130 -0.004031 -0.004691 0.010921
# 2 -0.001963 0.018823 0.000293 0.001868 -0.004497 0.016023
# 3 -0.003130 0.000293 0.018840 -0.006142 0.010639 0.003763
# 4 -0.004031 0.001868 -0.006142 0.050921 -0.004307 -0.000263
# 5 -0.004691 -0.004497 0.010639 -0.004307 0.045367 -0.007815
# 6 0.010921 0.016023 0.003763 -0.000263 -0.007815 0.069439
#
#
# Mechanical properties :
#
#
# Convention : Reuss Voigt Hill
#
# Bulk Modulus (GPa) = 24.60485 45.49177 35.04831
# Shear Modulus (GPa) = 20.91033 28.20648 24.55841
#
# Velocity S-wave (km/s) = 3.26752 3.79501 3.54110
# Velocity P-wave (km/s) = 5.17675 6.51388 5.88342
#
# Compressibility (1/GPa) = 0.04064240
#
# Stress axis : x y z
#
# Youngs Moduli (GPa) = 79.49182 53.12783 53.07949
#
# Poissons Ratio (x) = 0.10428 0.16612
# Poissons Ratio (y) = 0.15603 -0.01553
# Poissons Ratio (z) = 0.24878 -0.01554
#
# Static dielectric constant tensor:
#      x y z
#    x 1.887470 -0.074210 0.322080 
#    y -0.074210 1.712550 -0.075600 
#    z 0.322080 -0.075600 2.461460 
# 
# From -- ./inp_files/186872.got.cif
#   From: 2010.05.17/outbox.cif.g08.bks.cpg/sg2_94_cif.got.tgz:186872.got - 2010.06.03 11:33:40.
