data_PCOD9082224
_publ_section_title
;
Structure prediction by ZEFSAII (Michael W. Deem and Ramdas Pophale) SiO2 
 PCOD9082224
Probable space group: P -1
;
_chemical_formula_sum "Si O2"
_cell_formula_units_Z 14
_cell_length_a 12.406552
_cell_length_b 8.577609
_cell_length_c 16.992939
_cell_angle_alpha 135.518819
_cell_angle_beta 51.154345
_cell_angle_gamma 95.653677
_cell_volume 758.657809
_symmetry_space_group_name_H-M "P -1"
_symmetry_group_IT_number 2
_symmetry_cell_setting 'triclinic'
loop_
_space_group_symop_operation_xyz
x,y,z
-x,-y,-z
loop_
_atom_site_type_symbol
_atom_site_label
_atom_site_fract_x
_atom_site_fract_y
_atom_site_fract_z
Si Si1 0.326144 0.521260 0.591480
Si Si2 0.791065 0.941203 0.958611
Si Si3 0.379503 0.298032 0.314277
Si Si4 0.096770 0.951862 0.633321
Si Si5 0.100299 0.425309 0.744379
Si Si6 0.163419 0.167451 0.285856
Si Si7 0.994316 0.851431 0.074885
O O1 0.500000 0.500000 0.500000
O O2 0.316767 0.402250 0.469797
O O3 0.282670 0.373618 0.621067
O O4 0.163900 0.862313 0.797086
O O5 0.800195 0.861060 0.834163
O O6 0.946148 0.657594 0.835896
O O7 0.837964 0.154534 0.012543
O O8 0.592149 0.109935 0.142885
O O9 0.265635 0.607049 0.431648
O O10 0.325880 0.110682 0.238794
O O11 0.916502 0.992452 0.713874
O O12 0.122172 0.138792 0.634328
O O13 0.070784 0.070046 0.777067
O O14 0.035258 0.581415 0.915483
O O15 0.000000 0.500000 0.500000
#
# Coordination Sequence:
#
# PCOD9082224 Si02
#       7
#     2   2   2   2   2   2   2
#     4  10  19  33  53  77 103 137 173 207 252 311
#     4  10  19  33  56  78  98 135 177 208 249 309
#     4  10  19  36  54  74 104 141 172 204 252 314
#     4   9  20  34  52  77 105 135 172 214 257 298
#     4  11  19  33  53  79 104 133 172 220 256 290
#     4   9  18  36  56  74 101 140 174 204 251 314
#     4   9  18  33  52  73 105 141 169 203 259 316
#
# _framework density 18.453643
#
# number of rings (size 3 to 8) (size 9 to 14) (size 15 to 20)
#    0.000    2.286    0.000    6.857    0.000    0.000 
#    0.000   19.286    0.000    0.000    0.000    0.000 
#    0.000    0.000    0.000    0.000    0.000    0.000 
#
# Total GULP energy -77982.721570 kJ/mol
# GULP energy per Si atom -5570.194398 kJ/mol
# Density = 1.841164 g / cm^3
# Si number density = 18.453643 Si / 1000 Ang^3
#
#
#
# Elastic Constant Matrix: (Units=GPa)
#
#
# Indices 1 2 3 4 5 6 
#
# 1 76.4155 19.0885 15.0355 2.5838 4.8214 11.0600
# 2 19.0885 95.2739 17.3565 7.3077 -3.2547 22.8547
# 3 15.0355 17.3565 58.6050 -11.0494 1.1472 9.1763
# 4 2.5838 7.3077 -11.0494 19.3165 7.4993 2.3337
# 5 4.8214 -3.2547 1.1472 7.4993 34.9973 -6.6431
# 6 11.0600 22.8547 9.1763 2.3337 -6.6431 18.9141
#
#
#
# Elastic Compliance Matrix: (Units=1/GPa)
#
#
# Indices 1 2 3 4 5 6 
#
# 1 0.015144 -0.000743 -0.002570 -0.000983 -0.003334 -0.007761
# 2 -0.000743 0.015477 -0.002811 -0.005249 -0.000350 -0.016378
# 3 -0.002570 -0.002811 0.024188 0.019409 -0.007083 -0.011718
# 4 -0.000983 -0.005249 0.019409 0.075354 -0.020759 -0.019088
# 5 -0.003334 -0.000350 -0.007083 -0.020759 0.037789 0.021643
# 6 -0.007761 -0.016378 -0.011718 -0.019088 0.021643 0.092841
#
#
# Mechanical properties :
#
#
# Convention : Reuss Voigt Hill
#
# Bulk Modulus (GPa) = 23.49606 37.02838 30.26222
# Shear Modulus (GPa) = 17.40769 26.56650 21.98709
#
# Velocity S-wave (km/s) = 3.07468 3.79837 3.45552
# Velocity P-wave (km/s) = 5.03637 6.27264 5.68819
#
# Compressibility (1/GPa) = 0.04256032
#
# Stress axis : x y z
#
# Youngs Moduli (GPa) = 66.03068 64.61393 41.34235
#
# Poissons Ratio (x) = 0.04800 0.10627
# Poissons Ratio (y) = 0.04905 0.11623
# Poissons Ratio (z) = 0.16972 0.18165
#
# Static dielectric constant tensor:
#      x y z
#    x 1.734330 0.007270 0.014260 
#    y 0.007270 1.653410 -0.018400 
#    z 0.014260 -0.018400 1.627690 
# 
# From -- ./inp_files/169476.got.cif
#   From: 2010.05.17/outbox.cif.g08.bks.cpg/sg2_85_cif.got.tgz:169476.got - 2010.06.03 11:33:40.
