data_PCOD9082402
_publ_section_title
;
Structure prediction by ZEFSAII (Michael W. Deem and Ramdas Pophale) SiO2 
 PCOD9082402
Probable space group: P -1
;
_chemical_formula_sum "Si O2"
_cell_formula_units_Z 16
_cell_length_a 11.135829
_cell_length_b 17.017844
_cell_length_c 16.215601
_cell_angle_alpha 31.053124
_cell_angle_beta 49.347184
_cell_angle_gamma 29.156646
_cell_volume 712.866572
_symmetry_space_group_name_H-M "P -1"
_symmetry_group_IT_number 2
_symmetry_cell_setting 'triclinic'
loop_
_space_group_symop_operation_xyz
x,y,z
-x,-y,-z
loop_
_atom_site_type_symbol
_atom_site_label
_atom_site_fract_x
_atom_site_fract_y
_atom_site_fract_z
Si Si1 0.784060 0.442936 0.859023
Si Si2 0.359655 0.890399 0.910009
Si Si3 0.181321 0.631910 0.908615
Si Si4 0.221138 0.670067 0.222609
Si Si5 0.740095 0.143065 0.442019
Si Si6 0.185922 0.406288 0.738773
Si Si7 0.300988 0.020300 0.541091
Si Si8 0.642160 0.897262 0.900414
O O1 0.812512 0.337215 0.854414
O O2 0.985317 0.429192 0.777559
O O3 0.483607 0.737479 0.742529
O O4 0.864240 0.299499 0.036533
O O5 0.479773 0.932928 0.871827
O O6 0.579317 0.672308 0.941041
O O7 0.306378 0.780855 0.089467
O O8 0.064484 0.147894 0.774628
O O9 0.263883 0.718908 0.747692
O O10 0.915135 0.765265 0.869097
O O11 0.467023 0.375662 0.405747
O O12 0.729321 0.993447 0.531350
O O13 0.000000 0.000000 0.500000
O O14 0.001729 0.699565 0.550910
O O15 0.454312 0.172232 0.777662
O O16 0.268053 0.293635 0.896799
O O17 0.500000 0.000000 0.500000
#
# Coordination Sequence:
#
# PCOD9082402 Si02
#       8
#     2   2   2   2   2   2   2   2
#     4   9  17  37  58  84 115 147 196 238 278 338
#     4  10  19  33  54  85 114 149 193 238 281 336
#     4  10  22  36  59  88 116 152 192 242 292 339
#     4   9  19  34  58  83 111 155 193 233 281 344
#     4  10  22  39  59  84 120 155 187 241 299 351
#     4   9  18  32  58  85 109 155 189 232 282 343
#     4   9  19  35  60  84 110 152 200 236 280 344
#     4  10  19  34  56  85 121 148 191 240 284 343
#
# _framework density 22.444592
#
# number of rings (size 3 to 8) (size 9 to 14) (size 15 to 20)
#    0.000    2.500    1.250    0.375    3.500    4.500 
#    2.250    1.875    0.000    1.500    0.000    0.000 
#    0.000    0.000    0.000    0.000    0.000    0.000 
#
# Total GULP energy -89117.964300 kJ/mol
# GULP energy per Si atom -5569.872769 kJ/mol
# Density = 2.239351 g / cm^3
# Si number density = 22.444592 Si / 1000 Ang^3
#
#
#
# Elastic Constant Matrix: (Units=GPa)
#
#
# Indices 1 2 3 4 5 6 
#
# 1 106.3489 20.9552 11.7876 -15.8819 3.3346 -25.4316
# 2 20.9552 102.3223 19.3741 -42.1269 2.3151 -26.9053
# 3 11.7876 19.3741 28.7926 -25.4111 1.5435 0.6354
# 4 -15.8819 -42.1269 -25.4111 38.1855 -8.3419 6.7756
# 5 3.3346 2.3151 1.5435 -8.3419 22.5862 -6.1162
# 6 -25.4316 -26.9053 0.6354 6.7756 -6.1162 32.6631
#
#
#
# Elastic Compliance Matrix: (Units=1/GPa)
#
#
# Indices 1 2 3 4 5 6 
#
# 1 0.012727 0.003440 -0.002961 0.005684 0.003389 0.012256
# 2 0.003440 0.030024 0.018736 0.047338 0.018206 0.020635
# 3 -0.002961 0.018736 0.108907 0.098437 0.026212 -0.004502
# 4 0.005684 0.047338 0.098437 0.153741 0.049476 0.018877
# 5 0.003389 0.018206 0.026212 0.049476 0.063467 0.018746
# 6 0.012256 0.020635 -0.004502 0.018877 0.018746 0.056838
#
#
# Mechanical properties :
#
#
# Convention : Reuss Voigt Hill
#
# Bulk Modulus (GPa) = 5.26071 37.96640 21.61356
# Shear Modulus (GPa) = 11.09542 31.04343 21.06942
#
# Velocity S-wave (km/s) = 2.22580 3.72306 3.06719
# Velocity P-wave (km/s) = 2.99242 5.95264 4.71107
#
# Compressibility (1/GPa) = 0.19008824
#
# Stress axis : x y z
#
# Youngs Moduli (GPa) = 78.57493 33.30616 9.18216
#
# Poissons Ratio (x) = -0.11459 0.02719
# Poissons Ratio (y) = -0.27033 -0.17204
# Poissons Ratio (z) = 0.23267 -0.62402
#
# Static dielectric constant tensor:
#      x y z
#    x 1.928070 -0.001740 0.051780 
#    y -0.001740 1.887860 -0.056010 
#    z 0.051780 -0.056010 1.927040 
# 
# From -- ./inp_files/259649.got.cif
#   From: 2010.05.17/outbox.cif.g08.bks.cpg/sg2_130_cif.got.tgz:259649.got - 2010.06.03 11:33:40.
