data_PCOD9082399
_publ_section_title
;
Structure prediction by ZEFSAII (Michael W. Deem and Ramdas Pophale) SiO2 
 PCOD9082399
Probable space group: P -1
;
_chemical_formula_sum "Si O2"
_cell_formula_units_Z 16
_cell_length_a 16.495913
_cell_length_b 9.031282
_cell_length_c 9.137939
_cell_angle_alpha 84.185280
_cell_angle_beta 39.897984
_cell_angle_gamma 71.142459
_cell_volume 801.858294
_symmetry_space_group_name_H-M "P -1"
_symmetry_group_IT_number 2
_symmetry_cell_setting 'triclinic'
loop_
_space_group_symop_operation_xyz
x,y,z
-x,-y,-z
loop_
_atom_site_type_symbol
_atom_site_label
_atom_site_fract_x
_atom_site_fract_y
_atom_site_fract_z
Si Si1 0.713798 0.174763 0.611108
Si Si2 0.786857 0.752191 0.295550
Si Si3 0.027375 0.108061 0.822575
Si Si4 0.304046 0.526049 0.574418
Si Si5 0.426598 0.622724 0.957993
Si Si6 0.269987 0.707931 0.902072
Si Si7 0.641980 0.986876 0.228898
Si Si8 0.470079 0.985566 0.211772
O O1 0.744586 0.320275 0.481357
O O2 0.653562 0.218908 0.852152
O O3 0.596698 0.149120 0.676377
O O4 0.848625 0.014692 0.431853
O O5 0.915783 0.768845 0.192579
O O6 0.791549 0.574476 0.284150
O O7 0.758065 0.847570 0.171665
O O8 0.653299 0.855806 0.570425
O O9 0.891251 0.199315 0.911076
O O10 0.000000 0.000000 0.000000
O O11 0.321132 0.591328 0.703318
O O12 0.448076 0.403686 0.322007
O O13 0.500000 0.500000 0.000000
O O14 0.314284 0.609768 0.002316
O O15 0.329659 0.850117 0.812093
O O16 0.607406 0.949063 0.117430
O O17 0.500000 0.000000 0.500000
O O18 0.500000 0.000000 0.000000
#
# Coordination Sequence:
#
# PCOD9082399 Si02
#       8
#     2   2   2   2   2   2   2   2
#     4  10  21  40  61  84 123 160 190 246 296 350
#     4  10  21  35  55  86 117 149 195 245 289 349
#     4  11  21  41  62  86 116 157 205 244 282 349
#     4  11  21  37  61  89 120 154 193 243 307 351
#     4  10  23  38  59  91 122 153 191 243 303 356
#     4  12  22  38  63  86 119 160 197 239 296 350
#     4  10  19  33  54  84 116 148 197 245 286 341
#     4  10  19  34  56  83 114 152 198 244 292 341
#
# _framework density 19.953648999999999
#
# number of rings (size 3 to 8) (size 9 to 14) (size 15 to 20)
#    0.000    1.500    2.500    4.875    0.000    3.000 
#    0.000    0.000    0.000    3.000    0.000    0.000 
#    0.000    0.000    0.000    0.000    0.000    0.000 
#
# Total GULP energy -89219.108412 kJ/mol
# GULP energy per Si atom -5576.194276 kJ/mol
# Density = 1.990823 g / cm^3
# Si number density = 19.953649 Si / 1000 Ang^3
#
#
#
# Elastic Constant Matrix: (Units=GPa)
#
#
# Indices 1 2 3 4 5 6 
#
# 1 168.6891 55.4222 59.5057 0.5264 -2.6169 5.0746
# 2 55.4222 101.0521 35.6091 -14.5795 -2.0693 18.5803
# 3 59.5057 35.6091 74.4185 21.1888 6.5676 9.1308
# 4 0.5264 -14.5795 21.1888 22.7071 7.4461 0.8322
# 5 -2.6169 -2.0693 6.5676 7.4461 39.0468 2.4471
# 6 5.0746 18.5803 9.1308 0.8322 2.4471 39.0818
#
#
#
# Elastic Compliance Matrix: (Units=1/GPa)
#
#
# Indices 1 2 3 4 5 6 
#
# 1 0.009612 -0.000874 -0.009778 0.008091 0.000622 0.001241
# 2 -0.000874 0.022984 -0.018688 0.032981 -0.001545 -0.007053
# 3 -0.009778 -0.018688 0.045605 -0.054704 0.001078 0.000597
# 4 0.008091 0.032981 -0.054704 0.119896 -0.011008 -0.005814
# 5 0.000622 -0.001545 0.001078 -0.011008 0.027556 -0.001089
# 6 0.001241 -0.007053 0.000597 -0.005814 -0.001089 0.028832
#
#
# Mechanical properties :
#
#
# Convention : Reuss Voigt Hill
#
# Bulk Modulus (GPa) = 51.22614 71.69262 61.45938
# Shear Modulus (GPa) = 15.64103 33.07531 24.35817
#
# Velocity S-wave (km/s) = 2.80280 4.07579 3.49770
# Velocity P-wave (km/s) = 6.01686 7.62607 6.86875
#
# Compressibility (1/GPa) = 0.01952128
#
# Stress axis : x y z
#
# Youngs Moduli (GPa) = 104.04183 43.50858 21.92723
#
# Poissons Ratio (x) = 0.03802 0.21441
# Poissons Ratio (y) = 0.09091 0.40977
# Poissons Ratio (z) = 1.01734 0.81308
#
# Static dielectric constant tensor:
#      x y z
#    x 1.740010 -0.006660 0.012070 
#    y -0.006660 1.762960 -0.018340 
#    z 0.012070 -0.018340 1.740150 
# 
# From -- ./inp_files/215862.got.cif
#   From: 2010.05.17/outbox.cif.g08.bks.cpg/sg2_108_cif.got.tgz:215862.got - 2010.06.03 11:33:40.
