data_PCOD9082240
_publ_section_title
;
Structure prediction by ZEFSAII (Michael W. Deem and Ramdas Pophale) SiO2 
 PCOD9082240
Probable space group: P -1
;
_chemical_formula_sum "Si O2"
_cell_formula_units_Z 14
_cell_length_a 15.085387
_cell_length_b 9.049627
_cell_length_c 6.768545
_cell_angle_alpha 51.409400
_cell_angle_beta 59.471002
_cell_angle_gamma 47.950306
_cell_volume 529.791083
_symmetry_space_group_name_H-M "P -1"
_symmetry_group_IT_number 2
_symmetry_cell_setting 'triclinic'
loop_
_space_group_symop_operation_xyz
x,y,z
-x,-y,-z
loop_
_atom_site_type_symbol
_atom_site_label
_atom_site_fract_x
_atom_site_fract_y
_atom_site_fract_z
Si Si1 0.743729 0.254926 0.764671
Si Si2 0.549245 0.189544 0.201264
Si Si3 0.311255 0.379496 0.054432
Si Si4 0.093020 0.319811 0.341903
Si Si5 0.056017 0.226106 0.017928
Si Si6 0.164924 0.840473 0.688621
Si Si7 0.358202 0.284962 0.618460
O O1 0.755051 0.195983 0.566287
O O2 0.739840 0.485694 0.568040
O O3 0.849646 0.029348 0.927113
O O4 0.618359 0.304944 0.953647
O O5 0.490879 0.235538 0.445391
O O6 0.642128 0.928011 0.278907
O O7 0.434520 0.256861 0.136394
O O8 0.248894 0.647404 0.907943
O O9 0.341453 0.314321 0.844821
O O10 0.212467 0.317303 0.271842
O O11 0.098805 0.282073 0.126155
O O12 0.097581 0.100714 0.597887
O O13 0.980053 0.575670 0.262100
O O14 0.934635 0.221955 0.202337
#
# Coordination Sequence:
#
# PCOD9082240 Si02
#       7
#     2   2   2   2   2   2   2
#     4  10  19  33  53  79 111 145 180 224 273 319
#     4  11  23  37  54  82 114 143 183 225 266 324
#     4  10  21  36  56  83 112 143 180 222 270 324
#     4   9  16  30  53  82 112 140 178 226 270 321
#     4   9  17  29  51  84 111 137 184 228 265 324
#     4   9  18  31  53  83 108 141 184 223 271 323
#     4  10  22  37  54  79 111 148 184 220 268 319
#
# _framework density 26.425509999999999
#
# number of rings (size 3 to 8) (size 9 to 14) (size 15 to 20)
#    0.000    2.286    0.000    4.286    0.000    6.857 
#    0.000    0.000    0.000    3.429    0.000  101.000 
#    0.000    1.143    0.000    0.000    0.000    0.000 
#
# Total GULP energy -78381.427084 kJ/mol
# GULP energy per Si atom -5598.673363 kJ/mol
# Density = 2.636536 g / cm^3
# Si number density = 26.425510 Si / 1000 Ang^3
#
#
#
# Elastic Constant Matrix: (Units=GPa)
#
#
# Indices 1 2 3 4 5 6 
#
# 1 123.4026 29.2545 51.0111 -9.1080 -4.5241 -15.6262
# 2 29.2545 142.6886 26.2095 -33.0982 -2.5674 12.4416
# 3 51.0111 26.2095 103.7812 -30.5341 -8.6708 -5.0435
# 4 -9.1080 -33.0982 -30.5341 73.4598 -7.1858 -5.4517
# 5 -4.5241 -2.5674 -8.6708 -7.1858 40.0547 -5.1268
# 6 -15.6262 12.4416 -5.0435 -5.4517 -5.1268 41.3578
#
#
#
# Elastic Compliance Matrix: (Units=1/GPa)
#
#
# Indices 1 2 3 4 5 6 
#
# 1 0.011121 -0.001991 -0.005132 -0.001322 0.000297 0.004038
# 2 -0.001991 0.008491 -0.000296 0.003292 0.000481 -0.002849
# 3 -0.005132 -0.000296 0.014228 0.005578 0.003619 0.001069
# 4 -0.001322 0.003292 0.005578 0.017874 0.004749 0.002135
# 5 0.000297 0.000481 0.003619 0.004749 0.027230 0.004410
# 6 0.004038 -0.002849 0.001069 0.002135 0.004410 0.027520
#
#
# Mechanical properties :
#
#
# Convention : Reuss Voigt Hill
#
# Bulk Modulus (GPa) = 52.61949 64.75807 58.68878
# Shear Modulus (GPa) = 39.17378 48.53428 43.85403
#
# Velocity S-wave (km/s) = 3.85440 4.29026 4.07816
# Velocity P-wave (km/s) = 6.30588 7.00720 6.66577
#
# Compressibility (1/GPa) = 0.01900437
#
# Stress axis : x y z
#
# Youngs Moduli (GPa) = 89.91655 117.76569 70.28355
#
# Poissons Ratio (x) = 0.23447 0.36067
# Poissons Ratio (y) = 0.17903 0.02077
# Poissons Ratio (z) = 0.46142 0.03481
#
# Static dielectric constant tensor:
#      x y z
#    x 1.987770 0.046230 0.061190 
#    y 0.046230 2.148310 -0.002690 
#    z 0.061190 -0.002690 2.069020 
# 
# From -- ./inp_files/330569.got.cif
#   From: 2010.05.17/outbox.cif.g08.bks.cpg/sg2_166_cif.got.tgz:330569.got - 2010.06.03 11:33:40.
