data_PCOD9082549
_publ_section_title
;
Structure prediction by ZEFSAII (Michael W. Deem and Ramdas Pophale) SiO2 
 PCOD9082549
Probable space group: P -1
;
_chemical_formula_sum "Si O2"
_cell_formula_units_Z 16
_cell_length_a 9.602610
_cell_length_b 14.524772
_cell_length_c 9.990981
_cell_angle_alpha 43.860134
_cell_angle_beta 116.131626
_cell_angle_gamma 131.859597
_cell_volume 716.887309
_symmetry_space_group_name_H-M "P -1"
_symmetry_group_IT_number 2
_symmetry_cell_setting 'triclinic'
loop_
_space_group_symop_operation_xyz
x,y,z
-x,-y,-z
loop_
_atom_site_type_symbol
_atom_site_label
_atom_site_fract_x
_atom_site_fract_y
_atom_site_fract_z
Si Si1 0.706765 0.631444 0.284405
Si Si2 0.018243 0.912196 0.429537
Si Si3 0.082210 0.705878 0.282219
Si Si4 0.255169 0.820470 0.490121
Si Si5 0.319308 0.936265 0.672726
Si Si6 0.290053 0.439160 0.323038
Si Si7 0.313741 0.733529 0.112217
Si Si8 0.750758 0.931343 0.104466
O O1 0.494201 0.504554 0.282917
O O2 0.709778 0.590361 0.485420
O O3 0.756335 0.812126 0.125427
O O4 0.863248 0.631266 0.267993
O O5 0.876161 0.733058 0.616896
O O6 0.889272 0.959622 0.255544
O O7 0.137192 0.901603 0.369196
O O8 0.183911 0.997322 0.520773
O O9 0.139779 0.682233 0.478563
O O10 0.172588 0.664828 0.246984
O O11 0.187492 0.898685 0.105767
O O12 0.269800 0.803459 0.673516
O O13 0.464743 0.928586 0.408633
O O14 0.296504 0.858656 0.887081
O O15 0.269744 0.586961 0.153162
O O16 0.529126 0.827173 0.156233
#
# Coordination Sequence:
#
# PCOD9082549 Si02
#       8
#     2   2   2   2   2   2   2   2
#     4   9  18  32  52  78 108 138 185 219 260 307
#     4   9  18  36  58  76 104 144 184 216 259 310
#     4  12  20  33  56  86 111 136 173 232 274 311
#     4   9  18  34  57  79 109 139 180 218 267 322
#     4   9  19  36  53  81 111 140 174 223 268 323
#     4   9  18  34  52  78 107 144 181 219 253 320
#     4  11  23  32  54  85 116 135 174 224 276 312
#     4  10  19  33  56  81 104 140 180 224 262 314
#
# _framework density 22.318711
#
# number of rings (size 3 to 8) (size 9 to 14) (size 15 to 20)
#    0.750    1.500    3.750    1.500    0.000    1.000 
#    0.000    0.625    0.000    0.750    0.000    0.000 
#    0.000    1.250    0.000    0.000    0.000    0.000 
#
# Total GULP energy -89156.513519 kJ/mol
# GULP energy per Si atom -5572.282095 kJ/mol
# Density = 2.226791 g / cm^3
# Si number density = 22.318711 Si / 1000 Ang^3
#
#
#
# Elastic Constant Matrix: (Units=GPa)
#
#
# Indices 1 2 3 4 5 6 
#
# 1 116.5757 53.6663 12.7851 10.5666 0.4012 30.0375
# 2 53.6663 60.4359 31.8241 1.7598 5.3391 33.0853
# 3 12.7851 31.8241 57.8213 -0.6800 13.2613 3.2725
# 4 10.5666 1.7598 -0.6800 36.8539 -1.8500 -1.4600
# 5 0.4012 5.3391 13.2613 -1.8500 22.7925 7.3056
# 6 30.0375 33.0853 3.2725 -1.4600 7.3056 33.1117
#
#
#
# Elastic Compliance Matrix: (Units=1/GPa)
#
#
# Indices 1 2 3 4 5 6 
#
# 1 0.017001 -0.025813 0.010757 -0.003246 -0.003994 0.010044
# 2 -0.025813 0.146266 -0.079811 -0.003416 0.052954 -0.126679
# 3 0.010757 -0.079811 0.064411 0.002692 -0.042164 0.073044
# 4 -0.003246 -0.003416 0.002692 0.028535 -0.000806 0.007528
# 5 -0.003994 0.052954 -0.042164 -0.000806 0.075844 -0.061891
# 6 0.010044 -0.126679 0.073044 0.007528 -0.061891 0.154435
#
#
# Mechanical properties :
#
#
# Convention : Reuss Voigt Hill
#
# Bulk Modulus (GPa) = 26.35400 47.93154 37.14277
# Shear Modulus (GPa) = 7.25822 27.65545 17.45684
#
# Velocity S-wave (km/s) = 1.80531 3.52393 2.79975
# Velocity P-wave (km/s) = 4.02234 6.17090 5.20861
#
# Compressibility (1/GPa) = 0.03794490
#
# Stress axis : x y z
#
# Youngs Moduli (GPa) = 58.81903 6.83687 15.52533
#
# Poissons Ratio (x) = 0.17648 -0.16701
# Poissons Ratio (y) = 1.51829 1.23909
# Poissons Ratio (z) = -0.63274 0.54566
#
# Static dielectric constant tensor:
#      x y z
#    x 1.840590 -0.020610 0.032210 
#    y -0.020610 1.858080 0.009500 
#    z 0.032210 0.009500 1.836770 
# 
# From -- ./inp_files/401880.got.cif
#   From: 2010.05.17/outbox.cif.g08.bks.cpg/sg2_201_cif.got.tgz:401880.got - 2010.06.03 11:33:40.
