data_PCOD9082681
_publ_section_title
;
Structure prediction by ZEFSAII (Michael W. Deem and Ramdas Pophale) SiO2 
 PCOD9082681
Probable space group: P -1
;
_chemical_formula_sum "Si O2"
_cell_formula_units_Z 16
_cell_length_a 14.231066
_cell_length_b 16.460726
_cell_length_c 9.408557
_cell_angle_alpha 37.009669
_cell_angle_beta 78.381222
_cell_angle_gamma 48.655792
_cell_volume 689.567041
_symmetry_space_group_name_H-M "P -1"
_symmetry_group_IT_number 2
_symmetry_cell_setting 'triclinic'
loop_
_space_group_symop_operation_xyz
x,y,z
-x,-y,-z
loop_
_atom_site_type_symbol
_atom_site_label
_atom_site_fract_x
_atom_site_fract_y
_atom_site_fract_z
Si Si1 0.772164 0.379794 0.915903
Si Si2 0.885616 0.171042 0.494208
Si Si3 0.128008 0.187033 0.766560
Si Si4 0.996264 0.640212 0.133198
Si Si5 0.543027 0.420833 0.265865
Si Si6 0.418185 0.802040 0.989320
Si Si7 0.814154 0.758115 0.774976
Si Si8 0.223675 0.478939 0.733863
O O1 0.826942 0.283815 0.196735
O O2 0.844710 0.442499 0.782599
O O3 0.564590 0.589769 0.660350
O O4 0.907295 0.119434 0.153834
O O5 0.755795 0.198204 0.530164
O O6 0.841147 0.348808 0.358815
O O7 0.090013 0.383341 0.445654
O O8 0.133221 0.205755 0.906232
O O9 0.942046 0.331321 0.588613
O O10 0.287397 0.932811 0.980287
O O11 0.869892 0.808622 0.798964
O O12 0.500000 0.500000 0.000000
O O13 0.459859 0.625660 0.120185
O O14 0.324493 0.020312 0.606156
O O15 0.600550 0.656829 0.189566
O O16 0.744531 0.709453 0.949640
O O17 0.000000 0.500000 0.000000
#
# Coordination Sequence:
#
# PCOD9082681 Si02
#       8
#     2   2   2   2   2   2   2   2
#     4  10  19  33  57  80 116 152 186 231 298 337
#     4   9  19  32  56  85 116 141 188 243 288 337
#     4  10  22  42  58  81 123 157 189 240 282 345
#     4  10  22  38  60  86 119 155 194 232 290 345
#     4   9  20  35  52  88 117 144 183 243 289 335
#     4  11  21  37  64  83 115 153 196 238 295 335
#     4  11  20  35  62  89 114 146 193 247 290 336
#     4  10  20  37  58  84 114 150 196 237 289 339
#
# _framework density 23.202964999999999
#
# number of rings (size 3 to 8) (size 9 to 14) (size 15 to 20)
#    0.000    2.000    2.500    1.875    5.250    0.000 
#    2.250    9.375    0.000    3.000    0.000    0.000 
#    0.000    0.000    0.000    0.000    0.000    0.000 
#
# Total GULP energy -89405.361120 kJ/mol
# GULP energy per Si atom -5587.835070 kJ/mol
# Density = 2.315015 g / cm^3
# Si number density = 23.202965 Si / 1000 Ang^3
#
#
#
# Elastic Constant Matrix: (Units=GPa)
#
#
# Indices 1 2 3 4 5 6 
#
# 1 121.8204 22.2787 6.2992 1.4952 22.8990 -11.7225
# 2 22.2787 121.3585 13.5151 4.5460 14.6068 -2.4632
# 3 6.2992 13.5151 30.5918 -4.6556 13.9971 -5.1418
# 4 1.4952 4.5460 -4.6556 14.0998 -0.1761 0.9818
# 5 22.8990 14.6068 13.9971 -0.1761 31.9033 -12.1176
# 6 -11.7225 -2.4632 -5.1418 0.9818 -12.1176 23.0559
#
#
#
# Elastic Compliance Matrix: (Units=1/GPa)
#
#
# Indices 1 2 3 4 5 6 
#
# 1 0.009736 -0.001147 0.001759 -0.000288 -0.006558 0.001785
# 2 -0.001147 0.009263 -0.003603 -0.003980 -0.002431 -0.001505
# 3 0.001759 -0.003603 0.045150 0.015662 -0.019454 -0.000313
# 4 -0.000288 -0.003980 0.015662 0.077572 -0.005696 -0.003376
# 5 -0.006558 -0.002431 -0.019454 -0.005696 0.053410 0.020381
# 6 0.001785 -0.001505 -0.000313 -0.003376 0.020381 0.054905
#
#
# Mechanical properties :
#
#
# Convention : Reuss Voigt Hill
#
# Bulk Modulus (GPa) = 17.19176 39.77297 28.48237
# Shear Modulus (GPa) = 18.15504 29.25698 23.70601
#
# Velocity S-wave (km/s) = 2.80026 3.55479 3.19984
# Velocity P-wave (km/s) = 4.22855 5.83329 5.09450
#
# Compressibility (1/GPa) = 0.05816740
#
# Stress axis : x y z
#
# Youngs Moduli (GPa) = 102.71548 107.95766 22.14840
#
# Poissons Ratio (x) = 0.12380 -0.03895
# Poissons Ratio (y) = 0.11779 0.07979
# Poissons Ratio (z) = -0.18065 0.38892
#
# Static dielectric constant tensor:
#      x y z
#    x 1.873240 -0.021590 -0.032220 
#    y -0.021590 1.867780 0.008070 
#    z -0.032220 0.008070 1.913820 
# 
# From -- ./inp_files/314664.got.cif
#   From: 2010.05.17/outbox.cif.g08.bks.cpg/sg2_158_cif.got.tgz:314664.got - 2010.06.03 11:33:40.
