data_PCOD9082062
_publ_section_title
;
Structure prediction by ZEFSAII (Michael W. Deem and Ramdas Pophale) SiO2 
 PCOD9082062
Probable space group: P -1
;
_chemical_formula_sum "Si O2"
_cell_formula_units_Z 16
_cell_length_a 14.330124
_cell_length_b 11.531477
_cell_length_c 8.868052
_cell_angle_alpha 139.937709
_cell_angle_beta 127.854619
_cell_angle_gamma 54.747410
_cell_volume 727.844491
_symmetry_space_group_name_H-M "P -1"
_symmetry_group_IT_number 2
_symmetry_cell_setting 'triclinic'
loop_
_space_group_symop_operation_xyz
x,y,z
-x,-y,-z
loop_
_atom_site_type_symbol
_atom_site_label
_atom_site_fract_x
_atom_site_fract_y
_atom_site_fract_z
Si Si1 0.873874 0.573114 0.858591
Si Si2 0.326199 0.061835 0.533429
Si Si3 0.670704 0.601225 0.924978
Si Si4 0.571518 0.369980 0.160219
Si Si5 0.964938 0.912550 0.222764
Si Si6 0.809086 0.265405 0.912269
Si Si7 0.550885 0.760403 0.394005
Si Si8 0.157158 0.726684 0.700658
O O1 0.755381 0.555821 0.819489
O O2 0.879841 0.440723 0.590122
O O3 0.867770 0.787148 0.029704
O O4 0.000000 0.500000 0.000000
O O5 0.336580 0.166121 0.489454
O O6 0.236835 0.924345 0.310491
O O7 0.458642 0.927113 0.547507
O O8 0.298687 0.217371 0.787233
O O9 0.525123 0.637879 0.812254
O O10 0.708071 0.430028 0.907740
O O11 0.580850 0.580095 0.345070
O O12 0.707558 0.261610 0.206151
O O13 0.517226 0.295904 0.879873
O O14 0.078764 0.771723 0.125374
O O15 0.926161 0.079780 0.235131
O O16 0.000000 0.000000 0.500000
O O17 0.840825 0.311486 0.158206
#
# Coordination Sequence:
#
# PCOD9082062 Si02
#       8
#     2   2   2   2   2   2   2   2
#     4  12  26  50  67  91 132 186 233 272 336 400
#     4  10  19  32  65  99 132 172 214 259 325 405
#     4  11  23  42  73  98 136 182 217 268 335 413
#     4  10  19  40  64 100 141 169 213 272 344 389
#     4  12  26  48  71  91 134 187 228 270 332 402
#     4  12  23  42  70 107 134 171 228 277 336 389
#     4   9  17  35  61 100 144 173 199 267 341 411
#     4  12  26  43  69 101 137 169 224 293 328 394
#
# _framework density 21.982717999999998
#
# number of rings (size 3 to 8) (size 9 to 14) (size 15 to 20)
#    0.000    1.000    5.000    2.625    0.000    3.000 
#    0.000    0.625    0.000    0.000    0.000    0.000 
#    0.000    0.000    0.000    0.000    0.000    0.000 
#
# Total GULP energy -89489.821407 kJ/mol
# GULP energy per Si atom -5593.113838 kJ/mol
# Density = 2.193268 g / cm^3
# Si number density = 21.982718 Si / 1000 Ang^3
#
#
#
# Elastic Constant Matrix: (Units=GPa)
#
#
# Indices 1 2 3 4 5 6 
#
# 1 81.8705 0.5401 15.3720 -2.4000 -7.4363 2.2527
# 2 0.5401 31.3995 18.6417 19.3146 1.2418 0.1620
# 3 15.3720 18.6417 99.8931 15.7563 -1.9654 15.5866
# 4 -2.4000 19.3146 15.7563 30.4213 1.4194 5.9855
# 5 -7.4363 1.2418 -1.9654 1.4194 30.5182 11.8274
# 6 2.2527 0.1620 15.5866 5.9855 11.8274 36.3190
#
#
#
# Elastic Compliance Matrix: (Units=1/GPa)
#
#
# Indices 1 2 3 4 5 6 
#
# 1 0.013036 -0.000886 -0.001957 0.002749 0.003571 -0.001581
# 2 -0.000886 0.057446 -0.006791 -0.034780 -0.005317 0.010176
# 3 -0.001957 -0.006791 0.012817 -0.001422 0.003059 -0.006111
# 4 0.002749 -0.034780 -0.001422 0.057716 0.003164 -0.009948
# 5 0.003571 -0.005317 0.003059 0.003164 0.039702 -0.014961
# 6 -0.001581 0.010176 -0.006111 -0.009948 -0.014961 0.036720
#
#
# Mechanical properties :
#
#
# Convention : Reuss Voigt Hill
#
# Bulk Modulus (GPa) = 15.61756 31.36341 23.49048
# Shear Modulus (GPa) = 19.37604 31.35898 25.36751
#
# Velocity S-wave (km/s) = 2.97210 3.78104 3.40071
# Velocity P-wave (km/s) = 4.34715 5.77581 5.11164
#
# Compressibility (1/GPa) = 0.06403050
#
# Stress axis : x y z
#
# Youngs Moduli (GPa) = 76.70911 17.40764 78.02077
#
# Poissons Ratio (x) = 0.01543 0.15272
# Poissons Ratio (y) = 0.06800 0.52980
# Poissons Ratio (z) = 0.15015 0.11821
#
# Static dielectric constant tensor:
#      x y z
#    x 1.862750 0.000130 0.021010 
#    y 0.000130 1.789410 -0.012440 
#    z 0.021010 -0.012440 1.796620 
# 
# From -- ./inp_files/308841.got.cif
#   From: 2010.05.17/outbox.cif.g08.bks.cpg/sg2_155_cif.got.tgz:308841.got - 2010.06.03 11:33:40.
