data_PCOD9082964
_publ_section_title
;
Structure prediction by ZEFSAII (Michael W. Deem and Ramdas Pophale) SiO2 
 PCOD9082964
Probable space group: P -1
;
_chemical_formula_sum "Si O2"
_cell_formula_units_Z 14
_cell_length_a 13.568197
_cell_length_b 5.392302
_cell_length_c 12.641113
_cell_angle_alpha 118.041195
_cell_angle_beta 47.681837
_cell_angle_gamma 97.163223
_cell_volume 576.931660
_symmetry_space_group_name_H-M "P -1"
_symmetry_group_IT_number 2
_symmetry_cell_setting 'triclinic'
loop_
_space_group_symop_operation_xyz
x,y,z
-x,-y,-z
loop_
_atom_site_type_symbol
_atom_site_label
_atom_site_fract_x
_atom_site_fract_y
_atom_site_fract_z
Si Si1 0.455104 0.353263 0.608276
Si Si2 0.843770 0.155297 0.500024
Si Si3 0.630977 0.215233 0.863741
Si Si4 0.235622 0.324262 0.633879
Si Si5 0.958066 0.791510 0.901353
Si Si6 0.864518 0.207798 0.853789
Si Si7 0.623641 0.657841 0.673320
O O1 0.500000 0.500000 0.500000
O O2 0.289672 0.427654 0.723011
O O3 0.519995 0.462289 0.685571
O O4 0.500000 0.000000 0.500000
O O5 0.750477 0.157590 0.672383
O O6 0.773398 0.487077 0.581115
O O7 0.807946 0.970490 0.388890
O O8 0.007983 0.988871 0.354095
O O9 0.719068 0.233998 0.907525
O O10 0.569933 0.941299 0.839154
O O11 0.500000 0.500000 0.000000
O O12 0.351063 0.247714 0.444211
O O13 0.110287 0.572620 0.724423
O O14 0.881037 0.536490 0.928015
O O15 0.884892 0.003032 0.901831
O O16 0.000000 0.000000 0.000000
#
# Coordination Sequence:
#
# PCOD9082964 Si02
#       7
#     2   2   2   2   2   2   2
#     4  10  19  33  59  94 128 168 213 270 338 391
#     4  10  20  41  71  97 132 179 236 285 336 405
#     4  11  27  45  64 101 144 186 233 289 351 418
#     4   9  19  37  60  97 133 168 227 287 331 409
#     4  11  24  44  70 103 136 178 231 291 350 414
#     4  11  25  47  73 101 138 185 236 284 346 417
#     4  10  20  38  65  93 136 176 229 279 338 405
#
# _framework density 24.266307999999999
#
# number of rings (size 3 to 8) (size 9 to 14) (size 15 to 20)
#    0.000    1.714    2.857    0.857    2.000    2.286 
#    2.571    0.000    0.000    0.000    0.000    0.000 
#    0.000    0.000    0.000    0.000    0.000    0.000 
#
# Total GULP energy -77947.818344 kJ/mol
# GULP energy per Si atom -5567.701310 kJ/mol
# Density = 2.421108 g / cm^3
# Si number density = 24.266308 Si / 1000 Ang^3
#
#
#
# Elastic Constant Matrix: (Units=GPa)
#
#
# Indices 1 2 3 4 5 6 
#
# 1 199.3026 62.4177 57.4141 31.0286 -11.0689 9.0216
# 2 62.4177 136.8522 53.9910 40.6619 9.2890 -7.1711
# 3 57.4141 53.9910 118.7219 24.7370 4.4666 3.5063
# 4 31.0286 40.6619 24.7370 47.1633 -0.7843 6.9892
# 5 -11.0689 9.2890 4.4666 -0.7843 25.7382 8.2081
# 6 9.0216 -7.1711 3.5063 6.9892 8.2081 33.9771
#
#
#
# Elastic Compliance Matrix: (Units=1/GPa)
#
#
# Indices 1 2 3 4 5 6 
#
# 1 0.007043 -0.002763 -0.002144 -0.000524 0.005482 -0.003448
# 2 -0.002763 0.013503 -0.002696 -0.009719 -0.008407 0.007892
# 3 -0.002144 -0.002696 0.011210 -0.002136 -0.001875 -0.000264
# 4 -0.000524 -0.009719 -0.002136 0.032712 0.007947 -0.010340
# 5 0.005482 -0.008407 -0.001875 0.007947 0.050166 -0.016790
# 6 -0.003448 0.007892 -0.000264 -0.010340 -0.016790 0.038223
#
#
# Mechanical properties :
#
#
# Convention : Reuss Voigt Hill
#
# Bulk Modulus (GPa) = 60.43124 89.16915 74.80019
# Shear Modulus (GPa) = 28.80504 40.11264 34.45884
#
# Velocity S-wave (km/s) = 3.44908 4.07014 3.77241
# Velocity P-wave (km/s) = 6.38897 7.67554 7.06162
#
# Compressibility (1/GPa) = 0.01654773
#
# Stress axis : x y z
#
# Youngs Moduli (GPa) = 141.98890 74.05763 89.20833
#
# Poissons Ratio (x) = 0.20464 0.19131
# Poissons Ratio (y) = 0.39234 0.24053
# Poissons Ratio (z) = 0.30449 0.19968
#
# Static dielectric constant tensor:
#      x y z
#    x 2.025590 0.032790 -0.022420 
#    y 0.032790 1.943030 -0.054760 
#    z -0.022420 -0.054760 2.000890 
# 
# From -- ./inp_files/526050.got.cif
#   From: 2010.05.17/outbox.cif.g08.bks.cpg/sg2_264_cif.got.tgz:526050.got - 2010.06.03 11:33:40.
