data_PCOD9082809
_publ_section_title
;
Structure prediction by ZEFSAII (Michael W. Deem and Ramdas Pophale) SiO2 
 PCOD9082809
Probable space group: P -1
;
_chemical_formula_sum "Si O2"
_cell_formula_units_Z 8
_cell_length_a 8.695287
_cell_length_b 7.677136
_cell_length_c 13.070992
_cell_angle_alpha 48.389852
_cell_angle_beta 109.281256
_cell_angle_gamma 68.766046
_cell_volume 349.004530
_symmetry_space_group_name_H-M "P -1"
_symmetry_group_IT_number 2
_symmetry_cell_setting 'triclinic'
loop_
_space_group_symop_operation_xyz
x,y,z
-x,-y,-z
loop_
_atom_site_type_symbol
_atom_site_label
_atom_site_fract_x
_atom_site_fract_y
_atom_site_fract_z
Si Si1 0.260838 0.771200 0.075440
Si Si2 0.867101 0.199654 0.505134
Si Si3 0.708844 0.023093 0.203881
Si Si4 0.802994 0.526787 0.986317
O O1 0.531677 0.546312 0.284604
O O2 0.207191 0.029115 0.874849
O O3 0.318710 0.469256 0.140151
O O4 0.000000 0.000000 0.000000
O O5 0.000000 0.000000 0.500000
O O6 0.013755 0.267017 0.550123
O O7 0.984823 0.879524 0.739591
O O8 0.500000 0.500000 0.000000
O O9 0.478031 0.097007 0.152562
O O10 0.000000 0.500000 0.000000
#
# Coordination Sequence:
#
# PCOD9082809 Si02
#       4
#     2   2   2   2
#     4  10  19  33  54  78 100 133 174 209 246 300
#     4  10  15  33  58  71  95 143 175 197 244 308
#     4   8  16  30  50  72  98 130 172 200 236 305
#     4  10  20  32  51  82 105 125 170 217 248 298
#
# _framework density 22.922339000000001
#
# number of rings (size 3 to 8) (size 9 to 14) (size 15 to 20)
#    0.000    3.000    7.500    0.000    0.000    5.000 
#    0.000    1.250    0.000    3.000    0.000    0.000 
#    0.000    0.000    0.000    0.000    0.000    0.000 
#
# Total GULP energy -44585.034386 kJ/mol
# GULP energy per Si atom -5573.129298 kJ/mol
# Density = 2.287017 g / cm^3
# Si number density = 22.922339 Si / 1000 Ang^3
#
#
#
# Elastic Constant Matrix: (Units=GPa)
#
#
# Indices 1 2 3 4 5 6 
#
# 1 204.9625 52.8974 72.9420 11.0413 48.5924 -42.3141
# 2 52.8974 71.9548 41.0693 7.7410 21.1432 -28.9552
# 3 72.9420 41.0693 164.5279 20.1954 54.7008 -14.8721
# 4 11.0413 7.7410 20.1954 30.3797 -4.1912 13.9650
# 5 48.5924 21.1432 54.7008 -4.1912 50.3351 -5.4523
# 6 -42.3141 -28.9552 -14.8721 13.9650 -5.4523 57.6816
#
#
#
# Elastic Compliance Matrix: (Units=1/GPa)
#
#
# Indices 1 2 3 4 5 6 
#
# 1 0.008961 -0.000192 0.001111 -0.008966 -0.009655 0.008022
# 2 -0.000192 0.024244 0.000582 -0.014698 -0.010255 0.014768
# 3 0.001111 0.000582 0.013177 -0.014524 -0.016143 0.006495
# 4 -0.008966 -0.014698 -0.014524 0.068442 0.032938 -0.031157
# 5 -0.009655 -0.010255 -0.016143 0.032938 0.051670 -0.019483
# 6 0.008022 0.014768 0.006495 -0.031157 -0.019483 0.038011
#
#
# Mechanical properties :
#
#
# Convention : Reuss Voigt Hill
#
# Bulk Modulus (GPa) = 20.24968 86.14027 53.19498
# Shear Modulus (GPa) = 22.93930 45.98172 34.46051
#
# Velocity S-wave (km/s) = 3.16688 4.48367 3.88152
# Velocity P-wave (km/s) = 4.71438 8.02902 6.58371
#
# Compressibility (1/GPa) = 0.04938349
#
# Stress axis : x y z
#
# Youngs Moduli (GPa) = 111.59044 41.24705 75.88830
#
# Poissons Ratio (x) = 0.00793 -0.08429
# Poissons Ratio (y) = 0.02146 -0.04416
# Poissons Ratio (z) = -0.12395 -0.02400
#
# Static dielectric constant tensor:
#      x y z
#    x 2.059550 0.126770 -0.069400 
#    y 0.126770 2.063100 -0.100450 
#    z -0.069400 -0.100450 1.894630 
# 
# From -- ./inp_files/15316.got.cif
#   From: 2010.05.17/outbox.cif.g08.bks.cpg/sg2_8_cif.got.tgz:15316.got - 2010.06.03 11:33:40.
