data_PCOD9082707
_publ_section_title
;
Structure prediction by ZEFSAII (Michael W. Deem and Ramdas Pophale) SiO2 
 PCOD9082707
Probable space group: P -1
;
_chemical_formula_sum "Si O2"
_cell_formula_units_Z 16
_cell_length_a 14.382840
_cell_length_b 13.616810
_cell_length_c 11.465905
_cell_angle_alpha 67.325745
_cell_angle_beta 152.460045
_cell_angle_gamma 130.079999
_cell_volume 676.596854
_symmetry_space_group_name_H-M "P -1"
_symmetry_group_IT_number 2
_symmetry_cell_setting 'triclinic'
loop_
_space_group_symop_operation_xyz
x,y,z
-x,-y,-z
loop_
_atom_site_type_symbol
_atom_site_label
_atom_site_fract_x
_atom_site_fract_y
_atom_site_fract_z
Si Si1 0.210868 0.374107 0.669789
Si Si2 0.758417 0.217320 0.410265
Si Si3 0.601276 0.264232 0.801796
Si Si4 0.685066 0.926551 0.200264
Si Si5 0.251479 0.946797 0.128931
Si Si6 0.982857 0.210912 0.277539
Si Si7 0.486352 0.812752 0.518202
Si Si8 0.961678 0.463959 0.699003
O O1 0.084082 0.441197 0.460722
O O2 0.978479 0.237683 0.562809
O O3 0.235056 0.318890 0.600647
O O4 0.500000 0.500000 0.000000
O O5 0.945066 0.365522 0.629383
O O6 0.545957 0.072411 0.324021
O O7 0.541787 0.198405 0.091242
O O8 0.413933 0.142168 0.750999
O O9 0.465056 0.212706 0.545945
O O10 0.869337 0.282791 0.078719
O O11 0.757653 0.424999 0.958424
O O12 0.736610 0.066887 0.151043
O O13 0.000000 0.000000 0.500000
O O14 0.285859 0.843979 0.271675
O O15 0.255677 0.042683 0.183685
O O16 0.007628 0.852005 0.802242
O O17 0.311935 0.661014 0.466627
#
# Coordination Sequence:
#
# PCOD9082707 Si02
#       8
#     2   2   2   2   2   2   2   2
#     4  11  23  34  57  85 116 153 188 235 290 339
#     4  10  20  37  56  81 118 147 191 240 286 336
#     4  10  19  33  57  83 117 151 190 231 280 345
#     4  11  22  33  56  87 115 150 185 240 291 332
#     4   8  17  32  58  84 109 148 190 239 281 335
#     4   9  19  35  54  79 115 144 189 234 285 329
#     4   9  17  32  57  87 110 150 199 224 283 344
#     4  10  20  35  56  82 121 152 186 234 283 341
#
# _framework density 23.647759000000001
#
# number of rings (size 3 to 8) (size 9 to 14) (size 15 to 20)
#    0.000    2.250    2.500    1.125    5.250    0.000 
#    0.000    0.000    0.000   21.000    0.000   35.875 
#    0.000    0.000    0.000    0.000    0.000    0.000 
#
# Total GULP energy -89238.601428 kJ/mol
# GULP energy per Si atom -5577.412589 kJ/mol
# Density = 2.359394 g / cm^3
# Si number density = 23.647759 Si / 1000 Ang^3
#
#
#
# Elastic Constant Matrix: (Units=GPa)
#
#
# Indices 1 2 3 4 5 6 
#
# 1 138.7018 0.8635 62.6031 17.9364 -47.7149 2.5163
# 2 0.8635 52.2030 -2.5550 9.4885 -6.0172 2.8985
# 3 62.6031 -2.5550 113.7481 21.9122 -41.9208 -10.1310
# 4 17.9364 9.4885 21.9122 25.4811 -12.9950 -13.8606
# 5 -47.7149 -6.0172 -41.9208 -12.9950 54.1973 7.3217
# 6 2.5163 2.8985 -10.1310 -13.8606 7.3217 27.3291
#
#
#
# Elastic Compliance Matrix: (Units=1/GPa)
#
#
# Indices 1 2 3 4 5 6 
#
# 1 0.012594 0.002444 -0.003137 -0.007544 0.008290 -0.008628
# 2 0.002444 0.023547 0.003175 -0.017063 0.004677 -0.011453
# 3 -0.003137 0.003175 0.014763 -0.008478 0.007082 -0.000772
# 4 -0.007544 -0.017063 -0.008478 0.079133 -0.001510 0.039900
# 5 0.008290 0.004677 0.007082 -0.001510 0.032479 -0.008101
# 6 -0.008628 -0.011453 -0.000772 0.039900 -0.008101 0.060720
#
#
# Mechanical properties :
#
#
# Convention : Reuss Voigt Hill
#
# Bulk Modulus (GPa) = 17.89919 47.38624 32.64272
# Shear Modulus (GPa) = 21.10631 37.65093 29.37862
#
# Velocity S-wave (km/s) = 2.99076 3.99451 3.52851
# Velocity P-wave (km/s) = 4.41721 6.43092 5.51672
#
# Compressibility (1/GPa) = 0.05586844
#
# Stress axis : x y z
#
# Youngs Moduli (GPa) = 79.40283 42.46765 67.73552
#
# Poissons Ratio (x) = -0.10379 0.21246
# Poissons Ratio (y) = -0.19405 -0.21504
# Poissons Ratio (z) = 0.24906 -0.13482
#
# Static dielectric constant tensor:
#      x y z
#    x 1.946010 -0.053260 -0.041920 
#    y -0.053260 1.925290 0.020110 
#    z -0.041920 0.020110 1.931810 
# 
# From -- ./inp_files/454786.got.cif
#   From: 2010.05.17/outbox.cif.g08.bks.cpg/sg2_228_cif.got.tgz:454786.got - 2010.06.03 11:33:40.
