data_PCOD9082470
_publ_section_title
;
Structure prediction by ZEFSAII (Michael W. Deem and Ramdas Pophale) SiO2 
 PCOD9082470
Probable space group: P -1
;
_chemical_formula_sum "Si O2"
_cell_formula_units_Z 16
_cell_length_a 24.797542
_cell_length_b 11.666096
_cell_length_c 14.417682
_cell_angle_alpha 129.707050
_cell_angle_beta 150.765148
_cell_angle_gamma 30.516606
_cell_volume 921.000689
_symmetry_space_group_name_H-M "P -1"
_symmetry_group_IT_number 2
_symmetry_cell_setting 'triclinic'
loop_
_space_group_symop_operation_xyz
x,y,z
-x,-y,-z
loop_
_atom_site_type_symbol
_atom_site_label
_atom_site_fract_x
_atom_site_fract_y
_atom_site_fract_z
Si Si1 0.995061 0.489460 0.376632
Si Si2 0.198578 0.703789 0.246835
Si Si3 0.556142 0.479935 0.330128
Si Si4 0.854759 0.184904 0.101386
Si Si5 0.722277 0.564190 0.946188
Si Si6 0.954259 0.234270 0.469777
Si Si7 0.309392 0.661533 0.747009
Si Si8 0.310911 0.897015 0.523576
O O1 0.046566 0.590967 0.462725
O O2 0.000000 0.500000 0.500000
O O3 0.145353 0.195914 0.428328
O O4 0.793431 0.651225 0.121160
O O5 0.371665 0.487385 0.465048
O O6 0.183516 0.600946 0.091112
O O7 0.250639 0.810112 0.335476
O O8 0.017878 0.923266 0.154223
O O9 0.639414 0.426062 0.327934
O O10 0.643942 0.226597 0.370853
O O11 0.333178 0.705598 0.109340
O O12 0.922781 0.176586 0.297002
O O13 0.794519 0.387065 0.049462
O O14 0.501959 0.767480 0.711842
O O15 0.792050 0.361510 0.362968
O O16 0.154048 0.962374 0.669201
O O17 0.500000 0.500000 0.000000
#
# Coordination Sequence:
#
# PCOD9082470 Si02
#       8
#     2   2   2   2   2   2   2   2
#     4  12  22  36  53  81 123 153 173 218 279 345
#     4  10  19  33  55  82 117 142 191 228 266 327
#     4   9  19  33  54  85 109 140 186 233 274 315
#     4  11  18  33  55  83 113 144 179 226 282 321
#     4  11  21  33  54  84 117 154 181 216 276 338
#     4  11  23  36  56  86 114 146 185 225 279 337
#     4  11  21  38  59  80 109 144 193 237 273 318
#     4   9  21  34  55  81 116 146 182 221 279 326
#
# _framework density 17.372408
#
# number of rings (size 3 to 8) (size 9 to 14) (size 15 to 20)
#    0.750    0.750    5.000    1.500    0.000    1.500 
#    0.000    0.000    0.000    0.750    0.000    2.625 
#    0.000    0.000    0.000    0.000    0.000    0.000 
#
# Total GULP energy -89174.787639 kJ/mol
# GULP energy per Si atom -5573.424227 kJ/mol
# Density = 1.733287 g / cm^3
# Si number density = 17.372408 Si / 1000 Ang^3
#
#
#
# Elastic Constant Matrix: (Units=GPa)
#
#
# Indices 1 2 3 4 5 6 
#
# 1 97.5229 22.4681 41.2342 11.0109 15.3841 -5.0171
# 2 22.4681 29.2951 29.4866 8.8963 8.0290 -0.8781
# 3 41.2342 29.4866 104.6787 -1.3092 11.1307 -6.2196
# 4 11.0109 8.8963 -1.3092 25.3458 -3.5792 1.4545
# 5 15.3841 8.0290 11.1307 -3.5792 30.0689 -4.5661
# 6 -5.0171 -0.8781 -6.2196 1.4545 -4.5661 16.9206
#
#
#
# Elastic Compliance Matrix: (Units=1/GPa)
#
#
# Indices 1 2 3 4 5 6 
#
# 1 0.014425 -0.003593 -0.004075 -0.006071 -0.005383 0.001662
# 2 -0.003593 0.062692 -0.015480 -0.022743 -0.012631 -0.004956
# 3 -0.004075 -0.015480 0.015625 0.008080 0.001937 0.003560
# 4 -0.006071 -0.022743 0.008080 0.052288 0.012229 -0.001205
# 5 -0.005383 -0.012631 0.001937 0.012229 0.041427 0.008588
# 6 0.001662 -0.004956 0.003560 -0.001205 0.008588 0.063065
#
#
# Mechanical properties :
#
#
# Convention : Reuss Voigt Hill
#
# Bulk Modulus (GPa) = 21.53009 46.43053 33.98031
# Shear Modulus (GPa) = 16.06169 23.68756 19.87463
#
# Velocity S-wave (km/s) = 3.04394 3.69659 3.38603
# Velocity P-wave (km/s) = 4.97738 6.70852 5.90672
#
# Compressibility (1/GPa) = 0.04644662
#
# Stress axis : x y z
#
# Youngs Moduli (GPa) = 69.32514 15.95101 63.99861
#
# Poissons Ratio (x) = 0.05731 0.26079
# Poissons Ratio (y) = 0.24908 0.99070
# Poissons Ratio (z) = 0.28249 0.24692
#
# Static dielectric constant tensor:
#      x y z
#    x 1.588970 -0.011450 0.004050 
#    y -0.011450 1.573330 -0.012620 
#    z 0.004050 -0.012620 1.651430 
# 
# From -- ./inp_files/542814.got.cif
#   From: 2010.05.17/outbox.cif.g08.bks.cpg/sg2_272_cif.got.tgz:542814.got - 2010.06.03 11:33:40.
