data_PCOD9082666
_publ_section_title
;
Structure prediction by ZEFSAII (Michael W. Deem and Ramdas Pophale) SiO2 
 PCOD9082666
Probable space group: P -1
;
_chemical_formula_sum "Si O2"
_cell_formula_units_Z 14
_cell_length_a 12.938656
_cell_length_b 10.138205
_cell_length_c 5.657343
_cell_angle_alpha 89.173840
_cell_angle_beta 89.314444
_cell_angle_gamma 137.898822
_cell_volume 497.199187
_symmetry_space_group_name_H-M "P -1"
_symmetry_group_IT_number 2
_symmetry_cell_setting 'triclinic'
loop_
_space_group_symop_operation_xyz
x,y,z
-x,-y,-z
loop_
_atom_site_type_symbol
_atom_site_label
_atom_site_fract_x
_atom_site_fract_y
_atom_site_fract_z
Si Si1 0.379208 0.750606 0.661468
Si Si2 0.275589 0.526123 0.069320
Si Si3 0.591008 0.934377 0.245278
Si Si4 0.678614 0.674001 0.578590
Si Si5 0.117005 0.913369 0.234133
Si Si6 0.862917 0.372233 0.694533
Si Si7 0.882847 0.026485 0.259906
O O1 0.534784 0.862823 0.520461
O O2 0.282453 0.718902 0.449084
O O3 0.389978 0.893456 0.811296
O O4 0.288475 0.543964 0.784531
O O5 0.455441 0.744349 0.099011
O O6 0.274308 0.403719 0.252819
O O7 0.144588 0.514966 0.121665
O O8 0.750478 0.010439 0.224913
O O9 0.500000 0.500000 0.500000
O O10 0.732202 0.849931 0.737529
O O11 0.785286 0.805383 0.342818
O O12 0.037392 0.859492 0.496200
O O13 0.148539 0.787858 0.213761
O O14 0.035750 0.891481 0.998923
O O15 0.000000 0.500000 0.500000
#
# Coordination Sequence:
#
# PCOD9082666 Si02
#       7
#     2   2   2   2   2   2   2
#     4  10  21  36  57  92 130 165 215 267 336 389
#     4  11  22  38  64  94 132 169 219 271 334 400
#     4  10  19  33  56  93 131 169 202 265 329 401
#     4  10  22  40  61 101 135 181 207 267 328 415
#     4  10  23  42  64  93 133 175 220 273 326 394
#     4  11  25  44  66  93 125 174 232 285 329 383
#     4  10  21  38  65  93 137 174 217 253 332 396
#
# _framework density 28.157727999999999
#
# number of rings (size 3 to 8) (size 9 to 14) (size 15 to 20)
#    0.857    0.857    2.857    1.286    2.000    3.429 
#    0.000    0.714    0.000    1.714    0.000    0.000 
#    0.000    0.000    0.000    0.000    0.000    0.000 
#
# Total GULP energy -78197.059281 kJ/mol
# GULP energy per Si atom -5585.504234 kJ/mol
# Density = 2.809364 g / cm^3
# Si number density = 28.157728 Si / 1000 Ang^3
#
#
#
# Elastic Constant Matrix: (Units=GPa)
#
#
# Indices 1 2 3 4 5 6 
#
# 1 137.4163 44.8164 60.1188 -26.3606 17.2142 -14.5809
# 2 44.8164 99.7168 52.2422 -6.6322 14.7142 -31.8804
# 3 60.1188 52.2422 216.0308 -46.2804 33.2240 -21.4708
# 4 -26.3606 -6.6322 -46.2804 58.6401 -1.5415 15.1516
# 5 17.2142 14.7142 33.2240 -1.5415 40.0166 -18.8838
# 6 -14.5809 -31.8804 -21.4708 15.1516 -18.8838 44.1499
#
#
#
# Elastic Compliance Matrix: (Units=1/GPa)
#
#
# Indices 1 2 3 4 5 6 
#
# 1 0.009846 -0.004314 -0.000573 0.004185 -0.003455 -0.003056
# 2 -0.004314 0.016984 -0.003624 -0.006157 0.004589 0.013153
# 3 -0.000573 -0.003624 0.007564 0.006156 -0.006326 -0.003946
# 4 0.004185 -0.006157 0.006156 0.026281 -0.009928 -0.013336
# 5 -0.003455 0.004589 -0.006326 -0.009928 0.038639 0.019030
# 6 -0.003056 0.013153 -0.003946 -0.013336 0.019030 0.041936
#
#
# Mechanical properties :
#
#
# Convention : Reuss Voigt Hill
#
# Bulk Modulus (GPa) = 57.56053 85.27984 71.42019
# Shear Modulus (GPa) = 30.47605 48.29374 39.38490
#
# Velocity S-wave (km/s) = 3.29345 4.14589 3.74401
# Velocity P-wave (km/s) = 5.91177 7.29863 6.64150
#
# Compressibility (1/GPa) = 0.01737302
#
# Stress axis : x y z
#
# Youngs Moduli (GPa) = 101.56465 58.87733 132.19934
#
# Poissons Ratio (x) = 0.25399 0.07570
# Poissons Ratio (y) = 0.43814 0.47913
# Poissons Ratio (z) = 0.05816 0.21339
#
# Static dielectric constant tensor:
#      x y z
#    x 2.247990 -0.061990 -0.110830 
#    y -0.061990 2.350890 0.129910 
#    z -0.110830 0.129910 2.447030 
# 
# From -- ./inp_files/94660.got.cif
#   From: 2010.05.17/outbox.cif.g08.bks.cpg/sg2_48_cif.got.tgz:94660.got - 2010.06.03 11:33:40.
