data_PCOD9082563
_publ_section_title
;
Structure prediction by ZEFSAII (Michael W. Deem and Ramdas Pophale) SiO2 
 PCOD9082563
Probable space group: P -1
;
_chemical_formula_sum "Si O2"
_cell_formula_units_Z 16
_cell_length_a 6.063021
_cell_length_b 28.555104
_cell_length_c 14.384892
_cell_angle_alpha 26.850174
_cell_angle_beta 128.570365
_cell_angle_gamma 134.851530
_cell_volume 797.310067
_symmetry_space_group_name_H-M "P -1"
_symmetry_group_IT_number 2
_symmetry_cell_setting 'triclinic'
loop_
_space_group_symop_operation_xyz
x,y,z
-x,-y,-z
loop_
_atom_site_type_symbol
_atom_site_label
_atom_site_fract_x
_atom_site_fract_y
_atom_site_fract_z
Si Si1 0.143579 0.629763 0.581163
Si Si2 0.050455 0.149798 0.167405
Si Si3 0.333444 0.710865 0.684248
Si Si4 0.150063 0.680118 0.288152
Si Si5 0.575574 0.486565 0.395427
Si Si6 0.674787 0.560133 0.079566
Si Si7 0.985758 0.086051 0.474265
Si Si8 0.760501 0.244542 0.220926
O O1 0.221396 0.699422 0.382069
O O2 0.782350 0.541601 0.637151
O O3 0.184266 0.696987 0.568701
O O4 0.347511 0.556291 0.765872
O O5 0.924427 0.106901 0.313593
O O6 0.415323 0.233193 0.130712
O O7 0.871299 0.214512 0.956068
O O8 0.039200 0.040803 0.300688
O O9 0.662462 0.822230 0.574393
O O10 0.155972 0.723070 0.707036
O O11 0.405104 0.600306 0.916451
O O12 0.808935 0.574225 0.374330
O O13 0.375937 0.630425 0.387812
O O14 0.686788 0.542343 0.224221
O O15 0.988140 0.662304 0.943601
O O16 0.768162 0.123428 0.414655
#
# Coordination Sequence:
#
# PCOD9082563 Si02
#       8
#     2   2   2   2   2   2   2   2
#     4  11  22  35  52  75 109 148 179 209 256 315
#     4  10  19  36  59  83 105 134 174 218 271 316
#     4  10  21  35  52  79 109 140 177 217 261 311
#     4  10  21  35  53  77 107 140 175 216 260 313
#     4  10  21  36  53  80 108 139 177 215 262 314
#     4  10  20  34  55  81 108 137 174 222 264 308
#     4   9  20  36  58  83 106 130 171 227 270 310
#     4  10  19  33  56  82 108 136 169 219 271 313
#
# _framework density 20.067475000000002
#
# number of rings (size 3 to 8) (size 9 to 14) (size 15 to 20)
#    0.000    2.000    0.000    4.875    0.000    9.000 
#    0.000    0.625    0.000    1.500    0.000    0.000 
#    0.000    0.000    0.000    0.000    0.000    0.000 
#
# Total GULP energy -89398.798585 kJ/mol
# GULP energy per Si atom -5587.424912 kJ/mol
# Density = 2.002180 g / cm^3
# Si number density = 20.067475 Si / 1000 Ang^3
#
#
#
# Elastic Constant Matrix: (Units=GPa)
#
#
# Indices 1 2 3 4 5 6 
#
# 1 55.4303 13.0962 18.8618 -4.2003 7.6390 -18.4172
# 2 13.0962 68.1376 33.1787 9.6428 2.6828 -26.8238
# 3 18.8618 33.1787 111.7920 -2.7951 13.6156 -25.5129
# 4 -4.2003 9.6428 -2.7951 20.1656 -4.7930 -2.6061
# 5 7.6390 2.6828 13.6156 -4.7930 25.6793 -4.5631
# 6 -18.4172 -26.8238 -25.5129 -2.6061 -4.5631 34.0689
#
#
#
# Elastic Compliance Matrix: (Units=1/GPa)
#
#
# Indices 1 2 3 4 5 6 
#
# 1 0.023121 -0.000101 -0.000594 0.005517 -0.003401 0.011942
# 2 -0.000101 0.023981 -0.003942 -0.009966 0.000450 0.015173
# 3 -0.000594 -0.003942 0.012006 0.003086 -0.004272 0.005231
# 4 0.005517 -0.009966 0.003086 0.058540 0.009253 0.003164
# 5 -0.003401 0.000450 -0.004272 0.009253 0.044245 0.001951
# 6 0.011942 0.015173 0.005231 0.003164 0.001951 0.052174
#
#
# Mechanical properties :
#
#
# Convention : Reuss Voigt Hill
#
# Bulk Modulus (GPa) = 20.06579 40.62591 30.34585
# Shear Modulus (GPa) = 20.83761 27.33098 24.08430
#
# Velocity S-wave (km/s) = 3.22588 3.69447 3.46810
# Velocity P-wave (km/s) = 4.88835 6.20382 5.58495
#
# Compressibility (1/GPa) = 0.04983607
#
# Stress axis : x y z
#
# Youngs Moduli (GPa) = 43.25095 41.70045 83.28904
#
# Poissons Ratio (x) = 0.00419 0.04945
# Poissons Ratio (y) = 0.00435 0.32829
# Poissons Ratio (z) = 0.02568 0.16437
#
# Static dielectric constant tensor:
#      x y z
#    x 1.746320 -0.011950 0.011570 
#    y -0.011950 1.738160 -0.007310 
#    z 0.011570 -0.007310 1.702060 
# 
# From -- ./inp_files/371327.got.cif
#   From: 2010.05.17/outbox.cif.g08.bks.cpg/sg2_186_cif.got.tgz:371327.got - 2010.06.03 11:33:40.
