data_PCOD9082950
_publ_section_title
;
Structure prediction by ZEFSAII (Michael W. Deem and Ramdas Pophale) SiO2 
 PCOD9082950
Probable space group: P -1
;
_chemical_formula_sum "Si O2"
_cell_formula_units_Z 16
_cell_length_a 10.415297
_cell_length_b 16.147127
_cell_length_c 10.910721
_cell_angle_alpha 33.187112
_cell_angle_beta 73.347296
_cell_angle_gamma 53.258947
_cell_volume 702.525349
_symmetry_space_group_name_H-M "P -1"
_symmetry_group_IT_number 2
_symmetry_cell_setting 'triclinic'
loop_
_space_group_symop_operation_xyz
x,y,z
-x,-y,-z
loop_
_atom_site_type_symbol
_atom_site_label
_atom_site_fract_x
_atom_site_fract_y
_atom_site_fract_z
Si Si1 0.455291 0.557132 0.583128
Si Si2 0.204856 0.998225 0.478859
Si Si3 0.782823 0.703406 0.525574
Si Si4 0.491830 0.196719 0.039549
Si Si5 0.112855 0.396361 0.973138
Si Si6 0.594007 0.596174 0.878097
Si Si7 0.138871 0.790466 0.555257
Si Si8 0.616737 0.754762 0.268666
O O1 0.500000 0.500000 0.500000
O O2 0.540989 0.333728 0.888120
O O3 0.243441 0.722556 0.481914
O O4 0.530159 0.666521 0.458462
O O5 0.077037 0.066288 0.547668
O O6 0.415397 0.833773 0.663733
O O7 0.179362 0.898599 0.500158
O O8 0.131954 0.204901 0.180435
O O9 0.693642 0.623039 0.714570
O O10 0.780293 0.671098 0.420701
O O11 0.984818 0.571436 0.689014
O O12 0.653750 0.948675 0.288970
O O13 0.325824 0.274522 0.074517
O O14 0.384327 0.279117 0.834002
O O15 0.000000 0.500000 0.000000
O O16 0.500000 0.500000 0.000000
O O17 0.755734 0.424904 0.137128
O O18 0.500000 0.000000 0.000000
#
# Coordination Sequence:
#
# PCOD9082950 Si02
#       8
#     2   2   2   2   2   2   2   2
#     4  10  21  41  68  94 127 171 213 266 330 383
#     4  10  20  36  57  91 126 165 209 260 316 378
#     4  11  22  41  65  94 129 169 221 265 321 385
#     4  10  23  41  66  91 131 174 209 264 331 377
#     4  12  25  39  60  93 136 171 214 264 326 391
#     4  10  19  33  59  91 123 160 208 262 319 372
#     4  10  20  35  61  90 126 165 212 258 318 382
#     4   9  20  40  70  97 119 165 220 267 312 384
#
# _framework density 22.774979999999999
#
# number of rings (size 3 to 8) (size 9 to 14) (size 15 to 20)
#    0.000    1.750    2.500    2.250    1.750    2.000 
#    0.000    0.000    0.000    8.250    0.000    0.000 
#    0.000    0.000    0.000    0.000    0.000    0.000 
#
# Total GULP energy -89080.701086 kJ/mol
# GULP energy per Si atom -5567.543818 kJ/mol
# Density = 2.272314 g / cm^3
# Si number density = 22.774980 Si / 1000 Ang^3
#
#
#
# Elastic Constant Matrix: (Units=GPa)
#
#
# Indices 1 2 3 4 5 6 
#
# 1 65.9542 16.4973 33.0854 -19.8799 -5.3473 -2.7093
# 2 16.4973 87.8736 28.8385 -20.5983 -0.3465 -5.4510
# 3 33.0854 28.8385 112.6772 -26.2578 -5.4222 1.2085
# 4 -19.8799 -20.5983 -26.2578 32.3589 5.0131 1.2307
# 5 -5.3473 -0.3465 -5.4222 5.0131 55.3330 -10.3417
# 6 -2.7093 -5.4510 1.2085 1.2307 -10.3417 33.9212
#
#
#
# Elastic Compliance Matrix: (Units=1/GPa)
#
#
# Indices 1 2 3 4 5 6 
#
# 1 0.019897 -0.000365 -0.003668 0.008785 0.001078 0.001671
# 2 -0.000365 0.013822 -0.001818 0.007093 -0.000420 0.001872
# 3 -0.003668 -0.001818 0.011896 0.006290 -0.000001 -0.001237
# 4 0.008785 0.007093 0.006290 0.046400 -0.002870 -0.000941
# 5 0.001078 -0.000420 -0.000001 -0.002870 0.019572 0.006090
# 6 0.001671 0.001872 -0.001237 -0.000941 0.006090 0.031849
#
#
# Mechanical properties :
#
#
# Convention : Reuss Voigt Hill
#
# Bulk Modulus (GPa) = 29.48558 47.03861 38.26210
# Shear Modulus (GPa) = 30.04040 36.86156 33.45098
#
# Velocity S-wave (km/s) = 3.63576 4.02744 3.83660
# Velocity P-wave (km/s) = 5.53169 6.50580 6.03842
#
# Compressibility (1/GPa) = 0.03391488
#
# Stress axis : x y z
#
# Youngs Moduli (GPa) = 50.25833 72.34744 84.06064
#
# Poissons Ratio (x) = 0.02637 0.30833
# Poissons Ratio (y) = 0.01832 0.15281
# Poissons Ratio (z) = 0.18435 0.13152
#
# Static dielectric constant tensor:
#      x y z
#    x 1.974830 0.034300 -0.051550 
#    y 0.034300 1.940700 0.085620 
#    z -0.051550 0.085620 1.899080 
# 
# From -- ./inp_files/436371.got.cif
#   From: 2010.05.17/outbox.cif.g08.bks.cpg/sg2_219_cif.got.tgz:436371.got - 2010.06.03 11:33:40.
