data_PCOD9082534
_publ_section_title
;
Structure prediction by ZEFSAII (Michael W. Deem and Ramdas Pophale) SiO2 
 PCOD9082534
Probable space group: P -1
;
_chemical_formula_sum "Si O2"
_cell_formula_units_Z 16
_cell_length_a 9.850990
_cell_length_b 7.210583
_cell_length_c 13.163068
_cell_angle_alpha 106.310821
_cell_angle_beta 74.040407
_cell_angle_gamma 56.791548
_cell_volume 634.812971
_symmetry_space_group_name_H-M "P -1"
_symmetry_group_IT_number 2
_symmetry_cell_setting 'triclinic'
loop_
_space_group_symop_operation_xyz
x,y,z
-x,-y,-z
loop_
_atom_site_type_symbol
_atom_site_label
_atom_site_fract_x
_atom_site_fract_y
_atom_site_fract_z
Si Si1 0.938810 0.333091 0.105754
Si Si2 0.573099 0.725934 0.980365
Si Si3 0.030132 0.281476 0.853877
Si Si4 0.533047 0.549566 0.168268
Si Si5 0.035398 0.693856 0.502084
Si Si6 0.042579 0.842714 0.728607
Si Si7 0.380786 0.319836 0.483900
Si Si8 0.673517 0.085128 0.540443
O O1 0.757322 0.367133 0.123746
O O2 0.056221 0.139518 0.146027
O O3 0.870155 0.615425 0.187195
O O4 0.055977 0.244123 0.964274
O O5 0.804519 0.515075 0.911102
O O6 0.517228 0.610651 0.894064
O O7 0.500731 0.728932 0.108132
O O8 0.500000 0.000000 0.000000
O O9 0.085644 0.024889 0.759963
O O10 0.418610 0.707388 0.317980
O O11 0.905308 0.880181 0.464592
O O12 0.000000 0.500000 0.500000
O O13 0.947128 0.883054 0.647815
O O14 0.265864 0.502005 0.435735
O O15 0.232457 0.535025 0.632955
O O16 0.378855 0.090032 0.448880
O O17 0.580154 0.210604 0.469490
#
# Coordination Sequence:
#
# PCOD9082534 Si02
#       8
#     2   2   2   2   2   2   2   2
#     4  10  21  36  56  84 111 148 194 235 282 349
#     4  10  23  39  53  83 119 147 193 239 283 341
#     4  10  22  36  56  82 115 152 186 240 289 340
#     4  10  20  36  60  84 110 155 189 233 286 348
#     4   8  16  28  50  83 105 139 188 230 270 335
#     4  10  18  36  57  83 109 149 192 231 286 342
#     4   8  18  29  53  86 109 141 193 236 275 343
#     4  10  15  32  54  83 113 143 189 234 285 334
#
# _framework density 25.204276
#
# number of rings (size 3 to 8) (size 9 to 14) (size 15 to 20)
#    0.750    1.750    1.250    1.125    0.000    7.000 
#    0.000    0.000    0.000    3.000    0.000    0.000 
#    0.000    0.000    0.000    0.000    0.000    0.000 
#
# Total GULP energy -89410.021442 kJ/mol
# GULP energy per Si atom -5588.126340 kJ/mol
# Density = 2.514691 g / cm^3
# Si number density = 25.204276 Si / 1000 Ang^3
#
#
#
# Elastic Constant Matrix: (Units=GPa)
#
#
# Indices 1 2 3 4 5 6 
#
# 1 117.4598 52.9488 36.6345 -13.8913 25.7722 -5.7726
# 2 52.9488 112.3195 58.9298 -10.7893 4.3283 13.1155
# 3 36.6345 58.9298 75.2817 9.7286 17.0623 28.1052
# 4 -13.8913 -10.7893 9.7286 29.1186 3.8219 18.1196
# 5 25.7722 4.3283 17.0623 3.8219 38.7748 7.4064
# 6 -5.7726 13.1155 28.1052 18.1196 7.4064 50.6384
#
#
#
# Elastic Compliance Matrix: (Units=1/GPa)
#
#
# Indices 1 2 3 4 5 6 
#
# 1 0.014464 -0.004553 -0.003784 0.004842 -0.008773 0.004479
# 2 -0.004553 0.020592 -0.016271 0.011100 0.007144 -0.001839
# 3 -0.003784 -0.016271 0.035018 -0.012187 -0.007942 -0.010131
# 4 0.004842 0.011100 -0.012187 0.054209 -0.001626 -0.014718
# 5 -0.008773 0.007144 -0.007942 -0.001626 0.035049 -0.002987
# 6 0.004479 -0.001839 -0.010131 -0.014718 -0.002987 0.032061
#
#
# Mechanical properties :
#
#
# Convention : Reuss Voigt Hill
#
# Bulk Modulus (GPa) = 47.94173 66.89859 57.42016
# Shear Modulus (GPa) = 20.19705 34.14289 27.16997
#
# Velocity S-wave (km/s) = 2.83386 3.68455 3.28684
# Velocity P-wave (km/s) = 5.45621 6.68591 6.10211
#
# Compressibility (1/GPa) = 0.02085865
#
# Stress axis : x y z
#
# Youngs Moduli (GPa) = 69.13851 48.56313 28.55641
#
# Poissons Ratio (x) = 0.22110 0.10806
# Poissons Ratio (y) = 0.31478 0.46463
# Poissons Ratio (z) = 0.26162 0.79016
#
# Static dielectric constant tensor:
#      x y z
#    x 1.864210 -0.131070 0.059770 
#    y -0.131070 1.954810 0.031820 
#    z 0.059770 0.031820 1.951380 
# 
# From -- ./inp_files/511091.got.cif
#   From: 2010.05.17/outbox.cif.g08.bks.cpg/sg2_256_cif.got.tgz:511091.got - 2010.06.03 11:33:40.
