data_PCOD9082425
_publ_section_title
;
Structure prediction by ZEFSAII (Michael W. Deem and Ramdas Pophale) SiO2 
 PCOD9082425
Probable space group: P -1
;
_chemical_formula_sum "Si O2"
_cell_formula_units_Z 16
_cell_length_a 11.668587
_cell_length_b 8.086637
_cell_length_c 9.313872
_cell_angle_alpha 93.856648
_cell_angle_beta 128.152920
_cell_angle_gamma 57.508880
_cell_volume 534.538700
_symmetry_space_group_name_H-M "P -1"
_symmetry_group_IT_number 2
_symmetry_cell_setting 'triclinic'
loop_
_space_group_symop_operation_xyz
x,y,z
-x,-y,-z
loop_
_atom_site_type_symbol
_atom_site_label
_atom_site_fract_x
_atom_site_fract_y
_atom_site_fract_z
Si Si1 0.271640 0.155260 0.016130
Si Si2 0.139310 0.966324 0.311817
Si Si3 0.480162 0.788020 0.392194
Si Si4 0.862023 0.355438 0.284371
Si Si5 0.348570 0.957714 0.777310
Si Si6 0.568143 0.526879 0.827156
Si Si7 0.915629 0.326843 0.905213
Si Si8 0.165010 0.384206 0.470875
O O1 0.069258 0.328623 0.943710
O O2 0.257176 0.031938 0.867364
O O3 0.425327 0.164601 0.059374
O O4 0.384802 0.987079 0.223114
O O5 0.020860 0.103254 0.367037
O O6 0.352840 0.871686 0.439782
O O7 0.130425 0.782287 0.253356
O O8 0.024613 0.149388 0.107831
O O9 0.460676 0.625752 0.286507
O O10 0.697529 0.684822 0.559665
O O11 0.834070 0.448655 0.426015
O O12 0.960246 0.452051 0.295984
O O13 0.681646 0.429467 0.059322
O O14 0.370217 0.757024 0.720572
O O15 0.259547 0.172656 0.630869
O O16 0.718251 0.513642 0.838109
#
# Coordination Sequence:
#
# PCOD9082425 Si02
#       8
#     2   2   2   2   2   2   2   2
#     4   9  16  29  48  71 105 136 169 211 254 296
#     4   8  15  29  51  78 101 125 170 221 256 292
#     4   9  18  33  55  81 102 130 176 219 252 304
#     4  10  19  33  55  76 103 139 174 210 255 305
#     4  10  20  32  48  75 109 139 168 210 257 304
#     4  10  19  33  58  82 100 130 177 218 254 303
#     4   8  15  28  49  79 104 124 166 223 258 293
#     4  10  22  36  50  76 112 139 168 210 258 308
#
# _framework density 29.932348000000001
#
# number of rings (size 3 to 8) (size 9 to 14) (size 15 to 20)
#    0.000    2.750    0.000    4.500    0.000    4.000 
#    0.000    2.500    0.000   19.500    0.000    0.000 
#    0.000    0.000    0.000    0.000    0.000    0.000 
#
# Total GULP energy -89636.511407 kJ/mol
# GULP energy per Si atom -5602.281963 kJ/mol
# Density = 2.986422 g / cm^3
# Si number density = 29.932348 Si / 1000 Ang^3
#
#
#
# Elastic Constant Matrix: (Units=GPa)
#
#
# Indices 1 2 3 4 5 6 
#
# 1 149.8916 22.7215 37.8829 -11.6191 13.2519 -29.9469
# 2 22.7215 164.9901 42.5587 12.3631 2.0325 -59.0883
# 3 37.8829 42.5587 98.7098 -11.2763 14.1180 -12.7817
# 4 -11.6191 12.3631 -11.2763 62.0914 -9.1701 3.8042
# 5 13.2519 2.0325 14.1180 -9.1701 50.1412 -1.1945
# 6 -29.9469 -59.0883 -12.7817 3.8042 -1.1945 51.8418
#
#
#
# Elastic Compliance Matrix: (Units=1/GPa)
#
#
# Indices 1 2 3 4 5 6 
#
# 1 0.008541 0.001874 -0.003077 0.000090 -0.001301 0.006274
# 2 0.001874 0.012457 -0.004658 -0.003867 -0.000052 0.014415
# 3 -0.003077 -0.004658 0.013447 0.002687 -0.002389 -0.004023
# 4 0.000090 -0.003867 0.002687 0.018062 0.002561 -0.004959
# 5 -0.001301 -0.000052 -0.002389 0.002561 0.021405 -0.001095
# 6 0.006274 0.014415 -0.004023 -0.004959 -0.001095 0.038690
#
#
# Mechanical properties :
#
#
# Convention : Reuss Voigt Hill
#
# Bulk Modulus (GPa) = 44.00695 68.87973 56.44334
# Shear Modulus (GPa) = 37.90796 53.51009 45.70903
#
# Velocity S-wave (km/s) = 3.56259 4.23271 3.91202
# Velocity P-wave (km/s) = 5.62644 6.85197 6.26922
#
# Compressibility (1/GPa) = 0.02272368
#
# Stress axis : x y z
#
# Youngs Moduli (GPa) = 117.08875 80.27474 74.36374
#
# Poissons Ratio (x) = -0.15041 0.22880
# Poissons Ratio (y) = -0.21939 0.34636
# Poissons Ratio (z) = 0.36026 0.37389
#
# Static dielectric constant tensor:
#      x y z
#    x 2.250400 0.065720 0.051390 
#    y 0.065720 2.380670 0.078120 
#    z 0.051390 0.078120 2.494880 
# 
# From -- ./inp_files/419560.got.cif
#   From: 2010.05.17/outbox.cif.g08.bks.cpg/sg2_210_cif.got.tgz:419560.got - 2010.06.03 11:33:40.
