data_PCOD9082247
_publ_section_title
;
Structure prediction by ZEFSAII (Michael W. Deem and Ramdas Pophale) SiO2 
 PCOD9082247
Probable space group: P -1
;
_chemical_formula_sum "Si O2"
_cell_formula_units_Z 14
_cell_length_a 9.617922
_cell_length_b 12.516064
_cell_length_c 5.125044
_cell_angle_alpha 97.756193
_cell_angle_beta 90.581507
_cell_angle_gamma 121.684474
_cell_volume 517.780759
_symmetry_space_group_name_H-M "P -1"
_symmetry_group_IT_number 2
_symmetry_cell_setting 'triclinic'
loop_
_space_group_symop_operation_xyz
x,y,z
-x,-y,-z
loop_
_atom_site_type_symbol
_atom_site_label
_atom_site_fract_x
_atom_site_fract_y
_atom_site_fract_z
Si Si1 0.341142 0.905939 0.293197
Si Si2 0.146250 0.449768 0.228817
Si Si3 0.727719 0.901164 0.535903
Si Si4 0.330553 0.460237 0.738557
Si Si5 0.995501 0.897503 0.774842
Si Si6 0.824649 0.241939 0.236349
Si Si7 0.461066 0.663675 0.170173
O O1 0.227652 0.804889 0.484097
O O2 0.500000 0.000000 0.500000
O O3 0.307879 0.017058 0.238047
O O4 0.320816 0.828564 0.001972
O O5 0.214726 0.422413 0.479494
O O6 0.276777 0.601708 0.253601
O O7 0.952733 0.391890 0.235512
O O8 0.206769 0.406736 0.964698
O O9 0.812360 0.830987 0.635248
O O10 0.579215 0.806033 0.314313
O O11 0.869981 0.015507 0.407840
O O12 0.455055 0.411406 0.734187
O O13 0.434185 0.613840 0.853904
O O14 0.052103 0.806575 0.850893
O O15 0.000000 0.000000 0.000000
#
# Coordination Sequence:
#
# PCOD9082247 Si02
#       7
#     2   2   2   2   2   2   2
#     4  11  24  43  61  83 110 154 200 240 284 333
#     4  10  19  33  53  80 110 149 187 221 280 333
#     4  10  21  37  53  88 117 156 187 236 287 342
#     4   9  19  31  47  82 114 159 178 214 272 351
#     4  10  20  31  54  84 123 146 181 230 292 341
#     4  11  22  38  63  85 115 148 192 239 287 346
#     4   9  20  30  52  77 119 149 190 218 282 341
#
# _framework density 27.038468000000002
#
# number of rings (size 3 to 8) (size 9 to 14) (size 15 to 20)
#    0.857    1.143    1.429    2.571    2.000    1.143 
#    0.000    0.000    0.000    1.714    0.000    0.000 
#    0.000    0.000    0.000    0.000    0.000    0.000 
#
# Total GULP energy -78118.538813 kJ/mol
# GULP energy per Si atom -5579.895630 kJ/mol
# Density = 2.697693 g / cm^3
# Si number density = 27.038468 Si / 1000 Ang^3
#
#
#
# Elastic Constant Matrix: (Units=GPa)
#
#
# Indices 1 2 3 4 5 6 
#
# 1 61.3705 33.6058 14.6949 7.3043 5.5644 -4.8363
# 2 33.6058 106.7127 24.6846 24.0737 -5.0465 24.3166
# 3 14.6949 24.6846 131.8778 8.3696 13.6655 0.7350
# 4 7.3043 24.0737 8.3696 40.9487 6.2449 -0.3481
# 5 5.5644 -5.0465 13.6655 6.2449 37.1931 11.6877
# 6 -4.8363 24.3166 0.7350 -0.3481 11.6877 43.5838
#
#
#
# Elastic Compliance Matrix: (Units=1/GPa)
#
#
# Indices 1 2 3 4 5 6 
#
# 1 0.023933 -0.011636 0.000181 0.004100 -0.009608 0.011754
# 2 -0.011636 0.020648 -0.003064 -0.011514 0.012711 -0.016260
# 3 0.000181 -0.003064 0.008549 0.000747 -0.004597 0.002824
# 4 0.004100 -0.011514 0.000747 0.032069 -0.011000 0.010072
# 5 -0.009608 0.012711 -0.004597 -0.011000 0.039478 -0.018755
# 6 0.011754 -0.016260 0.002824 0.010072 -0.018755 0.038383
#
#
# Mechanical properties :
#
#
# Convention : Reuss Voigt Hill
#
# Bulk Modulus (GPa) = 41.50881 49.54793 45.52837
# Shear Modulus (GPa) = 24.98389 39.47684 32.23037
#
# Velocity S-wave (km/s) = 3.04306 3.82517 3.45631
# Velocity P-wave (km/s) = 5.26612 6.15419 5.72739
#
# Compressibility (1/GPa) = 0.02409127
#
# Stress axis : x y z
#
# Youngs Moduli (GPa) = 41.78412 48.43076 116.96840
#
# Poissons Ratio (x) = 0.56356 -0.02120
# Poissons Ratio (y) = 0.48622 0.35840
# Poissons Ratio (z) = -0.00757 0.14839
#
# Static dielectric constant tensor:
#      x y z
#    x 2.439310 0.103590 -0.047120 
#    y 0.103590 2.300920 0.006860 
#    z -0.047120 0.006860 2.135070 
# 
# From -- ./inp_files/79921.got.cif
#   From: 2010.05.17/outbox.cif.g08.bks.cpg/sg2_40_cif.got.tgz:79921.got - 2010.06.03 11:33:40.
