data_PCOD9082543
_publ_section_title
;
Structure prediction by ZEFSAII (Michael W. Deem and Ramdas Pophale) SiO2 
 PCOD9082543
Probable space group: P -1
;
_chemical_formula_sum "Si O2"
_cell_formula_units_Z 16
_cell_length_a 12.377013
_cell_length_b 12.448901
_cell_length_c 11.511727
_cell_angle_alpha 36.381487
_cell_angle_beta 48.475614
_cell_angle_gamma 43.874600
_cell_volume 714.329090
_symmetry_space_group_name_H-M "P -1"
_symmetry_group_IT_number 2
_symmetry_cell_setting 'triclinic'
loop_
_space_group_symop_operation_xyz
x,y,z
-x,-y,-z
loop_
_atom_site_type_symbol
_atom_site_label
_atom_site_fract_x
_atom_site_fract_y
_atom_site_fract_z
Si Si1 0.619205 0.461574 0.055616
Si Si2 0.129106 0.088681 0.300908
Si Si3 0.133448 0.917538 0.876129
Si Si4 0.854355 0.164031 0.704420
Si Si5 0.626560 0.266192 0.454120
Si Si6 0.615543 0.132428 0.080973
Si Si7 0.152219 0.558281 0.735090
Si Si8 0.603597 0.833884 0.163969
O O1 0.795571 0.315298 0.012199
O O2 0.584454 0.335525 0.292459
O O3 0.561229 0.689369 0.941999
O O4 0.500000 0.500000 0.000000
O O5 0.027784 0.319648 0.199128
O O6 0.178427 0.987724 0.226915
O O7 0.270908 0.970637 0.391350
O O8 0.000000 0.000000 0.500000
O O9 0.288783 0.931057 0.810044
O O10 0.033069 0.049805 0.725745
O O11 0.000000 0.000000 0.000000
O O12 0.723166 0.214972 0.854761
O O13 0.842480 0.350023 0.475365
O O14 0.734854 0.378097 0.319027
O O15 0.484478 0.303547 0.611768
O O16 0.621328 0.944039 0.170585
O O17 0.233270 0.322026 0.872082
O O18 0.500000 0.000000 0.000000
#
# Coordination Sequence:
#
# PCOD9082543 Si02
#       8
#     2   2   2   2   2   2   2   2
#     4  10  19  35  58  80 104 139 181 218 260 321
#     4   8  16  30  53  80 100 129 179 228 261 307
#     4   9  18  34  59  81 102 134 177 225 267 316
#     4   9  16  34  57  77 101 136 181 225 265 315
#     4  10  19  35  56  80 107 144 182 217 263 320
#     4  10  21  34  50  80 111 139 177 221 265 314
#     4  10  19  33  56  79 102 140 183 221 265 320
#     4  12  23  35  51  79 117 147 174 221 269 313
#
# _framework density 22.398641000000001
#
# number of rings (size 3 to 8) (size 9 to 14) (size 15 to 20)
#    0.000    2.500    0.000    5.625    0.000    0.000 
#    0.000    8.125    0.000    0.000    0.000    0.000 
#    0.000    0.000    0.000    0.000    0.000    0.000 
#
# Total GULP energy -89171.887130 kJ/mol
# GULP energy per Si atom -5573.242946 kJ/mol
# Density = 2.234766 g / cm^3
# Si number density = 22.398641 Si / 1000 Ang^3
#
#
#
# Elastic Constant Matrix: (Units=GPa)
#
#
# Indices 1 2 3 4 5 6 
#
# 1 88.1749 27.7434 37.9434 -15.5623 36.6408 -3.0434
# 2 27.7434 167.3692 30.2605 -35.7835 12.2084 -19.8317
# 3 37.9434 30.2605 64.8425 -8.3144 29.7993 -1.2936
# 4 -15.5623 -35.7835 -8.3144 45.3811 -5.1002 3.7479
# 5 36.6408 12.2084 29.7993 -5.1002 41.2168 -3.1175
# 6 -3.0434 -19.8317 -1.2936 3.7479 -3.1175 33.3257
#
#
#
# Elastic Compliance Matrix: (Units=1/GPa)
#
#
# Indices 1 2 3 4 5 6 
#
# 1 0.019901 -0.000699 -0.004485 0.003944 -0.013792 -0.000506
# 2 -0.000699 0.008266 -0.003415 0.005485 0.001643 0.004259
# 3 -0.004485 -0.003415 0.025942 -0.000839 -0.014062 -0.002656
# 4 0.003944 0.005485 -0.000839 0.027402 -0.001102 0.000407
# 5 -0.013792 0.001643 -0.014062 -0.001102 0.046341 0.003631
# 6 -0.000506 0.004259 -0.002656 0.000407 0.003631 0.032686
#
#
# Mechanical properties :
#
#
# Convention : Reuss Voigt Hill
#
# Bulk Modulus (GPa) = 27.09293 56.92014 42.00653
# Shear Modulus (GPa) = 26.31039 38.94734 32.62887
#
# Velocity S-wave (km/s) = 3.43102 4.17445 3.82086
# Velocity P-wave (km/s) = 5.27427 6.97869 6.18547
#
# Compressibility (1/GPa) = 0.03691000
#
# Stress axis : x y z
#
# Youngs Moduli (GPa) = 50.24938 120.98218 38.54740
#
# Poissons Ratio (x) = 0.08453 0.17290
# Poissons Ratio (y) = 0.03511 0.13165
# Poissons Ratio (z) = 0.22538 0.41319
#
# Static dielectric constant tensor:
#      x y z
#    x 1.846530 -0.027120 -0.008190 
#    y -0.027120 1.955670 0.012680 
#    z -0.008190 0.012680 1.866940 
# 
# From -- ./inp_files/427358.got.cif
#   From: 2010.05.17/outbox.cif.g08.bks.cpg/sg2_214_cif.got.tgz:427358.got - 2010.06.03 11:33:40.
