data_PCOD9082789
_publ_section_title
;
Structure prediction by ZEFSAII (Michael W. Deem and Ramdas Pophale) SiO2 
 PCOD9082789
Probable space group: P -1
;
_chemical_formula_sum "Si O2"
_cell_formula_units_Z 16
_cell_length_a 9.909509
_cell_length_b 12.560465
_cell_length_c 10.182837
_cell_angle_alpha 72.858508
_cell_angle_beta 58.581672
_cell_angle_gamma 38.534924
_cell_volume 658.430131
_symmetry_space_group_name_H-M "P -1"
_symmetry_group_IT_number 2
_symmetry_cell_setting 'triclinic'
loop_
_space_group_symop_operation_xyz
x,y,z
-x,-y,-z
loop_
_atom_site_type_symbol
_atom_site_label
_atom_site_fract_x
_atom_site_fract_y
_atom_site_fract_z
Si Si1 0.996684 0.557149 0.337931
Si Si2 0.899391 0.679410 0.988444
Si Si3 0.748193 0.475821 0.461674
Si Si4 0.146239 0.959501 0.253778
Si Si5 0.354308 0.094780 0.712206
Si Si6 0.563429 0.795196 0.891483
Si Si7 0.857685 0.916581 0.514474
Si Si8 0.288082 0.634661 0.743964
O O1 0.255912 0.395303 0.193206
O O2 0.000000 0.500000 0.500000
O O3 0.799584 0.576153 0.370876
O O4 0.885291 0.740277 0.311666
O O5 0.710019 0.809981 0.151556
O O6 0.746080 0.775696 0.894491
O O7 0.000000 0.500000 0.000000
O O8 0.133346 0.634205 0.912800
O O9 0.548722 0.557368 0.647385
O O10 0.667181 0.469941 0.365616
O O11 0.993185 0.273924 0.448176
O O12 0.042765 0.891004 0.344378
O O13 0.204308 0.973879 0.365219
O O14 0.364567 0.857333 0.074883
O O15 0.913169 0.161277 0.256381
O O16 0.430175 0.932422 0.788848
O O17 0.595816 0.020317 0.552602
#
# Coordination Sequence:
#
# PCOD9082789 Si02
#       8
#     2   2   2   2   2   2   2   2
#     4  12  27  45  65  91 125 175 229 270 311 378
#     4  12  21  33  62 100 133 164 201 260 336 391
#     4  10  20  37  58  89 130 162 209 260 315 383
#     4  10  20  32  57  95 137 166 195 251 329 401
#     4  12  22  39  66  91 127 168 209 268 329 382
#     4  12  22  40  62  96 134 163 217 266 320 389
#     4  10  20  33  59  95 132 169 198 250 330 394
#     4  10  19  33  57  92 130 161 195 259 328 388
#
# _framework density 24.300225000000001
#
# number of rings (size 3 to 8) (size 9 to 14) (size 15 to 20)
#    0.000    1.000    6.250    1.875    1.750    2.500 
#    0.000    0.000    0.000    6.000    0.000    0.000 
#    0.000    0.000    0.000    0.000    0.000    0.000 
#
# Total GULP energy -89359.777855 kJ/mol
# GULP energy per Si atom -5584.986116 kJ/mol
# Density = 2.424492 g / cm^3
# Si number density = 24.300225 Si / 1000 Ang^3
#
#
#
# Elastic Constant Matrix: (Units=GPa)
#
#
# Indices 1 2 3 4 5 6 
#
# 1 26.0181 16.7211 25.3058 5.2730 -5.4645 2.7335
# 2 16.7211 87.9279 54.8921 0.2534 -14.9523 8.3712
# 3 25.3058 54.8921 157.8502 17.1004 -26.6797 -8.1292
# 4 5.2730 0.2534 17.1004 49.6386 -4.3956 -2.0994
# 5 -5.4645 -14.9523 -26.6797 -4.3956 40.5952 -3.7254
# 6 2.7335 8.3712 -8.1292 -2.0994 -3.7254 25.1527
#
#
#
# Elastic Compliance Matrix: (Units=1/GPa)
#
#
# Indices 1 2 3 4 5 6 
#
# 1 0.048780 -0.004937 -0.006072 -0.003328 -0.000147 -0.005920
# 2 -0.004937 0.016410 -0.005186 0.002110 0.001632 -0.006183
# 3 -0.006072 -0.005186 0.010431 -0.002264 0.004454 0.006228
# 4 -0.003328 0.002110 -0.002264 0.021416 0.001243 0.000899
# 5 -0.000147 0.001632 0.004454 0.001243 0.028761 0.005276
# 6 -0.005920 -0.006183 0.006228 0.000899 0.005276 0.045328
#
#
# Mechanical properties :
#
#
# Convention : Reuss Voigt Hill
#
# Bulk Modulus (GPa) = 23.13269 51.73713 37.43491
# Shear Modulus (GPa) = 22.94360 34.73578 28.83969
#
# Velocity S-wave (km/s) = 3.07607 3.78490 3.44874
# Velocity P-wave (km/s) = 4.70707 6.35906 5.59438
#
# Compressibility (1/GPa) = 0.04322887
#
# Stress axis : x y z
#
# Youngs Moduli (GPa) = 20.50038 60.94015 95.86913
#
# Poissons Ratio (x) = 0.30087 0.58215
# Poissons Ratio (y) = 0.10121 0.49718
# Poissons Ratio (z) = 0.12449 0.31604
#
# Static dielectric constant tensor:
#      x y z
#    x 2.113280 -0.078050 0.001560 
#    y -0.078050 1.951630 -0.036540 
#    z 0.001560 -0.036540 2.029430 
# 
# From -- ./inp_files/333659.got.cif
#   From: 2010.05.17/outbox.cif.g08.bks.cpg/sg2_167_cif.got.tgz:333659.got - 2010.06.03 11:33:40.
