data_PCOD9082210
_publ_section_title
;
Structure prediction by ZEFSAII (Michael W. Deem and Ramdas Pophale) SiO2 
 PCOD9082210
Probable space group: P -1
;
_chemical_formula_sum "Si O2"
_cell_formula_units_Z 16
_cell_length_a 5.915906
_cell_length_b 16.031043
_cell_length_c 23.729087
_cell_angle_alpha 25.379397
_cell_angle_beta 89.947528
_cell_angle_gamma 78.075252
_cell_volume 846.090718
_symmetry_space_group_name_H-M "P -1"
_symmetry_group_IT_number 2
_symmetry_cell_setting 'triclinic'
loop_
_space_group_symop_operation_xyz
x,y,z
-x,-y,-z
loop_
_atom_site_type_symbol
_atom_site_label
_atom_site_fract_x
_atom_site_fract_y
_atom_site_fract_z
Si Si1 0.629523 0.643352 0.220521
Si Si2 0.907258 0.823429 0.491420
Si Si3 0.470442 0.531735 0.065168
Si Si4 0.699537 0.384251 0.865753
Si Si5 0.171141 0.031307 0.029039
Si Si6 0.653986 0.871892 0.699313
Si Si7 0.207971 0.195924 0.376834
Si Si8 0.094200 0.776669 0.821426
O O1 0.468233 0.592312 0.204032
O O2 0.428130 0.794409 0.176575
O O3 0.874713 0.419385 0.377143
O O4 0.735253 0.796193 0.097850
O O5 0.944064 0.835286 0.552053
O O6 0.603585 0.891584 0.445661
O O7 0.922631 0.005793 0.340939
O O8 0.466263 0.595451 0.090990
O O9 0.428116 0.315752 0.196936
O O10 0.726939 0.441707 0.082949
O O11 0.234142 0.722274 0.914347
O O12 0.783793 0.575662 0.752153
O O13 0.965721 0.152117 0.004756
O O14 0.000000 0.000000 0.000000
O O15 0.848502 0.830920 0.671800
O O16 0.804615 0.821983 0.787997
O O17 0.500000 0.000000 0.500000
#
# Coordination Sequence:
#
# PCOD9082210 Si02
#       8
#     2   2   2   2   2   2   2   2
#     4  10  20  32  54  80 102 131 164 209 274 306
#     4  10  20  30  46  76 102 130 169 201 258 314
#     4   9  20  35  48  74  98 137 188 207 235 297
#     4  10  19  33  53  74 105 136 169 213 252 299
#     4   9  19  35  52  77 104 128 164 214 261 314
#     4   9  19  32  47  69 103 141 170 214 247 286
#     4   9  18  30  42  73 111 132 167 199 244 305
#     4  10  20  33  50  69 104 142 176 211 242 288
#
# _framework density 18.910502000000001
#
# number of rings (size 3 to 8) (size 9 to 14) (size 15 to 20)
#    0.000    2.500    1.250    1.125    5.250    0.500 
#    0.000    0.000    0.000    0.750    0.000    8.750 
#    0.000    0.000    0.000    0.000    0.000    0.000 
#
# Total GULP energy -89079.665967 kJ/mol
# GULP energy per Si atom -5567.479123 kJ/mol
# Density = 1.886746 g / cm^3
# Si number density = 18.910502 Si / 1000 Ang^3
#
#
#
# Elastic Constant Matrix: (Units=GPa)
#
#
# Indices 1 2 3 4 5 6 
#
# 1 41.9895 5.9642 20.2208 -11.3537 11.4011 2.7050
# 2 5.9642 42.4874 36.4708 -11.4272 6.4841 -4.0268
# 3 20.2208 36.4708 105.8543 -12.5208 22.4978 -4.5890
# 4 -11.3537 -11.4272 -12.5208 27.6433 -7.3494 7.6587
# 5 11.4011 6.4841 22.4978 -7.3494 33.8212 -0.3961
# 6 2.7050 -4.0268 -4.5890 7.6587 -0.3961 25.5961
#
#
#
# Elastic Compliance Matrix: (Units=1/GPa)
#
#
# Indices 1 2 3 4 5 6 
#
# 1 0.030942 0.003189 -0.004731 0.012552 -0.005254 -0.007453
# 2 0.003189 0.036360 -0.012352 0.011522 0.002672 -0.000237
# 3 -0.004731 -0.012352 0.015934 -0.002271 -0.007107 0.001983
# 4 0.012552 0.011522 -0.002271 0.050807 0.005935 -0.015031
# 5 -0.005254 0.002672 -0.007107 0.005935 0.036826 -0.001504
# 6 -0.007453 -0.000237 0.001983 -0.015031 -0.001504 0.044649
#
#
# Mechanical properties :
#
#
# Convention : Reuss Voigt Hill
#
# Bulk Modulus (GPa) = 18.03494 35.07144 26.55319
# Shear Modulus (GPa) = 19.09943 25.92380 22.51162
#
# Velocity S-wave (km/s) = 3.18148 3.70654 3.45400
# Velocity P-wave (km/s) = 4.80140 6.07488 5.47529
#
# Compressibility (1/GPa) = 0.05544793
#
# Stress axis : x y z
#
# Youngs Moduli (GPa) = 32.31895 27.50276 62.75822
#
# Poissons Ratio (x) = -0.08770 0.29691
# Poissons Ratio (y) = -0.10306 0.77518
# Poissons Ratio (z) = 0.15290 0.33971
#
# Static dielectric constant tensor:
#      x y z
#    x 1.747020 -0.031760 0.000830 
#    y -0.031760 1.693550 0.020310 
#    z 0.000830 0.020310 1.685290 
# 
# From -- ./inp_files/83437.got.cif
#   From: 2010.05.17/outbox.cif.g08.bks.cpg/sg2_42_cif.got.tgz:83437.got - 2010.06.03 11:33:40.
