data_PCOD9082581
_publ_section_title
;
Structure prediction by ZEFSAII (Michael W. Deem and Ramdas Pophale) SiO2 
 PCOD9082581
Probable space group: P -1
;
_chemical_formula_sum "Si O2"
_cell_formula_units_Z 16
_cell_length_a 8.017992
_cell_length_b 19.944245
_cell_length_c 13.994966
_cell_angle_alpha 161.597539
_cell_angle_beta 72.386004
_cell_angle_gamma 106.499350
_cell_volume 673.346046
_symmetry_space_group_name_H-M "P -1"
_symmetry_group_IT_number 2
_symmetry_cell_setting 'triclinic'
loop_
_space_group_symop_operation_xyz
x,y,z
-x,-y,-z
loop_
_atom_site_type_symbol
_atom_site_label
_atom_site_fract_x
_atom_site_fract_y
_atom_site_fract_z
Si Si1 0.212265 0.539487 0.299779
Si Si2 0.593695 0.025739 0.173565
Si Si3 0.997770 0.715819 0.734248
Si Si4 0.772137 0.126826 0.620616
Si Si5 0.248154 0.100611 0.213301
Si Si6 0.823532 0.580278 0.193598
Si Si7 0.181865 0.185269 0.662442
Si Si8 0.671350 0.815961 0.052288
O O1 0.310000 0.746320 0.520585
O O2 0.038421 0.633709 0.508920
O O3 0.171409 0.367120 0.991948
O O4 0.315783 0.402716 0.182210
O O5 0.428296 0.091477 0.226977
O O6 0.536913 0.887270 0.088481
O O7 0.710243 0.885905 0.888018
O O8 0.000000 0.500000 0.500000
O O9 0.836984 0.829234 0.968935
O O10 0.155001 0.877054 0.940631
O O11 0.985945 0.114497 0.568679
O O12 0.722020 0.010552 0.569094
O O13 0.695951 0.999765 0.374071
O O14 0.720548 0.371182 0.956544
O O15 0.140595 0.281458 0.532770
O O16 0.729653 0.717923 0.314654
O O17 0.000000 0.500000 0.000000
#
# Coordination Sequence:
#
# PCOD9082581 Si02
#       8
#     2   2   2   2   2   2   2   2
#     4   9  19  34  55  85 117 151 193 237 287 340
#     4  10  22  41  59  80 119 158 188 236 285 344
#     4   9  18  34  57  86 114 142 188 248 287 326
#     4   9  18  31  51  82 112 144 182 227 284 338
#     4  10  22  40  59  84 117 153 194 232 288 350
#     4  10  19  33  56  83 110 144 187 234 279 330
#     4   9  17  31  52  79 114 145 179 231 283 332
#     4  10  19  35  60  86 114 149 196 241 287 337
#
# _framework density 23.761928999999999
#
# number of rings (size 3 to 8) (size 9 to 14) (size 15 to 20)
#    0.000    2.500    0.000    2.250    0.000    6.000 
#    0.000   17.500    0.000    3.000    0.000    0.000 
#    0.000    0.000    0.000    0.000    0.000    0.000 
#
# Total GULP energy -89187.816365 kJ/mol
# GULP energy per Si atom -5574.238523 kJ/mol
# Density = 2.370785 g / cm^3
# Si number density = 23.761929 Si / 1000 Ang^3
#
#
#
# Elastic Constant Matrix: (Units=GPa)
#
#
# Indices 1 2 3 4 5 6 
#
# 1 17.9995 19.8060 -0.4775 -12.3149 -8.9452 -2.5420
# 2 19.8060 151.4759 63.9951 6.1818 -7.4293 -23.3920
# 3 -0.4775 63.9951 126.3593 -0.3793 0.9031 -2.1636
# 4 -12.3149 6.1818 -0.3793 24.1853 -18.0309 -14.9035
# 5 -8.9452 -7.4293 0.9031 -18.0309 2.2944 -7.4653
# 6 -2.5420 -23.3920 -2.1636 -14.9035 -7.4653 32.7398
#
#
#
# Elastic Compliance Matrix: (Units=1/GPa)
#
#
# Indices 1 2 3 4 5 6 
#
# 1 0.041297 -0.011923 0.006089 -0.012068 -0.033665 -0.018080
# 2 -0.011923 0.012131 -0.006096 -0.001938 0.003782 0.007319
# 3 0.006089 -0.006096 0.010990 0.001069 -0.002389 -0.003215
# 4 -0.012068 -0.001938 0.001069 0.005594 -0.034200 -0.007503
# 5 -0.033665 0.003782 -0.002389 -0.034200 -0.007243 -0.017289
# 6 -0.018080 0.007319 -0.003215 -0.007503 -0.017289 0.026799
#
#
# Mechanical properties :
#
#
# Convention : Reuss Voigt Hill
#
# Bulk Modulus (GPa) = 24.65612 51.38688 38.02150
# Shear Modulus (GPa) = 39.38638 26.01133 32.69885
#
# Velocity S-wave (km/s) = 4.07571 3.31216 3.71361
# Velocity P-wave (km/s) = 5.70503 6.02494 5.86716
#
# Compressibility (1/GPa) = 0.04055789
#
# Stress axis : x y z
#
# Youngs Moduli (GPa) = 24.21468 82.43270 90.99402
#
# Poissons Ratio (x) = 0.98285 -0.55409
# Poissons Ratio (y) = 0.28871 0.55474
# Poissons Ratio (z) = -0.14745 0.50254
#
# Static dielectric constant tensor:
#      x y z
#    x 1.964950 -0.045600 -0.089900 
#    y -0.045600 1.928920 0.032520 
#    z -0.089900 0.032520 1.889020 
# 
# From -- ./inp_files/507749.got.cif
#   From: 2010.05.17/outbox.cif.g08.bks.cpg/sg2_254_cif.got.tgz:507749.got - 2010.06.03 11:33:40.
