data_PCOD9082730
_publ_section_title
;
Structure prediction by ZEFSAII (Michael W. Deem and Ramdas Pophale) SiO2 
 PCOD9082730
Probable space group: P -1
;
_chemical_formula_sum "Si O2"
_cell_formula_units_Z 16
_cell_length_a 9.381627
_cell_length_b 10.222227
_cell_length_c 12.193350
_cell_angle_alpha 71.113639
_cell_angle_beta 116.785069
_cell_angle_gamma 70.083811
_cell_volume 807.383621
_symmetry_space_group_name_H-M "P -1"
_symmetry_group_IT_number 2
_symmetry_cell_setting 'triclinic'
loop_
_space_group_symop_operation_xyz
x,y,z
-x,-y,-z
loop_
_atom_site_type_symbol
_atom_site_label
_atom_site_fract_x
_atom_site_fract_y
_atom_site_fract_z
Si Si1 0.897933 0.743118 0.437058
Si Si2 0.783317 0.939797 0.641013
Si Si3 0.170138 0.913243 0.734488
Si Si4 0.117152 0.423635 0.738731
Si Si5 0.554670 0.133077 0.963023
Si Si6 0.481684 0.798045 0.711998
Si Si7 0.124763 0.426102 0.174589
Si Si8 0.555636 0.053867 0.747407
O O1 0.906678 0.902878 0.390792
O O2 0.929547 0.666001 0.347445
O O3 0.678062 0.806389 0.376935
O O4 0.042704 0.603090 0.611070
O O5 0.824111 0.756872 0.721359
O O6 0.636452 0.058122 0.461191
O O7 0.678240 0.040131 0.689354
O O8 0.989979 0.905935 0.697845
O O9 0.331446 0.786036 0.736071
O O10 0.284110 0.893784 0.890669
O O11 0.349726 0.312347 0.862324
O O12 0.000018 0.450983 0.801824
O O13 0.620759 0.096084 0.869502
O O14 0.500000 0.000000 0.000000
O O15 0.659306 0.626030 0.766601
O O16 0.567694 0.878767 0.798198
O O17 0.000000 0.500000 0.000000
#
# Coordination Sequence:
#
# PCOD9082730 Si02
#       8
#     2   2   2   2   2   2   2   2
#     4   9  18  34  60  83 104 143 187 242 268 327
#     4  11  23  36  57  86 117 151 185 234 275 337
#     4  11  21  37  59  85 113 149 192 228 285 329
#     4  10  19  33  57  86 107 136 197 231 273 321
#     4  11  19  36  60  83 108 151 186 238 270 339
#     4  10  19  37  58  80 112 152 192 223 270 337
#     4  11  22  35  57  84 113 150 187 230 274 335
#     4   9  18  34  59  80 110 140 199 223 274 321
#
# _framework density 19.817097
#
# number of rings (size 3 to 8) (size 9 to 14) (size 15 to 20)
#    0.000    1.750    3.750    4.875    1.750    0.500 
#    0.000    3.750    0.000   12.000    0.000    0.000 
#    0.000    0.000    0.000    0.000    0.000    0.000 
#
# Total GULP energy -89306.797570 kJ/mol
# GULP energy per Si atom -5581.674848 kJ/mol
# Density = 1.977199 g / cm^3
# Si number density = 19.817097 Si / 1000 Ang^3
#
#
#
# Elastic Constant Matrix: (Units=GPa)
#
#
# Indices 1 2 3 4 5 6 
#
# 1 109.8604 38.5846 16.3844 11.9082 4.7106 -37.6775
# 2 38.5846 85.7121 23.6873 15.4183 -3.1700 -50.4603
# 3 16.3844 23.6873 81.3377 8.0099 1.0566 -18.0658
# 4 11.9082 15.4183 8.0099 27.1739 -8.2082 -12.0796
# 5 4.7106 -3.1700 1.0566 -8.2082 19.5071 5.9065
# 6 -37.6775 -50.4603 -18.0658 -12.0796 5.9065 40.1881
#
#
#
# Elastic Compliance Matrix: (Units=1/GPa)
#
#
# Indices 1 2 3 4 5 6 
#
# 1 0.016171 0.008674 0.000771 -0.003963 -0.012388 0.027028
# 2 0.008674 0.051715 0.000514 -0.005932 -0.018700 0.074261
# 3 0.000771 0.000514 0.013969 -0.002719 -0.004261 0.007456
# 4 -0.003963 -0.005932 -0.002719 0.048634 0.020856 -0.000833
# 5 -0.012388 -0.018700 -0.004261 0.020856 0.072769 -0.041436
# 6 0.027028 0.074261 0.007456 -0.000833 -0.041436 0.152655
#
#
# Mechanical properties :
#
#
# Convention : Reuss Voigt Hill
#
# Bulk Modulus (GPa) = 9.82600 48.24698 29.03649
# Shear Modulus (GPa) = 13.51642 30.59075 22.05359
#
# Velocity S-wave (km/s) = 2.61446 3.93320 3.33957
# Velocity P-wave (km/s) = 3.75273 6.71012 5.43639
#
# Compressibility (1/GPa) = 0.10177078
#
# Stress axis : x y z
#
# Youngs Moduli (GPa) = 61.83782 19.33687 71.58842
#
# Poissons Ratio (x) = -0.16772 -0.05518
# Poissons Ratio (y) = -0.53636 -0.03676
# Poissons Ratio (z) = -0.04767 -0.00993
#
# Static dielectric constant tensor:
#      x y z
#    x 1.689970 -0.038470 -0.015220 
#    y -0.038470 1.756830 0.002690 
#    z -0.015220 0.002690 1.735140 
# 
# From -- ./inp_files/278178.got.cif
#   From: 2010.05.17/outbox.cif.g08.bks.cpg/sg2_140_cif.got.tgz:278178.got - 2010.06.03 11:33:40.
