data_PCOD9082157
_publ_section_title
;
Structure prediction by ZEFSAII (Michael W. Deem and Ramdas Pophale) SiO2 
 PCOD9082157
Probable space group: P -1
;
_chemical_formula_sum "Si O2"
_cell_formula_units_Z 12
_cell_length_a 7.377284
_cell_length_b 6.826921
_cell_length_c 14.476805
_cell_angle_alpha 53.039497
_cell_angle_beta 119.550588
_cell_angle_gamma 107.369299
_cell_volume 506.810945
_symmetry_space_group_name_H-M "P -1"
_symmetry_group_IT_number 2
_symmetry_cell_setting 'triclinic'
loop_
_space_group_symop_operation_xyz
x,y,z
-x,-y,-z
loop_
_atom_site_type_symbol
_atom_site_label
_atom_site_fract_x
_atom_site_fract_y
_atom_site_fract_z
Si Si1 0.337043 0.042394 0.821499
Si Si2 0.366902 0.847055 0.290469
Si Si3 0.929695 0.877944 0.111236
Si Si4 0.042588 0.705352 0.718351
Si Si5 0.593957 0.737697 0.551352
Si Si6 0.817460 0.412994 0.410341
O O1 0.551495 0.040205 0.817688
O O2 0.277703 0.328298 0.718270
O O3 0.271840 0.002927 0.923515
O O4 0.190898 0.865797 0.773966
O O5 0.126244 0.918307 0.219298
O O6 0.538732 0.886533 0.402155
O O7 0.361659 0.550803 0.374888
O O8 0.919579 0.585345 0.171643
O O9 0.000000 0.000000 0.000000
O O10 0.090313 0.724478 0.615524
O O11 0.804322 0.793291 0.643969
O O12 0.374214 0.729686 0.551317
O O13 0.000000 0.500000 0.500000
#
# Coordination Sequence:
#
# PCOD9082157 Si02
#       6
#     2   2   2   2   2   2
#     4  10  21  36  55  81 109 140 181 224 267 316
#     4   9  18  34  55  80 109 142 177 215 265 319
#     4  10  22  40  58  76 104 142 183 228 273 316
#     4  10  21  36  55  82 111 141 178 220 268 319
#     4   9  17  32  55  80 111 145 173 209 262 324
#     4  10  19  33  52  78 114 148 176 211 258 316
#
# _framework density 23.677467
#
# number of rings (size 3 to 8) (size 9 to 14) (size 15 to 20)
#    0.000    2.333    0.000    5.000    0.000    5.333 
#    0.000    3.333    0.000    0.000    0.000    0.000 
#    0.000    0.000    0.000    0.000    0.000    0.000 
#
# Total GULP energy -66945.860425 kJ/mol
# GULP energy per Si atom -5578.821702 kJ/mol
# Density = 2.362358 g / cm^3
# Si number density = 23.677467 Si / 1000 Ang^3
#
#
#
# Elastic Constant Matrix: (Units=GPa)
#
#
# Indices 1 2 3 4 5 6 
#
# 1 150.3832 28.9032 34.4835 3.2897 -10.8167 2.1848
# 2 28.9032 98.3951 24.1024 2.8840 0.0714 -5.7987
# 3 34.4835 24.1024 58.9434 13.0328 -28.0761 -2.0538
# 4 3.2897 2.8840 13.0328 18.0715 -5.7441 -0.5314
# 5 -10.8167 0.0714 -28.0761 -5.7441 41.4248 10.5323
# 6 2.1848 -5.7987 -2.0538 -0.5314 10.5323 23.3398
#
#
#
# Elastic Compliance Matrix: (Units=1/GPa)
#
#
# Indices 1 2 3 4 5 6 
#
# 1 0.007951 -0.001238 -0.004996 0.002087 -0.000736 -0.001112
# 2 -0.001238 0.012797 -0.008087 0.001951 -0.007031 0.005801
# 3 -0.004996 -0.008087 0.038737 -0.018095 0.024947 -0.009803
# 4 0.002087 0.001951 -0.018095 0.066837 -0.002836 0.001499
# 5 -0.000736 -0.007031 0.024947 -0.002836 0.045591 -0.020120
# 6 -0.001112 0.005801 -0.009803 0.001499 -0.020120 0.052642
#
#
# Mechanical properties :
#
#
# Convention : Reuss Voigt Hill
#
# Bulk Modulus (GPa) = 32.42068 53.63333 43.02700
# Shear Modulus (GPa) = 18.97693 31.24937 25.11315
#
# Velocity S-wave (km/s) = 2.83411 3.63684 3.26027
# Velocity P-wave (km/s) = 4.94286 6.35108 5.69070
#
# Compressibility (1/GPa) = 0.03084451
#
# Stress axis : x y z
#
# Youngs Moduli (GPa) = 125.77450 78.14067 25.81491
#
# Poissons Ratio (x) = 0.09673 0.12896
# Poissons Ratio (y) = 0.15570 0.20876
# Poissons Ratio (z) = 0.62833 0.63191
#
# Static dielectric constant tensor:
#      x y z
#    x 1.990290 0.008210 -0.063970 
#    y 0.008210 1.935620 0.015910 
#    z -0.063970 0.015910 1.954620 
# 
# From -- ./inp_files/486363.got.cif
#   From: 2010.05.17/outbox.cif.g08.bks.cpg/sg2_244_cif.got.tgz:486363.got - 2010.06.03 11:33:40.
