data_PCOD9082001
_publ_section_title
;
Structure prediction by ZEFSAII (Michael W. Deem and Ramdas Pophale) SiO2 
 PCOD9082001
Probable space group: P -1
;
_chemical_formula_sum "Si O2"
_cell_formula_units_Z 10
_cell_length_a 7.605959
_cell_length_b 11.937841
_cell_length_c 7.913811
_cell_angle_alpha 104.937844
_cell_angle_beta 141.622585
_cell_angle_gamma 58.966775
_cell_volume 367.504313
_symmetry_space_group_name_H-M "P -1"
_symmetry_group_IT_number 2
_symmetry_cell_setting 'triclinic'
loop_
_space_group_symop_operation_xyz
x,y,z
-x,-y,-z
loop_
_atom_site_type_symbol
_atom_site_label
_atom_site_fract_x
_atom_site_fract_y
_atom_site_fract_z
Si Si1 0.253000 0.120189 0.985572
Si Si2 0.666041 0.521619 0.351366
Si Si3 0.696579 0.276205 0.124427
Si Si4 0.436673 0.127301 0.674121
Si Si5 0.500340 0.267860 0.439650
O O1 0.887330 0.197631 0.670063
O O2 0.343056 0.229442 0.155381
O O3 0.500000 0.000000 0.000000
O O4 0.295051 0.028459 0.147205
O O5 0.633643 0.390665 0.258376
O O6 0.659211 0.579260 0.553169
O O7 0.000000 0.500000 0.500000
O O8 0.351179 0.638482 0.052225
O O9 0.067627 0.154535 0.394049
O O10 0.468538 0.215854 0.883026
O O11 0.482552 0.189444 0.562413
#
# Coordination Sequence:
#
# PCOD9082001 Si02
#       5
#     2   2   2   2   2
#     4  12  26  42  59  85 126 164 199 245 297 353
#     4  10  19  34  60  95 128 140 192 254 307 341
#     4  10  19  32  59  93 122 151 179 249 312 338
#     4  11  21  38  62  91 121 152 202 249 295 349
#     4  11  22  38  65  91 114 158 204 244 295 354
#
# _framework density 27.210560999999998
#
# number of rings (size 3 to 8) (size 9 to 14) (size 15 to 20)
#    0.000    1.200    4.000    5.400    2.800    0.000 
#    0.000    0.000    0.000    7.200    0.000    0.000 
#    0.000    0.000    0.000    0.000    0.000    0.000 
#
# Total GULP energy -56025.899353 kJ/mol
# GULP energy per Si atom -5602.589935 kJ/mol
# Density = 2.714863 g / cm^3
# Si number density = 27.210561 Si / 1000 Ang^3
#
#
#
# Elastic Constant Matrix: (Units=GPa)
#
#
# Indices 1 2 3 4 5 6 
#
# 1 72.9630 27.4012 39.8820 19.8489 -14.2818 -26.3211
# 2 27.4012 113.7657 1.0427 43.3796 -3.6325 -4.0594
# 3 39.8820 1.0427 92.2803 11.9827 14.1238 3.2133
# 4 19.8489 43.3796 11.9827 67.6286 -7.0918 -13.5527
# 5 -14.2818 -3.6325 14.1238 -7.0918 35.5163 -3.5314
# 6 -26.3211 -4.0594 3.2133 -13.5527 -3.5314 51.2799
#
#
#
# Elastic Compliance Matrix: (Units=1/GPa)
#
#
# Indices 1 2 3 4 5 6 
#
# 1 0.050695 -0.013015 -0.029459 0.008763 0.035662 0.031609
# 2 -0.013015 0.015148 0.008689 -0.010400 -0.010158 -0.009474
# 3 -0.029459 0.008689 0.029409 -0.009021 -0.026491 -0.020485
# 4 0.008763 -0.010400 -0.009021 0.024028 0.011980 0.011415
# 5 0.035662 -0.010158 -0.026491 0.011980 0.056995 0.026252
# 6 0.031609 -0.009474 -0.020485 0.011415 0.026252 0.041083
#
#
# Mechanical properties :
#
#
# Convention : Reuss Voigt Hill
#
# Bulk Modulus (GPa) = 36.12476 46.18452 41.15464
# Shear Modulus (GPa) = 16.99766 44.93050 30.96408
#
# Velocity S-wave (km/s) = 2.50205 4.06792 3.37700
# Velocity P-wave (km/s) = 4.65316 6.25091 5.51025
#
# Compressibility (1/GPa) = 0.02768185
#
# Stress axis : x y z
#
# Youngs Moduli (GPa) = 19.72566 66.01354 34.00265
#
# Poissons Ratio (x) = 0.85918 1.00170
# Poissons Ratio (y) = 0.25673 -0.29545
# Poissons Ratio (z) = 0.58111 -0.57359
#
# Static dielectric constant tensor:
#      x y z
#    x 2.313810 0.011860 -0.060980 
#    y 0.011860 2.117060 0.032490 
#    z -0.060980 0.032490 2.032540 
# 
# From -- ./inp_files/21987.got.cif
#   From: 2010.05.17/outbox.cif.g08.bks.cpg/sg2_11_cif.got.tgz:21987.got - 2010.06.03 11:33:40.
