data_PCOD9082849
_publ_section_title
;
Structure prediction by ZEFSAII (Michael W. Deem and Ramdas Pophale) SiO2 
 PCOD9082849
Probable space group: P -1
;
_chemical_formula_sum "Si O2"
_cell_formula_units_Z 14
_cell_length_a 14.049777
_cell_length_b 13.541773
_cell_length_c 11.707925
_cell_angle_alpha 120.572769
_cell_angle_beta 40.534692
_cell_angle_gamma 151.821362
_cell_volume 581.594207
_symmetry_space_group_name_H-M "P -1"
_symmetry_group_IT_number 2
_symmetry_cell_setting 'triclinic'
loop_
_space_group_symop_operation_xyz
x,y,z
-x,-y,-z
loop_
_atom_site_type_symbol
_atom_site_label
_atom_site_fract_x
_atom_site_fract_y
_atom_site_fract_z
Si Si1 0.283192 0.123018 0.267307
Si Si2 0.305750 0.828925 0.299705
Si Si3 0.894241 0.941137 0.862379
Si Si4 0.412163 0.701737 0.303514
Si Si5 0.549643 0.846011 0.510918
Si Si6 0.091809 0.739845 0.215103
Si Si7 0.250800 0.398828 0.751305
O O1 0.183894 0.929161 0.287922
O O2 0.414810 0.614543 0.795107
O O3 0.275002 0.144313 0.152723
O O4 0.000000 0.000000 0.500000
O O5 0.396035 0.779928 0.260124
O O6 0.933140 0.584606 0.523553
O O7 0.308041 0.815740 0.150886
O O8 0.470813 0.054657 0.335719
O O9 0.646185 0.763977 0.086369
O O10 0.127203 0.996701 0.666766
O O11 0.116086 0.205281 0.839118
O O12 0.533644 0.852914 0.393266
O O13 0.252581 0.556444 0.632236
O O14 0.041156 0.743197 0.131425
O O15 0.500000 0.500000 0.500000
#
# Coordination Sequence:
#
# PCOD9082849 Si02
#       7
#     2   2   2   2   2   2   2
#     4  11  18  33  56  86 119 150 180 228 291 343
#     4  10  22  40  62  77 115 160 194 228 285 347
#     4  11  22  35  59  90 120 142 190 244 282 335
#     4  10  24  41  54  85 117 153 193 238 284 336
#     4  11  20  36  62  86 111 152 194 238 282 339
#     4  10  19  33  58  87 109 146 197 228 277 342
#     4  11  19  33  55  88 121 144 184 234 291 341
#
# _framework density 24.071767000000001
#
# number of rings (size 3 to 8) (size 9 to 14) (size 15 to 20)
#    0.000    1.429    4.286    2.571    0.000    1.714 
#    0.000    2.857    0.000    5.143    0.000    0.000 
#    0.000    0.000    0.000    0.000    0.000    0.000 
#
# Total GULP energy -78103.306186 kJ/mol
# GULP energy per Si atom -5578.807585 kJ/mol
# Density = 2.401698 g / cm^3
# Si number density = 24.071767 Si / 1000 Ang^3
#
#
#
# Elastic Constant Matrix: (Units=GPa)
#
#
# Indices 1 2 3 4 5 6 
#
# 1 107.4499 26.0455 7.2031 0.9763 -0.3179 18.2738
# 2 26.0455 130.5382 17.0507 8.3822 -6.0619 14.4871
# 3 7.2031 17.0507 91.9949 11.8903 -0.7542 -5.1782
# 4 0.9763 8.3822 11.8903 11.2388 5.9342 2.9794
# 5 -0.3179 -6.0619 -0.7542 5.9342 33.7680 -1.5974
# 6 18.2738 14.4871 -5.1782 2.9794 -1.5974 39.0439
#
#
#
# Elastic Compliance Matrix: (Units=1/GPa)
#
#
# Indices 1 2 3 4 5 6 
#
# 1 0.010582 -0.001690 -0.001247 0.003500 -0.001074 -0.004802
# 2 -0.001690 0.008857 -0.000760 -0.006503 0.002605 -0.001993
# 3 -0.001247 -0.000760 0.013475 -0.016348 0.003217 0.004032
# 4 0.003500 -0.006503 -0.016348 0.126887 -0.024369 -0.012073
# 5 -0.001074 0.002605 0.003217 -0.024369 0.034579 0.003237
# 6 -0.004802 -0.001993 0.004032 -0.012073 0.003237 0.030188
#
#
# Mechanical properties :
#
#
# Convention : Reuss Voigt Hill
#
# Bulk Modulus (GPa) = 39.18469 47.84240 43.51354
# Shear Modulus (GPa) = 20.79291 35.45570 28.12431
#
# Velocity S-wave (km/s) = 2.94222 3.84202 3.42183
# Velocity P-wave (km/s) = 5.27786 6.29282 5.80755
#
# Compressibility (1/GPa) = 0.02552017
#
# Stress axis : x y z
#
# Youngs Moduli (GPa) = 94.50382 112.90789 74.21218
#
# Poissons Ratio (x) = 0.19083 0.09253
# Poissons Ratio (y) = 0.15973 0.05637
# Poissons Ratio (z) = 0.11782 0.08576
#
# Static dielectric constant tensor:
#      x y z
#    x 2.001430 0.040870 0.052310 
#    y 0.040870 1.827310 0.021740 
#    z 0.052310 0.021740 1.995310 
# 
# From -- ./inp_files/455787.got.cif
#   From: 2010.05.17/outbox.cif.g08.bks.cpg/sg2_228_cif.got.tgz:455787.got - 2010.06.03 11:33:40.
