data_PCOD9082908
_publ_section_title
;
Structure prediction by ZEFSAII (Michael W. Deem and Ramdas Pophale) SiO2 
 PCOD9082908
Probable space group: P -1
;
_chemical_formula_sum "Si O2"
_cell_formula_units_Z 15
_cell_length_a 10.450026
_cell_length_b 8.948012
_cell_length_c 13.896501
_cell_angle_alpha 81.889253
_cell_angle_beta 152.167979
_cell_angle_gamma 98.021781
_cell_volume 600.298486
_symmetry_space_group_name_H-M "P -1"
_symmetry_group_IT_number 2
_symmetry_cell_setting 'triclinic'
loop_
_space_group_symop_operation_xyz
x,y,z
-x,-y,-z
loop_
_atom_site_type_symbol
_atom_site_label
_atom_site_fract_x
_atom_site_fract_y
_atom_site_fract_z
Si Si1 0.865601 0.213008 0.305122
Si Si2 0.648201 0.728229 0.142563
Si Si3 0.549197 0.219939 0.466902
Si Si4 0.078390 0.390708 0.846943
Si Si5 0.959786 0.359906 0.059085
Si Si6 0.182273 0.940034 0.514143
Si Si7 0.858667 0.150031 0.860850
Si Si8 0.000000 0.500000 0.500000
O O1 0.744444 0.118789 0.325796
O O2 0.927372 0.379554 0.372912
O O3 0.649606 0.207873 0.074856
O O4 0.129480 0.117097 0.461099
O O5 0.706922 0.653001 0.085040
O O6 0.885886 0.858140 0.301594
O O7 0.734328 0.602349 0.286961
O O8 0.771898 0.362510 0.600699
O O9 0.246136 0.277159 0.268186
O O10 0.616840 0.126849 0.425029
O O11 0.361422 0.865638 0.369160
O O12 0.111980 0.554540 0.899433
O O13 0.077635 0.264301 0.942231
O O14 0.000000 0.500000 0.000000
O O15 0.764746 0.239019 0.885251
O O16 0.000000 0.000000 0.000000
#
# Coordination Sequence:
#
# PCOD9082908 Si02
#       8
#     2   2   2   2   2   2   2   1
#     4  10  20  36  62  81 118 147 187 238 285 336
#     4  10  19  38  60  84 115 150 187 237 282 334
#     4   9  19  34  58  78 116 139 188 240 266 331
#     4   8  19  35  56  84 108 144 196 221 278 339
#     4  10  19  33  59  81 108 151 188 227 282 330
#     4   9  20  35  58  89 105 149 200 225 282 346
#     4   9  20  36  54  81 114 145 184 231 278 331
#     4  10  22  38  56  90 118 146 188 236 288 336
#
# _framework density 24.987569000000001
#
# number of rings (size 3 to 8) (size 9 to 14) (size 15 to 20)
#    0.800    1.867    0.000    1.200    3.733    0.533 
#    2.400    0.000    5.867    0.000    0.000    0.000 
#    0.000    0.000    0.000    0.000    0.000    0.000 
#
# Total GULP energy -83545.380852 kJ/mol
# GULP energy per Si atom -5569.692057 kJ/mol
# Density = 2.493070 g / cm^3
# Si number density = 24.987569 Si / 1000 Ang^3
#
#
#
# Elastic Constant Matrix: (Units=GPa)
#
#
# Indices 1 2 3 4 5 6 
#
# 1 53.4501 28.0634 21.2282 -2.6597 -2.9774 -11.1013
# 2 28.0634 120.3488 41.4519 -15.1379 3.2432 -24.3158
# 3 21.2282 41.4519 142.9325 -28.0470 -6.4384 7.7218
# 4 -2.6597 -15.1379 -28.0470 42.3692 0.8076 -7.1183
# 5 -2.9774 3.2432 -6.4384 0.8076 21.3197 7.7699
# 6 -11.1013 -24.3158 7.7218 -7.1183 7.7699 39.4631
#
#
#
# Elastic Compliance Matrix: (Units=1/GPa)
#
#
# Indices 1 2 3 4 5 6 
#
# 1 0.022581 -0.003684 -0.002635 -0.000976 0.001447 0.004137
# 2 -0.003684 0.012956 -0.003273 0.004001 -0.007168 0.009720
# 3 -0.002635 -0.003273 0.009616 0.004135 0.004629 -0.004805
# 4 -0.000976 0.004001 0.004135 0.028987 -0.003235 0.007247
# 5 0.001447 -0.007168 0.004629 -0.003235 0.055720 -0.016469
# 6 0.004137 0.009720 -0.004805 0.007247 -0.016469 0.037983
#
#
# Mechanical properties :
#
#
# Convention : Reuss Voigt Hill
#
# Bulk Modulus (GPa) = 38.50707 55.35760 46.93233
# Shear Modulus (GPa) = 25.55143 35.69628 30.62386
#
# Velocity S-wave (km/s) = 3.20123 3.78373 3.50460
# Velocity P-wave (km/s) = 5.39516 6.42581 5.93291
#
# Compressibility (1/GPa) = 0.02596926
#
# Stress axis : x y z
#
# Youngs Moduli (GPa) = 44.28489 77.18569 103.98812
#
# Poissons Ratio (x) = 0.28433 0.27402
# Poissons Ratio (y) = 0.16313 0.34037
# Poissons Ratio (z) = 0.11670 0.25264
#
# Static dielectric constant tensor:
#      x y z
#    x 2.068410 0.045150 -0.009000 
#    y 0.045150 1.988270 0.044270 
#    z -0.009000 0.044270 1.970070 
# 
# From -- ./inp_files/513182.got.cif
#   From: 2010.05.17/outbox.cif.g08.bks.cpg/sg2_257_cif.got.tgz:513182.got - 2010.06.03 11:33:40.
