data_PCOD9082826
_publ_section_title
;
Structure prediction by ZEFSAII (Michael W. Deem and Ramdas Pophale) SiO2 
 PCOD9082826
Probable space group: P -1
;
_chemical_formula_sum "Si O2"
_cell_formula_units_Z 16
_cell_length_a 8.207654
_cell_length_b 16.447787
_cell_length_c 13.592850
_cell_angle_alpha 28.079979
_cell_angle_beta 98.942265
_cell_angle_gamma 115.201847
_cell_volume 668.910424
_symmetry_space_group_name_H-M "P -1"
_symmetry_group_IT_number 2
_symmetry_cell_setting 'triclinic'
loop_
_space_group_symop_operation_xyz
x,y,z
-x,-y,-z
loop_
_atom_site_type_symbol
_atom_site_label
_atom_site_fract_x
_atom_site_fract_y
_atom_site_fract_z
Si Si1 0.348428 0.984901 0.583441
Si Si2 0.874567 0.071616 0.851542
Si Si3 0.050031 0.742514 0.147324
Si Si4 0.809203 0.805361 0.411271
Si Si5 0.026521 0.271180 0.315658
Si Si6 0.340745 0.529964 0.901930
Si Si7 0.027779 0.593123 0.106740
Si Si8 0.409087 0.404861 0.701686
O O1 0.155702 0.922298 0.563604
O O2 0.239581 0.795360 0.856994
O O3 0.500000 0.000000 0.500000
O O4 0.500090 0.225343 0.386629
O O5 0.854094 0.205916 0.788713
O O6 0.024005 0.189558 0.646999
O O7 0.660957 0.841625 0.041599
O O8 0.000000 0.000000 0.000000
O O9 0.804307 0.627764 0.263320
O O10 0.063611 0.604411 0.214192
O O11 0.164376 0.980689 0.850352
O O12 0.872145 0.813227 0.520360
O O13 0.584325 0.577215 0.610688
O O14 0.191676 0.471525 0.044730
O O15 0.958600 0.375116 0.275584
O O16 0.500000 0.500000 0.000000
O O17 0.160658 0.390425 0.950872
O O18 0.500000 0.500000 0.500000
#
# Coordination Sequence:
#
# PCOD9082826 Si02
#       8
#     2   2   2   2   2   2   2   2
#     4  11  21  45  65  75 120 168 190 236 304 357
#     4   8  16  33  52  83 116 151 188 241 290 339
#     4  10  21  33  58  89 116 149 199 246 285 345
#     4  10  20  34  58  87 114 153 195 245 286 341
#     4  11  24  40  60  88 122 157 197 240 300 358
#     4  11  25  40  63  91 113 152 205 244 290 352
#     4  11  24  41  57  90 123 156 196 239 300 361
#     4  10  15  33  58  81 116 152 193 237 295 337
#
# _framework density 23.919495999999999
#
# number of rings (size 3 to 8) (size 9 to 14) (size 15 to 20)
#    0.000    2.000    6.250    0.750    5.250    2.000 
#    0.000    0.625    0.000    0.750    0.000    0.000 
#    0.000    0.000    0.000    0.000    0.000    0.000 
#
# Total GULP energy -89267.458850 kJ/mol
# GULP energy per Si atom -5579.216178 kJ/mol
# Density = 2.386505 g / cm^3
# Si number density = 23.919496 Si / 1000 Ang^3
#
#
#
# Elastic Constant Matrix: (Units=GPa)
#
#
# Indices 1 2 3 4 5 6 
#
# 1 46.1715 13.8026 20.8325 -5.7480 -19.1332 -7.1054
# 2 13.8026 85.5446 24.2239 -8.2046 -16.8000 -10.9631
# 3 20.8325 24.2239 89.2884 -17.4111 -28.1243 13.3626
# 4 -5.7480 -8.2046 -17.4111 39.9247 7.8175 -5.4252
# 5 -19.1332 -16.8000 -28.1243 7.8175 30.9187 -1.7230
# 6 -7.1054 -10.9631 13.3626 -5.4252 -1.7230 30.2705
#
#
#
# Elastic Compliance Matrix: (Units=1/GPa)
#
#
# Indices 1 2 3 4 5 6 
#
# 1 0.031954 0.000697 -0.003564 0.001256 0.017180 0.010529
# 2 0.000697 0.014689 -0.003222 0.001662 0.005480 0.007516
# 3 -0.003564 -0.003222 0.018549 0.003441 0.011549 -0.008918
# 4 0.001256 0.001662 0.003441 0.028053 -0.002044 0.004289
# 5 0.017180 0.005480 0.011549 -0.002044 0.057186 0.003808
# 6 0.010529 0.007516 -0.008918 0.004289 0.003808 0.043151
#
#
# Mechanical properties :
#
#
# Convention : Reuss Voigt Hill
#
# Bulk Modulus (GPa) = 18.86306 37.63583 28.24945
# Shear Modulus (GPa) = 22.37830 31.03249 26.70539
#
# Velocity S-wave (km/s) = 3.06202 3.60581 3.34499
# Velocity P-wave (km/s) = 4.51713 5.75364 5.17247
#
# Compressibility (1/GPa) = 0.05301367
#
# Stress axis : x y z
#
# Youngs Moduli (GPa) = 31.29484 68.08004 53.91238
#
# Poissons Ratio (x) = -0.04748 0.19214
# Poissons Ratio (y) = -0.02182 0.17372
# Poissons Ratio (z) = 0.11154 0.21937
#
# Static dielectric constant tensor:
#      x y z
#    x 2.024820 -0.045730 0.075590 
#    y -0.045730 1.951880 -0.035690 
#    z 0.075590 -0.035690 1.952510 
# 
# From -- ./inp_files/332645.got.cif
#   From: 2010.05.17/outbox.cif.g08.bks.cpg/sg2_167_cif.got.tgz:332645.got - 2010.06.03 11:33:40.
