data_PCOD9082645
_publ_section_title
;
Structure prediction by ZEFSAII (Michael W. Deem and Ramdas Pophale) SiO2 
 PCOD9082645
Probable space group: P -1
;
_chemical_formula_sum "Si O2"
_cell_formula_units_Z 16
_cell_length_a 18.093795
_cell_length_b 12.137739
_cell_length_c 7.467442
_cell_angle_alpha 75.974309
_cell_angle_beta 70.366028
_cell_angle_gamma 26.451327
_cell_volume 681.320314
_symmetry_space_group_name_H-M "P -1"
_symmetry_group_IT_number 2
_symmetry_cell_setting 'triclinic'
loop_
_space_group_symop_operation_xyz
x,y,z
-x,-y,-z
loop_
_atom_site_type_symbol
_atom_site_label
_atom_site_fract_x
_atom_site_fract_y
_atom_site_fract_z
Si Si1 0.954965 0.362593 0.839886
Si Si2 0.368995 0.198169 0.800851
Si Si3 0.678529 0.511024 0.418427
Si Si4 0.835424 0.725798 0.172854
Si Si5 0.634839 0.365958 0.727933
Si Si6 0.675345 0.627249 0.764423
Si Si7 0.959656 0.962269 0.887128
Si Si8 0.566208 0.235303 0.994115
O O1 0.871404 0.410360 0.719372
O O2 0.082462 0.302970 0.727610
O O3 0.777053 0.619117 0.995936
O O4 0.055452 0.140271 0.963238
O O5 0.415908 0.268150 0.702389
O O6 0.260134 0.268979 0.707925
O O7 0.542095 0.902416 0.791077
O O8 0.635715 0.434240 0.515428
O O9 0.660219 0.589149 0.599473
O O10 0.870730 0.263761 0.283640
O O11 0.702623 0.970342 0.064901
O O12 0.000000 0.500000 0.000000
O O13 0.474454 0.625571 0.865413
O O14 0.620739 0.247936 0.784994
O O15 0.801450 0.181064 0.790977
O O16 0.605720 0.617492 0.957004
O O17 0.000000 0.000000 0.000000
#
# Coordination Sequence:
#
# PCOD9082645 Si02
#       8
#     2   2   2   2   2   2   2   2
#     4  10  19  33  56  88 112 144 198 239 280 336
#     4   9  19  34  58  83 116 153 191 230 288 345
#     4  10  21  35  55  87 116 152 192 234 290 345
#     4   9  17  33  55  84 113 148 195 234 280 337
#     4  10  19  34  57  81 113 152 193 231 274 346
#     4  10  19  35  59  87 114 151 192 240 286 336
#     4  11  21  35  56  84 114 148 192 243 285 339
#     4   9  18  33  55  83 110 153 195 226 280 339
#
# _framework density 23.483813000000001
#
# number of rings (size 3 to 8) (size 9 to 14) (size 15 to 20)
#    0.000    2.250    1.250    2.625    0.000    0.000 
#    0.000    0.625    0.000   18.750    9.750    0.000 
#    0.000    0.000    0.000    0.000    0.000    0.000 
#
# Total GULP energy -89140.373495 kJ/mol
# GULP energy per Si atom -5571.273343 kJ/mol
# Density = 2.343036 g / cm^3
# Si number density = 23.483813 Si / 1000 Ang^3
#
#
#
# Elastic Constant Matrix: (Units=GPa)
#
#
# Indices 1 2 3 4 5 6 
#
# 1 90.8737 6.2082 21.5201 -15.6409 -15.2655 -6.0202
# 2 6.2082 104.0995 7.0902 6.6033 -10.0704 15.2507
# 3 21.5201 7.0902 33.3932 -9.6816 -11.4862 16.1342
# 4 -15.6409 6.6033 -9.6816 14.8027 7.7022 2.3691
# 5 -15.2655 -10.0704 -11.4862 7.7022 27.0929 -1.0958
# 6 -6.0202 15.2507 16.1342 2.3691 -1.0958 30.3640
#
#
#
# Elastic Compliance Matrix: (Units=1/GPa)
#
#
# Indices 1 2 3 4 5 6 
#
# 1 0.016289 -0.001973 -0.012279 0.007661 0.001474 0.010200
# 2 -0.001973 0.011640 0.001274 -0.008574 0.005949 -0.006031
# 3 -0.012279 0.001274 0.073745 0.035018 0.013064 -0.044521
# 4 0.007661 -0.008574 0.035018 0.115157 -0.017668 -0.022404
# 5 0.001474 0.005949 0.013064 -0.017668 0.050252 -0.006445
# 6 0.010200 -0.006031 -0.044521 -0.022404 -0.006445 0.063157
#
#
# Mechanical properties :
#
#
# Convention : Reuss Voigt Hill
#
# Bulk Modulus (GPa) = 13.20661 33.11151 23.15906
# Shear Modulus (GPa) = 13.10838 27.35511 20.23175
#
# Velocity S-wave (km/s) = 2.36516 3.41669 2.93835
# Velocity P-wave (km/s) = 3.61864 5.44935 4.62547
#
# Compressibility (1/GPa) = 0.07571965
#
# Stress axis : x y z
#
# Youngs Moduli (GPa) = 61.39225 85.91126 13.56015
#
# Poissons Ratio (x) = 0.16949 0.16650
# Poissons Ratio (y) = 0.12112 -0.01728
# Poissons Ratio (z) = 0.75381 -0.10948
#
# Static dielectric constant tensor:
#      x y z
#    x 2.083690 0.024780 0.010890 
#    y 0.024780 1.878840 -0.057360 
#    z 0.010890 -0.057360 1.969480 
# 
# From -- ./inp_files/333251.got.cif
#   From: 2010.05.17/outbox.cif.g08.bks.cpg/sg2_167_cif.got.tgz:333251.got - 2010.06.03 11:33:40.
