data_PCOD9082784
_publ_section_title
;
Structure prediction by ZEFSAII (Michael W. Deem and Ramdas Pophale) SiO2 
 PCOD9082784
Probable space group: P -1
;
_chemical_formula_sum "Si O2"
_cell_formula_units_Z 16
_cell_length_a 21.385881
_cell_length_b 5.376653
_cell_length_c 9.105655
_cell_angle_alpha 128.322343
_cell_angle_beta 130.238016
_cell_angle_gamma 65.657650
_cell_volume 626.923004
_symmetry_space_group_name_H-M "P -1"
_symmetry_group_IT_number 2
_symmetry_cell_setting 'triclinic'
loop_
_space_group_symop_operation_xyz
x,y,z
-x,-y,-z
loop_
_atom_site_type_symbol
_atom_site_label
_atom_site_fract_x
_atom_site_fract_y
_atom_site_fract_z
Si Si1 0.013832 0.270606 0.291557
Si Si2 0.628094 0.940872 0.844015
Si Si3 0.312681 0.410909 0.722795
Si Si4 0.772585 0.761411 0.205839
Si Si5 0.074198 0.845629 0.458193
Si Si6 0.738253 0.579341 0.657627
Si Si7 0.478283 0.127785 0.851448
Si Si8 0.831468 0.187200 0.908959
O O1 0.000000 0.500000 0.500000
O O2 0.070215 0.477297 0.348701
O O3 0.929208 0.198409 0.058132
O O4 0.053490 0.954278 0.302454
O O5 0.533439 0.936209 0.746926
O O6 0.660348 0.750138 0.682167
O O7 0.651971 0.312325 0.018251
O O8 0.685587 0.799711 0.008503
O O9 0.241413 0.249207 0.646172
O O10 0.291279 0.574109 0.595008
O O11 0.380740 0.138879 0.692216
O O12 0.838067 0.002161 0.325082
O O13 0.810129 0.421223 0.097409
O O14 0.000000 0.000000 0.500000
O O15 0.786902 0.360455 0.767024
O O16 0.795883 0.855060 0.783990
O O17 0.500000 0.500000 0.000000
O O18 0.500000 0.000000 0.000000
#
# Coordination Sequence:
#
# PCOD9082784 Si02
#       8
#     2   2   2   2   2   2   2   2
#     4  10  19  33  57  91 121 160 210 262 312 369
#     4  10  23  41  67  94 129 168 217 259 318 377
#     4  11  24  42  66  94 133 169 211 264 321 377
#     4  11  21  36  67  91 127 166 216 256 319 378
#     4  10  20  30  56  96 118 158 213 254 309 378
#     4  11  26  39  65  98 129 169 213 262 316 378
#     4  10  21  40  65  95 127 166 211 262 314 374
#     4  11  22  40  62  95 129 164 218 263 311 383
#
# _framework density 25.521476
#
# number of rings (size 3 to 8) (size 9 to 14) (size 15 to 20)
#    0.000    1.500    5.000    0.750    8.750    0.500 
#    0.000    0.000    0.000    9.750    0.000    0.000 
#    0.000    0.000    0.000    0.000    0.000    0.000 
#
# Total GULP energy -89554.068213 kJ/mol
# GULP energy per Si atom -5597.129263 kJ/mol
# Density = 2.546339 g / cm^3
# Si number density = 25.521476 Si / 1000 Ang^3
#
#
#
# Elastic Constant Matrix: (Units=GPa)
#
#
# Indices 1 2 3 4 5 6 
#
# 1 145.0902 43.3240 32.8921 -4.5392 -9.4080 0.2272
# 2 43.3240 111.0760 16.9271 -22.5397 -5.2759 31.6861
# 3 32.8921 16.9271 46.3520 -6.9157 -17.0823 2.7854
# 4 -4.5392 -22.5397 -6.9157 42.9060 -2.8083 -2.6615
# 5 -9.4080 -5.2759 -17.0823 -2.8083 32.7001 -6.3564
# 6 0.2272 31.6861 2.7854 -2.6615 -6.3564 54.3597
#
#
#
# Elastic Compliance Matrix: (Units=1/GPa)
#
#
# Indices 1 2 3 4 5 6 
#
# 1 0.009239 -0.003773 -0.005860 -0.001855 -0.000727 0.002285
# 2 -0.003773 0.014192 -0.001248 0.006334 -0.000446 -0.007935
# 3 -0.005860 -0.001248 0.032733 0.005113 0.015881 0.001182
# 4 -0.001855 0.006334 0.005113 0.027474 0.005130 -0.002001
# 5 -0.000727 -0.000446 0.015881 0.005130 0.039885 0.004364
# 6 0.002285 -0.007935 0.001182 -0.002001 0.004364 0.023364
#
#
# Mechanical properties :
#
#
# Convention : Reuss Voigt Hill
#
# Bulk Modulus (GPa) = 29.06860 54.31159 41.69010
# Shear Modulus (GPa) = 27.76003 39.95151 33.85577
#
# Velocity S-wave (km/s) = 3.30163 3.96082 3.64615
# Velocity P-wave (km/s) = 5.09401 6.49957 5.83923
#
# Compressibility (1/GPa) = 0.03440138
#
# Stress axis : x y z
#
# Youngs Moduli (GPa) = 108.24046 70.46000 30.55058
#
# Poissons Ratio (x) = 0.26587 0.17903
# Poissons Ratio (y) = 0.40843 0.03812
# Poissons Ratio (z) = 0.63429 0.08792
#
# Static dielectric constant tensor:
#      x y z
#    x 2.093900 -0.042400 0.001380 
#    y -0.042400 2.080110 0.062400 
#    z 0.001380 0.062400 2.053770 
# 
# From -- ./inp_files/139254.got.cif
#   From: 2010.05.17/outbox.cif.g08.bks.cpg/sg2_70_cif.got.tgz:139254.got - 2010.06.03 11:33:40.
