data_PCOD9082954
_publ_section_title
;
Structure prediction by ZEFSAII (Michael W. Deem and Ramdas Pophale) SiO2 
 PCOD9082954
Probable space group: P -1
;
_chemical_formula_sum "Si O2"
_cell_formula_units_Z 16
_cell_length_a 23.633097
_cell_length_b 16.703848
_cell_length_c 13.937289
_cell_angle_alpha 24.802849
_cell_angle_beta 155.915881
_cell_angle_gamma 158.819926
_cell_volume 749.318251
_symmetry_space_group_name_H-M "P -1"
_symmetry_group_IT_number 2
_symmetry_cell_setting 'triclinic'
loop_
_space_group_symop_operation_xyz
x,y,z
-x,-y,-z
loop_
_atom_site_type_symbol
_atom_site_label
_atom_site_fract_x
_atom_site_fract_y
_atom_site_fract_z
Si Si1 0.176439 0.991887 0.034424
Si Si2 0.911713 0.442653 0.208347
Si Si3 0.280668 0.297530 0.691995
Si Si4 0.828886 0.417925 0.885557
Si Si5 0.579573 0.315183 0.352373
Si Si6 0.128681 0.280177 0.779667
Si Si7 0.184818 0.548608 0.752644
Si Si8 0.564977 0.969398 0.840489
O O1 0.143322 0.089030 0.781195
O O2 0.110538 0.052954 0.958874
O O3 0.383540 0.152894 0.189772
O O4 0.085187 0.714950 0.187910
O O5 0.962458 0.270406 0.504415
O O6 0.794268 0.439524 0.113143
O O7 0.850906 0.403710 0.047781
O O8 0.203082 0.386689 0.402017
O O9 0.402239 0.525947 0.701982
O O10 0.376235 0.199766 0.897201
O O11 0.668306 0.156473 0.883073
O O12 0.000000 0.500000 0.000000
O O13 0.712816 0.497326 0.280081
O O14 0.620792 0.143079 0.646713
O O15 0.172706 0.350967 0.882025
O O16 0.356226 0.803617 0.704969
O O17 0.000000 0.500000 0.500000
#
# Coordination Sequence:
#
# PCOD9082954 Si02
#       8
#     2   2   2   2   2   2   2   2
#     4  11  20  33  59  88 118 149 183 245 308 347
#     4  11  24  39  55  82 117 157 203 237 279 350
#     4  10  21  36  60  92 118 147 193 245 302 355
#     4  11  24  41  62  89 118 152 201 247 291 351
#     4  10  19  33  59  93 118 143 187 244 308 362
#     4  10  20  36  58  88 119 147 191 245 299 357
#     4  10  22  40  61  86 118 158 200 238 289 356
#     4  11  22  39  62  86 122 160 191 245 298 336
#
# _framework density 21.352741999999999
#
# number of rings (size 3 to 8) (size 9 to 14) (size 15 to 20)
#    0.000    1.500    0.000    8.250    0.000    5.500 
#    0.000    5.625    0.000    0.000    0.000    0.000 
#    0.000    0.000    0.000    0.000    0.000    0.000 
#
# Total GULP energy -89416.204314 kJ/mol
# GULP energy per Si atom -5588.512770 kJ/mol
# Density = 2.130414 g / cm^3
# Si number density = 21.352742 Si / 1000 Ang^3
#
#
#
# Elastic Constant Matrix: (Units=GPa)
#
#
# Indices 1 2 3 4 5 6 
#
# 1 128.3633 21.2374 31.5997 8.8726 -10.6914 -24.4552
# 2 21.2374 64.2661 12.5701 3.3876 9.4227 -7.0676
# 3 31.5997 12.5701 90.3248 -2.5494 7.5722 -21.3711
# 4 8.8726 3.3876 -2.5494 21.3630 -9.5302 -2.2876
# 5 -10.6914 9.4227 7.5722 -9.5302 35.0206 -0.3749
# 6 -24.4552 -7.0676 -21.3711 -2.2876 -0.3749 35.5168
#
#
#
# Elastic Compliance Matrix: (Units=1/GPa)
#
#
# Indices 1 2 3 4 5 6 
#
# 1 0.010258 -0.002865 -0.002397 -0.001779 0.003990 0.004979
# 2 -0.002865 0.018007 -0.000904 -0.004735 -0.006805 0.000690
# 3 -0.002397 -0.000904 0.013909 0.002257 -0.002811 0.006655
# 4 -0.001779 -0.004735 0.002257 0.055779 0.015453 0.002947
# 5 0.003990 -0.006805 -0.002811 0.015453 0.036428 0.001082
# 6 0.004979 0.000690 0.006655 0.002947 0.001082 0.035927
#
#
# Mechanical properties :
#
#
# Convention : Reuss Voigt Hill
#
# Bulk Modulus (GPa) = 33.50742 45.97430 39.74086
# Shear Modulus (GPa) = 25.96231 32.88323 29.42277
#
# Velocity S-wave (km/s) = 3.49073 3.92854 3.71609
# Velocity P-wave (km/s) = 5.65449 6.49273 6.08805
#
# Compressibility (1/GPa) = 0.02984414
#
# Stress axis : x y z
#
# Youngs Moduli (GPa) = 97.48294 55.53375 71.89394
#
# Poissons Ratio (x) = 0.15909 0.17232
# Poissons Ratio (y) = 0.27927 0.06496
# Poissons Ratio (z) = 0.23365 0.05018
#
# Static dielectric constant tensor:
#      x y z
#    x 1.827970 -0.005010 -0.003040 
#    y -0.005010 1.768570 -0.001500 
#    z -0.003040 -0.001500 1.812600 
# 
# From -- ./inp_files/471692.got.cif
#   From: 2010.05.17/outbox.cif.g08.bks.cpg/sg2_236_cif.got.tgz:471692.got - 2010.06.03 11:33:40.
