data_PCOD9082420
_publ_section_title
;
Structure prediction by ZEFSAII (Michael W. Deem and Ramdas Pophale) SiO2 
 PCOD9082420
Probable space group: P -1
;
_chemical_formula_sum "Si O2"
_cell_formula_units_Z 14
_cell_length_a 21.691550
_cell_length_b 7.898503
_cell_length_c 15.446262
_cell_angle_alpha 46.837036
_cell_angle_beta 153.744013
_cell_angle_gamma 148.233923
_cell_volume 580.351756
_symmetry_space_group_name_H-M "P -1"
_symmetry_group_IT_number 2
_symmetry_cell_setting 'triclinic'
loop_
_space_group_symop_operation_xyz
x,y,z
-x,-y,-z
loop_
_atom_site_type_symbol
_atom_site_label
_atom_site_fract_x
_atom_site_fract_y
_atom_site_fract_z
Si Si1 0.595767 0.621060 0.673314
Si Si2 0.212363 0.159915 0.481485
Si Si3 0.449263 0.233886 0.902090
Si Si4 0.592837 0.926328 0.903564
Si Si5 0.784601 0.622767 0.052982
Si Si6 0.357354 0.818696 0.497864
Si Si7 0.192398 0.803955 0.079791
O O1 0.500000 0.500000 0.500000
O O2 0.403999 0.385320 0.579512
O O3 0.709724 0.009035 0.675076
O O4 0.730535 0.575250 0.898949
O O5 0.263336 0.067312 0.661819
O O6 0.215956 0.432493 0.424304
O O7 0.012495 0.834504 0.292714
O O8 0.529134 0.583857 0.915856
O O9 0.391929 0.034555 0.988322
O O10 0.626368 0.343981 0.025104
O O11 0.409786 0.853615 0.654416
O O12 0.800406 0.219695 0.007052
O O13 0.776001 0.888705 0.968746
O O14 0.406906 0.934355 0.325694
O O15 0.000000 0.500000 0.000000
#
# Coordination Sequence:
#
# PCOD9082420 Si02
#       7
#     2   2   2   2   2   2   2
#     4  11  22  35  50  75 108 138 173 217 262 312
#     4  10  19  33  55  75 103 139 173 216 256 313
#     4   8  14  32  48  75 106 133 172 211 259 299
#     4   7  14  28  50  71 111 135 162 220 254 300
#     4  10  20  30  54  77 100 144 171 209 261 311
#     4   9  18  33  52  76 106 137 170 212 262 306
#     4   9  16  28  50  79 103 135 169 209 256 307
#
# _framework density 24.1233
#
# number of rings (size 3 to 8) (size 9 to 14) (size 15 to 20)
#    0.857    2.000    2.857    1.286    2.000    0.571 
#    0.000   11.429    0.000    3.429    0.000    2.000 
#    0.000    0.000    0.000    0.000    0.000    0.000 
#
# Total GULP energy -78046.342861 kJ/mol
# GULP energy per Si atom -5574.738776 kJ/mol
# Density = 2.406839 g / cm^3
# Si number density = 24.123300 Si / 1000 Ang^3
#
#
#
# Elastic Constant Matrix: (Units=GPa)
#
#
# Indices 1 2 3 4 5 6 
#
# 1 78.5847 17.6071 37.8127 -10.7501 -32.8180 13.6843
# 2 17.6071 102.2039 36.7856 -19.1278 -5.0106 27.0867
# 3 37.8127 36.7856 158.3552 -8.6732 -36.9206 29.5461
# 4 -10.7501 -19.1278 -8.6732 40.8577 9.6311 -7.0889
# 5 -32.8180 -5.0106 -36.9206 9.6311 41.3867 -10.6224
# 6 13.6843 27.0867 29.5461 -7.0889 -10.6224 34.8839
#
#
#
# Elastic Compliance Matrix: (Units=1/GPa)
#
#
# Indices 1 2 3 4 5 6 
#
# 1 0.019810 -0.002091 -0.000634 0.000492 0.014494 -0.001097
# 2 -0.002091 0.013939 -0.002035 0.005257 -0.005272 -0.008817
# 3 -0.000634 -0.002035 0.009216 -0.001484 0.006733 -0.004229
# 4 0.000492 0.005257 -0.001484 0.028463 -0.006737 0.000715
# 5 0.014494 -0.005272 0.006733 -0.006737 0.043790 0.004671
# 6 -0.001097 -0.008817 -0.004229 0.000715 0.004671 0.041092
#
#
# Mechanical properties :
#
#
# Convention : Reuss Voigt Hill
#
# Bulk Modulus (GPa) = 29.89931 58.17273 44.03602
# Shear Modulus (GPa) = 28.25204 39.88821 34.07013
#
# Velocity S-wave (km/s) = 3.42592 4.07075 3.76218
# Velocity P-wave (km/s) = 5.29816 6.80160 6.09641
#
# Compressibility (1/GPa) = 0.03344559
#
# Stress axis : x y z
#
# Youngs Moduli (GPa) = 50.48038 71.74103 108.50122
#
# Poissons Ratio (x) = 0.15003 0.06874
# Poissons Ratio (y) = 0.10557 0.22079
# Poissons Ratio (z) = 0.03198 0.14599
#
# Static dielectric constant tensor:
#      x y z
#    x 1.992360 -0.068260 -0.104960 
#    y -0.068260 2.057040 0.030470 
#    z -0.104960 0.030470 2.097660 
# 
# From -- ./inp_files/543895.got.cif
#   From: 2010.05.17/outbox.cif.g08.bks.cpg/sg2_272_cif.got.tgz:543895.got - 2010.06.03 11:33:40.
