data_PCOD9082570
_publ_section_title
;
Structure prediction by ZEFSAII (Michael W. Deem and Ramdas Pophale) SiO2 
 PCOD9082570
Probable space group: P -1
;
_chemical_formula_sum "Si O2"
_cell_formula_units_Z 14
_cell_length_a 7.817004
_cell_length_b 13.741897
_cell_length_c 14.927399
_cell_angle_alpha 151.541556
_cell_angle_beta 88.367714
_cell_angle_gamma 75.086786
_cell_volume 615.085550
_symmetry_space_group_name_H-M "P -1"
_symmetry_group_IT_number 2
_symmetry_cell_setting 'triclinic'
loop_
_space_group_symop_operation_xyz
x,y,z
-x,-y,-z
loop_
_atom_site_type_symbol
_atom_site_label
_atom_site_fract_x
_atom_site_fract_y
_atom_site_fract_z
Si Si1 0.296551 0.764530 0.325143
Si Si2 0.504542 0.855598 0.029657
Si Si3 0.950297 0.729008 0.941313
Si Si4 0.485053 0.208580 0.823599
Si Si5 0.419786 0.464336 0.689741
Si Si6 0.585490 0.227933 0.313268
Si Si7 0.101416 0.220546 0.809587
O O1 0.357792 0.851476 0.307481
O O2 0.483181 0.623718 0.284075
O O3 0.104075 0.013111 0.582094
O O4 0.319806 0.515395 0.087868
O O5 0.417098 0.902936 0.170792
O O6 0.458851 0.109759 0.193266
O O7 0.765617 0.685428 0.898699
O O8 0.427528 0.703544 0.862098
O O9 0.185129 0.537297 0.746452
O O10 0.976756 0.753269 0.066663
O O11 0.832394 0.999875 0.112040
O O12 0.347653 0.112817 0.720965
O O13 0.561547 0.260434 0.447145
O O14 0.500000 0.500000 0.500000
O O15 0.000000 0.500000 0.000000
#
# Coordination Sequence:
#
# PCOD9082570 Si02
#       7
#     2   2   2   2   2   2   2
#     4  10  19  33  56  82 114 162 194 240 294 343
#     4   8  20  39  56  89 120 147 202 242 287 357
#     4   9  21  40  56  92 116 149 207 238 290 361
#     4   9  18  33  54  79 116 154 198 236 287 347
#     4  11  19  40  66  78 123 162 183 254 302 334
#     4  10  22  42  62  87 121 151 198 254 292 353
#     4  11  20  33  52  82 123 155 196 240 289 354
#
# _framework density 22.761061999999999
#
# number of rings (size 3 to 8) (size 9 to 14) (size 15 to 20)
#    0.857    1.429    1.429    1.286    0.000    2.857 
#    2.571    0.714    0.000    0.000    0.000    0.000 
#    0.000    0.000    0.000    0.000    0.000    0.000 
#
# Total GULP energy -77969.633573 kJ/mol
# GULP energy per Si atom -5569.259541 kJ/mol
# Density = 2.270926 g / cm^3
# Si number density = 22.761062 Si / 1000 Ang^3
#
#
#
# Elastic Constant Matrix: (Units=GPa)
#
#
# Indices 1 2 3 4 5 6 
#
# 1 56.3392 3.1804 3.2901 -9.4742 6.1853 4.9455
# 2 3.1804 48.8435 8.9789 17.7384 3.0915 11.9474
# 3 3.2901 8.9789 61.3804 6.7407 6.4538 5.7989
# 4 -9.4742 17.7384 6.7407 34.6561 1.7581 14.9284
# 5 6.1853 3.0915 6.4538 1.7581 36.0600 5.7580
# 6 4.9455 11.9474 5.7989 14.9284 5.7580 25.6806
#
#
#
# Elastic Compliance Matrix: (Units=1/GPa)
#
#
# Indices 1 2 3 4 5 6 
#
# 1 0.020838 -0.003055 -0.000856 0.011141 -0.002370 -0.008344
# 2 -0.003055 0.026497 -0.001963 -0.012214 -0.000136 -0.004165
# 3 -0.000856 -0.001963 0.017208 -0.001976 -0.002493 -0.001100
# 4 0.011141 -0.012214 -0.001976 0.049186 0.001059 -0.024847
# 5 -0.002370 -0.000136 -0.002493 0.001059 0.029527 -0.006154
# 6 -0.008344 -0.004165 -0.001100 -0.024847 -0.006154 0.058556
#
#
# Mechanical properties :
#
#
# Convention : Reuss Voigt Hill
#
# Bulk Modulus (GPa) = 18.94126 21.94020 20.44073
# Shear Modulus (GPa) = 21.63026 29.35358 25.49192
#
# Velocity S-wave (km/s) = 3.08607 3.59505 3.35024
# Velocity P-wave (km/s) = 4.58675 5.18583 4.89546
#
# Compressibility (1/GPa) = 0.05279479
#
# Stress axis : x y z
#
# Youngs Moduli (GPa) = 47.98881 37.74076 58.11278
#
# Poissons Ratio (x) = 0.11528 0.04975
# Poissons Ratio (y) = 0.14659 0.11409
# Poissons Ratio (z) = 0.04108 0.07409
#
# Static dielectric constant tensor:
#      x y z
#    x 1.827110 -0.012740 0.033240 
#    y -0.012740 1.909340 0.046490 
#    z 0.033240 0.046490 1.889580 
# 
# From -- ./inp_files/504674.got.cif
#   From: 2010.05.17/outbox.cif.g08.bks.cpg/sg2_253_cif.got.tgz:504674.got - 2010.06.03 11:33:40.
