data_PCOD9082213
_publ_section_title
;
Structure prediction by ZEFSAII (Michael W. Deem and Ramdas Pophale) SiO2 
 PCOD9082213
Probable space group: P -1
;
_chemical_formula_sum "Si O2"
_cell_formula_units_Z 16
_cell_length_a 10.993550
_cell_length_b 5.624309
_cell_length_c 16.625808
_cell_angle_alpha 118.830812
_cell_angle_beta 52.016451
_cell_angle_gamma 126.981978
_cell_volume 636.925432
_symmetry_space_group_name_H-M "P -1"
_symmetry_group_IT_number 2
_symmetry_cell_setting 'triclinic'
loop_
_space_group_symop_operation_xyz
x,y,z
-x,-y,-z
loop_
_atom_site_type_symbol
_atom_site_label
_atom_site_fract_x
_atom_site_fract_y
_atom_site_fract_z
Si Si1 0.885774 0.326784 0.941865
Si Si2 0.199980 0.306192 0.081497
Si Si3 0.793254 0.676805 0.618756
Si Si4 0.886613 0.247530 0.598292
Si Si5 0.497257 0.289772 0.859326
Si Si6 0.591285 0.345649 0.164157
Si Si7 0.599770 0.852257 0.528051
Si Si8 0.591464 0.793406 0.342285
O O1 0.913560 0.546003 0.889693
O O2 0.888996 0.003611 0.882099
O O3 0.694942 0.266626 0.040157
O O4 0.000000 0.500000 0.000000
O O5 0.355602 0.553776 0.109264
O O6 0.304430 0.225922 0.955667
O O7 0.835499 0.521934 0.654098
O O8 0.603032 0.486703 0.627293
O O9 0.922354 0.649618 0.494637
O O10 0.848758 0.035979 0.657561
O O11 0.762037 0.012291 0.544214
O O12 0.528926 0.537046 0.816922
O O13 0.486485 0.956846 0.800201
O O14 0.692531 0.640854 0.227599
O O15 0.500000 0.500000 0.500000
O O16 0.658092 0.933684 0.424796
O O17 0.456751 0.954890 0.634493
#
# Coordination Sequence:
#
# PCOD9082213 Si02
#       8
#     2   2   2   2   2   2   2   2
#     4  10  19  33  55  83 109 149 182 205 258 327
#     4   9  17  32  56  79 105 136 177 221 253 317
#     4   9  17  30  49  72  92 125 165 212 261 302
#     4   9  17  30  49  71  94 121 168 214 252 312
#     4   9  18  33  53  80 103 133 176 220 273 307
#     4  10  21  33  53  80 108 138 177 228 271 308
#     4  10  19  33  53  76 101 141 184 217 273 323
#     4  10  21  33  52  78 105 138 180 232 267 321
#
# _framework density 25.12068
#
# number of rings (size 3 to 8) (size 9 to 14) (size 15 to 20)
#    0.000    2.500    1.250    1.125    1.750    3.000 
#    0.000    0.000    5.500    0.000    0.000    0.000 
#    0.000    0.000    0.000    0.000    0.000    0.000 
#
# Total GULP energy -89120.553549 kJ/mol
# GULP energy per Si atom -5570.034597 kJ/mol
# Density = 2.506350 g / cm^3
# Si number density = 25.120680 Si / 1000 Ang^3
#
#
#
# Elastic Constant Matrix: (Units=GPa)
#
#
# Indices 1 2 3 4 5 6 
#
# 1 104.8855 42.4824 1.4376 6.0575 2.4758 -39.5929
# 2 42.4824 126.1031 17.2709 38.8473 -11.4975 -47.0050
# 3 1.4376 17.2709 41.5720 11.2306 0.0640 -10.3645
# 4 6.0575 38.8473 11.2306 27.2872 4.7443 -15.1273
# 5 2.4758 -11.4975 0.0640 4.7443 26.2980 2.8380
# 6 -39.5929 -47.0050 -10.3645 -15.1273 2.8380 57.1282
#
#
#
# Elastic Compliance Matrix: (Units=1/GPa)
#
#
# Indices 1 2 3 4 5 6 
#
# 1 0.014680 -0.005562 0.001266 0.010198 -0.006612 0.008856
# 2 -0.005562 0.022997 0.000528 -0.030986 0.015499 0.006187
# 3 0.001266 0.000528 0.027543 -0.010781 0.001626 0.003374
# 4 0.010198 -0.030986 -0.010781 0.091406 -0.031553 0.005388
# 5 -0.006612 0.015499 0.001626 -0.031553 0.051376 -0.002443
# 6 0.008856 0.006187 0.003374 0.005388 -0.002443 0.030893
#
#
# Mechanical properties :
#
#
# Convention : Reuss Voigt Hill
#
# Bulk Modulus (GPa) = 17.33605 43.88248 30.60926
# Shear Modulus (GPa) = 18.82117 36.23400 27.52759
#
# Velocity S-wave (km/s) = 2.74018 3.80201 3.31390
# Velocity P-wave (km/s) = 4.11431 6.06468 5.18208
#
# Compressibility (1/GPa) = 0.05768328
#
# Stress axis : x y z
#
# Youngs Moduli (GPa) = 68.12031 43.48478 36.30752
#
# Poissons Ratio (x) = 0.24188 -0.04598
# Poissons Ratio (y) = 0.37891 -0.01917
# Poissons Ratio (z) = -0.08626 -0.02296
#
# Static dielectric constant tensor:
#      x y z
#    x 2.054880 -0.132100 -0.010350 
#    y -0.132100 2.129290 -0.078760 
#    z -0.010350 -0.078760 2.095070 
# 
# From -- ./inp_files/119986.got.cif
#   From: 2010.05.17/outbox.cif.g08.bks.cpg/sg2_60_cif.got.tgz:119986.got - 2010.06.03 11:33:40.
