data_PCOD9082802
_publ_section_title
;
Structure prediction by ZEFSAII (Michael W. Deem and Ramdas Pophale) SiO2 
 PCOD9082802
Probable space group: P -1
;
_chemical_formula_sum "Si O2"
_cell_formula_units_Z 14
_cell_length_a 7.367351
_cell_length_b 9.014382
_cell_length_c 9.639763
_cell_angle_alpha 74.081010
_cell_angle_beta 96.479176
_cell_angle_gamma 129.384874
_cell_volume 474.217826
_symmetry_space_group_name_H-M "P -1"
_symmetry_group_IT_number 2
_symmetry_cell_setting 'triclinic'
loop_
_space_group_symop_operation_xyz
x,y,z
-x,-y,-z
loop_
_atom_site_type_symbol
_atom_site_label
_atom_site_fract_x
_atom_site_fract_y
_atom_site_fract_z
Si Si1 0.479337 0.862331 0.653280
Si Si2 0.743095 0.113906 0.862368
Si Si3 0.105387 0.363877 0.033052
Si Si4 0.397750 0.270939 0.959599
Si Si5 0.023522 0.391562 0.336392
Si Si6 0.026384 0.909637 0.367355
Si Si7 0.525218 0.659724 0.360473
O O1 0.524708 0.982928 0.768239
O O2 0.224562 0.652628 0.665371
O O3 0.500000 0.000000 0.500000
O O4 0.710999 0.878426 0.652609
O O5 0.657987 0.937568 0.009352
O O6 0.942681 0.160227 0.759272
O O7 0.894071 0.304514 0.928659
O O8 0.358738 0.580402 0.973786
O O9 0.041962 0.341418 0.193767
O O10 0.182322 0.232138 0.031876
O O11 0.447214 0.371965 0.789856
O O12 0.731615 0.393655 0.653049
O O13 0.000419 0.235547 0.479972
O O14 0.781069 0.870142 0.358970
O O15 0.500000 0.500000 0.500000
#
# Coordination Sequence:
#
# PCOD9082802 Si02
#       7
#     2   2   2   2   2   2   2
#     4   8  16  32  55  76 102 147 177 207 268 323
#     4  10  19  33  58  76 102 147 181 210 264 325
#     4  10  20  31  53  80 109 138 172 225 272 306
#     4  10  19  34  52  79 112 138 175 222 268 315
#     4   9  17  31  50  80 108 135 179 219 261 315
#     4   8  16  30  53  76  99 146 178 203 266 318
#     4   9  16  29  51  72 102 136 172 212 256 309
#
# _framework density 29.522302
#
# number of rings (size 3 to 8) (size 9 to 14) (size 15 to 20)
#    0.857    2.000    1.429    0.429    0.000    0.571 
#    0.000    3.571    6.286    0.857    0.000    0.000 
#    0.000    0.000    0.000    0.000    0.000    0.000 
#
# Total GULP energy -78233.532077 kJ/mol
# GULP energy per Si atom -5588.109434 kJ/mol
# Density = 2.945511 g / cm^3
# Si number density = 29.522302 Si / 1000 Ang^3
#
#
#
# Elastic Constant Matrix: (Units=GPa)
#
#
# Indices 1 2 3 4 5 6 
#
# 1 97.4094 70.1809 24.1130 14.2036 3.0192 44.9296
# 2 70.1809 182.5496 7.7590 6.7217 10.3887 72.8010
# 3 24.1130 7.7590 194.3560 24.1482 -1.6150 -8.8345
# 4 14.2036 6.7217 24.1482 34.4309 3.8313 4.7915
# 5 3.0192 10.3887 -1.6150 3.8313 39.9344 8.5540
# 6 44.9296 72.8010 -8.8345 4.7915 8.5540 79.7283
#
#
#
# Elastic Compliance Matrix: (Units=1/GPa)
#
#
# Indices 1 2 3 4 5 6 
#
# 1 0.016867 -0.003954 -0.001654 -0.004350 0.001381 -0.005965
# 2 -0.003954 0.009653 -0.000325 0.000992 -0.000910 -0.006584
# 3 -0.001654 -0.000325 0.005925 -0.003739 0.000364 0.002071
# 4 -0.004350 0.000992 -0.003739 0.033699 -0.003195 -0.000551
# 5 0.001381 -0.000910 0.000364 -0.003195 0.026032 -0.002508
# 6 -0.005965 -0.006584 0.002071 -0.000551 -0.002508 0.022448
#
#
# Mechanical properties :
#
#
# Convention : Reuss Voigt Hill
#
# Bulk Modulus (GPa) = 48.59291 75.38010 61.98650
# Shear Modulus (GPa) = 37.49605 55.63618 46.56611
#
# Velocity S-wave (km/s) = 3.56770 4.34585 3.97586
# Velocity P-wave (km/s) = 5.78505 7.12535 6.48989
#
# Compressibility (1/GPa) = 0.02057913
#
# Stress axis : x y z
#
# Youngs Moduli (GPa) = 59.28888 103.59758 168.77556
#
# Poissons Ratio (x) = 0.40960 0.27915
# Poissons Ratio (y) = 0.23441 0.05484
# Poissons Ratio (z) = 0.09806 0.03366
#
# Static dielectric constant tensor:
#      x y z
#    x 2.352360 0.053880 0.101080 
#    y 0.053880 2.278270 0.013670 
#    z 0.101080 0.013670 2.258620 
# 
# From -- ./inp_files/195923.got.cif
#   From: 2010.05.17/outbox.cif.g08.bks.cpg/sg2_98_cif.got.tgz:195923.got - 2010.06.03 11:33:40.
