data_PCOD9082068
_publ_section_title
;
Structure prediction by ZEFSAII (Michael W. Deem and Ramdas Pophale) SiO2 
 PCOD9082068
Probable space group: P -1
;
_chemical_formula_sum "Si O2"
_cell_formula_units_Z 16
_cell_length_a 15.563054
_cell_length_b 11.659772
_cell_length_c 10.339061
_cell_angle_alpha 75.699487
_cell_angle_beta 101.711178
_cell_angle_gamma 154.314260
_cell_volume 787.127648
_symmetry_space_group_name_H-M "P -1"
_symmetry_group_IT_number 2
_symmetry_cell_setting 'triclinic'
loop_
_space_group_symop_operation_xyz
x,y,z
-x,-y,-z
loop_
_atom_site_type_symbol
_atom_site_label
_atom_site_fract_x
_atom_site_fract_y
_atom_site_fract_z
Si Si1 0.576942 0.727417 0.796081
Si Si2 0.195934 0.685764 0.574979
Si Si3 0.548482 0.214695 0.398415
Si Si4 0.398702 0.696440 0.115119
Si Si5 0.410642 0.288627 0.885740
Si Si6 0.626232 0.087269 0.840506
Si Si7 0.044826 0.693659 0.173770
Si Si8 0.990721 0.867046 0.951461
O O1 0.426944 0.623314 0.693141
O O2 0.562287 0.572153 0.806590
O O3 0.790418 0.047175 0.752589
O O4 0.544739 0.691457 0.953721
O O5 0.261564 0.635679 0.555299
O O6 0.000000 0.500000 0.500000
O O7 0.133767 0.585567 0.730696
O O8 0.382547 0.996250 0.518198
O O9 0.452482 0.035993 0.291694
O O10 0.572286 0.810971 0.161385
O O11 0.350470 0.745102 0.181515
O O12 0.206837 0.382075 0.123250
O O13 0.469978 0.849493 0.963569
O O14 0.198556 0.097069 0.877939
O O15 0.827098 0.252631 0.874176
O O16 0.977066 0.727419 0.067311
O O17 0.000000 0.000000 0.000000
#
# Coordination Sequence:
#
# PCOD9082068 Si02
#       8
#     2   2   2   2   2   2   2   2
#     4   9  16  31  51  70 111 133 168 219 256 308
#     4  11  20  33  55  76 110 129 180 226 278 315
#     4  10  20  35  52  82 103 139 173 225 276 315
#     4  11  20  35  50  75 113 152 177 207 256 324
#     4  10  19  33  47  76 107 143 177 207 252 320
#     4  10  20  35  52  73 114 148 175 213 261 320
#     4  10  19  33  52  81 106 141 174 222 267 316
#     4  11  22  32  54  80 110 145 178 216 266 313
#
# _framework density 20.327072000000001
#
# number of rings (size 3 to 8) (size 9 to 14) (size 15 to 20)
#    0.000    1.750    6.250    3.000    1.750    0.500 
#    2.250    0.000    0.000    0.000    0.000   11.375 
#    0.000    0.000    0.000    0.000    0.000    0.000 
#
# Total GULP energy -89100.006297 kJ/mol
# GULP energy per Si atom -5568.750394 kJ/mol
# Density = 2.028081 g / cm^3
# Si number density = 20.327072 Si / 1000 Ang^3
#
#
#
# Elastic Constant Matrix: (Units=GPa)
#
#
# Indices 1 2 3 4 5 6 
#
# 1 168.2844 43.9167 20.6968 -9.7902 13.9382 -2.8144
# 2 43.9167 51.8095 6.3211 -15.8516 -6.2932 2.7050
# 3 20.6968 6.3211 50.7272 -17.7527 11.7829 -0.6837
# 4 -9.7902 -15.8516 -17.7527 17.5889 2.0640 3.5764
# 5 13.9382 -6.2932 11.7829 2.0640 30.5242 1.9755
# 6 -2.8144 2.7050 -0.6837 3.5764 1.9755 41.3809
#
#
#
# Elastic Compliance Matrix: (Units=1/GPa)
#
#
# Indices 1 2 3 4 5 6 
#
# 1 0.009104 -0.010526 -0.004571 -0.009000 -0.004097 0.002205
# 2 -0.010526 0.042002 0.014328 0.047383 0.005221 -0.007569
# 3 -0.004571 0.014328 0.043003 0.056497 -0.015075 -0.004700
# 4 -0.009000 0.047383 0.056497 0.156776 -0.017529 -0.015489
# 5 -0.004097 0.005221 -0.015075 -0.017529 0.042803 -0.001397
# 6 0.002205 -0.007569 -0.004700 -0.015489 -0.001397 0.026138
#
#
# Mechanical properties :
#
#
# Convention : Reuss Voigt Hill
#
# Bulk Modulus (GPa) = 10.80248 45.85447 28.32847
# Shear Modulus (GPa) = 14.19564 31.22457 22.71010
#
# Velocity S-wave (km/s) = 2.64552 3.92357 3.34613
# Velocity P-wave (km/s) = 3.82852 6.56759 5.37544
#
# Compressibility (1/GPa) = 0.09257133
#
# Stress axis : x y z
#
# Youngs Moduli (GPa) = 109.84164 23.80829 23.25428
#
# Poissons Ratio (x) = 0.25060 0.10630
# Poissons Ratio (y) = 1.15617 -0.33319
# Poissons Ratio (z) = 0.50212 -0.34113
#
# Static dielectric constant tensor:
#      x y z
#    x 1.834860 0.074370 0.029510 
#    y 0.074370 1.795450 0.021170 
#    z 0.029510 0.021170 1.767730 
# 
# From -- ./inp_files/430734.got.cif
#   From: 2010.05.17/outbox.cif.g08.bks.cpg/sg2_216_cif.got.tgz:430734.got - 2010.06.03 11:33:40.
