data_PCOD9082344
_publ_section_title
;
Structure prediction by ZEFSAII (Michael W. Deem and Ramdas Pophale) SiO2 
 PCOD9082344
Probable space group: P -1
;
_chemical_formula_sum "Si O2"
_cell_formula_units_Z 16
_cell_length_a 17.124190
_cell_length_b 5.605602
_cell_length_c 9.042605
_cell_angle_alpha 98.980214
_cell_angle_beta 137.133014
_cell_angle_gamma 82.057848
_cell_volume 582.904364
_symmetry_space_group_name_H-M "P -1"
_symmetry_group_IT_number 2
_symmetry_cell_setting 'triclinic'
loop_
_space_group_symop_operation_xyz
x,y,z
-x,-y,-z
loop_
_atom_site_type_symbol
_atom_site_label
_atom_site_fract_x
_atom_site_fract_y
_atom_site_fract_z
Si Si1 0.391840 0.977591 0.742780
Si Si2 0.977735 0.840462 0.142536
Si Si3 0.055247 0.333499 0.240273
Si Si4 0.319596 0.466637 0.604570
Si Si5 0.288956 0.116975 0.191547
Si Si6 0.215650 0.072862 0.766922
Si Si7 0.766009 0.421799 0.184335
Si Si8 0.627849 0.390425 0.683675
O O1 0.373563 0.705853 0.632716
O O2 0.390389 0.215162 0.661938
O O3 0.283256 0.023357 0.705176
O O4 0.500000 0.000000 0.000000
O O5 0.996432 0.588464 0.232392
O O6 0.004810 0.750081 0.004107
O O7 0.845116 0.924514 0.972884
O O8 0.046705 0.081689 0.294662
O O9 0.185172 0.408110 0.393043
O O10 0.317102 0.533964 0.785151
O O11 0.304985 0.395977 0.285411
O O12 0.359320 0.898874 0.346583
O O13 0.304676 0.098673 0.033004
O O14 0.161439 0.339904 0.707284
O O15 0.159856 0.823366 0.708146
O O16 0.687146 0.400248 0.929470
O O17 0.500000 0.500000 0.500000
#
# Coordination Sequence:
#
# PCOD9082344 Si02
#       8
#     2   2   2   2   2   2   2   2
#     4  10  19  33  54  80 110 147 181 214 264 323
#     4  10  21  38  59  81 106 139 182 232 285 333
#     4  10  21  38  59  81 106 139 182 232 285 333
#     4  10  19  35  56  78 107 142 179 225 273 321
#     4  10  19  35  56  78 107 142 179 225 273 321
#     4   8  16  30  50  71 101 138 170 207 257 306
#     4   8  16  30  50  71 101 138 170 207 257 306
#     4  10  19  33  54  80 110 147 181 214 264 323
#
# _framework density 27.448757000000001
#
# number of rings (size 3 to 8) (size 9 to 14) (size 15 to 20)
#    0.000    2.500    0.000    2.250    0.000    0.000 
#    0.000   11.250    0.000   40.500    0.000    0.000 
#    0.000    0.000    0.000    0.000    0.000    0.000 
#
# Total GULP energy -89334.275186 kJ/mol
# GULP energy per Si atom -5583.392199 kJ/mol
# Density = 2.738628 g / cm^3
# Si number density = 27.448757 Si / 1000 Ang^3
#
#
#
# Elastic Constant Matrix: (Units=GPa)
#
#
# Indices 1 2 3 4 5 6 
#
# 1 43.8378 19.4118 8.9537 -3.7477 -3.6584 5.9065
# 2 19.4118 313.1041 22.1130 4.9908 -6.7463 32.0859
# 3 8.9537 22.1130 54.3249 10.5030 14.2647 7.8020
# 4 -3.7477 4.9908 10.5030 56.5391 -0.9472 -7.2812
# 5 -3.6584 -6.7463 14.2647 -0.9472 40.6237 0.6957
# 6 5.9065 32.0859 7.8020 -7.2812 0.6957 37.8626
#
#
#
# Elastic Compliance Matrix: (Units=1/GPa)
#
#
# Indices 1 2 3 4 5 6 
#
# 1 0.025037 -0.000987 -0.005017 0.002536 0.003939 -0.001620
# 2 -0.000987 0.003649 -0.001052 -0.000543 0.000922 -0.002843
# 3 -0.005017 -0.001052 0.023626 -0.005300 -0.008977 -0.004049
# 4 0.002536 -0.000543 -0.005300 0.019555 0.002372 0.004874
# 5 0.003939 0.000922 -0.008977 0.002372 0.028325 0.000389
# 6 -0.001620 -0.002843 -0.004049 0.004874 0.000389 0.030838
#
#
# Mechanical properties :
#
#
# Convention : Reuss Voigt Hill
#
# Bulk Modulus (GPa) = 26.17736 56.91375 41.54555
# Shear Modulus (GPa) = 31.67068 51.05762 41.36415
#
# Velocity S-wave (km/s) = 3.40046 4.31757 3.88617
# Velocity P-wave (km/s) = 4.99751 6.75536 5.94180
#
# Compressibility (1/GPa) = 0.03820095
#
# Stress axis : x y z
#
# Youngs Moduli (GPa) = 39.94087 274.03336 42.32613
#
# Poissons Ratio (x) = 0.27061 0.21233
# Poissons Ratio (y) = 0.03944 0.04451
# Poissons Ratio (z) = 0.20037 0.28816
#
# Static dielectric constant tensor:
#      x y z
#    x 2.209110 0.029420 -0.132300 
#    y 0.029420 2.251550 0.019360 
#    z -0.132300 0.019360 2.151870 
# 
# From -- ./inp_files/370530.got.cif
#   From: 2010.05.17/outbox.cif.g08.bks.cpg/sg2_186_cif.got.tgz:370530.got - 2010.06.03 11:33:40.
