data_PCOD9082620
_publ_section_title
;
Structure prediction by ZEFSAII (Michael W. Deem and Ramdas Pophale) SiO2 
 PCOD9082620
Probable space group: P -1
;
_chemical_formula_sum "Si O2"
_cell_formula_units_Z 16
_cell_length_a 12.348334
_cell_length_b 10.475302
_cell_length_c 26.223458
_cell_angle_alpha 32.315991
_cell_angle_beta 22.134246
_cell_angle_gamma 34.287225
_cell_volume 667.191028
_symmetry_space_group_name_H-M "P -1"
_symmetry_group_IT_number 2
_symmetry_cell_setting 'triclinic'
loop_
_space_group_symop_operation_xyz
x,y,z
-x,-y,-z
loop_
_atom_site_type_symbol
_atom_site_label
_atom_site_fract_x
_atom_site_fract_y
_atom_site_fract_z
Si Si1 0.823943 0.916029 0.363492
Si Si2 0.778450 0.623196 0.389323
Si Si3 0.247161 0.216708 0.122143
Si Si4 0.887320 0.163924 0.566332
Si Si5 0.795304 0.444781 0.059791
Si Si6 0.281815 0.416409 0.361465
Si Si7 0.602104 0.733378 0.182419
Si Si8 0.910961 0.376799 0.317540
O O1 0.816912 0.854793 0.327389
O O2 0.024653 0.659814 0.382625
O O3 0.500000 0.000000 0.500000
O O4 0.988427 0.124084 0.237072
O O5 0.920781 0.370267 0.442064
O O6 0.902804 0.597313 0.286500
O O7 0.430576 0.626664 0.541282
O O8 0.372111 0.348921 0.976428
O O9 0.102215 0.360345 0.187766
O O10 0.469574 0.974138 0.126034
O O11 0.549322 0.226033 0.710650
O O12 0.099138 0.203950 0.508122
O O13 0.967387 0.877449 0.619297
O O14 0.050601 0.302724 0.959714
O O15 0.530357 0.349483 0.232264
O O16 0.000000 0.500000 0.000000
O O17 0.473698 0.507180 0.291656
#
# Coordination Sequence:
#
# PCOD9082620 Si02
#       8
#     2   2   2   2   2   2   2   2
#     4  10  19  33  56  86 115 148 179 235 291 325
#     4  10  20  33  52  84 121 142 186 230 286 339
#     4  10  20  36  57  80 117 147 192 229 278 344
#     4  10  19  34  55  81 112 148 185 236 277 335
#     4  10  21  36  53  82 117 155 184 234 282 334
#     4   9  20  33  51  83 120 146 189 232 283 334
#     4   9  19  32  54  80 111 152 187 228 289 329
#     4  10  20  34  55  85 112 152 184 231 286 332
#
# _framework density 23.981138000000001
#
# number of rings (size 3 to 8) (size 9 to 14) (size 15 to 20)
#    0.000    2.250    1.250    1.500    1.750    7.500 
#    0.000    1.250    0.000    3.000    0.000   40.250 
#    0.000    0.000    0.000    0.000    0.000    0.000 
#
# Total GULP energy -89227.611556 kJ/mol
# GULP energy per Si atom -5576.725722 kJ/mol
# Density = 2.392656 g / cm^3
# Si number density = 23.981138 Si / 1000 Ang^3
#
#
#
# Elastic Constant Matrix: (Units=GPa)
#
#
# Indices 1 2 3 4 5 6 
#
# 1 56.1551 33.1762 8.0076 10.4592 28.3172 22.4337
# 2 33.1762 79.5646 25.2238 16.3194 7.7626 2.6330
# 3 8.0076 25.2238 57.6273 16.3024 1.7172 3.4170
# 4 10.4592 16.3194 16.3024 16.7689 -20.9776 4.8323
# 5 28.3172 7.7626 1.7172 -20.9776 21.4338 3.6326
# 6 22.4337 2.6330 3.4170 4.8323 3.6326 47.4029
#
#
#
# Elastic Compliance Matrix: (Units=1/GPa)
#
#
# Indices 1 2 3 4 5 6 
#
# 1 0.016208 -0.012823 -0.005503 0.031891 0.016765 -0.011097
# 2 -0.012823 0.021118 -0.005467 -0.008382 0.000492 0.006107
# 3 -0.005503 -0.005467 0.019359 0.002881 0.010447 0.000418
# 4 0.031891 -0.008382 0.002881 -0.006026 -0.043378 -0.010896
# 5 0.016765 0.000492 0.010447 -0.043378 -0.018477 -0.002877
# 6 -0.011097 0.006107 0.000418 -0.010896 -0.002877 0.027309
#
#
# Mechanical properties :
#
#
# Convention : Reuss Voigt Hill
#
# Bulk Modulus (GPa) = 109.90170 36.24024 73.07097
# Shear Modulus (GPa) = 45.40908 25.58374 35.49641
#
# Velocity S-wave (km/s) = 4.35620 3.26978 3.85149
# Velocity P-wave (km/s) = 8.43977 5.42218 7.09330
#
# Compressibility (1/GPa) = 0.00909904
#
# Stress axis : x y z
#
# Youngs Moduli (GPa) = 61.69945 47.35382 51.65470
#
# Poissons Ratio (x) = 0.60723 0.28424
# Poissons Ratio (y) = 0.79118 0.28239
# Poissons Ratio (z) = 0.33951 0.25888
#
# Static dielectric constant tensor:
#      x y z
#    x 2.053880 -0.034180 0.091780 
#    y -0.034180 1.950640 -0.013720 
#    z 0.091780 -0.013720 1.950060 
# 
# From -- ./inp_files/535459.got.cif
#   From: 2010.05.17/outbox.cif.g08.bks.cpg/sg2_268_cif.got.tgz:535459.got - 2010.06.03 11:33:40.
