data_PCOD9082323
_publ_section_title
;
Structure prediction by ZEFSAII (Michael W. Deem and Ramdas Pophale) SiO2 
 PCOD9082323
Probable space group: P -1
;
_chemical_formula_sum "Si O2"
_cell_formula_units_Z 14
_cell_length_a 8.303315
_cell_length_b 8.657044
_cell_length_c 15.441970
_cell_angle_alpha 140.842941
_cell_angle_beta 59.316197
_cell_angle_gamma 130.195035
_cell_volume 535.279058
_symmetry_space_group_name_H-M "P -1"
_symmetry_group_IT_number 2
_symmetry_cell_setting 'triclinic'
loop_
_space_group_symop_operation_xyz
x,y,z
-x,-y,-z
loop_
_atom_site_type_symbol
_atom_site_label
_atom_site_fract_x
_atom_site_fract_y
_atom_site_fract_z
Si Si1 0.794340 0.911619 0.957129
Si Si2 0.798497 0.696751 0.243351
Si Si3 0.455026 0.357800 0.859073
Si Si4 0.746514 0.210952 0.519186
Si Si5 0.019878 0.299767 0.638803
Si Si6 0.584843 0.147776 0.252455
Si Si7 0.327285 0.299907 0.279049
O O1 0.659595 0.582738 0.853585
O O2 0.798624 0.934736 0.861373
O O3 0.659272 0.037565 0.098631
O O4 0.000000 0.000000 0.000000
O O5 0.741154 0.630313 0.129950
O O6 0.960695 0.652019 0.241359
O O7 0.570889 0.503443 0.268449
O O8 0.843124 0.015225 0.372185
O O9 0.429293 0.055352 0.753895
O O10 0.500000 0.500000 0.000000
O O11 0.770187 0.489128 0.588913
O O12 0.837049 0.287086 0.623628
O O13 0.500000 0.000000 0.500000
O O14 0.230160 0.547982 0.649836
O O15 0.000000 0.000000 0.500000
O O16 0.373426 0.164646 0.292285
#
# Coordination Sequence:
#
# PCOD9082323 Si02
#       7
#     2   2   2   2   2   2   2
#     4  10  19  33  55  78 102 140 185 225 267 319
#     4   8  16  31  52  75 102 141 183 220 262 315
#     4   9  19  35  54  80 112 143 176 223 276 318
#     4   9  16  29  51  77 106 136 177 226 262 307
#     4   9  17  31  53  80 102 136 184 221 258 318
#     4  10  19  33  54  78 108 142 177 223 270 317
#     4   9  17  30  50  76 103 140 181 218 263 320
#
# _framework density 26.154578999999998
#
# number of rings (size 3 to 8) (size 9 to 14) (size 15 to 20)
#    0.000    2.857    0.000    2.143    0.000    1.143 
#    0.000    4.286    0.000   18.857    0.000    0.000 
#    0.000    0.000    0.000    0.000    0.000    0.000 
#
# Total GULP energy -78073.770331 kJ/mol
# GULP energy per Si atom -5576.697881 kJ/mol
# Density = 2.609505 g / cm^3
# Si number density = 26.154579 Si / 1000 Ang^3
#
#
#
# Elastic Constant Matrix: (Units=GPa)
#
#
# Indices 1 2 3 4 5 6 
#
# 1 160.1872 39.0446 44.3477 6.9121 48.3864 -41.3197
# 2 39.0446 87.6039 17.0777 40.6738 19.6817 -10.3175
# 3 44.3477 17.0777 88.2931 10.4266 19.2660 -5.9451
# 4 6.9121 40.6738 10.4266 46.8574 -7.7647 7.9049
# 5 48.3864 19.6817 19.2660 -7.7647 63.3583 -5.7478
# 6 -41.3197 -10.3175 -5.9451 7.9049 -5.7478 44.0159
#
#
#
# Elastic Compliance Matrix: (Units=1/GPa)
#
#
# Indices 1 2 3 4 5 6 
#
# 1 0.012742 0.000458 -0.003308 -0.004860 -0.008429 0.011394
# 2 0.000458 0.028261 0.001022 -0.028627 -0.011971 0.010771
# 3 -0.003308 0.001022 0.013731 -0.003755 -0.002487 -0.000662
# 4 -0.004860 -0.028627 -0.003755 0.054046 0.018641 -0.019052
# 5 -0.008429 -0.011971 -0.002487 0.018641 0.028005 -0.010745
# 6 0.011394 0.010771 -0.000662 -0.019052 -0.010745 0.037869
#
#
# Mechanical properties :
#
#
# Convention : Reuss Voigt Hill
#
# Bulk Modulus (GPa) = 19.57828 59.66936 39.62382
# Shear Modulus (GPa) = 25.59695 46.55396 36.07545
#
# Velocity S-wave (km/s) = 3.13178 4.22353 3.71794
# Velocity P-wave (km/s) = 4.53644 6.82993 5.79772
#
# Compressibility (1/GPa) = 0.05107700
#
# Stress axis : x y z
#
# Youngs Moduli (GPa) = 78.48237 35.38469 72.82629
#
# Poissons Ratio (x) = -0.01621 0.24092
# Poissons Ratio (y) = -0.03596 -0.07439
# Poissons Ratio (z) = 0.25963 -0.03615
#
# Static dielectric constant tensor:
#      x y z
#    x 2.069890 -0.042090 -0.072890 
#    y -0.042090 2.344390 -0.009600 
#    z -0.072890 -0.009600 1.956640 
# 
# From -- ./inp_files/170852.got.cif
#   From: 2010.05.17/outbox.cif.g08.bks.cpg/sg2_86_cif.got.tgz:170852.got - 2010.06.03 11:33:40.
