data_PCOD9082562
_publ_section_title
;
Structure prediction by ZEFSAII (Michael W. Deem and Ramdas Pophale) SiO2 
 PCOD9082562
Probable space group: P -1
;
_chemical_formula_sum "Si O2"
_cell_formula_units_Z 16
_cell_length_a 9.458087
_cell_length_b 12.134160
_cell_length_c 9.843615
_cell_angle_alpha 64.456225
_cell_angle_beta 57.694276
_cell_angle_gamma 63.822666
_cell_volume 827.975628
_symmetry_space_group_name_H-M "P -1"
_symmetry_group_IT_number 2
_symmetry_cell_setting 'triclinic'
loop_
_space_group_symop_operation_xyz
x,y,z
-x,-y,-z
loop_
_atom_site_type_symbol
_atom_site_label
_atom_site_fract_x
_atom_site_fract_y
_atom_site_fract_z
Si Si1 0.858070 0.543226 0.365931
Si Si2 0.562109 0.829469 0.695565
Si Si3 0.684109 0.502932 0.220518
Si Si4 0.953722 0.235384 0.852184
Si Si5 0.241046 0.030675 0.675274
Si Si6 0.688180 0.448649 0.750969
Si Si7 0.745920 0.232699 0.236503
Si Si8 0.215194 0.395073 0.148362
O O1 0.703719 0.552957 0.332940
O O2 0.797864 0.513495 0.559955
O O3 0.925767 0.667916 0.258958
O O4 0.021749 0.429695 0.290365
O O5 0.689864 0.872677 0.503518
O O6 0.454884 0.741671 0.724349
O O7 0.671700 0.747951 0.803152
O O8 0.401089 0.956326 0.731691
O O9 0.492833 0.540950 0.233594
O O10 0.752353 0.349508 0.264256
O O11 0.791753 0.562737 0.025938
O O12 0.794872 0.302684 0.798878
O O13 0.072258 0.103605 0.804977
O O14 0.869365 0.229337 0.045126
O O15 0.213095 0.914084 0.660765
O O16 0.691939 0.514504 0.860718
#
# Coordination Sequence:
#
# PCOD9082562 Si02
#       8
#     2   2   2   2   2   2   2   2
#     4  11  24  34  54  86 120 148 170 232 293 330
#     4   9  18  33  56  84 104 141 184 238 263 313
#     4  12  22  37  55  86 118 145 180 226 291 334
#     4  11  20  34  58  82 113 141 190 228 270 325
#     4   9  19  34  54  87 107 140 189 235 267 311
#     4  11  20  35  55  83 111 147 187 228 270 326
#     4  10  19  33  56  82 107 146 179 233 263 326
#     4  11  19  36  60  82 111 142 194 228 270 327
#
# _framework density 19.324241000000001
#
# number of rings (size 3 to 8) (size 9 to 14) (size 15 to 20)
#    0.750    0.750    3.750    5.250    0.000    0.000 
#    0.000    0.000    0.000    5.250    0.000    0.000 
#    0.000    0.000    0.000    0.000    0.000    0.000 
#
# Total GULP energy -89177.991632 kJ/mol
# GULP energy per Si atom -5573.624477 kJ/mol
# Density = 1.928026 g / cm^3
# Si number density = 19.324241 Si / 1000 Ang^3
#
#
#
# Elastic Constant Matrix: (Units=GPa)
#
#
# Indices 1 2 3 4 5 6 
#
# 1 61.2861 14.9752 -4.9938 2.6658 1.1827 -7.2420
# 2 14.9752 64.0314 -2.0942 -6.6292 -0.1869 -15.7109
# 3 -4.9938 -2.0942 50.0763 -6.0319 -10.6787 3.9869
# 4 2.6658 -6.6292 -6.0319 16.8304 2.5470 0.4634
# 5 1.1827 -0.1869 -10.6787 2.5470 24.0477 1.6023
# 6 -7.2420 -15.7109 3.9869 0.4634 1.6023 22.2641
#
#
#
# Elastic Compliance Matrix: (Units=1/GPa)
#
#
# Indices 1 2 3 4 5 6 
#
# 1 0.017864 -0.003819 0.000818 -0.004077 -0.000318 0.003077
# 2 -0.003819 0.020650 0.000180 0.008646 -0.001368 0.013216
# 3 0.000818 0.000180 0.023381 0.006948 0.009918 -0.004652
# 4 -0.004077 0.008646 0.006948 0.066474 -0.003849 0.002424
# 5 -0.000318 -0.001368 0.009918 -0.003849 0.046810 -0.006133
# 6 0.003077 0.013216 -0.004652 0.002424 -0.006133 0.056466
#
#
# Mechanical properties :
#
#
# Convention : Reuss Voigt Hill
#
# Bulk Modulus (GPa) = 17.77692 21.24093 19.50893
# Shear Modulus (GPa) = 19.52838 23.79553 21.66196
#
# Velocity S-wave (km/s) = 3.18239 3.51291 3.35173
# Velocity P-wave (km/s) = 4.76683 5.24116 5.00962
#
# Compressibility (1/GPa) = 0.05625270
#
# Stress axis : x y z
#
# Youngs Moduli (GPa) = 55.97897 48.42543 42.76998
#
# Poissons Ratio (x) = 0.18495 -0.03498
# Poissons Ratio (y) = 0.21380 -0.00771
# Poissons Ratio (z) = -0.04578 -0.00873
#
# Static dielectric constant tensor:
#      x y z
#    x 1.706280 -0.021910 -0.039520 
#    y -0.021910 1.705330 -0.023840 
#    z -0.039520 -0.023840 1.668140 
# 
# From -- ./inp_files/176102.got.cif
#   From: 2010.05.17/outbox.cif.g08.bks.cpg/sg2_89_cif.got.tgz:176102.got - 2010.06.03 11:33:40.
