data_PCOD9082710
_publ_section_title
;
Structure prediction by ZEFSAII (Michael W. Deem and Ramdas Pophale) SiO2 
 PCOD9082710
Probable space group: P -1
;
_chemical_formula_sum "Si O2"
_cell_formula_units_Z 14
_cell_length_a 8.470400
_cell_length_b 9.384184
_cell_length_c 11.641478
_cell_angle_alpha 50.315785
_cell_angle_beta 80.204093
_cell_angle_gamma 106.766967
_cell_volume 597.836679
_symmetry_space_group_name_H-M "P -1"
_symmetry_group_IT_number 2
_symmetry_cell_setting 'triclinic'
loop_
_space_group_symop_operation_xyz
x,y,z
-x,-y,-z
loop_
_atom_site_type_symbol
_atom_site_label
_atom_site_fract_x
_atom_site_fract_y
_atom_site_fract_z
Si Si1 0.312646 0.861789 0.245330
Si Si2 0.225012 0.304193 0.149983
Si Si3 0.981263 0.191170 0.854876
Si Si4 0.707366 0.332596 0.407413
Si Si5 0.529920 0.279926 0.235437
Si Si6 0.127628 0.731918 0.800859
Si Si7 0.314089 0.702144 0.097262
O O1 0.123375 0.853049 0.232190
O O2 0.316277 0.783230 0.411187
O O3 0.322118 0.696560 0.237566
O O4 0.484934 0.099423 0.068966
O O5 0.331954 0.192307 0.244850
O O6 0.258829 0.482839 0.151853
O O7 0.003242 0.168096 0.222778
O O8 0.343706 0.462872 0.947155
O O9 0.841301 0.229020 0.933633
O O10 0.181016 0.411543 0.716052
O O11 0.000000 0.000000 0.000000
O O12 0.528680 0.259156 0.383753
O O13 0.839981 0.293529 0.324708
O O14 0.661449 0.188315 0.224418
O O15 0.000000 0.500000 0.000000
#
# Coordination Sequence:
#
# PCOD9082710 Si02
#       7
#     2   2   2   2   2   2   2
#     4   9  20  35  51  76 107 142 174 217 268 310
#     4  10  15  33  51  80 101 143 172 219 257 321
#     4  10  20  33  53  77 104 142 180 211 265 321
#     4  10  18  34  54  79 106 134 179 226 260 309
#     4   8  19  27  54  81 103 129 186 215 260 312
#     4   8  15  29  51  76 100 133 174 213 260 314
#     4   9  19  34  54  68 110 143 173 211 275 313
#
# _framework density 23.417766
#
# number of rings (size 3 to 8) (size 9 to 14) (size 15 to 20)
#    1.714    1.143    1.429    0.429    2.000    0.000 
#    0.000    5.000    0.000    0.000    0.000    5.000 
#    0.000    0.000    0.000    0.000    0.000    0.000 
#
# Total GULP energy -78027.980165 kJ/mol
# GULP energy per Si atom -5573.427155 kJ/mol
# Density = 2.336447 g / cm^3
# Si number density = 23.417766 Si / 1000 Ang^3
#
#
#
# Elastic Constant Matrix: (Units=GPa)
#
#
# Indices 1 2 3 4 5 6 
#
# 1 148.8239 26.8985 35.4357 4.2447 38.7282 6.7193
# 2 26.8985 67.5371 48.7474 11.6358 11.6961 -0.9026
# 3 35.4357 48.7474 135.9278 29.2472 26.1612 0.6404
# 4 4.2447 11.6358 29.2472 47.1055 6.7827 2.8187
# 5 38.7282 11.6961 26.1612 6.7827 25.9295 7.0777
# 6 6.7193 -0.9026 0.6404 2.8187 7.0777 32.6910
#
#
#
# Elastic Compliance Matrix: (Units=1/GPa)
#
#
# Indices 1 2 3 4 5 6 
#
# 1 0.011429 -0.002426 0.000981 0.001431 -0.017686 0.001270
# 2 -0.002426 0.020658 -0.006807 -0.000881 0.001122 0.001036
# 3 0.000981 -0.006807 0.012568 -0.004840 -0.010362 0.002025
# 4 0.001431 -0.000881 -0.004840 0.024841 -0.002880 -0.001742
# 5 -0.017686 0.001122 -0.010362 -0.002880 0.079243 -0.013039
# 6 0.001270 0.001036 0.002025 -0.001742 -0.013039 0.033290
#
#
# Mechanical properties :
#
#
# Convention : Reuss Voigt Hill
#
# Bulk Modulus (GPa) = 35.52461 63.82799 49.67630
# Shear Modulus (GPa) = 24.04798 37.22568 30.63683
#
# Velocity S-wave (km/s) = 3.20802 3.99135 3.62093
# Velocity P-wave (km/s) = 5.37817 6.96825 6.22420
#
# Compressibility (1/GPa) = 0.02814950
#
# Stress axis : x y z
#
# Youngs Moduli (GPa) = 87.50011 48.40814 79.56440
#
# Poissons Ratio (x) = 0.11746 -0.07803
# Poissons Ratio (y) = 0.21231 0.54159
# Poissons Ratio (z) = -0.08582 0.32951
#
# Static dielectric constant tensor:
#      x y z
#    x 1.961310 0.011640 0.018760 
#    y 0.011640 1.958300 0.043120 
#    z 0.018760 0.043120 1.868390 
# 
# From -- ./inp_files/501435.got.cif
#   From: 2010.05.17/outbox.cif.g08.bks.cpg/sg2_251_cif.got.tgz:501435.got - 2010.06.03 11:33:40.
