data_PCOD9082105
_publ_section_title
;
Structure prediction by ZEFSAII (Michael W. Deem and Ramdas Pophale) SiO2 
 PCOD9082105
Probable space group: P -1
;
_chemical_formula_sum "Si O2"
_cell_formula_units_Z 16
_cell_length_a 13.975032
_cell_length_b 8.409562
_cell_length_c 17.522398
_cell_angle_alpha 97.831094
_cell_angle_beta 20.630114
_cell_angle_gamma 93.474431
_cell_volume 705.462967
_symmetry_space_group_name_H-M "P -1"
_symmetry_group_IT_number 2
_symmetry_cell_setting 'triclinic'
loop_
_space_group_symop_operation_xyz
x,y,z
-x,-y,-z
loop_
_atom_site_type_symbol
_atom_site_label
_atom_site_fract_x
_atom_site_fract_y
_atom_site_fract_z
Si Si1 0.211962 0.700328 0.171311
Si Si2 0.728190 0.429478 0.714313
Si Si3 0.365295 0.785318 0.532245
Si Si4 0.606890 0.776137 0.123979
Si Si5 0.993440 0.184020 0.045656
Si Si6 0.956703 0.715519 0.135441
Si Si7 0.877889 0.498210 0.318789
Si Si8 0.147927 0.964404 0.121512
O O1 0.239360 0.675515 0.238983
O O2 0.940277 0.633667 0.340032
O O3 0.200056 0.880196 0.158729
O O4 0.477406 0.582628 0.926984
O O5 0.653846 0.309493 0.696100
O O6 0.000000 0.500000 0.500000
O O7 0.664823 0.818938 0.329830
O O8 0.364100 0.601122 0.491822
O O9 0.152705 0.916222 0.650959
O O10 0.219760 0.787212 0.723827
O O11 0.718066 0.798790 0.127288
O O12 0.621990 0.940028 0.076377
O O13 0.849262 0.644712 0.893684
O O14 0.900300 0.311579 0.055193
O O15 0.000000 0.000000 0.000000
O O16 0.881982 0.576314 0.236476
O O17 0.120980 0.820404 0.072532
#
# Coordination Sequence:
#
# PCOD9082105 Si02
#       8
#     2   2   2   2   2   2   2   2
#     4   9  19  38  60  76 109 143 173 226 289 318
#     4  10  21  39  61  81 104 137 184 233 274 328
#     4  10  20  32  51  81 115 141 189 219 256 324
#     4   9  19  36  55  81 113 142 186 226 268 331
#     4  10  19  33  51  75 110 150 176 214 274 310
#     4  11  18  32  55  76 113 149 182 222 260 314
#     4   8  18  34  52  81 110 144 182 222 265 323
#     4   9  18  34  54  79 110 145 177 219 272 326
#
# _framework density 22.680143000000001
#
# number of rings (size 3 to 8) (size 9 to 14) (size 15 to 20)
#    0.000    2.750    2.500    0.750    0.000    3.500 
#    0.000   10.625    0.000    0.000    0.000    0.000 
#    0.000    0.000    0.000    0.000    0.000    0.000 
#
# Total GULP energy -89271.270846 kJ/mol
# GULP energy per Si atom -5579.454428 kJ/mol
# Density = 2.262852 g / cm^3
# Si number density = 22.680143 Si / 1000 Ang^3
#
#
#
# Elastic Constant Matrix: (Units=GPa)
#
#
# Indices 1 2 3 4 5 6 
#
# 1 76.8747 38.8286 17.8283 -7.6635 -11.9909 -9.8561
# 2 38.8286 103.0611 20.3506 -24.8048 -7.9687 -20.8869
# 3 17.8283 20.3506 60.6024 -20.7940 -14.6922 4.3138
# 4 -7.6635 -24.8048 -20.7940 31.6628 9.7836 -10.2369
# 5 -11.9909 -7.9687 -14.6922 9.7836 15.6353 -7.6462
# 6 -9.8561 -20.8869 4.3138 -10.2369 -7.6462 47.1685
#
#
#
# Elastic Compliance Matrix: (Units=1/GPa)
#
#
# Indices 1 2 3 4 5 6 
#
# 1 0.018560 -0.006339 -0.002013 -0.005223 0.013510 0.002312
# 2 -0.006339 0.017863 0.000614 0.016230 -0.000456 0.009978
# 3 -0.002013 0.000614 0.024698 0.012279 0.015662 0.002796
# 4 -0.005223 0.016230 0.012279 0.060663 -0.014428 0.015799
# 5 0.013510 -0.000456 0.015662 -0.014428 0.105224 0.015115
# 6 0.002312 0.009978 0.002796 0.015799 0.015115 0.031725
#
#
# Mechanical properties :
#
#
# Convention : Reuss Voigt Hill
#
# Bulk Modulus (GPa) = 21.90753 43.83924 32.87338
# Shear Modulus (GPa) = 17.27578 29.79537 23.53557
#
# Velocity S-wave (km/s) = 2.76291 3.62846 3.22486
# Velocity P-wave (km/s) = 4.45629 6.07664 5.32842
#
# Compressibility (1/GPa) = 0.04564641
#
# Stress axis : x y z
#
# Youngs Moduli (GPa) = 53.88005 55.98174 40.48945
#
# Poissons Ratio (x) = 0.35486 0.08149
# Poissons Ratio (y) = 0.34154 -0.02487
# Poissons Ratio (z) = 0.10843 -0.03439
#
# Static dielectric constant tensor:
#      x y z
#    x 1.869060 0.004720 0.010640 
#    y 0.004720 1.880290 -0.035700 
#    z 0.010640 -0.035700 1.958580 
# 
# From -- ./inp_files/596989.got.cif
#   From: 2010.05.17/outbox.cif.g08.bks.cpg/sg2_299_cif.got.tgz:596989.got - 2010.06.03 11:33:40.
