data_PCOD9082999
_publ_section_title
;
Structure prediction by ZEFSAII (Michael W. Deem and Ramdas Pophale) SiO2 
 PCOD9082999
Probable space group: P -1
;
_chemical_formula_sum "Si O2"
_cell_formula_units_Z 14
_cell_length_a 12.494558
_cell_length_b 9.830032
_cell_length_c 7.558658
_cell_angle_alpha 129.525459
_cell_angle_beta 96.351449
_cell_angle_gamma 52.733425
_cell_volume 509.618249
_symmetry_space_group_name_H-M "P -1"
_symmetry_group_IT_number 2
_symmetry_cell_setting 'triclinic'
loop_
_space_group_symop_operation_xyz
x,y,z
-x,-y,-z
loop_
_atom_site_type_symbol
_atom_site_label
_atom_site_fract_x
_atom_site_fract_y
_atom_site_fract_z
Si Si1 0.539526 0.744719 0.880986
Si Si2 0.371756 0.680096 0.269014
Si Si3 0.407576 0.326316 0.560115
Si Si4 0.803182 0.846251 0.798975
Si Si5 0.779924 0.485107 0.988806
Si Si6 0.959601 0.339235 0.595347
Si Si7 0.151213 0.853188 0.794290
O O1 0.443122 0.210451 0.277463
O O2 0.372737 0.945124 0.087467
O O3 0.587700 0.482212 0.684552
O O4 0.656243 0.691717 0.996062
O O5 0.428111 0.810054 0.443478
O O6 0.235593 0.714427 0.192097
O O7 0.500000 0.500000 0.000000
O O8 0.296619 0.616226 0.727710
O O9 0.292113 0.371589 0.719209
O O10 0.865642 0.592004 0.675068
O O11 0.881281 0.814464 0.601218
O O12 0.835742 0.952231 0.048052
O O13 0.933827 0.374780 0.832662
O O14 0.887613 0.232244 0.443764
O O15 0.000000 0.000000 0.000000
#
# Coordination Sequence:
#
# PCOD9082999 Si02
#       7
#     2   2   2   2   2   2   2
#     4  10  19  33  60  88 117 160 198 245 307 356
#     4   8  16  29  52  85 118 147 188 244 293 346
#     4  11  18  34  60  91 125 153 196 258 297 350
#     4  10  22  36  65  86 119 164 200 243 312 352
#     4   9  20  34  60  87 122 155 200 249 300 352
#     4  10  21  41  59  87 123 159 201 254 290 361
#     4  10  19  36  63  88 114 160 204 234 300 364
#
# _framework density 27.471547000000001
#
# number of rings (size 3 to 8) (size 9 to 14) (size 15 to 20)
#    0.857    1.429    2.857    0.429    2.000    0.571 
#    0.000    3.571    9.429    4.286    0.000    0.000 
#    0.000    0.000    0.000    0.000    0.000    0.000 
#
# Total GULP energy -77993.907759 kJ/mol
# GULP energy per Si atom -5570.993411 kJ/mol
# Density = 2.740902 g / cm^3
# Si number density = 27.471547 Si / 1000 Ang^3
#
#
#
# Elastic Constant Matrix: (Units=GPa)
#
#
# Indices 1 2 3 4 5 6 
#
# 1 135.2672 13.5955 60.4389 -10.3395 -33.1202 16.2568
# 2 13.5955 64.0391 40.3736 -22.1569 -21.9540 8.3483
# 3 60.4389 40.3736 107.1606 -27.5512 -38.7558 14.8781
# 4 -10.3395 -22.1569 -27.5512 47.1902 13.0968 -18.4835
# 5 -33.1202 -21.9540 -38.7558 13.0968 55.1019 -18.0695
# 6 16.2568 8.3483 14.8781 -18.4835 -18.0695 38.6027
#
#
#
# Elastic Compliance Matrix: (Units=1/GPa)
#
#
# Indices 1 2 3 4 5 6 
#
# 1 0.010644 0.002108 -0.005955 -0.001784 0.002748 -0.002211
# 2 0.002108 0.023172 -0.006668 0.006994 0.004907 0.002317
# 3 -0.005955 -0.006668 0.018588 0.005618 0.006297 0.002424
# 4 -0.001784 0.006994 0.005618 0.031978 0.002513 0.013561
# 5 0.002748 0.004907 0.006297 0.002513 0.028893 0.010082
# 6 -0.002211 0.002317 0.002424 0.013561 0.010082 0.036613
#
#
# Mechanical properties :
#
#
# Convention : Reuss Voigt Hill
#
# Bulk Modulus (GPa) = 31.87384 59.47585 45.67485
# Shear Modulus (GPa) = 27.56693 40.98291 34.27492
#
# Velocity S-wave (km/s) = 3.17120 3.86661 3.53604
# Velocity P-wave (km/s) = 5.00363 6.45223 5.77354
#
# Compressibility (1/GPa) = 0.03137369
#
# Stress axis : x y z
#
# Youngs Moduli (GPa) = 93.94992 43.15593 53.79772
#
# Poissons Ratio (x) = -0.09097 0.32037
# Poissons Ratio (y) = -0.19804 0.35872
# Poissons Ratio (z) = 0.55949 0.28776
#
# Static dielectric constant tensor:
#      x y z
#    x 2.283640 -0.025770 0.059880 
#    y -0.025770 2.215460 -0.051430 
#    z 0.059880 -0.051430 2.415790 
# 
# From -- ./inp_files/304372.got.cif
#   From: 2010.05.17/outbox.cif.g08.bks.cpg/sg2_153_cif.got.tgz:304372.got - 2010.06.03 11:33:40.
