data_PCOD9082832
_publ_section_title
;
Structure prediction by ZEFSAII (Michael W. Deem and Ramdas Pophale) SiO2 
 PCOD9082832
Probable space group: P -1
;
_chemical_formula_sum "Si O2"
_cell_formula_units_Z 16
_cell_length_a 13.922588
_cell_length_b 6.712913
_cell_length_c 11.766916
_cell_angle_alpha 45.434737
_cell_angle_beta 123.360230
_cell_angle_gamma 119.731782
_cell_volume 643.126181
_symmetry_space_group_name_H-M "P -1"
_symmetry_group_IT_number 2
_symmetry_cell_setting 'triclinic'
loop_
_space_group_symop_operation_xyz
x,y,z
-x,-y,-z
loop_
_atom_site_type_symbol
_atom_site_label
_atom_site_fract_x
_atom_site_fract_y
_atom_site_fract_z
Si Si1 0.696907 0.111434 0.309653
Si Si2 0.630036 0.671004 0.992812
Si Si3 0.545227 0.126205 0.632896
Si Si4 0.835586 0.965381 0.660760
Si Si5 0.312684 0.907910 0.930546
Si Si6 0.941652 0.554491 0.562284
Si Si7 0.056380 0.814161 0.758944
Si Si8 0.403868 0.457231 0.287063
O O1 0.669301 0.949796 0.238044
O O2 0.583444 0.025861 0.347473
O O3 0.804017 0.052672 0.476512
O O4 0.712160 0.437120 0.147403
O O5 0.622796 0.883109 0.797303
O O6 0.500000 0.500000 0.000000
O O7 0.664866 0.871480 0.042519
O O8 0.512750 0.290666 0.433967
O O9 0.591478 0.364642 0.662468
O O10 0.722350 0.744732 0.711775
O O11 0.952896 0.834088 0.773412
O O12 0.852074 0.253445 0.631222
O O13 0.176980 0.753876 0.911652
O O14 0.400551 0.687309 0.094574
O O15 0.000000 0.500000 0.500000
O O16 0.010196 0.610435 0.704205
O O17 0.906590 0.859733 0.394321
#
# Coordination Sequence:
#
# PCOD9082832 Si02
#       8
#     2   2   2   2   2   2   2   2
#     4  10  19  33  58  85 105 136 183 228 267 312
#     4   9  19  34  55  81 106 134 175 223 269 314
#     4   8  17  36  56  76 107 141 176 220 273 327
#     4  10  20  36  56  78 111 149 179 215 266 321
#     4  11  21  34  55  83 111 140 179 225 266 313
#     4   9  17  32  54  78 105 139 179 224 264 304
#     4  10  20  33  53  82 110 141 183 222 262 313
#     4   9  19  35  54  77 109 146 176 215 273 325
#
# _framework density 24.878478999999999
#
# number of rings (size 3 to 8) (size 9 to 14) (size 15 to 20)
#    0.000    2.500    0.000    3.000    0.000    6.000 
#    0.000    3.750    0.000    6.000    0.000    0.000 
#    0.000    0.000    0.000    0.000    0.000    0.000 
#
# Total GULP energy -89357.682898 kJ/mol
# GULP energy per Si atom -5584.855181 kJ/mol
# Density = 2.482185 g / cm^3
# Si number density = 24.878479 Si / 1000 Ang^3
#
#
#
# Elastic Constant Matrix: (Units=GPa)
#
#
# Indices 1 2 3 4 5 6 
#
# 1 66.9507 27.8385 18.0442 2.8820 5.0933 -8.8804
# 2 27.8385 141.1159 36.7113 7.5292 4.0989 7.1443
# 3 18.0442 36.7113 108.9261 14.9751 10.0382 -4.9441
# 4 2.8820 7.5292 14.9751 36.4236 -4.4220 -3.4518
# 5 5.0933 4.0989 10.0382 -4.4220 24.5722 1.7377
# 6 -8.8804 7.1443 -4.9441 -3.4518 1.7377 26.0473
#
#
#
# Elastic Compliance Matrix: (Units=1/GPa)
#
#
# Indices 1 2 3 4 5 6 
#
# 1 0.017875 -0.003487 -0.001190 0.000085 -0.003120 0.007044
# 2 -0.003487 0.008656 -0.002451 -0.000850 0.000422 -0.004169
# 3 -0.001190 -0.002451 0.011373 -0.004471 -0.004948 0.002163
# 4 0.000085 -0.000850 -0.004471 0.030625 0.007250 0.002988
# 5 -0.003120 0.000422 -0.004948 0.007250 0.044892 -0.004153
# 6 0.007044 -0.004169 0.002163 0.002988 -0.004153 0.043020
#
#
# Mechanical properties :
#
#
# Convention : Reuss Voigt Hill
#
# Bulk Modulus (GPa) = 42.28869 53.57564 47.93217
# Shear Modulus (GPa) = 27.99851 33.03519 30.51685
#
# Velocity S-wave (km/s) = 3.35835 3.64794 3.50614
# Velocity P-wave (km/s) = 5.66331 6.27096 5.97486
#
# Compressibility (1/GPa) = 0.02364698
#
# Stress axis : x y z
#
# Youngs Moduli (GPa) = 55.94334 115.52576 87.93136
#
# Poissons Ratio (x) = 0.40286 0.10465
# Poissons Ratio (y) = 0.19509 0.21552
# Poissons Ratio (z) = 0.06658 0.28316
#
# Static dielectric constant tensor:
#      x y z
#    x 1.976450 -0.025200 -0.029310 
#    y -0.025200 2.036620 -0.014070 
#    z -0.029310 -0.014070 2.063620 
# 
# From -- ./inp_files/459405.got.cif
#   From: 2010.05.17/outbox.cif.g08.bks.cpg/sg2_230_cif.got.tgz:459405.got - 2010.06.03 11:33:40.
