data_PCOD9082948
_publ_section_title
;
Structure prediction by ZEFSAII (Michael W. Deem and Ramdas Pophale) SiO2 
 PCOD9082948
Probable space group: P -1
;
_chemical_formula_sum "Si O2"
_cell_formula_units_Z 16
_cell_length_a 7.988710
_cell_length_b 10.851127
_cell_length_c 13.493941
_cell_angle_alpha 52.557525
_cell_angle_beta 94.452641
_cell_angle_gamma 120.867165
_cell_volume 748.601769
_symmetry_space_group_name_H-M "P -1"
_symmetry_group_IT_number 2
_symmetry_cell_setting 'triclinic'
loop_
_space_group_symop_operation_xyz
x,y,z
-x,-y,-z
loop_
_atom_site_type_symbol
_atom_site_label
_atom_site_fract_x
_atom_site_fract_y
_atom_site_fract_z
Si Si1 0.438166 0.859491 0.662171
Si Si2 0.153715 0.449578 0.757626
Si Si3 0.861024 0.531978 0.589955
Si Si4 0.515687 0.794430 0.185278
Si Si5 0.779974 0.061743 0.905114
Si Si6 0.578390 0.414569 0.469751
Si Si7 0.120920 0.961184 0.306068
Si Si8 0.238188 0.018736 0.691172
O O1 0.306609 0.634435 0.740342
O O2 0.500000 0.000000 0.500000
O O3 0.653411 0.931684 0.688453
O O4 0.294059 0.881076 0.719906
O O5 0.297553 0.449043 0.681806
O O6 0.019850 0.505688 0.663868
O O7 0.980919 0.234559 0.890310
O O8 0.663080 0.433801 0.702670
O O9 0.743579 0.403681 0.548464
O O10 0.976325 0.747568 0.451991
O O11 0.377516 0.877915 0.141147
O O12 0.665233 0.891901 0.239802
O O13 0.653677 0.868360 0.057295
O O14 0.853796 0.051214 0.804741
O O15 0.500000 0.500000 0.500000
O O16 0.381808 0.205221 0.535508
O O17 0.996937 0.051231 0.282035
#
# Coordination Sequence:
#
# PCOD9082948 Si02
#       8
#     2   2   2   2   2   2   2   2
#     4  12  24  39  58  91 133 166 203 251 302 372
#     4  11  21  36  59  83 123 162 201 248 304 361
#     4  10  19  33  59  91 117 157 195 255 310 355
#     4   9  21  36  64  93 125 152 210 259 307 372
#     4  10  20  40  65  94 117 162 209 257 312 361
#     4  11  18  31  54  91 116 144 194 256 300 349
#     4  12  22  38  67  92 125 161 203 256 313 362
#     4  11  22  38  60  90 129 161 202 252 314 361
#
# _framework density 21.373180000000001
#
# number of rings (size 3 to 8) (size 9 to 14) (size 15 to 20)
#    0.000    1.250    6.250    0.375    1.750    1.000 
#    2.250    0.625    0.000    0.750    0.000    0.000 
#    0.000    0.000    0.000    0.000    0.000    0.000 
#
# Total GULP energy -89271.715262 kJ/mol
# GULP energy per Si atom -5579.482204 kJ/mol
# Density = 2.132453 g / cm^3
# Si number density = 21.373180 Si / 1000 Ang^3
#
#
#
# Elastic Constant Matrix: (Units=GPa)
#
#
# Indices 1 2 3 4 5 6 
#
# 1 126.3158 52.2238 27.1370 0.6711 -27.2540 10.8519
# 2 52.2238 98.7663 39.0382 -9.5663 -22.4943 5.1045
# 3 27.1370 39.0382 126.3163 -13.8347 -28.7540 7.2849
# 4 0.6711 -9.5663 -13.8347 18.0947 6.3578 -2.3553
# 5 -27.2540 -22.4943 -28.7540 6.3578 23.3603 0.8580
# 6 10.8519 5.1045 7.2849 -2.3553 0.8580 21.7121
#
#
#
# Elastic Compliance Matrix: (Units=1/GPa)
#
#
# Indices 1 2 3 4 5 6 
#
# 1 0.013667 -0.004625 0.001710 -0.008344 0.016157 -0.007861
# 2 -0.004625 0.015036 -0.001863 0.004718 0.005516 -0.000304
# 3 0.001710 -0.001863 0.011944 0.002399 0.014424 -0.004734
# 4 -0.008344 0.004718 0.002399 0.068778 -0.021345 0.010560
# 5 0.016157 0.005516 0.014424 -0.021345 0.091272 -0.020134
# 6 -0.007861 -0.000304 -0.004734 0.010560 -0.020134 0.053587
#
#
# Mechanical properties :
#
#
# Convention : Reuss Voigt Hill
#
# Bulk Modulus (GPa) = 32.16269 65.35514 48.75891
# Shear Modulus (GPa) = 18.23462 28.16673 23.20067
#
# Velocity S-wave (km/s) = 2.92405 3.63416 3.29827
# Velocity P-wave (km/s) = 5.14596 6.94651 6.11289
#
# Compressibility (1/GPa) = 0.03109193
#
# Stress axis : x y z
#
# Youngs Moduli (GPa) = 73.16937 66.50739 83.72184
#
# Poissons Ratio (x) = 0.30759 -0.14320
# Poissons Ratio (y) = 0.33840 0.15600
# Poissons Ratio (z) = -0.12515 0.12392
#
# Static dielectric constant tensor:
#      x y z
#    x 1.871860 0.006590 0.022130 
#    y 0.006590 1.766800 0.003620 
#    z 0.022130 0.003620 1.839270 
# 
# From -- ./inp_files/498966.got.cif
#   From: 2010.05.17/outbox.cif.g08.bks.cpg/sg2_250_cif.got.tgz:498966.got - 2010.06.03 11:33:40.
