data_PCOD9082138
_publ_section_title
;
Structure prediction by ZEFSAII (Michael W. Deem and Ramdas Pophale) SiO2 
 PCOD9082138
Probable space group: P -1
;
_chemical_formula_sum "Si O2"
_cell_formula_units_Z 16
_cell_length_a 8.678344
_cell_length_b 6.421665
_cell_length_c 17.619980
_cell_angle_alpha 76.353134
_cell_angle_beta 70.758819
_cell_angle_gamma 126.627794
_cell_volume 610.872456
_symmetry_space_group_name_H-M "P -1"
_symmetry_group_IT_number 2
_symmetry_cell_setting 'triclinic'
loop_
_space_group_symop_operation_xyz
x,y,z
-x,-y,-z
loop_
_atom_site_type_symbol
_atom_site_label
_atom_site_fract_x
_atom_site_fract_y
_atom_site_fract_z
Si Si1 0.484218 0.203477 0.527534
Si Si2 0.227188 0.076600 0.364509
Si Si3 0.146350 0.455375 0.425277
Si Si4 0.150360 0.140354 0.668365
Si Si5 0.350528 0.638145 0.074025
Si Si6 0.618430 0.180028 0.788974
Si Si7 0.320355 0.463609 0.936494
Si Si8 0.720256 0.735005 0.195382
O O1 0.644955 0.349079 0.563465
O O2 0.219226 0.001114 0.618200
O O3 0.611686 0.492355 0.424701
O O4 0.500000 0.000000 0.500000
O O5 0.172594 0.248315 0.400367
O O6 0.509266 0.357441 0.280985
O O7 0.104635 0.789594 0.466378
O O8 0.077196 0.964348 0.321448
O O9 0.219212 0.678083 0.324805
O O10 0.134579 0.105152 0.763767
O O11 0.243392 0.598000 0.177257
O O12 0.523438 0.599783 0.065209
O O13 0.207051 0.435151 0.037613
O O14 0.500000 0.000000 0.000000
O O15 0.414850 0.167896 0.806654
O O16 0.491222 0.831898 0.857347
O O17 0.175913 0.261608 0.900380
#
# Coordination Sequence:
#
# PCOD9082138 Si02
#       8
#     2   2   2   2   2   2   2   2
#     4  10  20  33  49  71  99 134 183 226 257 304
#     4   9  18  34  51  71 108 143 187 221 253 306
#     4   9  17  32  48  70 105 138 178 222 252 302
#     4  10  20  34  53  69  99 148 178 220 277 294
#     4   8  15  29  48  78 108 129 169 217 262 322
#     4   9  16  29  48  74 105 132 175 221 258 316
#     4   9  17  28  51  78 104 139 166 213 276 311
#     4  10  19  33  52  75 106 140 181 221 255 314
#
# _framework density 26.192046999999999
#
# number of rings (size 3 to 8) (size 9 to 14) (size 15 to 20)
#    0.000    2.750    2.500    0.000    3.500    0.000 
#    0.000    6.250    0.000    0.000    0.000   21.875 
#    0.000   91.000    0.000    0.000    0.000    0.000 
#
# Total GULP energy -89446.235094 kJ/mol
# GULP energy per Si atom -5590.389693 kJ/mol
# Density = 2.613243 g / cm^3
# Si number density = 26.192047 Si / 1000 Ang^3
#
#
#
# Elastic Constant Matrix: (Units=GPa)
#
#
# Indices 1 2 3 4 5 6 
#
# 1 60.7256 47.3651 40.8624 12.4297 14.6742 -8.7966
# 2 47.3651 109.4214 73.6374 17.4092 24.3172 -16.9857
# 3 40.8624 73.6374 254.5810 27.7868 -0.1195 0.5288
# 4 12.4297 17.4092 27.7868 81.1924 7.5231 13.5609
# 5 14.6742 24.3172 -0.1195 7.5231 37.2711 -0.6271
# 6 -8.7966 -16.9857 0.5288 13.5609 -0.6271 30.6670
#
#
#
# Elastic Compliance Matrix: (Units=1/GPa)
#
#
# Indices 1 2 3 4 5 6 
#
# 1 0.026006 -0.008407 -0.001551 -0.001841 -0.004328 0.003555
# 2 -0.008407 0.019090 -0.003959 -0.002162 -0.008570 0.009011
# 3 -0.001551 -0.003959 0.005402 -0.000674 0.003307 -0.002365
# 4 -0.001841 -0.002162 -0.000674 0.014764 -0.000986 -0.008263
# 5 -0.004328 -0.008570 0.003307 -0.000986 0.034252 -0.004909
# 6 0.003555 0.009011 -0.002365 -0.008263 -0.004909 0.042213
#
#
# Mechanical properties :
#
#
# Convention : Reuss Voigt Hill
#
# Bulk Modulus (GPa) = 44.12297 83.16197 63.64247
# Shear Modulus (GPa) = 28.23013 47.35032 37.79022
#
# Velocity S-wave (km/s) = 3.28657 4.25645 3.80256
# Velocity P-wave (km/s) = 5.59326 7.48173 6.60533
#
# Compressibility (1/GPa) = 0.02266393
#
# Stress axis : x y z
#
# Youngs Moduli (GPa) = 38.45272 52.38446 185.11212
#
# Poissons Ratio (x) = 0.44039 0.28711
# Poissons Ratio (y) = 0.32327 0.73286
# Poissons Ratio (z) = 0.05964 0.20739
#
# Static dielectric constant tensor:
#      x y z
#    x 2.021470 -0.039590 -0.033680 
#    y -0.039590 2.244780 -0.018300 
#    z -0.033680 -0.018300 2.106010 
# 
# From -- ./inp_files/552582.got.cif
#   From: 2010.05.17/outbox.cif.g08.bks.cpg/sg2_277_cif.got.tgz:552582.got - 2010.06.03 11:33:40.
