data_PCOD9082566
_publ_section_title
;
Structure prediction by ZEFSAII (Michael W. Deem and Ramdas Pophale) SiO2 
 PCOD9082566
Probable space group: P -1
;
_chemical_formula_sum "Si O2"
_cell_formula_units_Z 16
_cell_length_a 19.389750
_cell_length_b 10.942604
_cell_length_c 8.055200
_cell_angle_alpha 107.913926
_cell_angle_beta 96.312814
_cell_angle_gamma 148.215211
_cell_volume 575.147929
_symmetry_space_group_name_H-M "P -1"
_symmetry_group_IT_number 2
_symmetry_cell_setting 'triclinic'
loop_
_space_group_symop_operation_xyz
x,y,z
-x,-y,-z
loop_
_atom_site_type_symbol
_atom_site_label
_atom_site_fract_x
_atom_site_fract_y
_atom_site_fract_z
Si Si1 0.570809 0.049523 0.872565
Si Si2 0.339350 0.075595 0.402103
Si Si3 0.781824 0.900508 0.770330
Si Si4 0.992476 0.898651 0.294034
Si Si5 0.824516 0.827242 0.063502
Si Si6 0.400730 0.961379 0.586668
Si Si7 0.203723 0.986932 0.647792
Si Si8 0.746961 0.151062 0.171100
O O1 0.610070 0.972127 0.915224
O O2 0.786261 0.472909 0.072432
O O3 0.437913 0.875946 0.613254
O O4 0.500000 0.000000 0.000000
O O5 0.558238 0.476345 0.565980
O O6 0.201354 0.918063 0.176479
O O7 0.300754 0.862125 0.361278
O O8 0.321853 0.132146 0.587968
O O9 0.854749 0.943951 0.651719
O O10 0.884542 0.023514 0.012057
O O11 0.985686 0.996837 0.194015
O O12 0.000000 0.000000 0.500000
O O13 0.794860 0.863663 0.233865
O O14 0.617527 0.397730 0.814244
O O15 0.296674 0.839419 0.671358
O O16 0.280681 0.040813 0.851681
O O17 0.977061 0.564088 0.373265
#
# Coordination Sequence:
#
# PCOD9082566 Si02
#       8
#     2   2   2   2   2   2   2   2
#     4   9  17  32  52  78 107 136 175 220 266 312
#     4   9  18  33  50  75 108 143 172 209 265 316
#     4  10  20  33  52  79 113 142 170 220 274 316
#     4  11  21  35  58  83 107 138 179 223 267 320
#     4  10  20  34  54  84 111 136 177 225 267 310
#     4   8  17  30  50  75 105 141 175 217 264 311
#     4  10  19  33  56  82 109 142 180 218 261 317
#     4   9  17  30  52  79 108 142 178 216 260 315
#
# _framework density 27.818926000000001
#
# number of rings (size 3 to 8) (size 9 to 14) (size 15 to 20)
#    0.000    2.500    0.000    2.625    0.000    4.500 
#    0.000    6.250    0.000   18.000    0.000   34.125 
#    0.000    0.000    0.000    0.000    0.000    0.000 
#
# Total GULP energy -89552.890031 kJ/mol
# GULP energy per Si atom -5597.055627 kJ/mol
# Density = 2.775561 g / cm^3
# Si number density = 27.818926 Si / 1000 Ang^3
#
#
#
# Elastic Constant Matrix: (Units=GPa)
#
#
# Indices 1 2 3 4 5 6 
#
# 1 212.1359 56.5544 44.8857 -15.8239 33.2399 3.8986
# 2 56.5544 139.0275 49.9811 -6.6661 17.7873 8.6078
# 3 44.8857 49.9811 67.6701 -14.6600 1.0120 -9.5849
# 4 -15.8239 -6.6661 -14.6600 47.2987 -13.1229 20.3089
# 5 33.2399 17.7873 1.0120 -13.1229 60.1417 -21.7498
# 6 3.8986 8.6078 -9.5849 20.3089 -21.7498 39.0805
#
#
#
# Elastic Compliance Matrix: (Units=1/GPa)
#
#
# Indices 1 2 3 4 5 6 
#
# 1 0.006839 0.000198 -0.005060 0.001776 -0.005522 -0.005963
# 2 0.000198 0.012309 -0.010292 0.000778 -0.006828 -0.009459
# 3 -0.005060 -0.010292 0.028164 0.002395 0.011192 0.014663
# 4 0.001776 0.000778 0.002395 0.028926 -0.000363 -0.014996
# 5 -0.005522 -0.006828 0.011192 -0.000363 0.029090 0.021178
# 6 -0.005963 -0.009459 0.014663 -0.014996 0.021178 0.051442
#
#
# Mechanical properties :
#
#
# Convention : Reuss Voigt Hill
#
# Bulk Modulus (GPa) = 58.80870 80.18620 69.49745
# Shear Modulus (GPa) = 25.94099 47.13168 36.53633
#
# Velocity S-wave (km/s) = 3.05699 4.12057 3.62797
# Velocity P-wave (km/s) = 5.80051 7.17814 6.52578
#
# Compressibility (1/GPa) = 0.01700429
#
# Stress axis : x y z
#
# Youngs Moduli (GPa) = 146.21600 81.24328 35.50695
#
# Poissons Ratio (x) = -0.01608 0.17966
# Poissons Ratio (y) = -0.02893 0.36542
# Poissons Ratio (z) = 0.73984 0.83612
#
# Static dielectric constant tensor:
#      x y z
#    x 2.174200 -0.039520 0.088190 
#    y -0.039520 2.149420 -0.142890 
#    z 0.088190 -0.142890 2.205020 
# 
# From -- ./inp_files/345394.got.cif
#   From: 2010.05.17/outbox.cif.g08.bks.cpg/sg2_173_cif.got.tgz:345394.got - 2010.06.03 11:33:40.
