data_PCOD9082006
_publ_section_title
;
Structure prediction by ZEFSAII (Michael W. Deem and Ramdas Pophale) SiO2 
 PCOD9082006
Probable space group: P -1
;
_chemical_formula_sum "Si O2"
_cell_formula_units_Z 11
_cell_length_a 7.914384
_cell_length_b 8.613758
_cell_length_c 11.507532
_cell_angle_alpha 110.810959
_cell_angle_beta 140.063947
_cell_angle_gamma 54.455136
_cell_volume 403.562597
_symmetry_space_group_name_H-M "P -1"
_symmetry_group_IT_number 2
_symmetry_cell_setting 'triclinic'
loop_
_space_group_symop_operation_xyz
x,y,z
-x,-y,-z
loop_
_atom_site_type_symbol
_atom_site_label
_atom_site_fract_x
_atom_site_fract_y
_atom_site_fract_z
Si Si1 0.727238 0.655472 0.266464
Si Si2 0.901650 0.175672 0.582553
Si Si3 0.500000 0.000000 0.000000
Si Si4 0.133660 0.747533 0.843989
Si Si5 0.960947 0.697872 0.994411
Si Si6 0.395279 0.818363 0.365588
O O1 0.025560 0.664438 0.387734
O O2 0.779650 0.439551 0.237569
O O3 0.636272 0.761998 0.371450
O O4 0.443717 0.756885 0.044393
O O5 0.588230 0.233856 0.502476
O O6 0.000000 0.000000 0.500000
O O7 0.156972 0.088716 0.794296
O O8 0.640353 0.865197 0.918038
O O9 0.842857 0.949376 0.704516
O O10 0.021061 0.707704 0.894278
O O11 0.240194 0.706895 0.199510
O O12 0.000000 0.500000 0.000000
#
# Coordination Sequence:
#
# PCOD9082006 Si02
#       6
#     2   2   1   2   2   2
#     4  10  20  37  59  87 125 159 198 257 305 355
#     4  11  23  40  65  94 123 163 211 252 306 374
#     4  10  20  38  62  86 122 160 194 252 306 346
#     4  10  19  34  60  91 120 161 209 248 305 371
#     4  10  19  32  59  95 124 160 210 252 303 374
#     4  10  21  36  57  86 120 160 204 250 305 364
#
# _framework density 27.257234
#
# number of rings (size 3 to 8) (size 9 to 14) (size 15 to 20)
#    0.000    1.818    0.000    7.636    0.000    6.545 
#    0.000    2.727    0.000   22.909    0.000    0.000 
#    0.000    0.000    0.000    0.000    0.000    0.000 
#
# Total GULP energy -61265.487146 kJ/mol
# GULP energy per Si atom -5569.589741 kJ/mol
# Density = 2.719520 g / cm^3
# Si number density = 27.257234 Si / 1000 Ang^3
#
#
#
# Elastic Constant Matrix: (Units=GPa)
#
#
# Indices 1 2 3 4 5 6 
#
# 1 151.1471 41.2838 -13.4392 35.0602 -41.4951 -37.1716
# 2 41.2838 152.2061 3.9955 52.2924 -22.9286 -24.4781
# 3 -13.4392 3.9955 91.1004 32.3161 -32.9257 -11.4255
# 4 35.0602 52.2924 32.3161 4.3591 36.7779 18.9245
# 5 -41.4951 -22.9286 -32.9257 36.7779 -50.5851 -9.6800
# 6 -37.1716 -24.4781 -11.4255 18.9245 -9.6800 41.2840
#
#
#
# Elastic Compliance Matrix: (Units=1/GPa)
#
#
# Indices 1 2 3 4 5 6 
#
# 1 0.006621 -0.001952 -0.000301 -0.000087 -0.005095 0.003565
# 2 -0.001952 0.011408 -0.000116 -0.015926 -0.016674 0.008365
# 3 -0.000301 -0.000116 0.009236 -0.002938 -0.008164 0.001649
# 4 -0.000087 -0.015926 -0.002938 0.060575 0.057935 -0.024517
# 5 -0.005095 -0.016674 -0.008164 0.057935 0.045640 -0.032589
# 6 0.003565 0.008365 0.001649 -0.024517 -0.032589 0.036446
#
#
# Mechanical properties :
#
#
# Convention : Reuss Voigt Hill
#
# Bulk Modulus (GPa) = 44.39434 50.90375 47.64905
# Shear Modulus (GPa) = 27.44635 23.18585 25.31610
#
# Velocity S-wave (km/s) = 3.17667 2.91972 3.05090
# Velocity P-wave (km/s) = 5.45688 5.48473 5.47082
#
# Compressibility (1/GPa) = 0.02252539
#
# Stress axis : x y z
#
# Youngs Moduli (GPa) = 151.04330 87.65931 108.27172
#
# Poissons Ratio (x) = 0.17113 0.03262
# Poissons Ratio (y) = 0.29487 0.01255
# Poissons Ratio (z) = 0.04551 0.01016
#
# Static dielectric constant tensor:
#      x y z
#    x 1.889530 0.012140 0.322550 
#    y 0.012140 2.150950 -0.008080 
#    z 0.322550 -0.008080 1.898820 
# 
# From -- ./inp_files/490011.got.cif
#   From: 2010.05.17/outbox.cif.g08.bks.cpg/sg2_246_cif.got.tgz:490011.got - 2010.06.03 11:33:40.
