data_PCOD9082009
_publ_section_title
;
Structure prediction by ZEFSAII (Michael W. Deem and Ramdas Pophale) SiO2 
 PCOD9082009
Probable space group: P -1
;
_chemical_formula_sum "Si O2"
_cell_formula_units_Z 14
_cell_length_a 12.327143
_cell_length_b 8.740097
_cell_length_c 8.642686
_cell_angle_alpha 128.760884
_cell_angle_beta 127.005519
_cell_angle_gamma 63.344770
_cell_volume 575.973874
_symmetry_space_group_name_H-M "P -1"
_symmetry_group_IT_number 2
_symmetry_cell_setting 'triclinic'
loop_
_space_group_symop_operation_xyz
x,y,z
-x,-y,-z
loop_
_atom_site_type_symbol
_atom_site_label
_atom_site_fract_x
_atom_site_fract_y
_atom_site_fract_z
Si Si1 0.803849 0.573875 0.291270
Si Si2 0.748039 0.503259 0.561530
Si Si3 0.466487 0.743239 0.452362
Si Si4 0.121546 0.037642 0.515442
Si Si5 0.520723 0.826952 0.203459
Si Si6 0.185939 0.620489 0.148491
Si Si7 0.643047 0.088743 0.155225
O O1 0.804205 0.516307 0.439989
O O2 0.644645 0.658099 0.171033
O O3 0.888250 0.762311 0.463885
O O4 0.850332 0.436715 0.094608
O O5 0.621477 0.671412 0.586787
O O6 0.847000 0.494298 0.792010
O O7 0.676813 0.300011 0.379923
O O8 0.476641 0.781930 0.306487
O O9 0.352868 0.597648 0.281142
O O10 0.420976 0.960762 0.617490
O O11 0.141392 0.850115 0.297980
O O12 0.238296 0.056609 0.759668
O O13 0.000000 0.000000 0.500000
O O14 0.379649 0.854259 0.006503
O O15 0.500000 0.000000 0.000000
#
# Coordination Sequence:
#
# PCOD9082009 Si02
#       7
#     2   2   2   2   2   2   2
#     4  11  22  43  68  96 134 176 216 274 329 387
#     4  10  23  37  61 105 136 164 220 277 323 392
#     4  10  19  32  59  98 140 164 207 274 333 382
#     4  11  26  46  66  94 135 175 220 275 329 393
#     4  10  19  33  59 102 131 169 210 271 331 385
#     4  11  22  40  65  93 129 177 219 261 335 391
#     4  11  20  38  63  93 127 166 215 267 323 382
#
# _framework density 24.306657999999999
#
# number of rings (size 3 to 8) (size 9 to 14) (size 15 to 20)
#    0.000    1.429    2.857    3.000    2.000    4.000 
#    0.000    2.857    0.000   10.286    0.000    0.000 
#    0.000    0.000    0.000    0.000    0.000    0.000 
#
# Total GULP energy -77963.753912 kJ/mol
# GULP energy per Si atom -5568.839565 kJ/mol
# Density = 2.425133 g / cm^3
# Si number density = 24.306658 Si / 1000 Ang^3
#
#
#
# Elastic Constant Matrix: (Units=GPa)
#
#
# Indices 1 2 3 4 5 6 
#
# 1 106.1264 26.4289 53.3813 -8.8201 -16.0059 26.7927
# 2 26.4289 70.0223 36.1952 -5.0579 -8.3035 29.3828
# 3 53.3813 36.1952 83.8661 3.5640 -32.6031 8.2652
# 4 -8.8201 -5.0579 3.5640 23.4962 -8.2654 -0.4609
# 5 -16.0059 -8.3035 -32.6031 -8.2654 34.4437 0.7440
# 6 26.7927 29.3828 8.2652 -0.4609 0.7440 33.6255
#
#
#
# Elastic Compliance Matrix: (Units=1/GPa)
#
#
# Indices 1 2 3 4 5 6 
#
# 1 0.022160 0.011040 -0.016953 0.013002 0.000528 -0.022970
# 2 0.011040 0.036246 -0.020253 0.013903 -0.001204 -0.035274
# 3 -0.016953 -0.020253 0.037585 -0.008892 0.020220 0.021398
# 4 0.013002 0.013903 -0.008892 0.056671 0.015005 -0.019878
# 5 0.000528 -0.001204 0.020220 0.015005 0.051842 -0.005280
# 6 -0.022970 -0.035274 0.021398 -0.019878 -0.005280 0.073450
#
#
# Mechanical properties :
#
#
# Convention : Reuss Voigt Hill
#
# Bulk Modulus (GPa) = 22.90462 54.66953 38.78707
# Shear Modulus (GPa) = 14.49948 27.91371 21.20660
#
# Velocity S-wave (km/s) = 2.44503 3.39248 2.95695
# Velocity P-wave (km/s) = 4.17307 6.15513 5.25834
#
# Compressibility (1/GPa) = 0.04365931
#
# Stress axis : x y z
#
# Youngs Moduli (GPa) = 45.12620 27.58892 26.60649
#
# Poissons Ratio (x) = -0.30457 0.45106
# Poissons Ratio (y) = -0.49818 0.53885
# Poissons Ratio (z) = 0.76502 0.55875
#
# Static dielectric constant tensor:
#      x y z
#    x 2.051200 -0.026500 0.078180 
#    y -0.026500 2.119340 -0.181260 
#    z 0.078180 -0.181260 2.360010 
# 
# From -- ./inp_files/246168.got.cif
#   From: 2010.05.17/outbox.cif.g08.bks.cpg/sg2_124_cif.got.tgz:246168.got - 2010.06.03 11:33:40.
