data_PCOD9082451
_publ_section_title
;
Structure prediction by ZEFSAII (Michael W. Deem and Ramdas Pophale) SiO2 
 PCOD9082451
Probable space group: P -1
;
_chemical_formula_sum "Si O2"
_cell_formula_units_Z 16
_cell_length_a 9.111802
_cell_length_b 19.787441
_cell_length_c 7.789549
_cell_angle_alpha 56.732437
_cell_angle_beta 35.160163
_cell_angle_gamma 54.101976
_cell_volume 647.909640
_symmetry_space_group_name_H-M "P -1"
_symmetry_group_IT_number 2
_symmetry_cell_setting 'triclinic'
loop_
_space_group_symop_operation_xyz
x,y,z
-x,-y,-z
loop_
_atom_site_type_symbol
_atom_site_label
_atom_site_fract_x
_atom_site_fract_y
_atom_site_fract_z
Si Si1 0.829740 0.633912 0.567425
Si Si2 0.302391 0.614347 0.625568
Si Si3 0.607826 0.970273 0.218688
Si Si4 0.199556 0.882869 0.853867
Si Si5 0.878834 0.541981 0.287354
Si Si6 0.259270 0.713134 0.171556
Si Si7 0.669198 0.868542 0.940501
Si Si8 0.742205 0.215366 0.428298
O O1 0.840249 0.603216 0.404899
O O2 0.974816 0.550497 0.653799
O O3 0.000215 0.699195 0.345499
O O4 0.530848 0.670810 0.868263
O O5 0.589882 0.550203 0.476015
O O6 0.286497 0.664755 0.393466
O O7 0.271609 0.687407 0.696220
O O8 0.065146 0.573361 0.934767
O O9 0.421931 0.931441 0.568179
O O10 0.628688 0.920237 0.086342
O O11 0.907362 0.947209 0.030811
O O12 0.467513 0.066101 0.166380
O O13 0.238862 0.827316 0.717000
O O14 0.225938 0.812724 0.071831
O O15 0.515169 0.798461 0.212340
O O16 0.983661 0.831126 0.672104
#
# Coordination Sequence:
#
# PCOD9082451 Si02
#       8
#     2   2   2   2   2   2   2   2
#     4  11  24  43  66  90 118 155 200 247 296 354
#     4  12  25  40  61  90 125 160 197 244 296 354
#     4   9  17  30  52  82 110 141 190 247 292 334
#     4  10  19  33  55  80 111 151 193 238 288 346
#     4  11  24  43  66  90 118 155 200 247 296 354
#     4  12  25  40  61  90 125 160 197 244 296 354
#     4   9  17  30  52  82 110 141 190 247 292 334
#     4  10  19  33  55  80 111 151 193 238 288 346
#
# _framework density 24.694800000000001
#
# number of rings (size 3 to 8) (size 9 to 14) (size 15 to 20)
#    0.000    1.500    0.000    6.000    0.000   10.000 
#    0.000    0.000    0.000    4.500    0.000    0.000 
#    0.000    0.000    0.000    0.000    0.000    0.000 
#
# Total GULP energy -89758.301314 kJ/mol
# GULP energy per Si atom -5609.893832 kJ/mol
# Density = 2.463859 g / cm^3
# Si number density = 24.694800 Si / 1000 Ang^3
#
#
#
# Elastic Constant Matrix: (Units=GPa)
#
#
# Indices 1 2 3 4 5 6 
#
# 1 109.0318 25.8683 55.7443 3.9590 -0.9667 -11.2147
# 2 25.8683 65.0735 17.3007 -4.7425 0.8089 -21.0654
# 3 55.7443 17.3007 145.1643 -9.4460 -9.3291 -9.3081
# 4 3.9590 -4.7425 -9.4460 42.0827 3.0249 -1.3656
# 5 -0.9667 0.8089 -9.3291 3.0249 39.6269 -7.3171
# 6 -11.2147 -21.0654 -9.3081 -1.3656 -7.3171 45.7044
#
#
#
# Elastic Compliance Matrix: (Units=1/GPa)
#
#
# Indices 1 2 3 4 5 6 
#
# 1 0.012522 -0.003890 -0.004529 -0.002594 -0.000445 0.000209
# 2 -0.003890 0.019849 -0.000100 0.002794 0.000812 0.008387
# 3 -0.004529 -0.000100 0.008990 0.002321 0.002028 0.001067
# 4 -0.002594 0.002794 0.002321 0.024981 -0.001170 0.001683
# 5 -0.000445 0.000812 0.002028 -0.001170 0.026682 0.004915
# 6 0.000209 0.008387 0.001067 0.001683 0.004915 0.026851
#
#
# Mechanical properties :
#
#
# Convention : Reuss Voigt Hill
#
# Bulk Modulus (GPa) = 41.11388 57.45514 49.28451
# Shear Modulus (GPa) = 34.47817 40.17321 37.32569
#
# Velocity S-wave (km/s) = 3.74059 4.03772 3.89199
# Velocity P-wave (km/s) = 5.94483 6.71224 6.34016
#
# Compressibility (1/GPa) = 0.02432269
#
# Stress axis : x y z
#
# Youngs Moduli (GPa) = 79.86184 50.38133 111.23933
#
# Poissons Ratio (x) = 0.19596 0.50379
# Poissons Ratio (y) = 0.31063 0.01114
# Poissons Ratio (z) = 0.36168 0.00505
#
# Static dielectric constant tensor:
#      x y z
#    x 1.980250 0.053950 0.036640 
#    y 0.053950 1.929270 0.008340 
#    z 0.036640 0.008340 1.883920 
# 
# From -- ./inp_files/139419.got.cif
#   From: 2010.05.17/outbox.cif.g08.bks.cpg/sg2_70_cif.got.tgz:139419.got - 2010.06.03 11:33:40.
