data_PCOD9082080
_publ_section_title
;
Structure prediction by ZEFSAII (Michael W. Deem and Ramdas Pophale) SiO2 
 PCOD9082080
Probable space group: P -1
;
_chemical_formula_sum "Si O2"
_cell_formula_units_Z 16
_cell_length_a 9.684426
_cell_length_b 14.657119
_cell_length_c 12.395452
_cell_angle_alpha 66.605375
_cell_angle_beta 32.733998
_cell_angle_gamma 79.712063
_cell_volume 829.289491
_symmetry_space_group_name_H-M "P -1"
_symmetry_group_IT_number 2
_symmetry_cell_setting 'triclinic'
loop_
_space_group_symop_operation_xyz
x,y,z
-x,-y,-z
loop_
_atom_site_type_symbol
_atom_site_label
_atom_site_fract_x
_atom_site_fract_y
_atom_site_fract_z
Si Si1 0.191143 0.832325 0.314075
Si Si2 0.374961 0.454328 0.719333
Si Si3 0.296092 0.076836 0.192650
Si Si4 0.743244 0.352911 0.221455
Si Si5 0.240858 0.106135 0.796898
Si Si6 0.596358 0.279680 0.601360
Si Si7 0.288856 0.179520 0.509641
Si Si8 0.727319 0.012803 0.520909
O O1 0.206501 0.766193 0.439424
O O2 0.913440 0.792350 0.451804
O O3 0.249425 0.955204 0.246687
O O4 0.446020 0.841282 0.066432
O O5 0.500000 0.500000 0.500000
O O6 0.395754 0.554503 0.733901
O O7 0.527290 0.368724 0.674781
O O8 0.053604 0.396283 0.962225
O O9 0.334404 0.068570 0.299123
O O10 0.021194 0.090388 0.322129
O O11 0.706256 0.316704 0.390101
O O12 0.584264 0.260147 0.289824
O O13 0.318907 0.182953 0.811549
O O14 0.185966 0.173137 0.702697
O O15 0.509840 0.071983 0.623766
O O16 0.000000 0.000000 0.000000
O O17 0.276729 0.061407 0.542750
#
# Coordination Sequence:
#
# PCOD9082080 Si02
#       8
#     2   2   2   2   2   2   2   2
#     4  10  19  36  52  77 114 156 190 225 272 327
#     4   9  19  40  66  85 105 143 185 236 296 345
#     4   9  19  33  53  71 113 162 197 224 256 331
#     4   9  20  40  62  86 113 136 185 247 287 338
#     4  11  22  33  50  80 118 149 190 236 270 327
#     4  10  21  35  59  86 111 150 193 226 280 343
#     4  10  22  34  53  81 115 147 185 234 286 323
#     4  10  19  33  49  77 109 155 194 227 277 318
#
# _framework density 19.293627000000001
#
# number of rings (size 3 to 8) (size 9 to 14) (size 15 to 20)
#    0.000    2.250    1.250    1.125    5.250    2.000 
#    2.250    0.625    0.000    6.750    0.000    0.000 
#    0.000    0.000    0.000    0.000    0.000    0.000 
#
# Total GULP energy -89075.930978 kJ/mol
# GULP energy per Si atom -5567.245686 kJ/mol
# Density = 1.924971 g / cm^3
# Si number density = 19.293627 Si / 1000 Ang^3
#
#
#
# Elastic Constant Matrix: (Units=GPa)
#
#
# Indices 1 2 3 4 5 6 
#
# 1 106.4606 21.9688 15.8279 0.0332 -1.8373 -9.1707
# 2 21.9688 48.4702 1.9246 5.0828 -2.7825 -17.3179
# 3 15.8279 1.9246 76.5084 2.4963 -1.3460 -4.6257
# 4 0.0332 5.0828 2.4963 24.3602 -0.5672 -0.9807
# 5 -1.8373 -2.7825 -1.3460 -0.5672 11.1297 6.2440
# 6 -9.1707 -17.3179 -4.6257 -0.9807 6.2440 19.9114
#
#
#
# Elastic Compliance Matrix: (Units=1/GPa)
#
#
# Indices 1 2 3 4 5 6 
#
# 1 0.010724 -0.004797 -0.002118 0.001219 0.000230 0.000263
# 2 -0.004797 0.033597 0.002006 -0.006215 -0.009357 0.030105
# 3 -0.002118 0.002006 0.013748 -0.001674 -0.000543 0.004051
# 4 0.001219 -0.006215 -0.001674 0.042421 0.002877 -0.004045
# 5 0.000230 -0.009357 -0.000543 0.002877 0.111795 -0.043075
# 6 0.000263 0.030105 0.004051 -0.004045 -0.043075 0.090778
#
#
# Mechanical properties :
#
#
# Convention : Reuss Voigt Hill
#
# Bulk Modulus (GPa) = 20.72523 34.54242 27.63382
# Shear Modulus (GPa) = 15.19914 23.86143 19.53029
#
# Velocity S-wave (km/s) = 2.80979 3.52056 3.18506
# Velocity P-wave (km/s) = 4.61431 5.87096 5.28016
#
# Compressibility (1/GPa) = 0.04825038
#
# Stress axis : x y z
#
# Youngs Moduli (GPa) = 93.24711 29.76461 72.73729
#
# Poissons Ratio (x) = 0.14279 0.15404
# Poissons Ratio (y) = 0.44734 -0.14589
# Poissons Ratio (z) = 0.19748 -0.05970
#
# Static dielectric constant tensor:
#      x y z
#    x 1.677470 0.004140 0.023210 
#    y 0.004140 1.752560 0.023840 
#    z 0.023210 0.023840 1.741550 
# 
# From -- ./inp_files/348050.got.cif
#   From: 2010.05.17/outbox.cif.g08.bks.cpg/sg2_175_cif.got.tgz:348050.got - 2010.06.03 11:33:40.
