data_PCOD9082132
_publ_section_title
;
Structure prediction by ZEFSAII (Michael W. Deem and Ramdas Pophale) SiO2 
 PCOD9082132
Probable space group: P -1
;
_chemical_formula_sum "Si O2"
_cell_formula_units_Z 12
_cell_length_a 14.132420
_cell_length_b 11.483064
_cell_length_c 17.765729
_cell_angle_alpha 32.969078
_cell_angle_beta 29.878184
_cell_angle_gamma 19.789798
_cell_volume 481.687909
_symmetry_space_group_name_H-M "P -1"
_symmetry_group_IT_number 2
_symmetry_cell_setting 'triclinic'
loop_
_space_group_symop_operation_xyz
x,y,z
-x,-y,-z
loop_
_atom_site_type_symbol
_atom_site_label
_atom_site_fract_x
_atom_site_fract_y
_atom_site_fract_z
Si Si1 0.470486 0.744271 0.558480
Si Si2 0.699383 0.144070 0.097510
Si Si3 0.278141 0.445741 0.807844
Si Si4 0.253514 0.561363 0.306910
Si Si5 0.796128 0.359403 0.405160
Si Si6 0.263958 0.040866 0.989193
O O1 0.443708 0.514627 0.682529
O O2 0.649528 0.604637 0.588325
O O3 0.669241 0.634553 0.407553
O O4 0.117371 0.132102 0.606244
O O5 0.475287 0.255340 0.257517
O O6 0.500000 0.500000 0.000000
O O7 0.771717 0.937162 0.087430
O O8 0.000000 0.000000 0.000000
O O9 0.086183 0.661582 0.745584
O O10 0.059519 0.609840 0.940749
O O11 0.468653 0.062656 0.862287
O O12 0.329445 0.748029 0.138311
O O13 0.500000 0.500000 0.500000
O O14 0.000000 0.000000 0.500000
#
# Coordination Sequence:
#
# PCOD9082132 Si02
#       6
#     2   2   2   2   2   2
#     4  10  19  33  53  75 101 134 172 210 248 297
#     4  10  19  33  52  74 101 135 172 205 245 301
#     4   9  18  32  51  77 106 131 161 208 261 304
#     4  10  19  33  53  75 101 134 172 210 248 297
#     4  10  19  33  52  74 101 135 172 205 245 301
#     4   9  18  32  51  77 106 131 161 208 261 304
#
# _framework density 24.912396999999999
#
# number of rings (size 3 to 8) (size 9 to 14) (size 15 to 20)
#    0.000    2.333    0.000    6.000    0.000    0.667 
#    0.000   16.667    0.000    2.000    0.000    0.000 
#    0.000    1.333    0.000    0.000    0.000    0.000 
#
# Total GULP energy -66872.145655 kJ/mol
# GULP energy per Si atom -5572.678805 kJ/mol
# Density = 2.485570 g / cm^3
# Si number density = 24.912397 Si / 1000 Ang^3
#
#
#
# Elastic Constant Matrix: (Units=GPa)
#
#
# Indices 1 2 3 4 5 6 
#
# 1 117.4093 68.2845 36.1208 11.7357 42.4868 14.4990
# 2 68.2845 128.0945 35.5591 21.2469 20.7268 0.7148
# 3 36.1208 35.5591 114.2598 11.6786 38.8650 6.7691
# 4 11.7357 21.2469 11.6786 37.3892 16.6193 15.5093
# 5 42.4868 20.7268 38.8650 16.6193 51.2575 3.0381
# 6 14.4990 0.7148 6.7691 15.5093 3.0381 64.9501
#
#
#
# Elastic Compliance Matrix: (Units=1/GPa)
#
#
# Indices 1 2 3 4 5 6 
#
# 1 0.018884 -0.009332 0.001689 0.007972 -0.015420 -0.005471
# 2 -0.009332 0.013950 -0.003144 -0.008851 0.007109 0.004038
# 3 0.001689 -0.003144 0.012577 0.002721 -0.010439 -0.001815
# 4 0.007972 -0.008851 0.002721 0.040792 -0.017673 -0.010880
# 5 -0.015420 0.007109 -0.010439 -0.017673 0.042667 0.006676
# 6 -0.005471 0.004038 -0.001815 -0.010880 0.006676 0.019048
#
#
# Mechanical properties :
#
#
# Convention : Reuss Voigt Hill
#
# Bulk Modulus (GPa) = 41.95237 71.07693 56.51465
# Shear Modulus (GPa) = 28.17917 45.37265 36.77591
#
# Velocity S-wave (km/s) = 3.36688 4.27228 3.84632
# Velocity P-wave (km/s) = 5.65606 7.27525 6.51614
#
# Compressibility (1/GPa) = 0.02383656
#
# Stress axis : x y z
#
# Youngs Moduli (GPa) = 52.95466 71.68713 79.51184
#
# Poissons Ratio (x) = 0.66900 -0.13429
# Poissons Ratio (y) = 0.49418 0.24996
# Poissons Ratio (z) = -0.08944 0.22536
#
# Static dielectric constant tensor:
#      x y z
#    x 1.970990 0.077230 -0.135640 
#    y 0.077230 2.055160 0.077600 
#    z -0.135640 0.077600 2.312300 
# 
# From -- ./inp_files/549712.got.cif
#   From: 2010.05.17/outbox.cif.g08.bks.cpg/sg2_275_cif.got.tgz:549712.got - 2010.06.03 11:33:40.
