data_PCOD9082223
_publ_section_title
;
Structure prediction by ZEFSAII (Michael W. Deem and Ramdas Pophale) SiO2 
 PCOD9082223
Probable space group: P -1
;
_chemical_formula_sum "Si O2"
_cell_formula_units_Z 16
_cell_length_a 11.757838
_cell_length_b 11.120239
_cell_length_c 24.809344
_cell_angle_alpha 150.563799
_cell_angle_beta 141.746778
_cell_angle_gamma 55.729217
_cell_volume 905.905722
_symmetry_space_group_name_H-M "P -1"
_symmetry_group_IT_number 2
_symmetry_cell_setting 'triclinic'
loop_
_space_group_symop_operation_xyz
x,y,z
-x,-y,-z
loop_
_atom_site_type_symbol
_atom_site_label
_atom_site_fract_x
_atom_site_fract_y
_atom_site_fract_z
Si Si1 0.422609 0.781747 0.337353
Si Si2 0.993930 0.222937 0.210966
Si Si3 0.757699 0.878169 0.648606
Si Si4 0.214431 0.959610 0.502337
Si Si5 0.635798 0.765421 0.844074
Si Si6 0.109943 0.798070 0.518857
Si Si7 0.787662 0.408827 0.414353
Si Si8 0.311239 0.483549 0.342553
O O1 0.357293 0.488351 0.221103
O O2 0.500000 0.000000 0.500000
O O3 0.256024 0.856569 0.274887
O O4 0.598509 0.834428 0.379900
O O5 0.057704 0.083688 0.229564
O O6 0.979465 0.494347 0.332367
O O7 0.187914 0.316266 0.281033
O O8 0.799868 0.031884 0.033071
O O9 0.768304 0.685252 0.529625
O O10 0.538796 0.693999 0.520720
O O11 0.238738 0.933040 0.565906
O O12 0.194939 0.674989 0.359802
O O13 0.027076 0.040136 0.456794
O O14 0.410637 0.752998 0.756725
O O15 0.680558 0.708472 0.776954
O O16 0.214707 0.750110 0.593020
O O17 0.000000 0.500000 0.500000
#
# Coordination Sequence:
#
# PCOD9082223 Si02
#       8
#     2   2   2   2   2   2   2   2
#     4  11  18  33  53  76 103 136 182 219 250 311
#     4  10  20  34  50  80 114 134 166 218 276 315
#     4   9  19  33  53  76 101 137 182 212 255 312
#     4   9  17  33  56  78  97 136 184 220 246 300
#     4  11  21  32  52  81 108 137 172 220 271 307
#     4   9  19  33  55  78 103 137 178 215 257 317
#     4  10  19  33  53  77 102 141 180 216 251 314
#     4   9  17  33  57  77 101 140 175 217 255 311
#
# _framework density 17.661881999999999
#
# number of rings (size 3 to 8) (size 9 to 14) (size 15 to 20)
#    0.000    2.250    3.750    1.500    0.000    3.500 
#    0.000    5.625    0.000    9.750    0.000    0.000 
#    0.000    0.000    0.000    0.000    0.000    0.000 
#
# Total GULP energy -89091.454546 kJ/mol
# GULP energy per Si atom -5568.215909 kJ/mol
# Density = 1.762168 g / cm^3
# Si number density = 17.661882 Si / 1000 Ang^3
#
#
#
# Elastic Constant Matrix: (Units=GPa)
#
#
# Indices 1 2 3 4 5 6 
#
# 1 54.2232 14.0529 13.3021 -4.4937 12.7009 -12.7937
# 2 14.0529 62.7303 25.8005 -7.2536 2.4637 -1.9812
# 3 13.3021 25.8005 67.5497 -14.9446 -9.3612 -7.6271
# 4 -4.4937 -7.2536 -14.9446 18.1957 1.7405 4.2288
# 5 12.7009 2.4637 -9.3612 1.7405 14.4294 -3.1022
# 6 -12.7937 -1.9812 -7.6271 4.2288 -3.1022 29.1307
#
#
#
# Elastic Compliance Matrix: (Units=1/GPa)
#
#
# Indices 1 2 3 4 5 6 
#
# 1 0.029725 -0.001752 -0.008244 0.000979 -0.029726 0.007469
# 2 -0.001752 0.020259 -0.008353 0.002212 -0.008199 -0.002773
# 3 -0.008244 -0.008353 0.026365 0.013095 0.024954 0.003471
# 4 0.000979 0.002212 0.013095 0.068497 -0.002336 -0.006183
# 5 -0.029726 -0.008199 0.024954 -0.002336 0.114511 0.005454
# 6 0.007469 -0.002773 0.003471 -0.006183 0.005454 0.039807
#
#
# Mechanical properties :
#
#
# Convention : Reuss Voigt Hill
#
# Bulk Modulus (GPa) = 25.21953 32.31269 28.76611
# Shear Modulus (GPa) = 14.32340 21.10768 17.71554
#
# Velocity S-wave (km/s) = 2.85086 3.46077 3.17051
# Velocity P-wave (km/s) = 5.01464 5.85697 5.45210
#
# Compressibility (1/GPa) = 0.03965181
#
# Stress axis : x y z
#
# Youngs Moduli (GPa) = 33.64170 49.35963 37.92928
#
# Poissons Ratio (x) = 0.08647 0.31268
# Poissons Ratio (y) = 0.05893 0.31683
# Poissons Ratio (z) = 0.27734 0.41231
#
# Static dielectric constant tensor:
#      x y z
#    x 1.641740 0.017430 0.005580 
#    y 0.017430 1.630140 -0.014180 
#    z 0.005580 -0.014180 1.586010 
# 
# From -- ./inp_files/251996.got.cif
#   From: 2010.05.17/outbox.cif.g08.bks.cpg/sg2_126_cif.got.tgz:251996.got - 2010.06.03 11:33:40.
