data_PCOD9082915
_publ_section_title
;
Structure prediction by ZEFSAII (Michael W. Deem and Ramdas Pophale) SiO2 
 PCOD9082915
Probable space group: P -1
;
_chemical_formula_sum "Si O2"
_cell_formula_units_Z 16
_cell_length_a 8.703919
_cell_length_b 21.891774
_cell_length_c 7.166319
_cell_angle_alpha 64.987444
_cell_angle_beta 104.729888
_cell_angle_gamma 148.898367
_cell_volume 622.035731
_symmetry_space_group_name_H-M "P -1"
_symmetry_group_IT_number 2
_symmetry_cell_setting 'triclinic'
loop_
_space_group_symop_operation_xyz
x,y,z
-x,-y,-z
loop_
_atom_site_type_symbol
_atom_site_label
_atom_site_fract_x
_atom_site_fract_y
_atom_site_fract_z
Si Si1 0.299568 0.048444 0.682823
Si Si2 0.314324 0.247450 0.709886
Si Si3 0.417332 0.788995 0.117326
Si Si4 0.364341 0.214326 0.337111
Si Si5 0.728717 0.099410 0.616034
Si Si6 0.412802 0.566586 0.951388
Si Si7 0.156647 0.482968 0.566081
Si Si8 0.973870 0.691205 0.825745
O O1 0.306295 0.081195 0.847599
O O2 0.417135 0.152851 0.449953
O O3 0.524083 0.067406 0.732547
O O4 0.976473 0.906716 0.692423
O O5 0.454213 0.235769 0.882093
O O6 0.355793 0.238731 0.516714
O O7 0.542104 0.393945 0.625400
O O8 0.955303 0.131789 0.752899
O O9 0.134144 0.672377 0.327142
O O10 0.274021 0.781451 0.920348
O O11 0.563654 0.344662 0.128977
O O12 0.963190 0.235031 0.414655
O O13 0.500000 0.000000 0.500000
O O14 0.290688 0.514533 0.768783
O O15 0.737785 0.646213 0.945936
O O16 0.170402 0.429445 0.150276
O O17 0.000000 0.500000 0.500000
#
# Coordination Sequence:
#
# PCOD9082915 Si02
#       8
#     2   2   2   2   2   2   2   2
#     4  10  20  32  57  83 112 141 185 223 277 323
#     4   9  16  32  57  76 106 145 188 215 263 328
#     4   9  19  33  54  84 109 139 181 232 266 321
#     4   9  16  34  56  79 102 151 191 219 254 337
#     4  12  21  36  57  83 110 144 184 228 273 330
#     4   9  16  31  56  80 105 144 191 225 256 323
#     4   8  13  26  52  80  99 133 183 221 251 306
#     4  10  19  33  59  84 107 140 191 225 271 318
#
# _framework density 25.721995
#
# number of rings (size 3 to 8) (size 9 to 14) (size 15 to 20)
#    0.000    2.500    3.750    0.750    0.000    0.000 
#    0.000    4.375    2.750    0.000    0.000    0.000 
#    0.000    0.000    0.000    0.000    0.000    0.000 
#
# Total GULP energy -89256.984322 kJ/mol
# GULP energy per Si atom -5578.561520 kJ/mol
# Density = 2.566345 g / cm^3
# Si number density = 25.721995 Si / 1000 Ang^3
#
#
#
# Elastic Constant Matrix: (Units=GPa)
#
#
# Indices 1 2 3 4 5 6 
#
# 1 57.4468 17.7313 9.7260 13.1107 15.1363 21.2847
# 2 17.7313 103.5224 13.2520 0.3962 18.9672 7.0578
# 3 9.7260 13.2520 64.4381 -17.0988 30.8649 -2.1171
# 4 13.1107 0.3962 -17.0988 40.4483 -0.4442 16.8391
# 5 15.1363 18.9672 30.8649 -0.4442 35.9391 8.1548
# 6 21.2847 7.0578 -2.1171 16.8391 8.1548 51.9327
#
#
#
# Elastic Compliance Matrix: (Units=1/GPa)
#
#
# Indices 1 2 3 4 5 6 
#
# 1 0.023781 -0.002315 -0.002375 -0.005926 -0.005290 -0.006777
# 2 -0.002315 0.010963 0.001153 0.001032 -0.005807 0.000083
# 3 -0.002375 0.001153 0.032662 0.013333 -0.027998 0.002221
# 4 -0.005926 0.001032 0.013333 0.035292 -0.007372 -0.007454
# 5 -0.005290 -0.005807 -0.027998 -0.007372 0.058190 -0.004931
# 6 -0.006777 0.000083 0.002221 -0.007454 -0.004931 0.025303
#
#
# Mechanical properties :
#
#
# Convention : Reuss Voigt Hill
#
# Bulk Modulus (GPa) = 16.57493 34.09174 25.33334
# Shear Modulus (GPa) = 23.43275 37.97723 30.70499
#
# Velocity S-wave (km/s) = 3.02155 3.84663 3.45878
# Velocity P-wave (km/s) = 4.31635 5.74556 5.08145
#
# Compressibility (1/GPa) = 0.06033207
#
# Stress axis : x y z
#
# Youngs Moduli (GPa) = 42.04983 91.21545 30.61694
#
# Poissons Ratio (x) = 0.21119 0.07270
# Poissons Ratio (y) = 0.09736 -0.03530
# Poissons Ratio (z) = 0.09985 -0.10517
#
# Static dielectric constant tensor:
#      x y z
#    x 2.129350 -0.025810 0.009240 
#    y -0.025810 2.070960 -0.079180 
#    z 0.009240 -0.079180 2.102690 
# 
# From -- ./inp_files/225384.got.cif
#   From: 2010.05.17/outbox.cif.g08.bks.cpg/sg2_113_cif.got.tgz:225384.got - 2010.06.03 11:33:40.
