data_PCOD9082522
_publ_section_title
;
Structure prediction by ZEFSAII (Michael W. Deem and Ramdas Pophale) SiO2 
 PCOD9082522
Probable space group: P -1
;
_chemical_formula_sum "Si O2"
_cell_formula_units_Z 16
_cell_length_a 14.691876
_cell_length_b 15.080070
_cell_length_c 9.435346
_cell_angle_alpha 140.213744
_cell_angle_beta 121.896482
_cell_angle_gamma 36.603799
_cell_volume 775.907816
_symmetry_space_group_name_H-M "P -1"
_symmetry_group_IT_number 2
_symmetry_cell_setting 'triclinic'
loop_
_space_group_symop_operation_xyz
x,y,z
-x,-y,-z
loop_
_atom_site_type_symbol
_atom_site_label
_atom_site_fract_x
_atom_site_fract_y
_atom_site_fract_z
Si Si1 0.865010 0.009578 0.562677
Si Si2 0.670036 0.946697 0.185148
Si Si3 0.307171 0.293485 0.318758
Si Si4 0.836379 0.708808 0.554972
Si Si5 0.852626 0.610040 0.125853
Si Si6 0.890078 0.950095 0.005063
Si Si7 0.904043 0.252912 0.807770
Si Si8 0.101051 0.755599 0.682859
O O1 0.801294 0.225230 0.753906
O O2 0.760041 0.993216 0.381847
O O3 0.027962 0.857066 0.422010
O O4 0.934379 0.910632 0.651792
O O5 0.699775 0.803379 0.153749
O O6 0.489072 0.150924 0.264167
O O7 0.734476 0.807180 0.927137
O O8 0.283430 0.280252 0.449059
O O9 0.203239 0.521171 0.460493
O O10 0.858025 0.680166 0.368840
O O11 0.803178 0.897428 0.809286
O O12 0.000000 0.500000 0.500000
O O13 0.838320 0.464793 0.981441
O O14 0.000000 0.500000 0.000000
O O15 0.049314 0.806347 0.865824
O O16 0.950451 0.868610 0.113114
O O17 0.820451 0.170498 0.201155
#
# Coordination Sequence:
#
# PCOD9082522 Si02
#       8
#     2   2   2   2   2   2   2   2
#     4  10  20  34  59  86 117 156 197 252 295 362
#     4  11  24  39  60  92 124 166 204 249 311 366
#     4  11  24  41  60  88 129 164 201 256 307 366
#     4  12  21  36  63  92 121 159 201 259 305 355
#     4  12  22  36  63  92 120 159 207 256 303 362
#     4  10  20  33  58  92 118 150 200 253 298 358
#     4  10  19  33  55  90 119 147 201 253 298 348
#     4  10  20  37  59  87 118 157 204 244 301 364
#
# _framework density 20.621006000000001
#
# number of rings (size 3 to 8) (size 9 to 14) (size 15 to 20)
#    0.000    1.250    3.750    3.000    0.000    0.500 
#    0.000    1.250    0.000   24.000    0.000    0.000 
#    0.000    0.000    0.000    0.000    0.000    0.000 
#
# Total GULP energy -89138.622767 kJ/mol
# GULP energy per Si atom -5571.163923 kJ/mol
# Density = 2.057407 g / cm^3
# Si number density = 20.621006 Si / 1000 Ang^3
#
#
#
# Elastic Constant Matrix: (Units=GPa)
#
#
# Indices 1 2 3 4 5 6 
#
# 1 66.7146 34.3089 48.4103 16.4099 25.7125 26.9877
# 2 34.3089 67.8612 36.1582 4.5515 11.0301 16.6023
# 3 48.4103 36.1582 114.1059 -3.4216 24.4073 10.4387
# 4 16.4099 4.5515 -3.4216 37.7202 18.9649 0.8331
# 5 25.7125 11.0301 24.4073 18.9649 48.4886 1.7650
# 6 26.9877 16.6023 10.4387 0.8331 1.7650 30.7580
#
#
#
# Elastic Compliance Matrix: (Units=1/GPa)
#
#
# Indices 1 2 3 4 5 6 
#
# 1 0.052129 -0.006726 -0.014941 -0.017101 -0.010594 -0.035967
# 2 -0.006726 0.020967 -0.003597 -0.000273 0.000869 -0.004238
# 3 -0.014941 -0.003597 0.016524 0.010188 -0.003903 0.009391
# 4 -0.017101 -0.000273 0.010188 0.040894 -0.012403 0.011299
# 5 -0.010594 0.000869 -0.003903 -0.012403 0.032546 0.008619
# 6 -0.035967 -0.004238 0.009391 0.011299 0.008619 0.062369
#
#
# Mechanical properties :
#
#
# Convention : Reuss Voigt Hill
#
# Bulk Modulus (GPa) = 25.58095 54.04848 39.81472
# Shear Modulus (GPa) = 17.30184 32.04698 24.67441
#
# Velocity S-wave (km/s) = 2.89976 3.94648 3.46290
# Velocity P-wave (km/s) = 4.86248 6.85810 5.94463
#
# Compressibility (1/GPa) = 0.03909159
#
# Stress axis : x y z
#
# Youngs Moduli (GPa) = 19.18325 47.69465 60.51950
#
# Poissons Ratio (x) = 0.32078 0.90423
# Poissons Ratio (y) = 0.12902 0.21768
# Poissons Ratio (z) = 0.28662 0.17155
#
# Static dielectric constant tensor:
#      x y z
#    x 1.820240 0.034400 0.062310 
#    y 0.034400 1.731120 0.015210 
#    z 0.062310 0.015210 1.841330 
# 
# From -- ./inp_files/314266.got.cif
#   From: 2010.05.17/outbox.cif.g08.bks.cpg/sg2_158_cif.got.tgz:314266.got - 2010.06.03 11:33:40.
