data_PCOD9082389
_publ_section_title
;
Structure prediction by ZEFSAII (Michael W. Deem and Ramdas Pophale) SiO2 
 PCOD9082389
Probable space group: P -1
;
_chemical_formula_sum "Si O2"
_cell_formula_units_Z 16
_cell_length_a 15.035048
_cell_length_b 14.353798
_cell_length_c 8.421651
_cell_angle_alpha 47.952435
_cell_angle_beta 38.019281
_cell_angle_gamma 39.781889
_cell_volume 706.680592
_symmetry_space_group_name_H-M "P -1"
_symmetry_group_IT_number 2
_symmetry_cell_setting 'triclinic'
loop_
_space_group_symop_operation_xyz
x,y,z
-x,-y,-z
loop_
_atom_site_type_symbol
_atom_site_label
_atom_site_fract_x
_atom_site_fract_y
_atom_site_fract_z
Si Si1 0.079054 0.551072 0.191865
Si Si2 0.364618 0.565214 0.936048
Si Si3 0.207159 0.214641 0.863159
Si Si4 0.343274 0.416314 0.429105
Si Si5 0.209450 0.862110 0.009453
Si Si6 0.947761 0.666516 0.720293
Si Si7 0.179421 0.005444 0.580026
Si Si8 0.204831 0.934692 0.274570
O O1 0.129377 0.426214 0.131946
O O2 0.000000 0.500000 0.500000
O O3 0.921188 0.710916 0.186215
O O4 0.239461 0.562638 0.989445
O O5 0.530955 0.566694 0.650796
O O6 0.407894 0.432273 0.147554
O O7 0.253832 0.714362 0.024119
O O8 0.340178 0.267654 0.611463
O O9 0.092715 0.297898 0.081161
O O10 0.255733 0.049991 0.008459
O O11 0.149442 0.552129 0.553506
O O12 0.006889 0.972373 0.182106
O O13 0.265126 0.829073 0.154733
O O14 0.263204 0.938501 0.709880
O O15 0.865898 0.826505 0.570893
O O16 0.262827 0.911989 0.405484
O O17 0.000000 0.000000 0.500000
#
# Coordination Sequence:
#
# PCOD9082389 Si02
#       8
#     2   2   2   2   2   2   2   2
#     4  11  19  31  56  87 108 142 196 237 275 339
#     4  11  22  34  54  87 122 151 193 231 289 361
#     4  10  21  37  59  83 115 149 194 243 292 338
#     4  10  20  37  55  80 121 159 182 233 297 350
#     4  10  19  33  54  83 115 150 185 241 293 335
#     4  10  19  38  58  84 114 146 193 245 291 338
#     4   9  18  32  56  86 110 140 195 247 287 334
#     4   9  20  33  55  87 110 144 193 248 289 334
#
# _framework density 22.641064
#
# number of rings (size 3 to 8) (size 9 to 14) (size 15 to 20)
#    0.000    2.000    3.750    1.500    7.000    0.000 
#    0.000    3.125    0.000    6.000    0.000    0.000 
#    0.000    0.000    0.000    0.000    0.000    0.000 
#
# Total GULP energy -89085.131974 kJ/mol
# GULP energy per Si atom -5567.820748 kJ/mol
# Density = 2.258953 g / cm^3
# Si number density = 22.641064 Si / 1000 Ang^3
#
#
#
# Elastic Constant Matrix: (Units=GPa)
#
#
# Indices 1 2 3 4 5 6 
#
# 1 84.1873 20.9368 29.9011 9.9149 -22.9719 15.0099
# 2 20.9368 44.8387 22.7097 5.5418 -0.2098 18.4226
# 3 29.9011 22.7097 87.7879 -26.7869 -17.2463 -7.8961
# 4 9.9149 5.5418 -26.7869 27.9692 3.0654 0.5152
# 5 -22.9719 -0.2098 -17.2463 3.0654 52.8718 -1.6267
# 6 15.0099 18.4226 -7.8961 0.5152 -1.6267 26.8025
#
#
#
# Elastic Compliance Matrix: (Units=1/GPa)
#
#
# Indices 1 2 3 4 5 6 
#
# 1 0.042969 0.048254 -0.057034 -0.078365 0.002574 -0.072370
# 2 0.048254 0.140891 -0.115478 -0.151418 -0.012155 -0.155711
# 3 -0.057034 -0.115478 0.124090 0.158108 0.010547 0.145471
# 4 -0.078365 -0.151418 0.158108 0.240484 0.008841 0.190455
# 5 0.002574 -0.012155 0.010547 0.008841 0.023258 0.011262
# 6 -0.072370 -0.155711 0.145471 0.190455 0.011262 0.224744
#
#
# Mechanical properties :
#
#
# Convention : Reuss Voigt Hill
#
# Bulk Modulus (GPa) = 16.82522 40.43435 28.62978
# Shear Modulus (GPa) = 4.69588 31.07980 17.88784
#
# Velocity S-wave (km/s) = 1.44172 3.70904 2.81385
# Velocity P-wave (km/s) = 3.19669 6.01999 4.81970
#
# Compressibility (1/GPa) = 0.05943459
#
# Stress axis : x y z
#
# Youngs Moduli (GPa) = 23.27249 7.09769 8.05864
#
# Poissons Ratio (x) = -0.34249 0.45961
# Poissons Ratio (y) = -1.12299 0.93060
# Poissons Ratio (z) = 1.32732 0.81963
#
# Static dielectric constant tensor:
#      x y z
#    x 1.948650 -0.032460 0.027740 
#    y -0.032460 1.885570 -0.036200 
#    z 0.027740 -0.036200 1.905620 
# 
# From -- ./inp_files/312479.got.cif
#   From: 2010.05.17/outbox.cif.g08.bks.cpg/sg2_157_cif.got.tgz:312479.got - 2010.06.03 11:33:40.
