data_PCOD9082589
_publ_section_title
;
Structure prediction by ZEFSAII (Michael W. Deem and Ramdas Pophale) SiO2 
 PCOD9082589
Probable space group: P -1
;
_chemical_formula_sum "Si O2"
_cell_formula_units_Z 16
_cell_length_a 17.616357
_cell_length_b 27.219641
_cell_length_c 15.412583
_cell_angle_alpha 19.976700
_cell_angle_beta 29.025051
_cell_angle_gamma 17.845191
_cell_volume 759.190073
_symmetry_space_group_name_H-M "P -1"
_symmetry_group_IT_number 2
_symmetry_cell_setting 'triclinic'
loop_
_space_group_symop_operation_xyz
x,y,z
-x,-y,-z
loop_
_atom_site_type_symbol
_atom_site_label
_atom_site_fract_x
_atom_site_fract_y
_atom_site_fract_z
Si Si1 0.038239 0.132815 0.275140
Si Si2 0.424037 0.735497 0.023090
Si Si3 0.192163 0.481220 0.508983
Si Si4 0.023709 0.910345 0.994293
Si Si5 0.700593 0.636333 0.759284
Si Si6 0.309788 0.266651 0.575071
Si Si7 0.871126 0.194276 0.516713
Si Si8 0.618203 0.098357 0.841112
O O1 0.070848 0.104169 0.393706
O O2 0.230985 0.057750 0.137828
O O3 0.000000 0.000000 0.500000
O O4 0.787626 0.407822 0.057336
O O5 0.642467 0.475082 0.276944
O O6 0.233788 0.789442 0.058253
O O7 0.543369 0.768788 0.784374
O O8 0.244099 0.921758 0.969642
O O9 0.360985 0.307029 0.548045
O O10 0.357592 0.348004 0.651284
O O11 0.107900 0.704232 0.205111
O O12 0.947463 0.558860 0.640020
O O13 0.986371 0.069677 0.700899
O O14 0.589332 0.736149 0.609119
O O15 0.000000 0.500000 0.500000
O O16 0.395415 0.039753 0.864498
O O17 0.759197 0.123912 0.708340
#
# Coordination Sequence:
#
# PCOD9082589 Si02
#       8
#     2   2   2   2   2   2   2   2
#     4   9  19  31  55  84 123 154 181 236 291 343
#     4  10  23  44  61  86 119 147 202 256 291 338
#     4  11  22  35  59  89 120 160 197 232 294 352
#     4  11  23  41  66  85 110 161 201 243 297 348
#     4  10  21  39  57  86 121 152 193 246 290 344
#     4  10  19  33  56  83 121 155 192 231 289 358
#     4  10  20  38  63  87 116 154 199 241 295 346
#     4  11  19  36  55  88 126 157 188 238 291 353
#
# _framework density 21.075092999999999
#
# number of rings (size 3 to 8) (size 9 to 14) (size 15 to 20)
#    0.000    1.750    3.750    2.250    1.750    1.500 
#    2.250    1.250    0.000    1.500    0.000    0.000 
#    0.000    0.000    0.000    0.000    0.000    0.000 
#
# Total GULP energy -89232.164849 kJ/mol
# GULP energy per Si atom -5577.010303 kJ/mol
# Density = 2.102712 g / cm^3
# Si number density = 21.075093 Si / 1000 Ang^3
#
#
#
# Elastic Constant Matrix: (Units=GPa)
#
#
# Indices 1 2 3 4 5 6 
#
# 1 27.6664 -10.5680 6.5641 -4.8445 9.7272 -1.9742
# 2 -10.5680 64.4776 5.6275 9.0001 8.4868 8.4355
# 3 6.5641 5.6275 96.3652 2.9272 25.5333 3.0769
# 4 -4.8445 9.0001 2.9272 28.2799 4.3062 13.7297
# 5 9.7272 8.4868 25.5333 4.3062 29.1238 2.5325
# 6 -1.9742 8.4355 3.0769 13.7297 2.5325 19.4780
#
#
#
# Elastic Compliance Matrix: (Units=1/GPa)
#
#
# Indices 1 2 3 4 5 6 
#
# 1 0.048644 0.009774 0.001695 0.010304 -0.021757 -0.004005
# 2 0.009774 0.019040 0.000796 -0.000130 -0.008959 -0.006124
# 3 0.001695 0.000796 0.013616 0.001363 -0.012796 -0.001621
# 4 0.010304 -0.000130 0.001363 0.056952 -0.009716 -0.037996
# 5 -0.021757 -0.008959 -0.012796 -0.009716 0.056591 0.003187
# 6 -0.004005 -0.006124 -0.001621 -0.037996 0.003187 0.080211
#
#
# Mechanical properties :
#
#
# Convention : Reuss Voigt Hill
#
# Bulk Modulus (GPa) = 9.44903 21.30627 15.37765
# Shear Modulus (GPa) = 17.49464 27.83540 22.66502
#
# Velocity S-wave (km/s) = 2.88429 3.63819 3.28295
# Velocity P-wave (km/s) = 3.94783 5.27069 4.65648
#
# Compressibility (1/GPa) = 0.10583099
#
# Stress axis : x y z
#
# Youngs Moduli (GPa) = 20.55742 52.51989 73.44242
#
# Poissons Ratio (x) = -0.51334 -0.12451
# Poissons Ratio (y) = -0.20093 -0.05842
# Poissons Ratio (z) = -0.03485 -0.04178
#
# Static dielectric constant tensor:
#      x y z
#    x 1.868290 -0.015580 0.057950 
#    y -0.015580 1.794570 0.022320 
#    z 0.057950 0.022320 1.757330 
# 
# From -- ./inp_files/292972.got.cif
#   From: 2010.05.17/outbox.cif.g08.bks.cpg/sg2_147_cif.got.tgz:292972.got - 2010.06.03 11:33:40.
