data_PCOD9082982
_publ_section_title
;
Structure prediction by ZEFSAII (Michael W. Deem and Ramdas Pophale) SiO2 
 PCOD9082982
Probable space group: P -1
;
_chemical_formula_sum "Si O2"
_cell_formula_units_Z 16
_cell_length_a 20.268631
_cell_length_b 8.458564
_cell_length_c 9.189213
_cell_angle_alpha 75.316948
_cell_angle_beta 31.655878
_cell_angle_gamma 77.826136
_cell_volume 799.773518
_symmetry_space_group_name_H-M "P -1"
_symmetry_group_IT_number 2
_symmetry_cell_setting 'triclinic'
loop_
_space_group_symop_operation_xyz
x,y,z
-x,-y,-z
loop_
_atom_site_type_symbol
_atom_site_label
_atom_site_fract_x
_atom_site_fract_y
_atom_site_fract_z
Si Si1 0.374338 0.909925 0.198413
Si Si2 0.084528 0.349209 0.919398
Si Si3 0.520426 0.628734 0.115496
Si Si4 0.576284 0.879770 0.201249
Si Si5 0.030727 0.020597 0.269081
Si Si6 0.117249 0.088812 0.682122
Si Si7 0.679767 0.972165 0.283830
Si Si8 0.645223 0.640442 0.571564
O O1 0.401721 0.729446 0.246399
O O2 0.244606 0.985955 0.478927
O O3 0.500000 0.000000 0.000000
O O4 0.380351 0.956739 0.006479
O O5 0.123913 0.256473 0.718004
O O6 0.216129 0.414072 0.720858
O O7 0.026999 0.207616 0.166922
O O8 0.000000 0.500000 0.000000
O O9 0.579294 0.730700 0.114805
O O10 0.461881 0.451785 0.298508
O O11 0.612742 0.612936 0.808457
O O12 0.660245 0.881366 0.186876
O O13 0.430740 0.897657 0.519770
O O14 0.176604 0.971195 0.981654
O O15 0.000000 0.000000 0.500000
O O16 0.929893 0.911763 0.394767
O O17 0.000000 0.000000 0.000000
O O18 0.649089 0.832955 0.491375
#
# Coordination Sequence:
#
# PCOD9082982 Si02
#       8
#     2   2   2   2   2   2   2   2
#     4  10  19  33  60  85 110 143 199 237 284 329
#     4  10  22  38  58  85 119 153 192 242 292 342
#     4  10  21  33  59  84 115 145 190 234 288 343
#     4  10  20  34  59  83 111 150 190 235 288 340
#     4  10  22  39  59  83 118 154 199 241 290 344
#     4  10  22  35  60  86 114 154 198 240 284 352
#     4  10  21  37  55  83 116 148 191 240 289 342
#     4  10  21  37  53  85 118 149 183 239 289 343
#
# _framework density 20.005662999999998
#
# number of rings (size 3 to 8) (size 9 to 14) (size 15 to 20)
#    0.000    2.000    1.250    2.250   12.250    0.500 
#    0.000    0.625    0.000    1.500    0.000    0.000 
#    0.000    0.000    0.000    0.000    0.000    0.000 
#
# Total GULP energy -89154.124047 kJ/mol
# GULP energy per Si atom -5572.132753 kJ/mol
# Density = 1.996013 g / cm^3
# Si number density = 20.005663 Si / 1000 Ang^3
#
#
#
# Elastic Constant Matrix: (Units=GPa)
#
#
# Indices 1 2 3 4 5 6 
#
# 1 85.1592 14.1360 15.3178 -1.3898 8.0867 5.3765
# 2 14.1360 39.9972 24.2144 6.3224 -4.9550 1.5761
# 3 15.3178 24.2144 83.1977 4.8863 -8.6086 -8.6811
# 4 -1.3898 6.3224 4.8863 28.7365 -4.8189 -6.2021
# 5 8.0867 -4.9550 -8.6086 -4.8189 40.3754 7.7207
# 6 5.3765 1.5761 -8.6811 -6.2021 7.7207 25.8599
#
#
#
# Elastic Compliance Matrix: (Units=1/GPa)
#
#
# Indices 1 2 3 4 5 6 
#
# 1 0.013161 -0.003974 -0.001840 0.000885 -0.003029 -0.001995
# 2 -0.003974 0.033685 -0.009027 -0.006987 0.003506 -0.006980
# 3 -0.001840 -0.009027 0.015722 0.000766 0.001571 0.005925
# 4 0.000885 -0.006987 0.000766 0.038557 0.001980 0.009155
# 5 -0.003029 0.003506 0.001571 0.001980 0.027685 -0.006847
# 6 -0.001995 -0.006980 0.005925 0.009155 -0.006847 0.045739
#
#
# Mechanical properties :
#
#
# Convention : Reuss Voigt Hill
#
# Bulk Modulus (GPa) = 30.40905 35.07672 32.74288
# Shear Modulus (GPa) = 23.23481 29.30677 26.27079
#
# Velocity S-wave (km/s) = 3.41165 3.83158 3.62770
# Velocity P-wave (km/s) = 5.54548 6.09477 5.82660
#
# Compressibility (1/GPa) = 0.03288495
#
# Stress axis : x y z
#
# Youngs Moduli (GPa) = 75.97965 29.68647 63.60682
#
# Poissons Ratio (x) = 0.11798 0.11705
# Poissons Ratio (y) = 0.30195 0.57421
# Poissons Ratio (z) = 0.13981 0.26799
#
# Static dielectric constant tensor:
#      x y z
#    x 1.783860 -0.002680 0.003030 
#    y -0.002680 1.788710 -0.007080 
#    z 0.003030 -0.007080 1.744150 
# 
# From -- ./inp_files/343491.got.cif
#   From: 2010.05.17/outbox.cif.g08.bks.cpg/sg2_172_cif.got.tgz:343491.got - 2010.06.03 11:33:40.
