data_PCOD9082651
_publ_section_title
;
Structure prediction by ZEFSAII (Michael W. Deem and Ramdas Pophale) SiO2 
 PCOD9082651
Probable space group: P -1
;
_chemical_formula_sum "Si O2"
_cell_formula_units_Z 14
_cell_length_a 5.605388
_cell_length_b 11.256869
_cell_length_c 19.357407
_cell_angle_alpha 34.012892
_cell_angle_beta 115.744775
_cell_angle_gamma 104.417103
_cell_volume 600.286198
_symmetry_space_group_name_H-M "P -1"
_symmetry_group_IT_number 2
_symmetry_cell_setting 'triclinic'
loop_
_space_group_symop_operation_xyz
x,y,z
-x,-y,-z
loop_
_atom_site_type_symbol
_atom_site_label
_atom_site_fract_x
_atom_site_fract_y
_atom_site_fract_z
Si Si1 0.690064 0.117045 0.921028
Si Si2 0.768934 0.212634 0.275079
Si Si3 0.612379 0.749969 0.324930
Si Si4 0.984299 0.708054 0.586848
Si Si5 0.226627 0.774664 0.392864
Si Si6 0.738553 0.812547 0.721520
Si Si7 0.561220 0.586168 0.678757
O O1 0.539854 0.171858 0.802617
O O2 0.686893 0.352564 0.840407
O O3 0.500000 0.000000 0.000000
O O4 0.000000 0.000000 0.000000
O O5 0.874887 0.300545 0.316410
O O6 0.446432 0.277712 0.203678
O O7 0.942313 0.277711 0.203679
O O8 0.866788 0.951177 0.427467
O O9 0.400271 0.828449 0.322918
O O10 0.696084 0.487618 0.468184
O O11 0.896932 0.828449 0.322919
O O12 0.239092 0.596828 0.626278
O O13 0.736571 0.596827 0.626279
O O14 0.293288 0.935342 0.383745
O O15 0.611447 0.770054 0.650946
#
# Coordination Sequence:
#
# PCOD9082651 Si02
#       7
#     2   2   2   2   2   2   2
#     4  12  26  45  66  89 120 168 219 266 307 353
#     4   9  17  26  44  78 120 156 180 222 294 380
#     4  10  23  41  63  90 125 168 209 247 299 377
#     4   9  17  29  45  76 117 153 186 227 301 367
#     4  10  21  40  63  95 127 162 201 244 313 383
#     4  10  19  33  56  88 125 153 193 249 313 377
#     4  10  21  36  56  86 117 154 202 259 314 360
#
# _framework density 23.322206999999999
#
# number of rings (size 3 to 8) (size 9 to 14) (size 15 to 20)
#    0.000    2.000    0.000    3.429    4.000    3.429 
#    0.000    0.000    0.000    5.143    0.000    0.000 
#    0.000    0.000    0.000    0.000    0.000    0.000 
#
# Total GULP energy -78082.392627 kJ/mol
# GULP energy per Si atom -5577.313759 kJ/mol
# Density = 2.326913 g / cm^3
# Si number density = 23.322207 Si / 1000 Ang^3
#
#
#
# Elastic Constant Matrix: (Units=GPa)
#
#
# Indices 1 2 3 4 5 6 
#
# 1 303.6627 44.8872 37.3789 0.1023 -0.6689 8.7142
# 2 44.8872 93.4241 26.6648 -4.4639 0.8118 1.4305
# 3 37.3789 26.6648 54.5631 1.7938 -0.0978 0.5139
# 4 0.1023 -4.4639 1.7938 19.9848 0.3844 0.5173
# 5 -0.6689 0.8118 -0.0978 0.3844 27.9857 6.2148
# 6 8.7142 1.4305 0.5139 0.5173 6.2148 39.4637
#
#
#
# Elastic Compliance Matrix: (Units=1/GPa)
#
#
# Indices 1 2 3 4 5 6 
#
# 1 0.003739 -0.001237 -0.001946 -0.000106 0.000298 -0.000801
# 2 -0.001237 0.013084 -0.005660 0.003448 -0.000454 -0.000101
# 3 -0.001946 -0.005660 0.022531 -0.003289 0.000162 0.000359
# 4 -0.000106 0.003448 -0.003289 0.051133 -0.000678 -0.000622
# 5 0.000298 -0.000454 0.000162 -0.000678 0.037069 -0.005880
# 6 -0.000801 -0.000101 0.000359 -0.000622 -0.005880 0.026450
#
#
# Mechanical properties :
#
#
# Convention : Reuss Voigt Hill
#
# Bulk Modulus (GPa) = 46.14750 74.39018 60.26884
# Shear Modulus (GPa) = 27.94649 40.33478 34.14063
#
# Velocity S-wave (km/s) = 3.46537 4.16319 3.83020
# Velocity P-wave (km/s) = 5.98679 7.42128 6.74229
#
# Compressibility (1/GPa) = 0.02166964
#
# Stress axis : x y z
#
# Youngs Moduli (GPa) = 267.44492 76.43080 44.38256
#
# Poissons Ratio (x) = 0.09451 0.08635
# Poissons Ratio (y) = 0.33071 0.25121
# Poissons Ratio (z) = 0.52035 0.43260
#
# Static dielectric constant tensor:
#      x y z
#    x 2.032860 0.004600 0.000180 
#    y 0.004600 1.937480 -0.004790 
#    z 0.000180 -0.004790 1.859610 
# 
# From -- ./inp_files/583231.got.cif
#   From: 2010.05.17/outbox.cif.g08.bks.cpg/sg2_292_cif.got.tgz:583231.got - 2010.06.03 11:33:40.
