data_PCOD9082355
_publ_section_title
;
Structure prediction by ZEFSAII (Michael W. Deem and Ramdas Pophale) SiO2 
 PCOD9082355
Probable space group: P -1
;
_chemical_formula_sum "Si O2"
_cell_formula_units_Z 16
_cell_length_a 8.354883
_cell_length_b 23.644885
_cell_length_c 17.732221
_cell_angle_alpha 18.940692
_cell_angle_beta 42.022308
_cell_angle_gamma 38.505550
_cell_volume 707.845253
_symmetry_space_group_name_H-M "P -1"
_symmetry_group_IT_number 2
_symmetry_cell_setting 'triclinic'
loop_
_space_group_symop_operation_xyz
x,y,z
-x,-y,-z
loop_
_atom_site_type_symbol
_atom_site_label
_atom_site_fract_x
_atom_site_fract_y
_atom_site_fract_z
Si Si1 0.659931 0.630522 0.791171
Si Si2 0.355372 0.218879 0.952658
Si Si3 0.770027 0.428558 0.358315
Si Si4 0.048888 0.852665 0.921888
Si Si5 0.396875 0.207656 0.237208
Si Si6 0.289434 0.950613 0.087345
Si Si7 0.860609 0.251369 0.393183
Si Si8 0.282531 0.934885 0.448406
O O1 0.677555 0.643452 0.857426
O O2 0.493423 0.838361 0.558335
O O3 0.940599 0.574208 0.729447
O O4 0.500000 0.500000 0.000000
O O5 0.390974 0.398311 0.750941
O O6 0.604788 0.081154 0.994171
O O7 0.113552 0.249960 0.939272
O O8 0.305590 0.111377 0.177357
O O9 0.728893 0.246347 0.634440
O O10 0.752128 0.408016 0.298696
O O11 0.356260 0.774228 0.910983
O O12 0.965023 0.890790 0.990520
O O13 0.958723 0.055675 0.654284
O O14 0.107699 0.244723 0.264968
O O15 0.500000 0.000000 0.500000
O O16 0.500000 0.000000 0.000000
O O17 0.670704 0.222273 0.435021
O O18 0.000000 0.000000 0.500000
#
# Coordination Sequence:
#
# PCOD9082355 Si02
#       8
#     2   2   2   2   2   2   2   2
#     4  11  22  36  55  82 114 148 182 221 275 337
#     4  10  19  33  54  81 109 142 186 232 273 319
#     4  10  19  35  58  84 112 146 185 225 270 330
#     4   8  14  27  49  78 107 141 178 218 267 322
#     4   9  15  29  51  76 106 139 177 217 263 326
#     4   9  18  32  55  83 109 144 188 230 270 320
#     4   8  17  30  50  77 107 139 177 219 268 321
#     4  11  21  36  55  79 113 149 181 228 280 325
#
# _framework density 22.603812000000001
#
# number of rings (size 3 to 8) (size 9 to 14) (size 15 to 20)
#    0.000    2.500    0.000    5.625    0.000    0.000 
#    0.000    7.500    0.000    0.000    0.000   28.000 
#    0.000    0.000    0.000    0.000    0.000    0.000 
#
# Total GULP energy -89161.334779 kJ/mol
# GULP energy per Si atom -5572.583424 kJ/mol
# Density = 2.255236 g / cm^3
# Si number density = 22.603812 Si / 1000 Ang^3
#
#
#
# Elastic Constant Matrix: (Units=GPa)
#
#
# Indices 1 2 3 4 5 6 
#
# 1 53.3273 11.4079 10.3299 -10.7958 -15.8986 18.3847
# 2 11.4079 97.5440 1.3865 15.1419 1.8712 20.1385
# 3 10.3299 1.3865 68.8470 2.9157 -17.9342 7.9208
# 4 -10.7958 15.1419 2.9157 39.3758 5.0958 -9.0249
# 5 -15.8986 1.8712 -17.9342 5.0958 30.7895 -8.1968
# 6 18.3847 20.1385 7.9208 -9.0249 -8.1968 32.7889
#
#
#
# Elastic Compliance Matrix: (Units=1/GPa)
#
#
# Indices 1 2 3 4 5 6 
#
# 1 0.026605 -0.001978 -0.000328 0.004497 0.010312 -0.009808
# 2 -0.001978 0.013960 0.000824 -0.008027 -0.002882 -0.010594
# 3 -0.000328 0.000824 0.017637 -0.003706 0.009830 -0.003145
# 4 0.004497 -0.008027 -0.003706 0.032942 -0.001615 0.011967
# 5 0.010312 -0.002882 0.009830 -0.001615 0.045158 0.004458
# 6 -0.009808 -0.010594 -0.003145 0.011967 0.004458 0.047672
#
#
# Mechanical properties :
#
#
# Convention : Reuss Voigt Hill
#
# Bulk Modulus (GPa) = 18.10372 29.55187 23.82779
# Shear Modulus (GPa) = 24.34874 33.69711 29.02292
#
# Velocity S-wave (km/s) = 3.28563 3.86524 3.58716
# Velocity P-wave (km/s) = 4.73501 5.74651 5.26510
#
# Compressibility (1/GPa) = 0.05523727
#
# Stress axis : x y z
#
# Youngs Moduli (GPa) = 37.58758 71.63456 56.69916
#
# Poissons Ratio (x) = 0.14167 0.01859
# Poissons Ratio (y) = 0.07434 -0.04670
# Poissons Ratio (z) = 0.01233 -0.05900
#
# Static dielectric constant tensor:
#      x y z
#    x 1.996090 -0.000210 0.110150 
#    y -0.000210 1.891510 -0.072320 
#    z 0.110150 -0.072320 2.147730 
# 
# From -- ./inp_files/218556.got.cif
#   From: 2010.05.17/outbox.cif.g08.bks.cpg/sg2_110_cif.got.tgz:218556.got - 2010.06.03 11:33:40.
