data_PCOD9082458
_publ_section_title
;
Structure prediction by ZEFSAII (Michael W. Deem and Ramdas Pophale) SiO2 
 PCOD9082458
Probable space group: P -1
;
_chemical_formula_sum "Si O2"
_cell_formula_units_Z 16
_cell_length_a 16.480061
_cell_length_b 16.994020
_cell_length_c 9.643877
_cell_angle_alpha 45.342501
_cell_angle_beta 46.152922
_cell_angle_gamma 23.902298
_cell_volume 766.553776
_symmetry_space_group_name_H-M "P -1"
_symmetry_group_IT_number 2
_symmetry_cell_setting 'triclinic'
loop_
_space_group_symop_operation_xyz
x,y,z
-x,-y,-z
loop_
_atom_site_type_symbol
_atom_site_label
_atom_site_fract_x
_atom_site_fract_y
_atom_site_fract_z
Si Si1 0.979499 0.440370 0.963182
Si Si2 0.947438 0.866189 0.753078
Si Si3 0.979621 0.208818 0.920482
Si Si4 0.205381 0.237502 0.663023
Si Si5 0.387048 0.638631 0.805785
Si Si6 0.300409 0.734227 0.478501
Si Si7 0.614691 0.251018 0.054675
Si Si8 0.385665 0.239256 0.206489
O O1 0.753192 0.632561 0.924347
O O2 0.115823 0.353849 0.771081
O O3 0.000000 0.500000 0.000000
O O4 0.047625 0.261012 0.153391
O O5 0.110592 0.814529 0.554110
O O6 0.740992 0.106445 0.719482
O O7 0.030886 0.779124 0.916032
O O8 0.051965 0.274638 0.724636
O O9 0.162727 0.979539 0.943601
O O10 0.774268 0.315135 0.990465
O O11 0.264407 0.278008 0.427014
O O12 0.409172 0.001463 0.754930
O O13 0.301686 0.747595 0.626774
O O14 0.421213 0.706883 0.790504
O O15 0.580283 0.401279 0.847316
O O16 0.500000 0.500000 0.500000
O O17 0.459358 0.296595 0.106233
#
# Coordination Sequence:
#
# PCOD9082458 Si02
#       8
#     2   2   2   2   2   2   2   2
#     4  11  23  40  60  89 121 162 202 248 298 358
#     4   9  20  36  55  82 110 150 199 227 290 360
#     4   9  17  34  58  78 108 148 185 235 283 345
#     4   9  20  38  63  88 111 158 205 242 302 354
#     4  10  20  32  51  86 110 142 187 234 287 346
#     4  10  19  36  58  79 114 152 188 240 292 345
#     4  10  19  33  55  81 113 142 184 234 293 345
#     4  10  20  39  62  85 118 157 200 248 301 355
#
# _framework density 20.872638999999999
#
# number of rings (size 3 to 8) (size 9 to 14) (size 15 to 20)
#    0.000    2.250    0.000    3.750    0.000    2.500 
#    9.000    0.000    0.000    0.000    0.000    0.000 
#    0.000    0.000    0.000    0.000    0.000    0.000 
#
# Total GULP energy -89164.210322 kJ/mol
# GULP energy per Si atom -5572.763145 kJ/mol
# Density = 2.082513 g / cm^3
# Si number density = 20.872639 Si / 1000 Ang^3
#
#
#
# Elastic Constant Matrix: (Units=GPa)
#
#
# Indices 1 2 3 4 5 6 
#
# 1 125.0685 52.7172 26.7927 -1.1508 17.4332 20.4996
# 2 52.7172 122.2868 17.4448 -15.0839 -5.5507 12.8377
# 3 26.7927 17.4448 41.0851 -5.6663 1.8044 4.0243
# 4 -1.1508 -15.0839 -5.6663 29.4849 0.3602 -1.9601
# 5 17.4332 -5.5507 1.8044 0.3602 19.5655 -4.1048
# 6 20.4996 12.8377 4.0243 -1.9601 -4.1048 32.9837
#
#
#
# Elastic Compliance Matrix: (Units=1/GPa)
#
#
# Indices 1 2 3 4 5 6 
#
# 1 0.015880 -0.006252 -0.006653 -0.004247 -0.017121 -0.009007
# 2 -0.006252 0.012010 -0.000711 0.005703 0.009100 0.000769
# 3 -0.006653 -0.000711 0.029389 0.005087 0.003243 0.001531
# 4 -0.004247 0.005703 0.005087 0.037762 0.004791 0.002639
# 5 -0.017121 0.009100 0.003243 0.004791 0.071903 0.015936
# 6 -0.009007 0.000769 0.001531 0.002639 0.015936 0.037570
#
#
# Mechanical properties :
#
#
# Convention : Reuss Voigt Hill
#
# Bulk Modulus (GPa) = 33.28002 53.59443 43.43723
# Shear Modulus (GPa) = 20.68163 29.17254 24.92708
#
# Velocity S-wave (km/s) = 3.15119 3.74256 3.45954
# Velocity P-wave (km/s) = 5.40545 6.66396 6.06742
#
# Compressibility (1/GPa) = 0.03004806
#
# Stress axis : x y z
#
# Youngs Moduli (GPa) = 62.97302 83.26470 34.02646
#
# Poissons Ratio (x) = 0.52058 0.22636
# Poissons Ratio (y) = 0.39371 0.02418
# Poissons Ratio (z) = 0.41893 0.05918
#
# Static dielectric constant tensor:
#      x y z
#    x 1.763820 -0.021140 -0.046360 
#    y -0.021140 1.846960 0.010360 
#    z -0.046360 0.010360 1.804740 
# 
# From -- ./inp_files/314781.got.cif
#   From: 2010.05.17/outbox.cif.g08.bks.cpg/sg2_158_cif.got.tgz:314781.got - 2010.06.03 11:33:40.
