data_PCOD9082033
_publ_section_title
;
Structure prediction by ZEFSAII (Michael W. Deem and Ramdas Pophale) SiO2 
 PCOD9082033
Probable space group: P -1
;
_chemical_formula_sum "Si O2"
_cell_formula_units_Z 15
_cell_length_a 9.530358
_cell_length_b 11.355376
_cell_length_c 13.678822
_cell_angle_alpha 135.291641
_cell_angle_beta 135.606950
_cell_angle_gamma 40.786895
_cell_volume 628.151285
_symmetry_space_group_name_H-M "P -1"
_symmetry_group_IT_number 2
_symmetry_cell_setting 'triclinic'
loop_
_space_group_symop_operation_xyz
x,y,z
-x,-y,-z
loop_
_atom_site_type_symbol
_atom_site_label
_atom_site_fract_x
_atom_site_fract_y
_atom_site_fract_z
Si Si1 0.264469 0.393195 0.680169
Si Si2 0.817724 0.801599 0.937739
Si Si3 0.022187 0.383226 0.754531
Si Si4 0.108634 0.190066 0.345450
Si Si5 0.788187 0.081206 0.240404
Si Si6 0.000000 0.000000 0.500000
Si Si7 0.727387 0.199243 0.906712
Si Si8 0.488093 0.219919 0.995399
O O1 0.135993 0.365521 0.693590
O O2 0.283303 0.243082 0.517426
O O3 0.517543 0.339377 0.812866
O O4 0.094140 0.607153 0.679696
O O5 0.043333 0.788502 0.989622
O O6 0.825917 0.603733 0.804853
O O7 0.835865 0.874284 0.098359
O O8 0.580202 0.989412 0.895618
O O9 0.225203 0.351297 0.912171
O O10 0.959620 0.217278 0.633938
O O11 0.997466 0.110890 0.322507
O O12 0.219097 0.017006 0.220552
O O13 0.571699 0.230608 0.152167
O O14 0.803509 0.092474 0.368911
O O15 0.639673 0.243694 0.000015
#
# Coordination Sequence:
#
# PCOD9082033 Si02
#       8
#     2   2   2   2   2   1   2   2
#     4  10  21  32  58  96 122 162 194 235 304 371
#     4   9  21  37  61  95 118 160 195 243 304 361
#     4  11  23  39  67  86 122 161 205 247 301 352
#     4  10  19  36  56  91 130 157 191 243 302 363
#     4   9  22  40  65  85 123 158 203 249 301 347
#     4  12  24  46  66  82 120 166 204 264 298 336
#     4  10  19  32  61  90 131 155 187 243 300 366
#     4   9  21  38  61  96 121 156 199 242 303 365
#
# _framework density 23.879595999999999
#
# number of rings (size 3 to 8) (size 9 to 14) (size 15 to 20)
#    0.800    1.333    1.333    1.600    3.733    2.133 
#    0.000    0.667    2.933    0.000    0.000    0.000 
#    0.000    0.000    0.000    0.000    0.000    0.000 
#
# Total GULP energy -83553.595567 kJ/mol
# GULP energy per Si atom -5570.239704 kJ/mol
# Density = 2.382524 g / cm^3
# Si number density = 23.879596 Si / 1000 Ang^3
#
#
#
# Elastic Constant Matrix: (Units=GPa)
#
#
# Indices 1 2 3 4 5 6 
#
# 1 55.2965 3.1892 12.6103 -10.0597 -4.1557 -1.7778
# 2 3.1892 98.0355 32.7989 8.0265 -3.1021 -2.9327
# 3 12.6103 32.7989 140.8633 -5.3009 -10.7973 11.4345
# 4 -10.0597 8.0265 -5.3009 51.5213 4.6533 0.7080
# 5 -4.1557 -3.1021 -10.7973 4.6533 12.3839 0.6849
# 6 -1.7778 -2.9327 11.4345 0.7080 0.6849 17.7368
#
#
#
# Elastic Compliance Matrix: (Units=1/GPa)
#
#
# Indices 1 2 3 4 5 6 
#
# 1 0.019401 -0.000206 -0.001485 0.003290 0.003784 0.002591
# 2 -0.000206 0.011542 -0.003005 -0.002277 0.000842 0.003884
# 3 -0.001485 -0.003005 0.009020 0.000588 0.006765 -0.006746
# 4 0.003290 -0.002277 0.000588 0.021097 -0.006826 -0.001004
# 5 0.003784 0.000842 0.006765 -0.006826 0.091086 -0.007087
# 6 0.002591 0.003884 -0.006746 -0.001004 -0.007087 0.061944
#
#
# Mechanical properties :
#
#
# Convention : Reuss Voigt Hill
#
# Bulk Modulus (GPa) = 32.71252 43.48802 38.10027
# Shear Modulus (GPa) = 21.39730 32.70151 27.04941
#
# Velocity S-wave (km/s) = 2.99666 3.70460 3.36927
# Velocity P-wave (km/s) = 5.06971 6.04563 5.57905
#
# Compressibility (1/GPa) = 0.03056933
#
# Stress axis : x y z
#
# Youngs Moduli (GPa) = 51.54328 86.64139 110.86397
#
# Poissons Ratio (x) = 0.01788 0.16465
# Poissons Ratio (y) = 0.01064 0.33318
# Poissons Ratio (z) = 0.07655 0.26038
#
# Static dielectric constant tensor:
#      x y z
#    x 1.978420 0.057020 0.010510 
#    y 0.057020 1.896870 0.009560 
#    z 0.010510 0.009560 1.871020 
# 
# From -- ./inp_files/518324.got.cif
#   From: 2010.05.17/outbox.cif.g08.bks.cpg/sg2_260_cif.got.tgz:518324.got - 2010.06.03 11:33:40.
