data_PCOD9082237
_publ_section_title
;
Structure prediction by ZEFSAII (Michael W. Deem and Ramdas Pophale) SiO2 
 PCOD9082237
Probable space group: P -1
;
_chemical_formula_sum "Si O2"
_cell_formula_units_Z 16
_cell_length_a 8.692631
_cell_length_b 11.877414
_cell_length_c 10.028206
_cell_angle_alpha 59.583171
_cell_angle_beta 99.141256
_cell_angle_gamma 135.319712
_cell_volume 592.280687
_symmetry_space_group_name_H-M "P -1"
_symmetry_group_IT_number 2
_symmetry_cell_setting 'triclinic'
loop_
_space_group_symop_operation_xyz
x,y,z
-x,-y,-z
loop_
_atom_site_type_symbol
_atom_site_label
_atom_site_fract_x
_atom_site_fract_y
_atom_site_fract_z
Si Si1 0.388164 0.704951 0.524785
Si Si2 0.419574 0.365159 0.867900
Si Si3 0.928675 0.654710 0.639873
Si Si4 0.923822 0.258261 0.657211
Si Si5 0.923674 0.251376 0.117010
Si Si6 0.279260 0.751516 0.136610
Si Si7 0.275218 0.118745 0.767946
Si Si8 0.592892 0.365689 0.146842
O O1 0.277795 0.770764 0.414544
O O2 0.603758 0.785267 0.417556
O O3 0.442571 0.749689 0.662679
O O4 0.176127 0.475381 0.598407
O O5 0.672606 0.530593 0.731653
O O6 0.247039 0.216000 0.814195
O O7 0.403292 0.493344 0.859769
O O8 0.427975 0.269800 0.052102
O O9 0.897237 0.478347 0.719571
O O10 0.009373 0.779450 0.443962
O O11 0.101193 0.777187 0.712611
O O12 0.814523 0.181756 0.834262
O O13 0.934677 0.110219 0.148374
O O14 0.725612 0.207949 0.040697
O O15 0.151333 0.474298 0.977843
O O16 0.519448 0.839263 0.160127
#
# Coordination Sequence:
#
# PCOD9082237 Si02
#       8
#     2   2   2   2   2   2   2   2
#     4  10  17  33  55  77 102 135 167 210 251 312
#     4   9  20  36  53  76 101 134 174 225 244 295
#     4  10  17  32  53  76 102 133 175 217 244 296
#     4  10  15  31  55  76 103 128 172 207 251 294
#     4  11  21  31  52  80 103 137 171 209 260 309
#     4  10  17  33  53  75 103 139 171 208 250 309
#     4  10  21  35  49  76 114 132 160 216 269 298
#     4  10  20  35  58  76  96 134 188 208 247 300
#
# _framework density 27.014218
#
# number of rings (size 3 to 8) (size 9 to 14) (size 15 to 20)
#    0.000    2.000    6.250    0.750    0.000    3.000 
#    0.000    3.750    0.000    6.750    0.000    0.000 
#    0.000    0.000    0.000    0.000    0.000    0.000 
#
# Total GULP energy -89274.014227 kJ/mol
# GULP energy per Si atom -5579.625889 kJ/mol
# Density = 2.695273 g / cm^3
# Si number density = 27.014218 Si / 1000 Ang^3
#
#
#
# Elastic Constant Matrix: (Units=GPa)
#
#
# Indices 1 2 3 4 5 6 
#
# 1 41.6273 2.2261 18.3241 6.6792 -19.4652 -12.3702
# 2 2.2261 73.3296 43.3641 18.5864 -0.9148 -16.8539
# 3 18.3241 43.3641 116.2393 32.9295 1.0716 -2.6875
# 4 6.6792 18.5864 32.9295 42.0911 2.5702 -3.5479
# 5 -19.4652 -0.9148 1.0716 2.5702 33.2775 14.1961
# 6 -12.3702 -16.8539 -2.6875 -3.5479 14.1961 24.1365
#
#
#
# Elastic Compliance Matrix: (Units=1/GPa)
#
#
# Indices 1 2 3 4 5 6 
#
# 1 0.040621 0.007991 -0.008248 -0.003464 0.018503 0.014088
# 2 0.007991 0.024409 -0.008989 -0.002978 -0.003390 0.021695
# 3 -0.008248 -0.008989 0.015109 -0.007260 -0.001040 -0.009278
# 4 -0.003464 -0.002978 -0.007260 0.031949 -0.005815 0.003453
# 5 0.018503 -0.003390 -0.001040 -0.005815 0.051584 -0.024195
# 6 0.014088 0.021695 -0.009278 0.003453 -0.024195 0.077506
#
#
# Mechanical properties :
#
#
# Convention : Reuss Voigt Hill
#
# Bulk Modulus (GPa) = 16.22155 39.89164 28.05660
# Shear Modulus (GPa) = 17.84319 31.05315 24.44817
#
# Velocity S-wave (km/s) = 2.57283 3.39412 3.01160
# Velocity P-wave (km/s) = 3.85276 5.49173 4.74357
#
# Compressibility (1/GPa) = 0.06164639
#
# Stress axis : x y z
#
# Youngs Moduli (GPa) = 24.61787 40.96789 66.18748
#
# Poissons Ratio (x) = -0.32739 0.54594
# Poissons Ratio (y) = -0.19673 0.59498
# Poissons Ratio (z) = 0.20306 0.36827
#
# Static dielectric constant tensor:
#      x y z
#    x 2.238210 -0.085100 0.028870 
#    y -0.085100 2.188490 0.036370 
#    z 0.028870 0.036370 2.190760 
# 
# From -- ./inp_files/272524.got.cif
#   From: 2010.05.17/outbox.cif.g08.bks.cpg/sg2_137_cif.got.tgz:272524.got - 2010.06.03 11:33:40.
