data_PCOD9082318
_publ_section_title
;
Structure prediction by ZEFSAII (Michael W. Deem and Ramdas Pophale) SiO2 
 PCOD9082318
Probable space group: P -1
;
_chemical_formula_sum "Si O2"
_cell_formula_units_Z 12
_cell_length_a 14.195361
_cell_length_b 7.168065
_cell_length_c 7.427985
_cell_angle_alpha 117.366076
_cell_angle_beta 39.646549
_cell_angle_gamma 117.871445
_cell_volume 419.595931
_symmetry_space_group_name_H-M "P -1"
_symmetry_group_IT_number 2
_symmetry_cell_setting 'triclinic'
loop_
_space_group_symop_operation_xyz
x,y,z
-x,-y,-z
loop_
_atom_site_type_symbol
_atom_site_label
_atom_site_fract_x
_atom_site_fract_y
_atom_site_fract_z
Si Si1 0.355623 0.705068 0.946718
Si Si2 0.485159 0.749598 0.128490
Si Si3 0.879209 0.520089 0.035364
Si Si4 0.915706 0.838069 0.803338
Si Si5 0.194984 0.200950 0.443083
Si Si6 0.597141 0.792222 0.354614
O O1 0.355515 0.758589 0.180393
O O2 0.209676 0.690448 0.029389
O O3 0.372722 0.452571 0.802985
O O4 0.508366 0.823604 0.678395
O O5 0.649060 0.867057 0.865041
O O6 0.500000 0.500000 0.000000
O O7 0.483021 0.804822 0.364063
O O8 0.769374 0.624312 0.373508
O O9 0.945581 0.677551 0.844302
O O10 0.000000 0.500000 0.000000
O O11 0.865423 0.734935 0.634606
O O12 0.766778 0.920946 0.129614
O O13 0.060806 0.021341 0.638538
#
# Coordination Sequence:
#
# PCOD9082318 Si02
#       6
#     2   2   2   2   2   2
#     4   9  16  27  43  68  96 123 158 198 240 284
#     4   9  15  26  48  74  95 117 156 210 250 277
#     4  11  22  33  48  73 105 137 164 195 243 301
#     4   9  19  34  53  76  99 127 166 208 247 288
#     4  10  19  33  54  77  99 127 165 208 250 288
#     4   8  14  26  47  71  92 116 156 207 246 275
#
# _framework density 28.598943999999999
#
# number of rings (size 3 to 8) (size 9 to 14) (size 15 to 20)
#    0.000    2.667    0.000    5.500    0.000    0.667 
#    0.000    0.000    0.000    4.000    0.000   10.500 
#    0.000    0.000    0.000    0.000    0.000    0.000 
#
# Total GULP energy -67234.857841 kJ/mol
# GULP energy per Si atom -5602.904820 kJ/mol
# Density = 2.853385 g / cm^3
# Si number density = 28.598944 Si / 1000 Ang^3
#
#
#
# Elastic Constant Matrix: (Units=GPa)
#
#
# Indices 1 2 3 4 5 6 
#
# 1 259.3625 46.9844 51.7061 -13.6878 31.7853 -0.9592
# 2 46.9844 76.2216 36.0552 -20.3646 4.7707 -0.0346
# 3 51.7061 36.0552 141.2783 -20.9205 -2.2352 9.8025
# 4 -13.6878 -20.3646 -20.9205 55.3388 9.6862 7.5091
# 5 31.7853 4.7707 -2.2352 9.6862 59.3908 -1.6051
# 6 -0.9592 -0.0346 9.8025 7.5091 -1.6051 57.4379
#
#
#
# Elastic Compliance Matrix: (Units=1/GPa)
#
#
# Indices 1 2 3 4 5 6 
#
# 1 0.004811 -0.002139 -0.001213 0.000359 -0.002503 0.000169
# 2 -0.002139 0.017191 -0.002876 0.004941 -0.001156 -0.000213
# 3 -0.001213 -0.002876 0.008689 0.002018 0.000831 -0.001746
# 4 0.000359 0.004941 0.002018 0.021922 -0.004178 -0.003318
# 5 -0.002503 -0.001156 0.000831 -0.004178 0.019007 0.000893
# 6 0.000169 -0.000213 -0.001746 -0.003318 0.000893 0.018169
#
#
# Mechanical properties :
#
#
# Convention : Reuss Voigt Hill
#
# Bulk Modulus (GPa) = 54.84020 82.92818 68.88419
# Shear Modulus (GPa) = 46.15718 57.24126 51.69922
#
# Velocity S-wave (km/s) = 4.02175 4.47868 4.25636
# Velocity P-wave (km/s) = 6.38618 7.47026 6.94939
#
# Compressibility (1/GPa) = 0.01823480
#
# Stress axis : x y z
#
# Youngs Moduli (GPa) = 207.84510 58.16913 115.08422
#
# Poissons Ratio (x) = 0.12444 0.13960
# Poissons Ratio (y) = 0.44462 0.33101
# Poissons Ratio (z) = 0.25213 0.16731
#
# Static dielectric constant tensor:
#      x y z
#    x 2.179470 -0.082490 -0.089610 
#    y -0.082490 2.608980 0.130630 
#    z -0.089610 0.130630 2.201330 
# 
# From -- ./inp_files/60634.got.cif
#   From: 2010.05.17/outbox.cif.g08.bks.cpg/sg2_31_cif.got.tgz:60634.got - 2010.06.03 11:33:40.
