data_PCOD9082079
_publ_section_title
;
Structure prediction by ZEFSAII (Michael W. Deem and Ramdas Pophale) SiO2 
 PCOD9082079
Probable space group: P -1
;
_chemical_formula_sum "Si O2"
_cell_formula_units_Z 16
_cell_length_a 12.571994
_cell_length_b 14.702453
_cell_length_c 22.614399
_cell_angle_alpha 138.697937
_cell_angle_beta 150.656412
_cell_angle_gamma 27.774567
_cell_volume 950.866213
_symmetry_space_group_name_H-M "P -1"
_symmetry_group_IT_number 2
_symmetry_cell_setting 'triclinic'
loop_
_space_group_symop_operation_xyz
x,y,z
-x,-y,-z
loop_
_atom_site_type_symbol
_atom_site_label
_atom_site_fract_x
_atom_site_fract_y
_atom_site_fract_z
Si Si1 0.102668 0.690378 0.459777
Si Si2 0.163088 0.645168 0.331992
Si Si3 0.254162 0.388640 0.155323
Si Si4 0.872870 0.340098 0.319455
Si Si5 0.952737 0.017801 0.351077
Si Si6 0.753170 0.092976 0.681794
Si Si7 0.926276 0.609025 0.445208
Si Si8 0.817233 0.376298 0.876387
O O1 0.034703 0.697689 0.361862
O O2 0.467475 0.497115 0.552709
O O3 0.036711 0.876072 0.539246
O O4 0.925975 0.674153 0.412691
O O5 0.133975 0.516711 0.218917
O O6 0.015350 0.838119 0.318728
O O7 0.613730 0.188260 0.240528
O O8 0.207456 0.523950 0.147290
O O9 0.059357 0.344179 0.019458
O O10 0.016126 0.407937 0.389609
O O11 0.532262 0.466137 0.192020
O O12 0.856954 0.400216 0.410018
O O13 0.064619 0.114958 0.302304
O O14 0.201340 0.941705 0.383569
O O15 0.406854 0.238840 0.609853
O O16 0.887209 0.184097 0.805386
#
# Coordination Sequence:
#
# PCOD9082079 Si02
#       8
#     2   2   2   2   2   2   2   2
#     4  10  21  36  52  77 107 137 177 208 253 314
#     4  10  21  36  54  74 106 143 168 215 259 299
#     4  10  20  34  52  76 105 139 174 212 256 305
#     4  10  19  33  49  77 108 136 167 209 260 307
#     4  11  20  32  53  81 109 134 169 209 260 316
#     4  11  20  31  51  78 110 137 162 209 265 303
#     4  10  21  31  52  78 108 137 167 210 256 317
#     4  10  20  33  50  77 109 134 174 213 253 312
#
# _framework density 16.826761999999999
#
# number of rings (size 3 to 8) (size 9 to 14) (size 15 to 20)
#    0.000    1.750    3.750    1.500    3.500    1.500 
#    0.000    0.000    0.000    3.000    0.000    5.250 
#    0.000    0.000    0.000    0.000    0.000    0.000 
#
# Total GULP energy -89241.161840 kJ/mol
# GULP energy per Si atom -5577.572615 kJ/mol
# Density = 1.678846 g / cm^3
# Si number density = 16.826762 Si / 1000 Ang^3
#
#
#
# Elastic Constant Matrix: (Units=GPa)
#
#
# Indices 1 2 3 4 5 6 
#
# 1 80.1657 28.6935 27.6138 0.6682 -6.1004 -11.1765
# 2 28.6935 93.7864 23.5178 15.2744 1.3600 8.4075
# 3 27.6138 23.5178 75.5991 6.1676 1.3179 -8.5215
# 4 0.6682 15.2744 6.1676 16.8990 2.4588 2.2049
# 5 -6.1004 1.3600 1.3179 2.4588 21.8878 5.0366
# 6 -11.1765 8.4075 -8.5215 2.2049 5.0366 24.1160
#
#
#
# Elastic Compliance Matrix: (Units=1/GPa)
#
#
# Indices 1 2 3 4 5 6 
#
# 1 0.017145 -0.005664 -0.004089 0.004507 0.003167 0.007402
# 2 -0.005664 0.015785 -0.002794 -0.012079 0.000850 -0.008188
# 3 -0.004089 -0.002794 0.016609 -0.003721 -0.002905 0.005895
# 4 0.004507 -0.012079 -0.003721 0.072167 -0.005783 -0.000405
# 5 0.003167 0.000850 -0.002905 -0.005783 0.049569 -0.009679
# 6 0.007402 -0.008188 0.005895 -0.000405 -0.009679 0.051893
#
#
# Mechanical properties :
#
#
# Convention : Reuss Voigt Hill
#
# Bulk Modulus (GPa) = 40.90746 45.46681 43.18713
# Shear Modulus (GPa) = 19.49995 23.89562 21.69779
#
# Velocity S-wave (km/s) = 3.40790 3.77250 3.59483
# Velocity P-wave (km/s) = 6.31259 6.78638 6.55377
#
# Compressibility (1/GPa) = 0.02444542
#
# Stress axis : x y z
#
# Youngs Moduli (GPa) = 58.32484 63.35171 60.20750
#
# Poissons Ratio (x) = 0.35880 0.24621
# Poissons Ratio (y) = 0.33033 0.16822
# Poissons Ratio (z) = 0.23851 0.17701
#
# Static dielectric constant tensor:
#      x y z
#    x 1.570250 0.000090 0.008650 
#    y 0.000090 1.602100 -0.001360 
#    z 0.008650 -0.001360 1.567820 
# 
# From -- ./inp_files/428698.got.cif
#   From: 2010.05.17/outbox.cif.g08.bks.cpg/sg2_215_cif.got.tgz:428698.got - 2010.06.03 11:33:40.
