data_PCOD9082737
_publ_section_title
;
Structure prediction by ZEFSAII (Michael W. Deem and Ramdas Pophale) SiO2 
 PCOD9082737
Probable space group: P -1
;
_chemical_formula_sum "Si O2"
_cell_formula_units_Z 16
_cell_length_a 10.854242
_cell_length_b 20.691087
_cell_length_c 16.556278
_cell_angle_alpha 159.736571
_cell_angle_beta 46.055261
_cell_angle_gamma 146.634573
_cell_volume 625.147354
_symmetry_space_group_name_H-M "P -1"
_symmetry_group_IT_number 2
_symmetry_cell_setting 'triclinic'
loop_
_space_group_symop_operation_xyz
x,y,z
-x,-y,-z
loop_
_atom_site_type_symbol
_atom_site_label
_atom_site_fract_x
_atom_site_fract_y
_atom_site_fract_z
Si Si1 0.062788 0.489406 0.603920
Si Si2 0.262685 0.041211 0.766413
Si Si3 0.628023 0.436013 0.949307
Si Si4 0.958765 0.809326 0.864211
Si Si5 0.351350 0.587542 0.263078
Si Si6 0.110439 0.838174 0.275393
Si Si7 0.519930 0.311100 0.230171
Si Si8 0.090308 0.381579 0.715191
O O1 0.147093 0.459179 0.447044
O O2 0.915314 0.565924 0.757750
O O3 0.285422 0.650694 0.757937
O O4 0.832066 0.172221 0.370613
O O5 0.546544 0.254780 0.853358
O O6 0.088723 0.842292 0.536452
O O7 0.209997 0.208980 0.018244
O O8 0.410179 0.417309 0.022324
O O9 0.895612 0.750731 0.212444
O O10 0.642887 0.334941 0.741801
O O11 0.242413 0.000558 0.990980
O O12 0.000000 0.000000 0.000000
O O13 0.600467 0.866737 0.520958
O O14 0.011456 0.780370 0.344338
O O15 0.087905 0.602309 0.984788
O O16 0.500000 0.500000 0.500000
O O17 0.631484 0.431132 0.229951
#
# Coordination Sequence:
#
# PCOD9082737 Si02
#       8
#     2   2   2   2   2   2   2   2
#     4  10  22  35  60  85 116 149 190 240 281 339
#     4  10  20  37  58  91 114 147 192 237 288 334
#     4  11  24  39  62  81 118 158 191 237 287 345
#     4  10  19  33  57  86 118 147 183 238 287 340
#     4  11  24  43  56  84 119 155 196 234 288 344
#     4  11  23  37  60  85 116 152 194 236 287 342
#     4  11  18  33  53  86 118 145 181 230 292 334
#     4  10  21  34  57  92 117 142 189 248 278 335
#
# _framework density 25.593966999999999
#
# number of rings (size 3 to 8) (size 9 to 14) (size 15 to 20)
#    0.000    1.500    5.000    2.625    7.000    1.000 
#    0.000    0.625    0.000    0.750    0.000    0.000 
#    0.000    0.000    0.000    0.000    0.000    0.000 
#
# Total GULP energy -89489.361531 kJ/mol
# GULP energy per Si atom -5593.085096 kJ/mol
# Density = 2.553571 g / cm^3
# Si number density = 25.593967 Si / 1000 Ang^3
#
#
#
# Elastic Constant Matrix: (Units=GPa)
#
#
# Indices 1 2 3 4 5 6 
#
# 1 67.3165 18.6797 25.0218 -4.9191 2.8332 24.2276
# 2 18.6797 131.8849 29.1465 -22.3778 10.4587 1.5649
# 3 25.0218 29.1465 84.7360 -17.6699 11.2190 3.4382
# 4 -4.9191 -22.3778 -17.6699 56.3126 5.7548 8.7812
# 5 2.8332 10.4587 11.2190 5.7548 39.3864 4.8015
# 6 24.2276 1.5649 3.4382 8.7812 4.8015 40.6909
#
#
#
# Elastic Compliance Matrix: (Units=1/GPa)
#
#
# Indices 1 2 3 4 5 6 
#
# 1 0.022069 -0.001684 -0.005335 0.001454 0.001770 -0.013147
# 2 -0.001684 0.008872 -0.001640 0.003031 -0.002261 0.000413
# 3 -0.005335 -0.001640 0.015245 0.003850 -0.004284 0.001626
# 4 0.001454 0.003031 0.003850 0.021605 -0.004500 -0.005439
# 5 0.001770 -0.002261 -0.004284 -0.004500 0.028100 -0.002949
# 6 -0.013147 0.000413 0.001626 -0.005439 -0.002949 0.033772
#
#
# Mechanical properties :
#
#
# Convention : Reuss Voigt Hill
#
# Bulk Modulus (GPa) = 34.64131 47.73705 41.18918
# Shear Modulus (GPa) = 31.92766 41.35061 36.63913
#
# Velocity S-wave (km/s) = 3.53578 4.02386 3.78769
# Velocity P-wave (km/s) = 5.49849 6.34672 5.93777
#
# Compressibility (1/GPa) = 0.02886727
#
# Stress axis : x y z
#
# Youngs Moduli (GPa) = 45.31210 112.71526 65.59576
#
# Poissons Ratio (x) = 0.18986 0.34997
# Poissons Ratio (y) = 0.07632 0.10756
# Poissons Ratio (z) = 0.24175 0.18482
#
# Static dielectric constant tensor:
#      x y z
#    x 2.191690 -0.032700 -0.070460 
#    y -0.032700 2.030750 -0.000590 
#    z -0.070460 -0.000590 2.020370 
# 
# From -- ./inp_files/521321.got.cif
#   From: 2010.05.17/outbox.cif.g08.bks.cpg/sg2_261_cif.got.tgz:521321.got - 2010.06.03 11:33:40.
