data_PCOD9082124
_publ_section_title
;
Structure prediction by ZEFSAII (Michael W. Deem and Ramdas Pophale) SiO2 
 PCOD9082124
Probable space group: P -1
;
_chemical_formula_sum "Si O2"
_cell_formula_units_Z 16
_cell_length_a 13.431557
_cell_length_b 11.568290
_cell_length_c 24.548799
_cell_angle_alpha 33.078678
_cell_angle_beta 157.136744
_cell_angle_gamma 145.212773
_cell_volume 786.812329
_symmetry_space_group_name_H-M "P -1"
_symmetry_group_IT_number 2
_symmetry_cell_setting 'triclinic'
loop_
_space_group_symop_operation_xyz
x,y,z
-x,-y,-z
loop_
_atom_site_type_symbol
_atom_site_label
_atom_site_fract_x
_atom_site_fract_y
_atom_site_fract_z
Si Si1 0.580913 0.907135 0.303820
Si Si2 0.120160 0.640521 0.868453
Si Si3 0.154874 0.630030 0.076527
Si Si4 0.849414 0.945904 0.044535
Si Si5 0.026781 0.697621 0.594238
Si Si6 0.340600 0.108905 0.831555
Si Si7 0.877583 0.378046 0.746956
Si Si8 0.693848 0.620049 0.196470
O O1 0.785340 0.801473 0.415271
O O2 0.401385 0.724875 0.324560
O O3 0.392362 0.005162 0.130880
O O4 0.752827 0.105372 0.347033
O O5 0.869079 0.534675 0.820592
O O6 0.062867 0.532330 0.823429
O O7 0.172143 0.901099 0.796738
O O8 0.375007 0.570740 0.050927
O O9 0.443414 0.743459 0.156298
O O10 0.024658 0.822872 0.956231
O O11 0.000000 0.500000 0.000000
O O12 0.766570 0.784808 0.116993
O O13 0.015931 0.833086 0.132695
O O14 0.904916 0.524351 0.648819
O O15 0.168211 0.575850 0.669557
O O16 0.213164 0.260665 0.746632
O O17 0.500000 0.000000 0.000000
#
# Coordination Sequence:
#
# PCOD9082124 Si02
#       8
#     2   2   2   2   2   2   2   2
#     4  11  22  39  55  83 118 149 186 222 281 338
#     4  11  20  32  55  86 112 143 180 237 283 320
#     4  12  20  32  53  87 114 143 178 232 286 324
#     4  11  21  35  58  91 113 140 188 235 275 331
#     4  10  24  38  57  81 115 155 183 223 279 339
#     4  10  19  33  51  82 113 143 181 228 279 325
#     4  11  23  36  59  87 113 144 185 235 280 328
#     4  10  19  37  57  84 114 145 185 233 275 328
#
# _framework density 20.335218999999999
#
# number of rings (size 3 to 8) (size 9 to 14) (size 15 to 20)
#    0.000    1.250    6.250    2.250    1.750    2.000 
#    0.000    0.000    0.000    1.500    3.250    0.000 
#    0.000    0.125    0.000    0.000    0.000    0.000 
#
# Total GULP energy -89289.149135 kJ/mol
# GULP energy per Si atom -5580.571821 kJ/mol
# Density = 2.028893 g / cm^3
# Si number density = 20.335219 Si / 1000 Ang^3
#
#
#
# Elastic Constant Matrix: (Units=GPa)
#
#
# Indices 1 2 3 4 5 6 
#
# 1 97.7943 54.1937 24.2539 -5.2628 24.3766 -12.8464
# 2 54.1937 140.7028 37.7984 -10.9928 24.1763 -11.0548
# 3 24.2539 37.7984 73.8028 -12.2198 24.3196 -20.1700
# 4 -5.2628 -10.9928 -12.2198 17.0122 -5.3726 14.2363
# 5 24.3766 24.1763 24.3196 -5.3726 26.9938 -9.6993
# 6 -12.8464 -11.0548 -20.1700 14.2363 -9.6993 50.8801
#
#
#
# Elastic Compliance Matrix: (Units=1/GPa)
#
#
# Indices 1 2 3 4 5 6 
#
# 1 0.015094 -0.004288 0.000732 -0.002389 -0.010248 0.001884
# 2 -0.004288 0.010094 -0.002729 0.003682 -0.002509 -0.001480
# 3 0.000732 -0.002729 0.021756 0.006300 -0.015293 0.003539
# 4 -0.002389 0.003682 0.006300 0.082355 0.002430 -0.019886
# 5 -0.010248 -0.002509 -0.015293 0.002430 0.063618 0.002253
# 6 0.001884 -0.001480 0.003539 -0.019886 0.002253 0.027205
#
#
# Mechanical properties :
#
#
# Convention : Reuss Voigt Hill
#
# Bulk Modulus (GPa) = 29.09095 60.53241 44.81168
# Shear Modulus (GPa) = 20.47937 32.04747 26.26342
#
# Velocity S-wave (km/s) = 3.17691 3.97414 3.59768
# Velocity P-wave (km/s) = 5.27198 7.13374 6.27232
#
# Compressibility (1/GPa) = 0.03437495
#
# Stress axis : x y z
#
# Youngs Moduli (GPa) = 66.25355 99.06587 45.96456
#
# Poissons Ratio (x) = 0.42479 -0.03366
# Poissons Ratio (y) = 0.28409 0.12542
# Poissons Ratio (z) = -0.04851 0.27032
#
# Static dielectric constant tensor:
#      x y z
#    x 1.776010 0.007160 0.013240 
#    y 0.007160 1.765130 -0.000030 
#    z 0.013240 -0.000030 1.723430 
# 
# From -- ./inp_files/623515.got.cif
#   From: 2010.05.17/outbox.cif.g08.bks.cpg/sg2_312_cif.got.tgz:623515.got - 2010.06.03 11:33:40.
