data_PCOD9082599
_publ_section_title
;
Structure prediction by ZEFSAII (Michael W. Deem and Ramdas Pophale) SiO2 
 PCOD9082599
Probable space group: P -1
;
_chemical_formula_sum "Si O2"
_cell_formula_units_Z 16
_cell_length_a 5.197929
_cell_length_b 6.800776
_cell_length_c 26.890469
_cell_angle_alpha 67.873865
_cell_angle_beta 108.028603
_cell_angle_gamma 67.751939
_cell_volume 692.507275
_symmetry_space_group_name_H-M "P -1"
_symmetry_group_IT_number 2
_symmetry_cell_setting 'triclinic'
loop_
_space_group_symop_operation_xyz
x,y,z
-x,-y,-z
loop_
_atom_site_type_symbol
_atom_site_label
_atom_site_fract_x
_atom_site_fract_y
_atom_site_fract_z
Si Si1 0.650762 0.136226 0.158714
Si Si2 0.919256 0.787374 0.943128
Si Si3 0.340419 0.219758 0.544940
Si Si4 0.573579 0.190517 0.768544
Si Si5 0.295008 0.641708 0.147524
Si Si6 0.199107 0.296312 0.952392
Si Si7 0.731690 0.604624 0.376221
Si Si8 0.519599 0.276716 0.451128
O O1 0.428579 0.173184 0.094446
O O2 0.535701 0.407973 0.148830
O O3 0.566609 0.972773 0.205358
O O4 0.034401 0.983417 0.190325
O O5 0.179635 0.550777 0.945472
O O6 0.839386 0.067702 0.903419
O O7 0.007054 0.713302 0.012663
O O8 0.416776 0.168727 0.612737
O O9 0.577142 0.238245 0.518154
O O10 0.000000 0.500000 0.500000
O O11 0.329539 0.996621 0.539745
O O12 0.517821 0.401369 0.785641
O O13 0.436658 0.299624 0.695945
O O14 0.969069 0.644193 0.117436
O O15 0.500000 0.000000 0.000000
O O16 0.647664 0.419443 0.415145
O O17 0.122927 0.450462 0.407080
#
# Coordination Sequence:
#
# PCOD9082599 Si02
#       8
#     2   2   2   2   2   2   2   2
#     4  10  23  41  61  85 117 156 197 246 297 347
#     4   9  20  36  55  86 115 148 197 242 292 357
#     4   9  21  39  62  90 124 158 196 244 295 347
#     4  11  24  41  61  88 119 156 202 243 290 353
#     4  10  22  38  58  83 119 157 195 244 297 350
#     4  10  19  33  56  84 116 152 191 241 298 352
#     4  11  23  39  61  89 121 157 199 245 291 348
#     4  10  22  39  62  91 121 157 198 242 296 349
#
# _framework density 23.104451000000001
#
# number of rings (size 3 to 8) (size 9 to 14) (size 15 to 20)
#    0.000    2.000    0.000    2.250    0.000   14.000 
#    0.000    0.000    0.000    0.000    0.000    0.000 
#    0.000    0.000    0.000    0.000    0.000    0.000 
#
# Total GULP energy -89227.246333 kJ/mol
# GULP energy per Si atom -5576.702896 kJ/mol
# Density = 2.305186 g / cm^3
# Si number density = 23.104451 Si / 1000 Ang^3
#
#
#
# Elastic Constant Matrix: (Units=GPa)
#
#
# Indices 1 2 3 4 5 6 
#
# 1 101.6797 36.0993 21.4582 -4.6200 -6.7238 -1.4569
# 2 36.0993 173.1470 22.7633 19.0375 -3.8202 -3.8660
# 3 21.4582 22.7633 111.9085 40.8272 -7.9604 -1.9230
# 4 -4.6200 19.0375 40.8272 39.5254 -0.6737 0.0583
# 5 -6.7238 -3.8202 -7.9604 -0.6737 30.1354 -4.9392
# 6 -1.4569 -3.8660 -1.9230 0.0583 -4.9392 27.7198
#
#
#
# Elastic Compliance Matrix: (Units=1/GPa)
#
#
# Indices 1 2 3 4 5 6 
#
# 1 0.012128 -0.002718 -0.004287 0.007179 0.001422 0.000199
# 2 -0.002718 0.006752 0.000804 -0.004393 0.000520 0.000957
# 3 -0.004287 0.000804 0.016310 -0.017681 0.003329 0.001649
# 4 0.007179 -0.004393 -0.017681 0.046472 -0.002928 -0.002081
# 5 0.001422 0.000520 0.003329 -0.002928 0.035480 0.006706
# 6 0.000199 0.000957 0.001649 -0.002081 0.006706 0.037533
#
#
# Mechanical properties :
#
#
# Convention : Reuss Voigt Hill
#
# Bulk Modulus (GPa) = 43.88475 60.81964 52.35219
# Shear Modulus (GPa) = 28.62478 39.90375 34.26426
#
# Velocity S-wave (km/s) = 3.52366 4.16035 3.85517
# Velocity P-wave (km/s) = 5.96575 7.03271 6.52109
#
# Compressibility (1/GPa) = 0.02278696
#
# Stress axis : x y z
#
# Youngs Moduli (GPa) = 82.45567 148.09641 61.31165
#
# Poissons Ratio (x) = 0.40259 0.26285
# Poissons Ratio (y) = 0.22415 -0.04929
# Poissons Ratio (z) = 0.35349 -0.11905
#
# Static dielectric constant tensor:
#      x y z
#    x 1.970680 0.004780 -0.001700 
#    y 0.004780 1.929570 0.048330 
#    z -0.001700 0.048330 1.905280 
# 
# From -- ./inp_files/614878.got.cif
#   From: 2010.05.17/outbox.cif.g08.bks.cpg/sg2_308_cif.got.tgz:614878.got - 2010.06.03 11:33:40.
