data_PCOD9082870
_publ_section_title
;
Structure prediction by ZEFSAII (Michael W. Deem and Ramdas Pophale) SiO2 
 PCOD9082870
Probable space group: P -1
;
_chemical_formula_sum "Si O2"
_cell_formula_units_Z 16
_cell_length_a 17.062917
_cell_length_b 11.211865
_cell_length_c 23.394041
_cell_angle_alpha 158.671254
_cell_angle_beta 29.076092
_cell_angle_gamma 150.127274
_cell_volume 754.639765
_symmetry_space_group_name_H-M "P -1"
_symmetry_group_IT_number 2
_symmetry_cell_setting 'triclinic'
loop_
_space_group_symop_operation_xyz
x,y,z
-x,-y,-z
loop_
_atom_site_type_symbol
_atom_site_label
_atom_site_fract_x
_atom_site_fract_y
_atom_site_fract_z
Si Si1 0.030529 0.227181 0.638308
Si Si2 0.576163 0.407612 0.625779
Si Si3 0.268803 0.465369 0.910163
Si Si4 0.624177 0.166845 0.280785
Si Si5 0.888522 0.899339 0.695657
Si Si6 0.436477 0.427375 0.605530
Si Si7 0.092605 0.205190 0.800036
Si Si8 0.183273 0.280254 0.005562
O O1 0.210028 0.527610 0.665247
O O2 0.013983 0.019606 0.615726
O O3 0.871340 0.379224 0.802800
O O4 0.000000 0.000000 0.500000
O O5 0.450280 0.573750 0.813658
O O6 0.754235 0.551542 0.606780
O O7 0.572017 0.504909 0.605329
O O8 0.500000 0.000000 0.500000
O O9 0.153310 0.174776 0.811714
O O10 0.265733 0.297685 0.898521
O O11 0.197623 0.790255 0.105489
O O12 0.480187 0.146908 0.411116
O O13 0.565994 0.277979 0.306899
O O14 0.690988 0.837054 0.085764
O O15 0.971133 0.898236 0.704290
O O16 0.259000 0.329137 0.709006
O O17 0.000000 0.500000 0.000000
O O18 0.000000 0.000000 0.000000
#
# Coordination Sequence:
#
# PCOD9082870 Si02
#       8
#     2   2   2   2   2   2   2   2
#     4  10  19  33  58  88 121 158 202 248 297 361
#     4  11  22  36  58  84 117 154 207 247 306 355
#     4   9  19  35  58  85 116 150 195 244 301 362
#     4  10  19  35  60  84 123 160 206 240 300 361
#     4  10  19  36  58  84 115 155 202 246 297 358
#     4  10  20  35  58  89 118 166 198 245 301 365
#     4   9  18  34  59  87 118 154 207 244 295 363
#     4   9  19  34  59  90 117 154 201 247 294 355
#
# _framework density 21.202169000000001
#
# number of rings (size 3 to 8) (size 9 to 14) (size 15 to 20)
#    0.000    2.250    1.250    1.875    1.750    1.000 
#    0.000    2.500    5.500   12.000    0.000    0.000 
#    0.000    0.000    0.000    0.000    0.000    0.000 
#
# Total GULP energy -89153.015002 kJ/mol
# GULP energy per Si atom -5572.063438 kJ/mol
# Density = 2.115391 g / cm^3
# Si number density = 21.202169 Si / 1000 Ang^3
#
#
#
# Elastic Constant Matrix: (Units=GPa)
#
#
# Indices 1 2 3 4 5 6 
#
# 1 107.9951 11.4001 37.8557 14.4377 10.6245 3.3559
# 2 11.4001 44.1299 14.9318 -1.5892 16.8720 6.3173
# 3 37.8557 14.9318 68.9635 -10.9040 7.7036 -4.3612
# 4 14.4377 -1.5892 -10.9040 30.4348 4.2358 8.5312
# 5 10.6245 16.8720 7.7036 4.2358 32.8928 -1.0438
# 6 3.3559 6.3173 -4.3612 8.5312 -1.0438 28.4099
#
#
#
# Elastic Compliance Matrix: (Units=1/GPa)
#
#
# Indices 1 2 3 4 5 6 
#
# 1 0.013808 -0.000590 -0.008884 -0.009649 -0.000834 0.000003
# 2 -0.000590 0.032222 -0.004619 0.005380 -0.016267 -0.010017
# 3 -0.008884 -0.004619 0.022516 0.011694 -0.001478 0.001967
# 4 -0.009649 0.005380 0.011694 0.046659 -0.008790 -0.012596
# 5 -0.000834 -0.016267 -0.001478 -0.008790 0.040735 0.007625
# 6 0.000003 -0.010017 0.001967 -0.012596 0.007625 0.041790
#
#
# Mechanical properties :
#
#
# Convention : Reuss Voigt Hill
#
# Bulk Modulus (GPa) = 24.77666 38.82929 31.80298
# Shear Modulus (GPa) = 20.88822 28.80758 24.84790
#
# Velocity S-wave (km/s) = 3.14218 3.69007 3.42709
# Velocity P-wave (km/s) = 4.98755 6.04227 5.54007
#
# Compressibility (1/GPa) = 0.04036057
#
# Stress axis : x y z
#
# Youngs Moduli (GPa) = 72.42203 31.03429 44.41371
#
# Poissons Ratio (x) = 0.01831 0.39457
# Poissons Ratio (y) = 0.04273 0.20513
# Poissons Ratio (z) = 0.64339 0.14334
#
# Static dielectric constant tensor:
#      x y z
#    x 1.782220 0.031000 -0.022070 
#    y 0.031000 1.796300 -0.007460 
#    z -0.022070 -0.007460 1.791130 
# 
# From -- ./inp_files/217284.got.cif
#   From: 2010.05.17/outbox.cif.g08.bks.cpg/sg2_109_cif.got.tgz:217284.got - 2010.06.03 11:33:40.
