data_PCOD9082594
_publ_section_title
;
Structure prediction by ZEFSAII (Michael W. Deem and Ramdas Pophale) SiO2 
 PCOD9082594
Probable space group: P -1
;
_chemical_formula_sum "Si O2"
_cell_formula_units_Z 14
_cell_length_a 12.832220
_cell_length_b 8.370672
_cell_length_c 11.302627
_cell_angle_alpha 57.461267
_cell_angle_beta 142.267015
_cell_angle_gamma 102.293202
_cell_volume 570.774939
_symmetry_space_group_name_H-M "P -1"
_symmetry_group_IT_number 2
_symmetry_cell_setting 'triclinic'
loop_
_space_group_symop_operation_xyz
x,y,z
-x,-y,-z
loop_
_atom_site_type_symbol
_atom_site_label
_atom_site_fract_x
_atom_site_fract_y
_atom_site_fract_z
Si Si1 0.538452 0.379277 0.460472
Si Si2 0.004858 0.631764 0.765511
Si Si3 0.467249 0.241071 0.106910
Si Si4 0.775137 0.723692 0.728577
Si Si5 0.930707 0.679011 0.266789
Si Si6 0.812042 0.106849 0.652060
Si Si7 0.330096 0.670281 0.941684
O O1 0.500000 0.500000 0.500000
O O2 0.434581 0.223977 0.441101
O O3 0.745458 0.235246 0.661515
O O4 0.453133 0.549576 0.212044
O O5 0.019352 0.458190 0.753205
O O6 0.806716 0.735532 0.611533
O O7 0.129467 0.507476 0.038931
O O8 0.114865 0.758745 0.756133
O O9 0.627006 0.162804 0.381106
O O10 0.355837 0.487601 0.941840
O O11 0.291623 0.181064 0.977500
O O12 0.573686 0.203162 0.092328
O O13 0.866195 0.865338 0.813620
O O14 0.000000 0.500000 0.500000
O O15 0.044049 0.822808 0.311879
#
# Coordination Sequence:
#
# PCOD9082594 Si02
#       7
#     2   2   2   2   2   2   2
#     4  10  19  33  56  84 113 150 191 232 286 351
#     4   9  19  37  58  83 113 150 198 239 287 355
#     4   9  18  35  56  84 113 142 191 242 281 337
#     4  10  21  37  57  83 118 156 192 240 295 342
#     4  11  21  36  62  87 112 154 199 238 290 348
#     4  11  22  37  60  87 117 153 193 242 293 339
#     4   8  15  32  56  76 108 148 183 235 285 328
#
# _framework density 24.528055999999999
#
# number of rings (size 3 to 8) (size 9 to 14) (size 15 to 20)
#    0.000    2.286    0.000    5.571    0.000    0.571 
#    0.000    7.143    0.000    2.571    0.000    0.000 
#    0.000    0.000    0.000    0.000    0.000    0.000 
#
# Total GULP energy -78096.336767 kJ/mol
# GULP energy per Si atom -5578.309769 kJ/mol
# Density = 2.447223 g / cm^3
# Si number density = 24.528056 Si / 1000 Ang^3
#
#
#
# Elastic Constant Matrix: (Units=GPa)
#
#
# Indices 1 2 3 4 5 6 
#
# 1 188.9280 47.6849 42.8620 15.1010 -0.0755 16.4363
# 2 47.6849 76.9205 25.0645 9.7905 4.9651 21.3861
# 3 42.8620 25.0645 74.2658 16.5059 1.5613 18.2664
# 4 15.1010 9.7905 16.5059 26.0159 8.7210 7.8161
# 5 -0.0755 4.9651 1.5613 8.7210 32.6145 21.3102
# 6 16.4363 21.3861 18.2664 7.8161 21.3102 31.4375
#
#
#
# Elastic Compliance Matrix: (Units=1/GPa)
#
#
# Indices 1 2 3 4 5 6 
#
# 1 0.006814 -0.003177 -0.002412 -0.001526 0.001391 -0.000563
# 2 -0.003177 0.019505 -0.000062 -0.003402 0.008875 -0.016742
# 3 -0.002412 -0.000062 0.021407 -0.011427 0.013381 -0.017365
# 4 -0.001526 -0.003402 -0.011427 0.051280 -0.019193 0.010013
# 5 0.001391 0.008875 0.013381 -0.019193 0.072138 -0.058667
# 6 -0.000563 -0.016742 -0.017365 0.010013 -0.058667 0.090861
#
#
# Mechanical properties :
#
#
# Convention : Reuss Voigt Hill
#
# Bulk Modulus (GPa) = 27.45364 63.48190 45.46777
# Shear Modulus (GPa) = 17.51637 32.98044 25.24841
#
# Velocity S-wave (km/s) = 2.67523 3.67086 3.21186
# Velocity P-wave (km/s) = 4.55626 6.62604 5.68612
#
# Compressibility (1/GPa) = 0.03642504
#
# Stress axis : x y z
#
# Youngs Moduli (GPa) = 146.76582 51.26889 46.71280
#
# Poissons Ratio (x) = 0.16288 0.11265
# Poissons Ratio (y) = 0.46627 0.00289
# Poissons Ratio (z) = 0.35395 0.00317
#
# Static dielectric constant tensor:
#      x y z
#    x 2.024820 0.027030 0.086520 
#    y 0.027030 2.003290 0.009080 
#    z 0.086520 0.009080 2.093190 
# 
# From -- ./inp_files/252941.got.cif
#   From: 2010.05.17/outbox.cif.g08.bks.cpg/sg2_127_cif.got.tgz:252941.got - 2010.06.03 11:33:40.
