data_PCOD9082793
_publ_section_title
;
Structure prediction by ZEFSAII (Michael W. Deem and Ramdas Pophale) SiO2 
 PCOD9082793
Probable space group: P -1
;
_chemical_formula_sum "Si O2"
_cell_formula_units_Z 16
_cell_length_a 9.310536
_cell_length_b 7.640093
_cell_length_c 14.721248
_cell_angle_alpha 112.998913
_cell_angle_beta 125.985552
_cell_angle_gamma 88.473748
_cell_volume 750.473231
_symmetry_space_group_name_H-M "P -1"
_symmetry_group_IT_number 2
_symmetry_cell_setting 'triclinic'
loop_
_space_group_symop_operation_xyz
x,y,z
-x,-y,-z
loop_
_atom_site_type_symbol
_atom_site_label
_atom_site_fract_x
_atom_site_fract_y
_atom_site_fract_z
Si Si1 0.608422 0.697686 0.134458
Si Si2 0.466725 0.455329 0.629773
Si Si3 0.670261 0.841013 0.995015
Si Si4 0.054236 0.767023 0.816462
Si Si5 0.641386 0.215160 0.786225
Si Si6 0.331512 0.189991 0.351381
Si Si7 0.729778 0.434895 0.261585
Si Si8 0.021388 0.230246 0.020932
O O1 0.696994 0.834372 0.111913
O O2 0.475692 0.783900 0.165428
O O3 0.735587 0.621450 0.236488
O O4 0.500000 0.500000 0.000000
O O5 0.582190 0.362483 0.724868
O O6 0.396772 0.299304 0.491890
O O7 0.586924 0.654412 0.667224
O O8 0.300826 0.503926 0.635167
O O9 0.755719 0.071336 0.052273
O O10 0.462153 0.734321 0.867080
O O11 0.798773 0.728941 0.966623
O O12 0.103064 0.644411 0.726878
O O13 0.890600 0.860677 0.745940
O O14 0.983218 0.657167 0.862745
O O15 0.600245 0.001653 0.680562
O O16 0.852785 0.258488 0.904802
O O17 0.000000 0.000000 0.000000
#
# Coordination Sequence:
#
# PCOD9082793 Si02
#       8
#     2   2   2   2   2   2   2   2
#     4   9  20  36  54  88 123 158 199 250 301 372
#     4  10  25  42  66  91 119 169 212 262 303 360
#     4  10  19  34  57  88 119 160 198 241 309 373
#     4  11  22  36  61  92 125 161 199 257 310 376
#     4  11  21  41  67  87 126 164 207 257 309 369
#     4  11  23  44  64  92 124 160 220 255 306 366
#     4  10  21  37  57  86 126 158 203 251 310 366
#     4  10  19  33  57  93 122 151 197 252 306 367
#
# _framework density 21.319879
#
# number of rings (size 3 to 8) (size 9 to 14) (size 15 to 20)
#    0.000    1.750    2.500    3.000    3.500    1.500 
#    0.000    6.875    0.000    1.500    0.000    0.000 
#    0.000    0.000    0.000    0.000    0.000    0.000 
#
# Total GULP energy -89309.157527 kJ/mol
# GULP energy per Si atom -5581.822345 kJ/mol
# Density = 2.127135 g / cm^3
# Si number density = 21.319879 Si / 1000 Ang^3
#
#
#
# Elastic Constant Matrix: (Units=GPa)
#
#
# Indices 1 2 3 4 5 6 
#
# 1 162.9035 42.2093 34.4917 -2.2603 -49.3376 -13.0261
# 2 42.2093 59.6202 22.6503 -6.0672 -16.7820 -7.4750
# 3 34.4917 22.6503 51.6085 0.1730 -27.6891 1.5802
# 4 -2.2603 -6.0672 0.1730 29.5867 -2.8546 -11.9633
# 5 -49.3376 -16.7820 -27.6891 -2.8546 39.8115 1.6168
# 6 -13.0261 -7.4750 1.5802 -11.9633 1.6168 34.5644
#
#
#
# Elastic Compliance Matrix: (Units=1/GPa)
#
#
# Indices 1 2 3 4 5 6 
#
# 1 0.011212 -0.003943 0.001126 0.002788 0.013066 0.003675
# 2 -0.003943 0.024283 -0.008365 0.007428 -0.000209 0.006729
# 3 0.001126 -0.008365 0.034032 -0.001560 0.021609 -0.004491
# 4 0.002788 0.007428 -0.001560 0.043324 0.007903 0.017354
# 5 0.013066 -0.000209 0.021609 0.007903 0.056657 0.003976
# 6 0.003675 0.006729 -0.004491 0.017354 0.003976 0.037797
#
#
# Mechanical properties :
#
#
# Convention : Reuss Voigt Hill
#
# Bulk Modulus (GPa) = 21.20375 52.53720 36.87048
# Shear Modulus (GPa) = 20.37570 32.44457 26.41013
#
# Velocity S-wave (km/s) = 3.09482 3.90526 3.52342
# Velocity P-wave (km/s) = 4.76840 6.71048 5.82100
#
# Compressibility (1/GPa) = 0.04716147
#
# Stress axis : x y z
#
# Youngs Moduli (GPa) = 89.19352 41.18089 29.38402
#
# Poissons Ratio (x) = 0.16237 -0.03307
# Poissons Ratio (y) = 0.35168 0.24581
# Poissons Ratio (z) = -0.10039 0.34449
#
# Static dielectric constant tensor:
#      x y z
#    x 1.820460 0.019900 -0.008420 
#    y 0.019900 1.862810 0.044780 
#    z -0.008420 0.044780 1.803920 
# 
# From -- ./inp_files/169422.got.cif
#   From: 2010.05.17/outbox.cif.g08.bks.cpg/sg2_85_cif.got.tgz:169422.got - 2010.06.03 11:33:40.
