data_PCOD9082028
_publ_section_title
;
Structure prediction by ZEFSAII (Michael W. Deem and Ramdas Pophale) SiO2 
 PCOD9082028
Probable space group: P -1
;
_chemical_formula_sum "Si O2"
_cell_formula_units_Z 14
_cell_length_a 6.708337
_cell_length_b 9.202348
_cell_length_c 10.224901
_cell_angle_alpha 123.908014
_cell_angle_beta 63.099401
_cell_angle_gamma 109.520289
_cell_volume 464.317957
_symmetry_space_group_name_H-M "P -1"
_symmetry_group_IT_number 2
_symmetry_cell_setting 'triclinic'
loop_
_space_group_symop_operation_xyz
x,y,z
-x,-y,-z
loop_
_atom_site_type_symbol
_atom_site_label
_atom_site_fract_x
_atom_site_fract_y
_atom_site_fract_z
Si Si1 0.175381 0.615825 0.757497
Si Si2 0.218159 0.512594 0.347051
Si Si3 0.269588 0.153839 0.232147
Si Si4 0.826846 0.324066 0.929403
Si Si5 0.629702 0.138754 0.418348
Si Si6 0.843799 0.786062 0.429614
Si Si7 0.391799 0.119600 0.907058
O O1 0.287945 0.728043 0.660432
O O2 0.254533 0.420185 0.642571
O O3 0.906661 0.556457 0.783117
O O4 0.201654 0.730539 0.937759
O O5 0.356092 0.362482 0.291061
O O6 0.319445 0.713590 0.409449
O O7 0.000000 0.500000 0.500000
O O8 0.099486 0.162195 0.409487
O O9 0.436503 0.019479 0.164759
O O10 0.214994 0.114477 0.076658
O O11 0.567134 0.299325 0.942442
O O12 0.037926 0.787032 0.266511
O O13 0.000000 0.500000 0.000000
O O14 0.358336 0.102270 0.492237
O O15 0.701169 0.957936 0.242575
#
# Coordination Sequence:
#
# PCOD9082028 Si02
#       7
#     2   2   2   2   2   2   2
#     4  10  19  36  57  89 116 150 192 237 289 345
#     4  10  20  35  61  91 119 152 190 237 296 352
#     4  10  19  35  62  88 115 149 194 243 289 340
#     4  10  22  36  57  84 121 151 198 243 289 343
#     4  10  20  34  61  88 113 149 198 240 286 339
#     4  10  19  32  61  83 111 156 195 239 274 341
#     4  10  22  36  56  94 118 147 196 253 288 331
#
# _framework density 30.151754
#
# number of rings (size 3 to 8) (size 9 to 14) (size 15 to 20)
#    0.000    2.000    2.857    3.000    6.000    2.286 
#    0.000    7.143    0.000    3.429    0.000    3.000 
#    0.000    0.000    0.000    0.000    0.000    0.000 
#
# Total GULP energy -78028.189138 kJ/mol
# GULP energy per Si atom -5573.442081 kJ/mol
# Density = 3.008313 g / cm^3
# Si number density = 30.151754 Si / 1000 Ang^3
#
#
#
# Elastic Constant Matrix: (Units=GPa)
#
#
# Indices 1 2 3 4 5 6 
#
# 1 58.6650 16.6456 34.6616 6.0886 10.8960 15.3458
# 2 16.6456 108.8313 34.7523 32.9370 15.2702 41.2569
# 3 34.6616 34.7523 235.6669 -42.9717 28.1343 17.4633
# 4 6.0886 32.9370 -42.9717 62.0325 8.6309 -0.2327
# 5 10.8960 15.2702 28.1343 8.6309 67.3553 9.2855
# 6 15.3458 41.2569 17.4633 -0.2327 9.2855 52.0725
#
#
#
# Elastic Compliance Matrix: (Units=1/GPa)
#
#
# Indices 1 2 3 4 5 6 
#
# 1 0.021275 0.002655 -0.004081 -0.006271 -0.000580 -0.006929
# 2 0.002655 0.020883 -0.005196 -0.015165 0.001136 -0.015855
# 3 -0.004081 -0.005196 0.007250 0.008579 -0.002761 0.003419
# 4 -0.006271 -0.015165 0.008579 0.031446 -0.004812 0.011985
# 5 -0.000580 0.001136 -0.002761 -0.004812 0.016843 -0.002828
# 6 -0.006929 -0.015855 0.003419 0.011985 -0.002828 0.033220
#
#
# Mechanical properties :
#
#
# Convention : Reuss Voigt Hill
#
# Bulk Modulus (GPa) = 27.65171 63.92023 45.78597
# Shear Modulus (GPa) = 32.00730 57.43230 44.71980
#
# Velocity S-wave (km/s) = 3.26166 4.36911 3.85536
# Velocity P-wave (km/s) = 4.83481 6.83357 5.91916
#
# Compressibility (1/GPa) = 0.03616413
#
# Stress axis : x y z
#
# Youngs Moduli (GPa) = 47.00333 47.88690 137.92558
#
# Poissons Ratio (x) = -0.12715 0.56292
# Poissons Ratio (y) = -0.12481 0.71664
# Poissons Ratio (z) = 0.19184 0.24881
#
# Static dielectric constant tensor:
#      x y z
#    x 2.534870 -0.048010 0.121250 
#    y -0.048010 2.488230 0.043780 
#    z 0.121250 0.043780 2.406730 
# 
# From -- ./inp_files/391282.got.cif
#   From: 2010.05.17/outbox.cif.g08.bks.cpg/sg2_196_cif.got.tgz:391282.got - 2010.06.03 11:33:40.
