data_PCOD9082912
_publ_section_title
;
Structure prediction by ZEFSAII (Michael W. Deem and Ramdas Pophale) SiO2 
 PCOD9082912
Probable space group: P -1
;
_chemical_formula_sum "Si O2"
_cell_formula_units_Z 16
_cell_length_a 7.150851
_cell_length_b 22.747881
_cell_length_c 9.303058
_cell_angle_alpha 45.733818
_cell_angle_beta 82.913923
_cell_angle_gamma 48.899345
_cell_volume 639.612108
_symmetry_space_group_name_H-M "P -1"
_symmetry_group_IT_number 2
_symmetry_cell_setting 'triclinic'
loop_
_space_group_symop_operation_xyz
x,y,z
-x,-y,-z
loop_
_atom_site_type_symbol
_atom_site_label
_atom_site_fract_x
_atom_site_fract_y
_atom_site_fract_z
Si Si1 0.569707 0.953574 0.408781
Si Si2 0.687870 0.869263 0.107280
Si Si3 0.745023 0.135352 0.928586
Si Si4 0.201000 0.586181 0.478052
Si Si5 0.417383 0.423787 0.997250
Si Si6 0.995804 0.654801 0.877627
Si Si7 0.796419 0.642643 0.205230
Si Si8 0.172139 0.845476 0.423332
O O1 0.692059 0.818984 0.600632
O O2 0.866730 0.903431 0.410770
O O3 0.500000 0.000000 0.500000
O O4 0.280505 0.087559 0.113646
O O5 0.462113 0.868169 0.113703
O O6 0.035580 0.712177 0.381048
O O7 0.500000 0.000000 0.000000
O O8 0.561764 0.237116 0.908505
O O9 0.774999 0.183261 0.704757
O O10 0.063951 0.978247 0.218149
O O11 0.500000 0.500000 0.500000
O O12 0.286556 0.478982 0.753892
O O13 0.933908 0.669627 0.240411
O O14 0.141441 0.553064 0.906733
O O15 0.713752 0.384856 0.039611
O O16 0.547619 0.292693 0.273577
O O17 0.893271 0.631182 0.056092
O O18 0.000000 0.500000 0.500000
#
# Coordination Sequence:
#
# PCOD9082912 Si02
#       8
#     2   2   2   2   2   2   2   2
#     4  10  19  33  59  82 109 150 194 242 287 338
#     4  10  21  37  58  84 115 154 196 240 295 350
#     4   9  19  37  58  83 116 155 195 239 289 356
#     4  11  22  40  58  87 123 157 195 247 300 358
#     4  10  20  33  58  85 115 150 196 242 295 345
#     4  10  19  34  55  87 113 146 201 246 281 355
#     4  11  22  39  60  85 119 157 198 239 301 354
#     4   9  18  34  57  81 112 147 194 231 292 339
#
# _framework density 25.015162
#
# number of rings (size 3 to 8) (size 9 to 14) (size 15 to 20)
#    0.000    2.000    1.250    3.750    1.750    1.000 
#    6.750    6.875    0.000    1.500    0.000    0.000 
#    0.000    0.000    0.000    0.000    0.000    0.000 
#
# Total GULP energy -89324.553290 kJ/mol
# GULP energy per Si atom -5582.784581 kJ/mol
# Density = 2.495823 g / cm^3
# Si number density = 25.015162 Si / 1000 Ang^3
#
#
#
# Elastic Constant Matrix: (Units=GPa)
#
#
# Indices 1 2 3 4 5 6 
#
# 1 66.3911 23.6357 17.5489 0.3076 -12.2445 -11.8668
# 2 23.6357 175.0252 90.8395 7.0917 -24.5650 -31.7373
# 3 17.5489 90.8395 206.8427 2.7254 -30.2657 -17.8572
# 4 0.3076 7.0917 2.7254 59.1989 -1.3885 -7.1045
# 5 -12.2445 -24.5650 -30.2657 -1.3885 34.1103 2.3757
# 6 -11.8668 -31.7373 -17.8572 -7.1045 2.3757 25.6525
#
#
#
# Elastic Compliance Matrix: (Units=1/GPa)
#
#
# Indices 1 2 3 4 5 6 
#
# 1 0.017536 -0.000296 0.000117 0.000981 0.005698 0.007572
# 2 -0.000296 0.009355 -0.002771 0.000200 0.003537 0.009236
# 3 0.000117 -0.002771 0.006699 0.000234 0.003931 0.000990
# 4 0.000981 0.000200 0.000234 0.017552 0.001026 0.005630
# 5 0.005698 0.003537 0.003931 0.001026 0.036979 0.006608
# 6 0.007572 0.009236 0.000990 0.005630 0.006608 0.055548
#
#
# Mechanical properties :
#
#
# Convention : Reuss Voigt Hill
#
# Bulk Modulus (GPa) = 36.11415 79.14524 57.62970
# Shear Modulus (GPa) = 31.48635 44.87467 38.18051
#
# Velocity S-wave (km/s) = 3.55165 4.24004 3.91102
# Velocity P-wave (km/s) = 5.59350 7.46178 6.59414
#
# Compressibility (1/GPa) = 0.02768997
#
# Stress axis : x y z
#
# Youngs Moduli (GPa) = 57.02414 106.90010 149.27181
#
# Poissons Ratio (x) = 0.03161 -0.01740
# Poissons Ratio (y) = 0.01686 0.41362
# Poissons Ratio (z) = -0.00665 0.29621
#
# Static dielectric constant tensor:
#      x y z
#    x 2.293530 0.186820 0.040420 
#    y 0.186820 2.237580 -0.122900 
#    z 0.040420 -0.122900 2.168600 
# 
# From -- ./inp_files/227706.got.cif
#   From: 2010.05.17/outbox.cif.g08.bks.cpg/sg2_114_cif.got.tgz:227706.got - 2010.06.03 11:33:40.
