data_PCOD9082970
_publ_section_title
;
Structure prediction by ZEFSAII (Michael W. Deem and Ramdas Pophale) SiO2 
 PCOD9082970
Probable space group: P -1
;
_chemical_formula_sum "Si O2"
_cell_formula_units_Z 16
_cell_length_a 8.610612
_cell_length_b 14.243142
_cell_length_c 9.526855
_cell_angle_alpha 68.354851
_cell_angle_beta 76.845129
_cell_angle_gamma 126.521367
_cell_volume 699.147874
_symmetry_space_group_name_H-M "P -1"
_symmetry_group_IT_number 2
_symmetry_cell_setting 'triclinic'
loop_
_space_group_symop_operation_xyz
x,y,z
-x,-y,-z
loop_
_atom_site_type_symbol
_atom_site_label
_atom_site_fract_x
_atom_site_fract_y
_atom_site_fract_z
Si Si1 0.749141 0.580088 0.761149
Si Si2 0.635832 0.523880 0.321255
Si Si3 0.521838 0.262818 0.371281
Si Si4 0.658565 0.721302 0.875191
Si Si5 0.557666 0.097004 0.302660
Si Si6 0.155379 0.872199 0.023530
Si Si7 0.888970 0.139034 0.658523
Si Si8 0.092718 0.028634 0.778202
O O1 0.527905 0.515459 0.749360
O O2 0.770063 0.664364 0.843599
O O3 0.974255 0.707543 0.541124
O O4 0.617886 0.416801 0.934267
O O5 0.500000 0.500000 0.500000
O O6 0.650578 0.410233 0.355722
O O7 0.890766 0.698316 0.167656
O O8 0.364092 0.238622 0.293905
O O9 0.676510 0.252989 0.261616
O O10 0.330180 0.115906 0.590474
O O11 0.846100 0.864499 0.858674
O O12 0.500000 0.000000 0.500000
O O13 0.302428 0.999421 0.332554
O O14 0.705147 0.113239 0.140969
O O15 0.237763 0.886401 0.157456
O O16 0.143748 0.988231 0.932174
O O17 0.066097 0.135947 0.686925
#
# Coordination Sequence:
#
# PCOD9082970 Si02
#       8
#     2   2   2   2   2   2   2   2
#     4  10  20  34  63  95 129 169 215 279 343 385
#     4  11  21  41  66  99 135 169 222 284 342 394
#     4  11  22  40  65  96 133 175 227 280 335 389
#     4  10  19  33  60 100 126 162 218 284 331 383
#     4  12  27  45  68  97 140 187 227 274 336 416
#     4  12  26  42  67 100 140 185 218 274 350 409
#     4  12  24  44  68  98 139 176 226 287 343 395
#     4  12  20  38  69 101 128 171 230 288 334 392
#
# _framework density 22.885000999999999
#
# number of rings (size 3 to 8) (size 9 to 14) (size 15 to 20)
#    0.000    0.750    7.500    1.875    0.000    0.500 
#    0.000    0.000    0.000    1.500    0.000    0.000 
#    0.000    0.000    0.000    0.000    0.000    0.000 
#
# Total GULP energy -89189.730924 kJ/mol
# GULP energy per Si atom -5574.358183 kJ/mol
# Density = 2.283291 g / cm^3
# Si number density = 22.885001 Si / 1000 Ang^3
#
#
#
# Elastic Constant Matrix: (Units=GPa)
#
#
# Indices 1 2 3 4 5 6 
#
# 1 27.1373 9.4782 17.9649 6.5359 -6.2646 -13.6781
# 2 9.4782 104.2852 32.1755 3.8651 2.3194 -12.5336
# 3 17.9649 32.1755 172.8495 6.5048 4.8316 -3.4255
# 4 6.5359 3.8651 6.5048 39.2659 -0.6427 -0.4964
# 5 -6.2646 2.3194 4.8316 -0.6427 29.4436 9.9737
# 6 -13.6781 -12.5336 -3.4255 -0.4964 9.9737 29.6881
#
#
#
# Elastic Compliance Matrix: (Units=1/GPa)
#
#
# Indices 1 2 3 4 5 6 
#
# 1 0.054757 -0.000518 -0.004977 -0.007876 0.004631 0.022748
# 2 -0.000518 0.010853 -0.001778 -0.000664 -0.002354 0.004917
# 3 -0.004977 -0.001778 0.006642 -0.000143 -0.001399 -0.001810
# 4 -0.007876 -0.000664 -0.000143 0.026826 0.000184 -0.003539
# 5 0.004631 -0.002354 -0.001399 0.000184 0.039534 -0.012300
# 6 0.022748 0.004917 -0.001810 -0.003539 -0.012300 0.050104
#
#
# Mechanical properties :
#
#
# Convention : Reuss Voigt Hill
#
# Bulk Modulus (GPa) = 17.32946 47.05657 32.19301
# Shear Modulus (GPa) = 22.47221 35.98974 29.23097
#
# Velocity S-wave (km/s) = 3.13703 3.96995 3.57781
# Velocity P-wave (km/s) = 4.55084 6.45142 5.58260
#
# Compressibility (1/GPa) = 0.05770519
#
# Stress axis : x y z
#
# Youngs Moduli (GPa) = 18.26258 92.14245 150.55160
#
# Poissons Ratio (x) = 0.04776 0.74927
# Poissons Ratio (y) = 0.00947 0.26770
# Poissons Ratio (z) = 0.09089 0.16384
#
# Static dielectric constant tensor:
#      x y z
#    x 1.951240 -0.094300 -0.002750 
#    y -0.094300 1.889040 -0.023860 
#    z -0.002750 -0.023860 2.016890 
# 
# From -- ./inp_files/206379.got.cif
#   From: 2010.05.17/outbox.cif.g08.bks.cpg/sg2_104_cif.got.tgz:206379.got - 2010.06.03 11:33:40.
