data_PCOD9082013
_publ_section_title
;
Structure prediction by ZEFSAII (Michael W. Deem and Ramdas Pophale) SiO2 
 PCOD9082013
Probable space group: P -1
;
_chemical_formula_sum "Si O2"
_cell_formula_units_Z 16
_cell_length_a 22.122520
_cell_length_b 9.808579
_cell_length_c 11.588989
_cell_angle_alpha 97.349425
_cell_angle_beta 151.188145
_cell_angle_gamma 63.193833
_cell_volume 847.625314
_symmetry_space_group_name_H-M "P -1"
_symmetry_group_IT_number 2
_symmetry_cell_setting 'triclinic'
loop_
_space_group_symop_operation_xyz
x,y,z
-x,-y,-z
loop_
_atom_site_type_symbol
_atom_site_label
_atom_site_fract_x
_atom_site_fract_y
_atom_site_fract_z
Si Si1 0.596155 0.359823 0.974268
Si Si2 0.318033 0.616800 0.131786
Si Si3 0.842870 0.524013 0.284031
Si Si4 0.723690 0.186336 0.525745
Si Si5 0.590926 0.739966 0.231030
Si Si6 0.479314 0.910943 0.806373
Si Si7 0.116543 0.671099 0.436947
Si Si8 0.048783 0.950180 0.895646
O O1 0.643178 0.329817 0.914960
O O2 0.434006 0.591320 0.751081
O O3 0.535126 0.260777 0.906660
O O4 0.758093 0.302712 0.305632
O O5 0.500000 0.500000 0.500000
O O6 0.250174 0.518287 0.961121
O O7 0.150178 0.803534 0.943024
O O8 0.917254 0.386673 0.507730
O O9 0.000000 0.500000 0.500000
O O10 0.677031 0.747736 0.069559
O O11 0.639456 0.120702 0.440297
O O12 0.834679 0.173050 0.809863
O O13 0.855607 0.049261 0.626954
O O14 0.769992 0.517932 0.475865
O O15 0.610813 0.872526 0.336869
O O16 0.500765 0.849482 0.969923
O O17 0.969925 0.872028 0.144616
#
# Coordination Sequence:
#
# PCOD9082013 Si02
#       8
#     2   2   2   2   2   2   2   2
#     4  11  19  37  64  83 118 153 202 247 296 345
#     4  11  22  40  61  87 120 162 201 244 302 365
#     4  10  22  38  58  85 127 159 198 251 304 356
#     4  11  20  39  61  86 117 159 196 250 295 357
#     4  10  19  32  60  86 109 151 201 240 291 359
#     4  10  20  37  58  85 119 161 195 240 309 358
#     4  10  20  36  57  89 116 152 197 260 285 347
#     4  11  23  34  63  90 118 149 208 247 298 348
#
# _framework density 18.876263999999999
#
# number of rings (size 3 to 8) (size 9 to 14) (size 15 to 20)
#    0.000    1.500    6.250    1.125    0.000    7.000 
#    0.000    1.875    0.000    3.000    0.000    0.000 
#    0.000    0.000    0.000    0.000    0.000    0.000 
#
# Total GULP energy -89108.336034 kJ/mol
# GULP energy per Si atom -5569.271002 kJ/mol
# Density = 1.883330 g / cm^3
# Si number density = 18.876264 Si / 1000 Ang^3
#
#
#
# Elastic Constant Matrix: (Units=GPa)
#
#
# Indices 1 2 3 4 5 6 
#
# 1 125.0707 43.1740 35.5523 0.8276 32.6985 3.5667
# 2 43.1740 74.4215 -1.2105 -2.1762 8.8832 13.5976
# 3 35.5523 -1.2105 45.9316 7.1845 4.7044 3.3488
# 4 0.8276 -2.1762 7.1845 18.0598 4.6378 7.8142
# 5 32.6985 8.8832 4.7044 4.6378 31.3499 0.0496
# 6 3.5667 13.5976 3.3488 7.8142 0.0496 31.4861
#
#
#
# Elastic Compliance Matrix: (Units=1/GPa)
#
#
# Indices 1 2 3 4 5 6 
#
# 1 0.020235 -0.010070 -0.015506 0.007609 -0.017054 0.001844
# 2 -0.010070 0.020898 0.008262 0.003071 0.002902 -0.009530
# 3 -0.015506 0.008262 0.035267 -0.014162 0.010637 -0.002065
# 4 0.007609 0.003071 -0.014162 0.073738 -0.017560 -0.018954
# 5 -0.017054 0.002902 0.010637 -0.017560 0.049858 0.003826
# 6 0.001844 -0.009530 -0.002065 -0.018954 0.003826 0.040584
#
#
# Mechanical properties :
#
#
# Convention : Reuss Voigt Hill
#
# Bulk Modulus (GPa) = 23.93875 44.49504 34.21690
# Shear Modulus (GPa) = 17.29325 27.37301 22.33313
#
# Velocity S-wave (km/s) = 3.03006 3.81219 3.44340
# Velocity P-wave (km/s) = 4.99511 6.55745 5.82886
#
# Compressibility (1/GPa) = 0.04177327
#
# Stress axis : x y z
#
# Youngs Moduli (GPa) = 49.42023 47.85233 28.35497
#
# Poissons Ratio (x) = 0.48186 0.43966
# Poissons Ratio (y) = 0.49765 -0.23427
# Poissons Ratio (z) = 0.76629 -0.39537
#
# Static dielectric constant tensor:
#      x y z
#    x 1.673690 -0.015870 -0.002490 
#    y -0.015870 1.679190 0.013260 
#    z -0.002490 0.013260 1.697050 
# 
# From -- ./inp_files/271530.got.cif
#   From: 2010.05.17/outbox.cif.g08.bks.cpg/sg2_136_cif.got.tgz:271530.got - 2010.06.03 11:33:40.
