data_PCOD9082231
_publ_section_title
;
Structure prediction by ZEFSAII (Michael W. Deem and Ramdas Pophale) SiO2 
 PCOD9082231
Probable space group: P -1
;
_chemical_formula_sum "Si O2"
_cell_formula_units_Z 16
_cell_length_a 14.507477
_cell_length_b 15.681810
_cell_length_c 8.393211
_cell_angle_alpha 35.880881
_cell_angle_beta 118.397376
_cell_angle_gamma 136.861662
_cell_volume 732.677885
_symmetry_space_group_name_H-M "P -1"
_symmetry_group_IT_number 2
_symmetry_cell_setting 'triclinic'
loop_
_space_group_symop_operation_xyz
x,y,z
-x,-y,-z
loop_
_atom_site_type_symbol
_atom_site_label
_atom_site_fract_x
_atom_site_fract_y
_atom_site_fract_z
Si Si1 0.020789 0.298676 0.448766
Si Si2 0.504693 0.381273 0.884630
Si Si3 0.507147 0.715755 0.325434
Si Si4 0.345956 0.994344 0.733785
Si Si5 0.787288 0.548997 0.323553
Si Si6 0.369073 0.737844 0.621306
Si Si7 0.217686 0.127549 0.213097
Si Si8 0.797105 0.331803 0.124730
O O1 0.089230 0.351198 0.598520
O O2 0.915553 0.337456 0.287663
O O3 0.142246 0.452222 0.187988
O O4 0.927654 0.074443 0.663676
O O5 0.555352 0.592976 0.578656
O O6 0.517650 0.298971 0.859912
O O7 0.586029 0.378844 0.097103
O O8 0.339718 0.233076 0.019161
O O9 0.615200 0.929749 0.168790
O O10 0.360262 0.592492 0.485609
O O11 0.493859 0.091411 0.623519
O O12 0.279072 0.079012 0.474103
O O13 0.244732 0.773730 0.922016
O O14 0.764445 0.407192 0.384109
O O15 0.799381 0.719165 0.996048
O O16 0.326439 0.787749 0.666161
#
# Coordination Sequence:
#
# PCOD9082231 Si02
#       8
#     2   2   2   2   2   2   2   2
#     4  10  21  37  52  70 100 142 178 206 245 295
#     4   9  17  31  54  81 107 128 159 211 264 307
#     4   9  17  31  54  83 105 127 162 210 264 307
#     4   9  18  34  55  79 103 131 167 208 258 304
#     4  10  19  33  55  79 103 131 167 212 257 303
#     4  10  19  33  53  78 103 131 168 212 259 301
#     4   9  18  34  55  77 104 134 165 208 258 302
#     4  10  21  37  53  70 102 142 175 208 244 295
#
# _framework density 21.837700000000002
#
# number of rings (size 3 to 8) (size 9 to 14) (size 15 to 20)
#    0.000    2.500    0.000    2.250    0.000    3.500 
#    0.000   13.750    0.000    0.000    0.000    0.000 
#    0.000    0.000    0.000    0.000    0.000    0.000 
#
# Total GULP energy -89301.187389 kJ/mol
# GULP energy per Si atom -5581.324212 kJ/mol
# Density = 2.178800 g / cm^3
# Si number density = 21.837700 Si / 1000 Ang^3
#
#
#
# Elastic Constant Matrix: (Units=GPa)
#
#
# Indices 1 2 3 4 5 6 
#
# 1 30.1624 17.1895 -3.4302 -3.7397 2.7467 -7.6796
# 2 17.1895 149.0061 12.3840 -12.8159 5.3823 -9.4024
# 3 -3.4302 12.3840 40.2589 -4.8269 7.8114 1.9395
# 4 -3.7397 -12.8159 -4.8269 24.5018 3.7836 0.8852
# 5 2.7467 5.3823 7.8114 3.7836 17.9992 3.5771
# 6 -7.6796 -9.4024 1.9395 0.8852 3.5771 29.2584
#
#
#
# Elastic Compliance Matrix: (Units=1/GPa)
#
#
# Indices 1 2 3 4 5 6 
#
# 1 0.040599 -0.003592 0.007223 0.007193 -0.011805 0.010249
# 2 -0.003592 0.007767 -0.001997 0.003360 -0.001977 0.001826
# 3 0.007223 -0.001997 0.030025 0.008329 -0.015466 0.000903
# 4 0.007193 0.003360 0.008329 0.047725 -0.016339 0.002970
# 5 -0.011805 -0.001977 -0.015466 -0.016339 0.070244 -0.010802
# 6 0.010249 0.001826 0.000903 0.002970 -0.010802 0.038626
#
#
# Mechanical properties :
#
#
# Convention : Reuss Voigt Hill
#
# Bulk Modulus (GPa) = 12.24595 30.19042 21.21819
# Shear Modulus (GPa) = 19.30974 27.23748 23.27361
#
# Velocity S-wave (km/s) = 2.97684 3.53550 3.26813
# Velocity P-wave (km/s) = 4.17556 5.52461 4.89676
#
# Compressibility (1/GPa) = 0.08165967
#
# Stress axis : x y z
#
# Youngs Moduli (GPa) = 24.63133 128.74813 33.30588
#
# Poissons Ratio (x) = 0.46247 -0.24058
# Poissons Ratio (y) = 0.08848 0.06650
# Poissons Ratio (z) = -0.17792 0.25708
#
# Static dielectric constant tensor:
#      x y z
#    x 1.788780 0.013940 0.003270 
#    y 0.013940 1.795090 -0.013850 
#    z 0.003270 -0.013850 1.818720 
# 
# From -- ./inp_files/189383.got.cif
#   From: 2010.05.17/outbox.cif.g08.bks.cpg/sg2_95_cif.got.tgz:189383.got - 2010.06.03 11:33:40.
