data_PCOD9082499
_publ_section_title
;
Structure prediction by ZEFSAII (Michael W. Deem and Ramdas Pophale) SiO2 
 PCOD9082499
Probable space group: P -1
;
_chemical_formula_sum "Si O2"
_cell_formula_units_Z 16
_cell_length_a 12.414769
_cell_length_b 18.631362
_cell_length_c 10.587397
_cell_angle_alpha 32.769597
_cell_angle_beta 36.327016
_cell_angle_gamma 28.406685
_cell_volume 609.484655
_symmetry_space_group_name_H-M "P -1"
_symmetry_group_IT_number 2
_symmetry_cell_setting 'triclinic'
loop_
_space_group_symop_operation_xyz
x,y,z
-x,-y,-z
loop_
_atom_site_type_symbol
_atom_site_label
_atom_site_fract_x
_atom_site_fract_y
_atom_site_fract_z
Si Si1 0.632593 0.207674 0.287026
Si Si2 0.693921 0.811213 0.041067
Si Si3 0.528832 0.999785 0.278657
Si Si4 0.912228 0.693537 0.651854
Si Si5 0.830225 0.425024 0.144453
Si Si6 0.805871 0.209763 0.861303
Si Si7 0.832086 0.071302 0.793680
Si Si8 0.446419 0.677106 0.535679
O O1 0.592723 0.313007 0.292626
O O2 0.462263 0.159921 0.517778
O O3 0.645230 0.268378 0.048886
O O4 0.893508 0.026996 0.325485
O O5 0.669601 0.671250 0.316872
O O6 0.622632 0.848507 0.907206
O O7 0.962146 0.732747 0.906741
O O8 0.500000 0.000000 0.000000
O O9 0.337291 0.113144 0.401151
O O10 0.776679 0.951653 0.080657
O O11 0.074353 0.625470 0.726960
O O12 0.068423 0.706378 0.388037
O O13 0.835028 0.577331 0.879803
O O14 0.602997 0.440696 0.308988
O O15 0.710152 0.217787 0.799882
O O16 0.000000 0.000000 0.000000
O O17 0.734172 0.147936 0.634585
#
# Coordination Sequence:
#
# PCOD9082499 Si02
#       8
#     2   2   2   2   2   2   2   2
#     4  11  21  33  54  84 120 143 181 240 291 327
#     4  10  20  33  55  90 116 139 188 246 276 329
#     4  10  19  33  55  85 113 143 189 237 283 329
#     4  10  19  41  56  81 119 150 187 239 281 335
#     4  10  22  37  60  81 116 155 186 232 289 334
#     4  10  19  37  56  83 115 150 188 234 283 335
#     4  10  20  32  56  84 110 145 190 231 280 332
#     4  11  21  34  57  87 111 148 191 229 291 336
#
# _framework density 26.251687
#
# number of rings (size 3 to 8) (size 9 to 14) (size 15 to 20)
#    0.000    1.750    5.000    1.125    3.500    0.500 
#    2.250    3.125    0.000    0.750    0.000    0.000 
#    0.000    0.000    0.000    0.000    0.000    0.000 
#
# Total GULP energy -89306.079602 kJ/mol
# GULP energy per Si atom -5581.629975 kJ/mol
# Density = 2.619194 g / cm^3
# Si number density = 26.251687 Si / 1000 Ang^3
#
#
#
# Elastic Constant Matrix: (Units=GPa)
#
#
# Indices 1 2 3 4 5 6 
#
# 1 85.2300 18.2587 57.2790 -5.5240 -2.5398 9.7722
# 2 18.2587 55.6184 21.5470 -8.6105 -7.4857 12.6712
# 3 57.2790 21.5470 193.4135 -5.0084 -26.2665 14.0886
# 4 -5.5240 -8.6105 -5.0084 37.0360 6.4501 -2.9257
# 5 -2.5398 -7.4857 -26.2665 6.4501 46.3236 -8.5947
# 6 9.7722 12.6712 14.0886 -2.9257 -8.5947 25.8634
#
#
#
# Elastic Compliance Matrix: (Units=1/GPa)
#
#
# Indices 1 2 3 4 5 6 
#
# 1 0.015694 -0.002953 -0.004465 0.001324 -0.002862 -0.002852
# 2 -0.002953 0.021857 -0.000729 0.003722 0.000864 -0.008488
# 3 -0.004465 -0.000729 0.007100 -0.000559 0.003614 -0.000686
# 4 0.001324 0.003722 -0.000559 0.028620 -0.003625 0.000014
# 5 -0.002862 0.000864 0.003614 -0.003625 0.025369 0.006710
# 6 -0.002852 -0.008488 -0.000686 0.000014 0.006710 0.046506
#
#
# Mechanical properties :
#
#
# Convention : Reuss Voigt Hill
#
# Bulk Modulus (GPa) = 35.26319 58.71459 46.98889
# Shear Modulus (GPa) = 29.25811 37.65642 33.45726
#
# Velocity S-wave (km/s) = 3.34207 3.79151 3.57386
# Velocity P-wave (km/s) = 5.32489 6.44841 5.91339
#
# Compressibility (1/GPa) = 0.02835818
#
# Stress axis : x y z
#
# Youngs Moduli (GPa) = 63.71837 45.75090 140.84207
#
# Poissons Ratio (x) = 0.13509 0.62893
# Poissons Ratio (y) = 0.18814 0.10261
# Poissons Ratio (z) = 0.28453 0.03333
#
# Static dielectric constant tensor:
#      x y z
#    x 2.143990 0.000870 0.014720 
#    y 0.000870 2.230710 0.043470 
#    z 0.014720 0.043470 2.087670 
# 
# From -- ./inp_files/425414.got.cif
#   From: 2010.05.17/outbox.cif.g08.bks.cpg/sg2_213_cif.got.tgz:425414.got - 2010.06.03 11:33:40.
