data_PCOD9082885
_publ_section_title
;
Structure prediction by ZEFSAII (Michael W. Deem and Ramdas Pophale) SiO2 
 PCOD9082885
Probable space group: P -1
;
_chemical_formula_sum "Si O2"
_cell_formula_units_Z 16
_cell_length_a 15.616911
_cell_length_b 9.029927
_cell_length_c 11.542886
_cell_angle_alpha 103.965671
_cell_angle_beta 112.449499
_cell_angle_gamma 32.535816
_cell_volume 798.407456
_symmetry_space_group_name_H-M "P -1"
_symmetry_group_IT_number 2
_symmetry_cell_setting 'triclinic'
loop_
_space_group_symop_operation_xyz
x,y,z
-x,-y,-z
loop_
_atom_site_type_symbol
_atom_site_label
_atom_site_fract_x
_atom_site_fract_y
_atom_site_fract_z
Si Si1 0.086802 0.145893 0.771664
Si Si2 0.446550 0.806684 0.286409
Si Si3 0.121487 0.193914 0.045572
Si Si4 0.965398 0.431437 0.236386
Si Si5 0.730738 0.886546 0.517036
Si Si6 0.770091 0.543737 0.317696
Si Si7 0.079011 0.908008 0.396189
Si Si8 0.346206 0.738095 0.616727
O O1 0.040570 0.383325 0.766714
O O2 0.930241 0.245483 0.693770
O O3 0.225408 0.917766 0.701372
O O4 0.146712 0.056629 0.918952
O O5 0.611208 0.659152 0.289110
O O6 0.489937 0.575887 0.310629
O O7 0.298645 0.008184 0.153507
O O8 0.384394 0.976087 0.403065
O O9 0.030917 0.250615 0.123896
O O10 0.000000 0.500000 0.000000
O O11 0.783905 0.625819 0.224409
O O12 0.104615 0.249265 0.376692
O O13 0.784163 0.651072 0.446312
O O14 0.645547 0.112297 0.417666
O O15 0.934608 0.210794 0.321036
O O16 0.743838 0.253881 0.520057
O O17 0.000000 0.000000 0.500000
#
# Coordination Sequence:
#
# PCOD9082885 Si02
#       8
#     2   2   2   2   2   2   2   2
#     4  10  19  38  62  83 114 162 195 233 287 347
#     4  11  24  37  59  89 122 150 192 248 289 339
#     4   9  22  44  62  81 111 160 205 240 281 344
#     4  10  20  35  65  85 115 157 202 229 285 352
#     4  11  21  36  58  89 125 155 185 235 300 350
#     4  12  20  35  58  92 118 152 192 238 289 347
#     4  10  19  33  58  91 120 148 189 238 286 353
#     4  11  20  36  60  91 121 152 187 237 298 352
#
# _framework density 20.039894
#
# number of rings (size 3 to 8) (size 9 to 14) (size 15 to 20)
#    0.000    1.500    5.000    2.625    0.000    0.500 
#    2.250    3.125    0.000    0.000    0.000    0.000 
#    0.000    0.000    0.000    0.000    0.000    0.000 
#
# Total GULP energy -89118.795665 kJ/mol
# GULP energy per Si atom -5569.924729 kJ/mol
# Density = 1.999428 g / cm^3
# Si number density = 20.039894 Si / 1000 Ang^3
#
#
#
# Elastic Constant Matrix: (Units=GPa)
#
#
# Indices 1 2 3 4 5 6 
#
# 1 76.3673 15.2618 30.7251 1.0936 -0.6701 -1.2000
# 2 15.2618 53.6983 25.2898 -9.8163 -6.0751 1.2520
# 3 30.7251 25.2898 109.8694 5.1790 -9.3702 -3.0399
# 4 1.0936 -9.8163 5.1790 33.6263 -4.5826 -4.7421
# 5 -0.6701 -6.0751 -9.3702 -4.5826 5.5500 2.4943
# 6 -1.2000 1.2520 -3.0399 -4.7421 2.4943 28.9756
#
#
#
# Elastic Compliance Matrix: (Units=1/GPa)
#
#
# Indices 1 2 3 4 5 6 
#
# 1 0.015652 -0.004413 -0.004308 -0.002752 -0.012959 0.001052
# 2 -0.004413 0.027961 -0.002679 0.013503 0.037925 -0.002727
# 3 -0.004308 -0.002679 0.012414 -0.000217 0.017462 -0.000299
# 4 -0.002752 0.013503 -0.000217 0.040421 0.046611 0.001883
# 5 -0.012959 0.037925 0.017462 0.046611 0.296285 -0.018220
# 6 0.001052 -0.002727 -0.000299 0.001883 -0.018220 0.036518
#
#
# Mechanical properties :
#
#
# Convention : Reuss Voigt Hill
#
# Bulk Modulus (GPa) = 30.09638 42.49870 36.29754
# Shear Modulus (GPa) = 10.79614 24.87427 17.83520
#
# Velocity S-wave (km/s) = 2.32358 3.52694 2.98650
# Velocity P-wave (km/s) = 4.71694 6.15133 5.48126
#
# Compressibility (1/GPa) = 0.03322659
#
# Stress axis : x y z
#
# Youngs Moduli (GPa) = 63.88993 35.76378 80.55264
#
# Poissons Ratio (x) = 0.15784 0.34698
# Poissons Ratio (y) = 0.28197 0.21584
# Poissons Ratio (z) = 0.27521 0.09583
#
# Static dielectric constant tensor:
#      x y z
#    x 1.608510 -0.039550 0.042220 
#    y -0.039550 1.762650 0.023470 
#    z 0.042220 0.023470 1.701870 
# 
# From -- ./inp_files/444763.got.cif
#   From: 2010.05.17/outbox.cif.g08.bks.cpg/sg2_223_cif.got.tgz:444763.got - 2010.06.03 11:33:40.
