data_PCOD9082919
_publ_section_title
;
Structure prediction by ZEFSAII (Michael W. Deem and Ramdas Pophale) SiO2 
 PCOD9082919
Probable space group: P -1
;
_chemical_formula_sum "Si O2"
_cell_formula_units_Z 16
_cell_length_a 16.534236
_cell_length_b 11.410200
_cell_length_c 9.902526
_cell_angle_alpha 44.805192
_cell_angle_beta 44.067130
_cell_angle_gamma 36.756839
_cell_volume 736.249832
_symmetry_space_group_name_H-M "P -1"
_symmetry_group_IT_number 2
_symmetry_cell_setting 'triclinic'
loop_
_space_group_symop_operation_xyz
x,y,z
-x,-y,-z
loop_
_atom_site_type_symbol
_atom_site_label
_atom_site_fract_x
_atom_site_fract_y
_atom_site_fract_z
Si Si1 0.352351 0.399672 0.042783
Si Si2 0.265644 0.205669 0.490007
Si Si3 0.939265 0.896630 0.242187
Si Si4 0.352131 0.018977 0.058510
Si Si5 0.307438 0.698324 0.634456
Si Si6 0.170615 0.871037 0.375975
Si Si7 0.477812 0.851288 0.341132
Si Si8 0.768339 0.422603 0.699009
O O1 0.512791 0.194989 0.996533
O O2 0.306295 0.531454 0.856598
O O3 0.250118 0.334800 0.267505
O O4 0.334320 0.534525 0.084619
O O5 0.136483 0.187376 0.681453
O O6 0.275680 0.347995 0.468616
O O7 0.406961 0.980910 0.458616
O O8 0.068590 0.716516 0.324467
O O9 0.812762 0.078550 0.337120
O O10 0.000000 0.000000 0.000000
O O11 0.212773 0.029664 0.183964
O O12 0.385859 0.985511 0.206128
O O13 0.370815 0.187584 0.838872
O O14 0.257515 0.731067 0.515322
O O15 0.456386 0.672448 0.504168
O O16 0.227559 0.715043 0.310003
O O17 0.000000 0.000000 0.500000
#
# Coordination Sequence:
#
# PCOD9082919 Si02
#       8
#     2   2   2   2   2   2   2   2
#     4   9  19  35  56  90 101 139 193 239 273 306
#     4   8  18  32  52  83 111 139 190 234 273 319
#     4  11  17  31  58  84 108 145 192 235 264 321
#     4   9  18  35  57  81 110 143 186 234 277 328
#     4  10  19  33  59  85 108 141 193 236 269 329
#     4  11  22  35  54  83 118 153 181 215 291 350
#     4   8  16  32  54  83 100 142 188 238 269 310
#     4  10  20  33  52  82 114 147 179 224 287 334
#
# _framework density 21.731753999999999
#
# number of rings (size 3 to 8) (size 9 to 14) (size 15 to 20)
#    0.750    1.750    2.500    0.375    0.000    2.500 
#    0.000    0.000    0.000   14.250    0.000    0.000 
#    0.000    0.000    0.000    0.000    0.000    0.000 
#
# Total GULP energy -89103.696978 kJ/mol
# GULP energy per Si atom -5568.981061 kJ/mol
# Density = 2.168229 g / cm^3
# Si number density = 21.731754 Si / 1000 Ang^3
#
#
#
# Elastic Constant Matrix: (Units=GPa)
#
#
# Indices 1 2 3 4 5 6 
#
# 1 62.2298 35.3991 29.5164 7.4842 -17.7431 17.1782
# 2 35.3991 84.4263 15.0522 8.4984 -4.6148 11.9743
# 3 29.5164 15.0522 111.9374 5.4974 -26.1562 0.0376
# 4 7.4842 8.4984 5.4974 25.6656 -0.2267 0.4278
# 5 -17.7431 -4.6148 -26.1562 -0.2267 31.9785 2.7920
# 6 17.1782 11.9743 0.0376 0.4278 2.7920 35.2833
#
#
#
# Elastic Compliance Matrix: (Units=1/GPa)
#
#
# Indices 1 2 3 4 5 6 
#
# 1 0.031343 -0.009387 -0.003397 -0.004958 0.014371 -0.013148
# 2 -0.009387 0.015997 -0.000274 -0.002518 -0.003091 -0.000583
# 3 -0.003397 -0.000274 0.011693 -0.001376 0.007529 0.001155
# 4 -0.004958 -0.002518 -0.001376 0.041448 -0.004217 0.003101
# 5 0.014371 -0.003091 0.007529 -0.004217 0.045758 -0.009525
# 6 -0.013148 -0.000583 0.001155 0.003101 -0.009525 0.035656
#
#
# Mechanical properties :
#
#
# Convention : Reuss Voigt Hill
#
# Bulk Modulus (GPa) = 30.37983 46.50322 38.44152
# Shear Modulus (GPa) = 22.83285 30.49388 26.66336
#
# Velocity S-wave (km/s) = 3.24492 3.74999 3.50656
# Velocity P-wave (km/s) = 5.29614 6.33996 5.84141
#
# Compressibility (1/GPa) = 0.03291658
#
# Stress axis : x y z
#
# Youngs Moduli (GPa) = 31.90475 62.51293 85.52455
#
# Poissons Ratio (x) = 0.58681 0.29050
# Poissons Ratio (y) = 0.29949 0.02346
# Poissons Ratio (z) = 0.10837 0.01714
#
# Static dielectric constant tensor:
#      x y z
#    x 1.815520 0.033630 -0.037950 
#    y 0.033630 1.875090 -0.010780 
#    z -0.037950 -0.010780 1.853810 
# 
# From -- ./inp_files/406422.got.cif
#   From: 2010.05.17/outbox.cif.g08.bks.cpg/sg2_204_cif.got.tgz:406422.got - 2010.06.03 11:33:40.
