data_PCOD9082733
_publ_section_title
;
Structure prediction by ZEFSAII (Michael W. Deem and Ramdas Pophale) SiO2 
 PCOD9082733
Probable space group: P -1
;
_chemical_formula_sum "Si O2"
_cell_formula_units_Z 16
_cell_length_a 19.237186
_cell_length_b 7.407556
_cell_length_c 12.098944
_cell_angle_alpha 144.263702
_cell_angle_beta 138.151455
_cell_angle_gamma 39.754177
_cell_volume 609.303333
_symmetry_space_group_name_H-M "P -1"
_symmetry_group_IT_number 2
_symmetry_cell_setting 'triclinic'
loop_
_space_group_symop_operation_xyz
x,y,z
-x,-y,-z
loop_
_atom_site_type_symbol
_atom_site_label
_atom_site_fract_x
_atom_site_fract_y
_atom_site_fract_z
Si Si1 0.127741 0.211385 0.804714
Si Si2 0.207360 0.338879 0.283991
Si Si3 0.990709 0.897870 0.584843
Si Si4 0.984470 0.911910 0.062813
Si Si5 0.359205 0.559382 0.414273
Si Si6 0.403727 0.195526 0.829862
Si Si7 0.657398 0.692574 0.954632
Si Si8 0.575949 0.939748 0.448193
O O1 0.109396 0.908621 0.692565
O O2 0.080159 0.522149 0.989206
O O3 0.045151 0.314010 0.649970
O O4 0.249782 0.156071 0.876090
O O5 0.108215 0.721838 0.368230
O O6 0.136848 0.109108 0.074558
O O7 0.286865 0.385362 0.305106
O O8 0.296149 0.198358 0.420745
O O9 0.994028 0.869658 0.706037
O O10 0.000000 0.000000 0.000000
O O11 0.343497 0.929342 0.621575
O O12 0.319590 0.579371 0.250448
O O13 0.491509 0.297650 0.467374
O O14 0.534245 0.984199 0.919886
O O15 0.409292 0.304320 0.763794
O O16 0.347923 0.427807 0.986352
O O17 0.500000 0.000000 0.500000
#
# Coordination Sequence:
#
# PCOD9082733 Si02
#       8
#     2   2   2   2   2   2   2   2
#     4  10  21  38  62  86 115 157 200 238 289 354
#     4  10  20  37  62  85 116 160 198 239 296 349
#     4  10  21  40  62  84 114 156 202 243 289 349
#     4  11  24  39  60  90 120 149 193 249 298 351
#     4  10  19  36  61  83 116 157 196 240 290 348
#     4  10  21  35  58  88 118 153 196 242 289 345
#     4  10  19  33  57  86 114 148 192 237 285 341
#     4   9  19  34  56  86 116 151 192 235 287 345
#
# _framework density 26.259497
#
# number of rings (size 3 to 8) (size 9 to 14) (size 15 to 20)
#    0.000    2.000    0.000    5.250    0.000    4.500 
#    0.000    2.500    0.000   91.500    0.000    0.000 
#    0.000    0.000    0.000    0.000    0.000    0.000 
#
# Total GULP energy -89295.638524 kJ/mol
# GULP energy per Si atom -5580.977408 kJ/mol
# Density = 2.619973 g / cm^3
# Si number density = 26.259497 Si / 1000 Ang^3
#
#
#
# Elastic Constant Matrix: (Units=GPa)
#
#
# Indices 1 2 3 4 5 6 
#
# 1 160.2146 27.6572 83.8358 -26.6386 -28.9474 7.5097
# 2 27.6572 60.5163 10.5879 -11.2531 -1.9037 3.6526
# 3 83.8358 10.5879 148.9246 -21.9018 -22.0385 -1.1453
# 4 -26.6386 -11.2531 -21.9018 31.3335 -2.6842 -3.5896
# 5 -28.9474 -1.9037 -22.0385 -2.6842 60.1604 -15.1646
# 6 7.5097 3.6526 -1.1453 -3.5896 -15.1646 33.6581
#
#
#
# Elastic Compliance Matrix: (Units=1/GPa)
#
#
# Indices 1 2 3 4 5 6 
#
# 1 0.010598 -0.002996 -0.004470 0.005113 0.003588 -0.000030
# 2 -0.002996 0.018637 0.000951 0.004638 -0.000570 -0.001084
# 3 -0.004470 0.000951 0.010171 0.004187 0.002501 0.002814
# 4 0.005113 0.004638 0.004187 0.042249 0.007652 0.006452
# 5 0.003588 -0.000570 0.002501 0.007652 0.022144 0.010140
# 6 -0.000030 -0.001084 0.002814 0.006452 0.010140 0.035187
#
#
# Mechanical properties :
#
#
# Convention : Reuss Voigt Hill
#
# Bulk Modulus (GPa) = 37.91335 68.20192 53.05764
# Shear Modulus (GPa) = 31.09289 41.53536 36.31413
#
# Velocity S-wave (km/s) = 3.44475 3.98141 3.72276
# Velocity P-wave (km/s) = 5.50373 6.86762 6.22315
#
# Compressibility (1/GPa) = 0.02637593
#
# Stress axis : x y z
#
# Youngs Moduli (GPa) = 94.36032 53.65613 98.31590
#
# Poissons Ratio (x) = 0.16074 0.43950
# Poissons Ratio (y) = 0.28268 -0.09349
# Poissons Ratio (z) = 0.42181 -0.05102
#
# Static dielectric constant tensor:
#      x y z
#    x 2.246960 0.036200 -0.003590 
#    y 0.036200 2.073520 0.063870 
#    z -0.003590 0.063870 2.123440 
# 
# From -- ./inp_files/469673.got.cif
#   From: 2010.05.17/outbox.cif.g08.bks.cpg/sg2_235_cif.got.tgz:469673.got - 2010.06.03 11:33:40.
