data_PCOD9082904
_publ_section_title
;
Structure prediction by ZEFSAII (Michael W. Deem and Ramdas Pophale) SiO2 
 PCOD9082904
Probable space group: P -1
;
_chemical_formula_sum "Si O2"
_cell_formula_units_Z 14
_cell_length_a 13.919468
_cell_length_b 26.389341
_cell_length_c 5.627239
_cell_angle_alpha 125.117074
_cell_angle_beta 54.702666
_cell_angle_gamma 158.550539
_cell_volume 612.040137
_symmetry_space_group_name_H-M "P -1"
_symmetry_group_IT_number 2
_symmetry_cell_setting 'triclinic'
loop_
_space_group_symop_operation_xyz
x,y,z
-x,-y,-z
loop_
_atom_site_type_symbol
_atom_site_label
_atom_site_fract_x
_atom_site_fract_y
_atom_site_fract_z
Si Si1 0.753902 0.956052 0.812123
Si Si2 0.824626 0.764849 0.800512
Si Si3 0.613810 0.156624 0.294012
Si Si4 0.871355 0.394660 0.699939
Si Si5 0.384646 0.622273 0.265215
Si Si6 0.819580 0.867931 0.687796
Si Si7 0.733548 0.100944 0.642773
O O1 0.474420 0.845420 0.815378
O O2 0.747795 0.906811 0.911107
O O3 0.899251 0.995632 0.481033
O O4 0.948544 0.104639 0.989660
O O5 0.819262 0.817051 0.753537
O O6 0.965701 0.768990 0.524007
O O7 0.526706 0.629394 0.964424
O O8 0.756774 0.271845 0.578496
O O9 0.364889 0.008500 0.384167
O O10 0.745762 0.159556 0.985860
O O11 0.650236 0.336505 0.752220
O O12 0.099144 0.484421 0.424165
O O13 0.000000 0.500000 0.000000
O O14 0.593753 0.739762 0.482573
O O15 0.500000 0.000000 0.500000
#
# Coordination Sequence:
#
# PCOD9082904 Si02
#       7
#     2   2   2   2   2   2   2
#     4  10  19  33  58  96 129 161 210 268 331 395
#     4  11  21  36  63  94 133 170 208 263 336 394
#     4  11  23  42  65  95 133 172 221 267 319 394
#     4  11  24  44  65  93 131 177 219 269 324 385
#     4  10  23  39  63  93 131 168 216 267 323 399
#     4  10  19  34  57  95 133 164 205 268 334 387
#     4  11  24  41  65  98 132 177 214 268 327 387
#
# _framework density 22.874317999999999
#
# number of rings (size 3 to 8) (size 9 to 14) (size 15 to 20)
#    0.000    1.429    4.286    1.286    0.000    4.571 
#    0.000    0.714    0.000    4.286    0.000    0.000 
#    0.000    0.000    0.000    0.000    0.000    0.000 
#
# Total GULP energy -77969.508712 kJ/mol
# GULP energy per Si atom -5569.250622 kJ/mol
# Density = 2.282225 g / cm^3
# Si number density = 22.874318 Si / 1000 Ang^3
#
#
#
# Elastic Constant Matrix: (Units=GPa)
#
#
# Indices 1 2 3 4 5 6 
#
# 1 66.8234 17.0845 26.0183 4.6022 -1.1379 15.6888
# 2 17.0845 63.9797 40.4249 -10.0394 -16.6443 16.7768
# 3 26.0183 40.4249 97.3418 -8.1649 -22.3924 9.3310
# 4 4.6022 -10.0394 -8.1649 50.5531 12.1764 -9.5886
# 5 -1.1379 -16.6443 -22.3924 12.1764 37.9528 -0.5112
# 6 15.6888 16.7768 9.3310 -9.5886 -0.5112 29.3131
#
#
#
# Elastic Compliance Matrix: (Units=1/GPa)
#
#
# Indices 1 2 3 4 5 6 
#
# 1 0.019566 -0.000644 -0.004632 -0.004276 -0.001192 -0.010049
# 2 -0.000644 0.025444 -0.007818 0.000129 0.006329 -0.011576
# 3 -0.004632 -0.007818 0.015901 0.000474 0.005691 0.002146
# 4 -0.004276 0.000129 0.000474 0.023886 -0.007324 0.009750
# 5 -0.001192 0.006329 0.005691 -0.007324 0.034708 -0.006587
# 6 -0.010049 -0.011576 0.002146 0.009750 -0.006587 0.048509
#
#
# Mechanical properties :
#
#
# Convention : Reuss Voigt Hill
#
# Bulk Modulus (GPa) = 28.79928 43.91115 36.35522
# Shear Modulus (GPa) = 24.29809 33.20493 28.75151
#
# Velocity S-wave (km/s) = 3.26274 3.81415 3.54917
# Velocity P-wave (km/s) = 5.17799 6.21574 5.72044
#
# Compressibility (1/GPa) = 0.03472309
#
# Stress axis : x y z
#
# Youngs Moduli (GPa) = 51.10784 39.30193 62.88891
#
# Poissons Ratio (x) = 0.02533 0.29130
# Poissons Ratio (y) = 0.03293 0.49166
# Poissons Ratio (z) = 0.23673 0.30726
#
# Static dielectric constant tensor:
#      x y z
#    x 1.900540 -0.002570 -0.005370 
#    y -0.002570 1.893560 -0.048140 
#    z -0.005370 -0.048140 2.009250 
# 
# From -- ./inp_files/101736.got.cif
#   From: 2010.05.17/outbox.cif.g08.bks.cpg/sg2_51_cif.got.tgz:101736.got - 2010.06.03 11:33:40.
