data_PCOD9082754
_publ_section_title
;
Structure prediction by ZEFSAII (Michael W. Deem and Ramdas Pophale) SiO2 
 PCOD9082754
Probable space group: P -1
;
_chemical_formula_sum "Si O2"
_cell_formula_units_Z 16
_cell_length_a 6.653140
_cell_length_b 14.812449
_cell_length_c 7.768920
_cell_angle_alpha 101.638422
_cell_angle_beta 81.820848
_cell_angle_gamma 110.777034
_cell_volume 699.021226
_symmetry_space_group_name_H-M "P -1"
_symmetry_group_IT_number 2
_symmetry_cell_setting 'triclinic'
loop_
_space_group_symop_operation_xyz
x,y,z
-x,-y,-z
loop_
_atom_site_type_symbol
_atom_site_label
_atom_site_fract_x
_atom_site_fract_y
_atom_site_fract_z
Si Si1 0.838000 0.060440 0.565344
Si Si2 0.699127 0.771868 0.128056
Si Si3 0.221402 0.553337 0.589965
Si Si4 0.652230 0.606516 0.352886
Si Si5 0.423022 0.043126 0.765814
Si Si6 0.861444 0.780471 0.605358
Si Si7 0.554468 0.244701 0.189063
Si Si8 0.141171 0.876440 0.941320
O O1 0.671039 0.046764 0.736718
O O2 0.993726 0.169573 0.554730
O O3 0.687605 0.028233 0.404171
O O4 0.000000 0.000000 0.500000
O O5 0.680050 0.682296 0.222789
O O6 0.588767 0.850370 0.234353
O O7 0.573628 0.731528 0.948490
O O8 0.946066 0.840431 0.086313
O O9 0.406080 0.567547 0.428711
O O10 0.260653 0.483222 0.707698
O O11 0.273105 0.660462 0.709044
O O12 0.000000 0.500000 0.500000
O O13 0.778253 0.666705 0.527926
O O14 0.265129 0.990450 0.922165
O O15 0.638440 0.803241 0.668787
O O16 0.007732 0.822247 0.767106
O O17 0.671762 0.171115 0.081959
#
# Coordination Sequence:
#
# PCOD9082754 Si02
#       8
#     2   2   2   2   2   2   2   2
#     4  10  19  33  57  87 119 156 203 257 297 337
#     4  11  24  39  58  89 128 163 200 246 301 363
#     4  10  22  42  68  90 113 151 201 255 311 366
#     4  10  22  40  63  91 119 151 198 255 306 364
#     4  10  22  36  56  89 123 163 209 246 291 354
#     4   9  19  36  59  84 116 154 200 249 298 350
#     4  10  22  39  60  88 120 161 202 246 306 367
#     4  10  21  39  59  83 124 169 205 245 293 350
#
# _framework density 22.889146
#
# number of rings (size 3 to 8) (size 9 to 14) (size 15 to 20)
#    0.000    2.000    0.000    2.625    0.000   11.000 
#    0.000    1.250    0.000    0.000    0.000    0.000 
#    0.000    0.000    0.000    0.000    0.000    0.000 
#
# Total GULP energy -89294.233990 kJ/mol
# GULP energy per Si atom -5580.889624 kJ/mol
# Density = 2.283705 g / cm^3
# Si number density = 22.889146 Si / 1000 Ang^3
#
#
#
# Elastic Constant Matrix: (Units=GPa)
#
#
# Indices 1 2 3 4 5 6 
#
# 1 121.8377 58.3735 22.3978 -15.4049 -6.4152 20.5478
# 2 58.3735 108.5465 22.0134 -20.8489 -4.8530 7.9282
# 3 22.3978 22.0134 68.0635 -18.0018 -2.2192 8.4361
# 4 -15.4049 -20.8489 -18.0018 39.0441 2.7366 2.9415
# 5 -6.4152 -4.8530 -2.2192 2.7366 36.5575 9.5465
# 6 20.5478 7.9282 8.4361 2.9415 9.5465 41.8448
#
#
#
# Elastic Compliance Matrix: (Units=1/GPa)
#
#
# Indices 1 2 3 4 5 6 
#
# 1 0.012362 -0.005598 -0.001054 0.001631 0.002683 -0.005524
# 2 -0.005598 0.013319 -0.001344 0.004250 0.000356 0.000116
# 3 -0.001054 -0.001344 0.017890 0.007308 0.001116 -0.003603
# 4 0.001631 0.004250 0.007308 0.032282 0.000291 -0.005415
# 5 0.002683 0.000356 0.001116 0.000291 0.030139 -0.008506
# 6 -0.005524 0.000116 -0.003603 -0.005415 -0.008506 0.029636
#
#
# Mechanical properties :
#
#
# Convention : Reuss Voigt Hill
#
# Bulk Modulus (GPa) = 36.26026 56.00187 46.13106
# Shear Modulus (GPa) = 31.09176 36.53348 33.81262
#
# Velocity S-wave (km/s) = 3.68960 3.99946 3.84765
# Velocity P-wave (km/s) = 5.83326 6.77106 6.31958
#
# Compressibility (1/GPa) = 0.02757840
#
# Stress axis : x y z
#
# Youngs Moduli (GPa) = 80.89012 75.07848 55.89845
#
# Poissons Ratio (x) = 0.42027 0.05893
# Poissons Ratio (y) = 0.45281 0.07515
# Poissons Ratio (z) = 0.08528 0.10094
#
# Static dielectric constant tensor:
#      x y z
#    x 1.932090 0.006350 0.033840 
#    y 0.006350 1.885410 -0.016370 
#    z 0.033840 -0.016370 1.933000 
# 
# From -- ./inp_files/135513.got.cif
#   From: 2010.05.17/outbox.cif.g08.bks.cpg/sg2_68_cif.got.tgz:135513.got - 2010.06.03 11:33:40.
