data_PCOD9082334
_publ_section_title
;
Structure prediction by ZEFSAII (Michael W. Deem and Ramdas Pophale) SiO2 
 PCOD9082334
Probable space group: P -1
;
_chemical_formula_sum "Si O2"
_cell_formula_units_Z 12
_cell_length_a 8.870337
_cell_length_b 8.336413
_cell_length_c 16.898392
_cell_angle_alpha 151.898891
_cell_angle_beta 48.737492
_cell_angle_gamma 131.746860
_cell_volume 429.785803
_symmetry_space_group_name_H-M "P -1"
_symmetry_group_IT_number 2
_symmetry_cell_setting 'triclinic'
loop_
_space_group_symop_operation_xyz
x,y,z
-x,-y,-z
loop_
_atom_site_type_symbol
_atom_site_label
_atom_site_fract_x
_atom_site_fract_y
_atom_site_fract_z
Si Si1 0.459787 0.590001 0.355673
Si Si2 0.886035 0.174099 0.842938
Si Si3 0.170250 0.800197 0.669135
Si Si4 0.271950 0.532768 0.668949
Si Si5 0.303985 0.898700 0.281781
Si Si6 0.503027 0.451039 0.111289
O O1 0.300215 0.565675 0.473864
O O2 0.671595 0.492367 0.269032
O O3 0.396458 0.415405 0.217266
O O4 0.500000 0.000000 0.500000
O O5 0.883525 0.185665 0.752874
O O6 0.642103 0.173224 0.934067
O O7 0.989431 0.873907 0.709554
O O8 0.000000 0.500000 0.000000
O O9 0.116191 0.650797 0.711611
O O10 0.326252 0.180396 0.787563
O O11 0.478795 0.835164 0.704385
O O12 0.256545 0.132774 0.472403
O O13 0.349475 0.527905 0.131008
#
# Coordination Sequence:
#
# PCOD9082334 Si02
#       6
#     2   2   2   2   2   2
#     4  10  15  31  57  77 102 131 177 217 249 302
#     4  10  21  34  51  79 109 138 171 209 259 310
#     4   9  17  32  53  77 104 136 168 216 255 298
#     4  10  17  33  56  82  99 132 182 214 249 308
#     4  10  17  33  56  77 102 139 176 212 248 308
#     4   9  18  32  55  77 102 138 175 211 251 306
#
# _framework density 27.920884999999998
#
# number of rings (size 3 to 8) (size 9 to 14) (size 15 to 20)
#    0.000    2.333    6.667    0.500    0.000    0.667 
#    0.000    2.500    0.000    0.000    0.000    0.000 
#    0.000    0.000    0.000    0.000    0.000    0.000 
#
# Total GULP energy -66859.548985 kJ/mol
# GULP energy per Si atom -5571.629082 kJ/mol
# Density = 2.785734 g / cm^3
# Si number density = 27.920885 Si / 1000 Ang^3
#
#
#
# Elastic Constant Matrix: (Units=GPa)
#
#
# Indices 1 2 3 4 5 6 
#
# 1 248.9551 55.7238 50.2478 7.7764 -14.9035 -59.4476
# 2 55.7238 51.4016 6.3740 11.1229 -15.5720 -25.1232
# 3 50.2478 6.3740 78.4067 -12.4647 -3.5585 -10.1409
# 4 7.7764 11.1229 -12.4647 32.7250 -11.0805 -5.0881
# 5 -14.9035 -15.5720 -3.5585 -11.0805 67.7983 15.2496
# 6 -59.4476 -25.1232 -10.1409 -5.0881 15.2496 70.4381
#
#
#
# Elastic Compliance Matrix: (Units=1/GPa)
#
#
# Indices 1 2 3 4 5 6 
#
# 1 0.006703 -0.005205 -0.003624 -0.000959 -0.000831 0.003390
# 2 -0.005205 0.030074 0.000649 -0.006737 0.003532 0.005176
# 3 -0.003624 0.000649 0.016208 0.007262 0.001454 -0.000284
# 4 -0.000959 -0.006737 0.007262 0.037404 0.004852 -0.000515
# 5 -0.000831 0.003532 0.001454 0.004852 0.016815 -0.002522
# 6 0.003390 0.005176 -0.000284 -0.000515 -0.002522 0.019372
#
#
# Mechanical properties :
#
#
# Convention : Reuss Voigt Hill
#
# Bulk Modulus (GPa) = 27.30328 67.05051 47.17690
# Shear Modulus (GPa) = 32.22835 51.95345 42.09090
#
# Velocity S-wave (km/s) = 3.40115 4.31831 3.88687
# Velocity P-wave (km/s) = 5.02233 6.99502 6.08909
#
# Compressibility (1/GPa) = 0.03662563
#
# Stress axis : x y z
#
# Youngs Moduli (GPa) = 149.19075 33.25098 61.69964
#
# Poissons Ratio (x) = 0.17306 0.22361
# Poissons Ratio (y) = 0.77650 -0.04007
# Poissons Ratio (z) = 0.54070 -0.02159
#
# Static dielectric constant tensor:
#      x y z
#    x 2.240080 -0.016710 -0.031350 
#    y -0.016710 2.358500 -0.078330 
#    z -0.031350 -0.078330 2.194320 
# 
# From -- ./inp_files/555773.got.cif
#   From: 2010.05.17/outbox.cif.g08.bks.cpg/sg2_278_cif.got.tgz:555773.got - 2010.06.03 11:33:40.
