data_PCOD9082799
_publ_section_title
;
Structure prediction by ZEFSAII (Michael W. Deem and Ramdas Pophale) SiO2 
 PCOD9082799
Probable space group: P -1
;
_chemical_formula_sum "Si O2"
_cell_formula_units_Z 16
_cell_length_a 8.122871
_cell_length_b 16.863345
_cell_length_c 8.037745
_cell_angle_alpha 64.362352
_cell_angle_beta 129.705199
_cell_angle_gamma 128.890871
_cell_volume 658.373948
_symmetry_space_group_name_H-M "P -1"
_symmetry_group_IT_number 2
_symmetry_cell_setting 'triclinic'
loop_
_space_group_symop_operation_xyz
x,y,z
-x,-y,-z
loop_
_atom_site_type_symbol
_atom_site_label
_atom_site_fract_x
_atom_site_fract_y
_atom_site_fract_z
Si Si1 0.537155 0.902775 0.094052
Si Si2 0.380071 0.269362 0.218730
Si Si3 0.157851 0.587205 0.390634
Si Si4 0.548167 0.122778 0.555043
Si Si5 0.793609 0.565959 0.621688
Si Si6 0.017949 0.766351 0.759773
Si Si7 0.927478 0.708569 0.252084
Si Si8 0.968878 0.059162 0.587517
O O1 0.498664 0.860391 0.296244
O O2 0.802957 0.930475 0.167255
O O3 0.310821 0.820638 0.916531
O O4 0.500000 0.000000 0.000000
O O5 0.570742 0.350946 0.402395
O O6 0.482670 0.192946 0.335763
O O7 0.110732 0.215337 0.180700
O O8 0.323583 0.305303 0.976435
O O9 0.135951 0.521377 0.275524
O O10 0.000000 0.500000 0.500000
O O11 0.041162 0.659170 0.243789
O O12 0.845897 0.174217 0.686530
O O13 0.318144 0.008135 0.482238
O O14 0.500000 0.500000 0.500000
O O15 0.903870 0.647495 0.764640
O O16 0.875091 0.641224 0.444878
O O17 0.968857 0.829288 0.529511
O O18 0.000000 0.000000 0.500000
#
# Coordination Sequence:
#
# PCOD9082799 Si02
#       8
#     2   2   2   2   2   2   2   2
#     4  11  18  32  60  98 122 166 214 254 302 371
#     4  11  19  36  65  93 120 166 218 254 302 377
#     4   9  21  42  63  85 121 162 215 256 308 380
#     4  10  19  34  63  94 126 158 213 259 297 366
#     4  11  24  44  64  91 133 164 202 276 329 362
#     4  12  21  36  62  96 129 163 210 262 315 364
#     4  10  23  40  69  92 122 170 218 252 314 389
#     4  10  19  33  57  94 129 159 204 262 302 369
#
# _framework density 24.302295999999998
#
# number of rings (size 3 to 8) (size 9 to 14) (size 15 to 20)
#    0.000    1.500    7.500    0.000    0.000    2.000 
#    0.000    6.250    0.000    1.500    0.000    0.000 
#    0.000    0.000    0.000    0.000    0.000    0.000 
#
# Total GULP energy -89293.921126 kJ/mol
# GULP energy per Si atom -5580.870070 kJ/mol
# Density = 2.424698 g / cm^3
# Si number density = 24.302296 Si / 1000 Ang^3
#
#
#
# Elastic Constant Matrix: (Units=GPa)
#
#
# Indices 1 2 3 4 5 6 
#
# 1 51.9176 5.3137 4.9613 9.1809 6.9032 15.9579
# 2 5.3137 115.1284 11.1374 26.7090 14.2652 8.2816
# 3 4.9613 11.1374 85.8611 0.2673 29.1743 -0.1048
# 4 9.1809 26.7090 0.2673 36.5019 6.7230 1.8821
# 5 6.9032 14.2652 29.1743 6.7230 28.2645 6.7256
# 6 15.9579 8.2816 -0.1048 1.8821 6.7256 34.6429
#
#
#
# Elastic Compliance Matrix: (Units=1/GPa)
#
#
# Indices 1 2 3 4 5 6 
#
# 1 0.023783 0.001380 -0.001078 -0.006178 -0.001380 -0.010685
# 2 0.001380 0.010995 -0.000447 -0.007710 -0.003055 -0.002253
# 3 -0.001078 -0.000447 0.018933 0.004114 -0.021112 0.004536
# 4 -0.006178 -0.007710 0.004114 0.035887 -0.008426 0.004388
# 5 -0.001380 -0.003055 -0.021112 -0.008426 0.063573 -0.010582
# 6 -0.010685 -0.002253 0.004536 0.004388 -0.010582 0.036156
#
#
# Mechanical properties :
#
#
# Convention : Reuss Voigt Hill
#
# Bulk Modulus (GPa) = 18.71920 32.85908 25.78914
# Shear Modulus (GPa) = 24.10519 35.31485 29.71002
#
# Velocity S-wave (km/s) = 3.15284 3.81615 3.50025
# Velocity P-wave (km/s) = 4.57966 5.74175 5.19331
#
# Compressibility (1/GPa) = 0.05342109
#
# Stress axis : x y z
#
# Youngs Moduli (GPa) = 42.04602 90.95256 52.81753
#
# Poissons Ratio (x) = -0.12547 0.05694
# Poissons Ratio (y) = -0.05800 0.02359
# Poissons Ratio (z) = 0.04533 0.04062
#
# Static dielectric constant tensor:
#      x y z
#    x 2.007300 -0.084300 -0.023060 
#    y -0.084300 1.955490 0.041890 
#    z -0.023060 0.041890 2.037560 
# 
# From -- ./inp_files/217378.got.cif
#   From: 2010.05.17/outbox.cif.g08.bks.cpg/sg2_109_cif.got.tgz:217378.got - 2010.06.03 11:33:40.
