data_PCOD9082473
_publ_section_title
;
Structure prediction by ZEFSAII (Michael W. Deem and Ramdas Pophale) SiO2 
 PCOD9082473
Probable space group: P -1
;
_chemical_formula_sum "Si O2"
_cell_formula_units_Z 8
_cell_length_a 10.266105
_cell_length_b 8.893071
_cell_length_c 12.077995
_cell_angle_alpha 43.611486
_cell_angle_beta 23.425837
_cell_angle_gamma 41.046620
_cell_volume 285.702757
_symmetry_space_group_name_H-M "P -1"
_symmetry_group_IT_number 2
_symmetry_cell_setting 'triclinic'
loop_
_space_group_symop_operation_xyz
x,y,z
-x,-y,-z
loop_
_atom_site_type_symbol
_atom_site_label
_atom_site_fract_x
_atom_site_fract_y
_atom_site_fract_z
Si Si1 0.221264 0.792170 0.359905
Si Si2 0.879955 0.032228 0.288932
Si Si3 0.333925 0.296481 0.750623
Si Si4 0.088251 0.574668 0.272771
O O1 0.594008 0.735669 0.155130
O O2 0.186842 0.880529 0.213907
O O3 0.000000 0.500000 0.500000
O O4 0.064843 0.580009 0.604667
O O5 0.567493 0.110431 0.578855
O O6 0.891790 0.849094 0.280875
O O7 0.967902 0.249460 0.053810
O O8 0.000000 0.000000 0.500000
O O9 0.500000 0.500000 0.500000
O O10 0.500000 0.500000 0.000000
#
# Coordination Sequence:
#
# PCOD9082473 Si02
#       4
#     2   2   2   2
#     4   9  19  35  58  82 105 140 182 221 263 317
#     4  10  20  37  56  79 108 143 180 222 265 316
#     4  11  22  37  55  80 111 144 179 221 267 317
#     4  10  19  33  55  83 108 135 176 226 267 310
#
# _framework density 28.001128999999999
#
# number of rings (size 3 to 8) (size 9 to 14) (size 15 to 20)
#    0.000    2.000    0.000    6.000    0.000    6.000 
#    0.000    2.500    0.000    0.000    0.000    0.000 
#    0.000    0.000    0.000    0.000    0.000    0.000 
#
# Total GULP energy -44623.994877 kJ/mol
# GULP energy per Si atom -5577.999360 kJ/mol
# Density = 2.793740 g / cm^3
# Si number density = 28.001129 Si / 1000 Ang^3
#
#
#
# Elastic Constant Matrix: (Units=GPa)
#
#
# Indices 1 2 3 4 5 6 
#
# 1 109.6101 33.1774 3.9584 -6.5001 -0.1195 44.2250
# 2 33.1774 208.8766 41.5701 -10.4285 -20.3792 63.5138
# 3 3.9584 41.5701 143.0518 -0.5936 -11.0610 19.0819
# 4 -6.5001 -10.4285 -0.5936 60.5059 6.0998 -3.3306
# 5 -0.1195 -20.3792 -11.0610 6.0998 34.2951 -11.2597
# 6 44.2250 63.5138 19.0819 -3.3306 -11.2597 43.7671
#
#
#
# Elastic Compliance Matrix: (Units=1/GPa)
#
#
# Indices 1 2 3 4 5 6 
#
# 1 0.019224 0.004817 0.001388 0.001979 -0.006332 -0.028500
# 2 0.004817 0.009943 -0.000519 0.001247 -0.000758 -0.019171
# 3 0.001388 -0.000519 0.007679 -0.000170 0.000968 -0.003762
# 4 0.001979 0.001247 -0.000170 0.017117 -0.003441 -0.003318
# 5 -0.006332 -0.000758 0.000968 -0.003441 0.034786 0.015763
# 6 -0.028500 -0.019171 -0.003762 -0.003318 0.015763 0.084909
#
#
# Mechanical properties :
#
#
# Convention : Reuss Voigt Hill
#
# Bulk Modulus (GPa) = 20.73832 68.77227 44.75529
# Shear Modulus (GPa) = 28.03334 53.23578 40.63456
#
# Velocity S-wave (km/s) = 3.16753 4.36501 3.81356
# Velocity P-wave (km/s) = 4.56070 7.07236 5.95055
#
# Compressibility (1/GPa) = 0.04821991
#
# Stress axis : x y z
#
# Youngs Moduli (GPa) = 52.01718 100.56978 130.22894
#
# Poissons Ratio (x) = -0.48446 -0.18082
# Poissons Ratio (y) = -0.25058 0.06758
# Poissons Ratio (z) = -0.07222 0.05219
#
# Static dielectric constant tensor:
#      x y z
#    x 2.392360 -0.123470 -0.013030 
#    y -0.123470 2.397070 -0.106570 
#    z -0.013030 -0.106570 2.050610 
# 
# From -- ./inp_files/372704.got.cif
#   From: 2010.05.17/outbox.cif.g08.bks.cpg/sg2_187_cif.got.tgz:372704.got - 2010.06.03 11:33:40.
