data_PCOD9082992
_publ_section_title
;
Structure prediction by ZEFSAII (Michael W. Deem and Ramdas Pophale) SiO2 
 PCOD9082992
Probable space group: P -1
;
_chemical_formula_sum "Si O2"
_cell_formula_units_Z 16
_cell_length_a 9.887048
_cell_length_b 10.541576
_cell_length_c 11.445277
_cell_angle_alpha 74.268881
_cell_angle_beta 55.756251
_cell_angle_gamma 46.954912
_cell_volume 707.945965
_symmetry_space_group_name_H-M "P -1"
_symmetry_group_IT_number 2
_symmetry_cell_setting 'triclinic'
loop_
_space_group_symop_operation_xyz
x,y,z
-x,-y,-z
loop_
_atom_site_type_symbol
_atom_site_label
_atom_site_fract_x
_atom_site_fract_y
_atom_site_fract_z
Si Si1 0.551045 0.778542 0.202986
Si Si2 0.908595 0.374916 0.536769
Si Si3 0.524598 0.692902 0.001489
Si Si4 0.493474 0.479964 0.644785
Si Si5 0.292487 0.691546 0.903659
Si Si6 0.170110 0.159008 0.873813
Si Si7 0.579813 0.958627 0.605099
Si Si8 0.050596 0.515471 0.274190
O O1 0.431976 0.819691 0.126951
O O2 0.625972 0.593410 0.251516
O O3 0.743823 0.781385 0.088654
O O4 0.431990 0.902539 0.343867
O O5 0.839647 0.474464 0.668706
O O6 0.748832 0.340278 0.596619
O O7 0.106116 0.511799 0.589518
O O8 0.167949 0.215722 0.465712
O O9 0.364678 0.748248 0.958864
O O10 0.610940 0.503312 0.051926
O O11 0.500000 0.500000 0.500000
O O12 0.385967 0.650164 0.736799
O O13 0.746443 0.644344 0.860665
O O14 0.030272 0.821221 0.995101
O O15 0.390984 0.976500 0.759562
O O16 0.078585 0.304177 0.779127
O O17 0.500000 0.000000 0.500000
#
# Coordination Sequence:
#
# PCOD9082992 Si02
#       8
#     2   2   2   2   2   2   2   2
#     4   9  21  35  57  87 114 153 197 236 288 347
#     4  11  21  35  57  88 118 157 189 241 298 346
#     4   9  17  33  56  88 113 142 198 248 282 344
#     4  11  22  35  57  91 124 147 197 250 297 334
#     4   9  18  33  59  83 117 152 191 243 297 336
#     4   9  19  36  57  86 110 155 194 237 286 346
#     4  10  21  39  58  84 120 159 195 233 294 360
#     4  10  19  33  60  86 113 151 199 239 292 341
#
# _framework density 22.600595999999999
#
# number of rings (size 3 to 8) (size 9 to 14) (size 15 to 20)
#    0.750    1.500    2.500    0.750    1.750    6.000 
#    0.000    0.625    0.000    0.750    0.000    0.000 
#    0.000    0.000    0.000    0.000    0.000    0.000 
#
# Total GULP energy -89124.437743 kJ/mol
# GULP energy per Si atom -5570.277359 kJ/mol
# Density = 2.254916 g / cm^3
# Si number density = 22.600596 Si / 1000 Ang^3
#
#
#
# Elastic Constant Matrix: (Units=GPa)
#
#
# Indices 1 2 3 4 5 6 
#
# 1 136.7588 22.2827 63.2672 5.9256 32.5114 -12.3408
# 2 22.2827 41.7378 20.4864 6.5514 2.7965 -8.9758
# 3 63.2672 20.4864 107.7689 9.5195 24.8559 -18.1464
# 4 5.9256 6.5514 9.5195 26.9640 -6.3262 -7.4393
# 5 32.5114 2.7965 24.8559 -6.3262 43.1046 6.5950
# 6 -12.3408 -8.9758 -18.1464 -7.4393 6.5950 19.4889
#
#
#
# Elastic Compliance Matrix: (Units=1/GPa)
#
#
# Indices 1 2 3 4 5 6 
#
# 1 0.011729 -0.002734 -0.003777 -0.000994 -0.007366 0.004764
# 2 -0.002734 0.028811 -0.002043 -0.003443 -0.000430 0.008467
# 3 -0.003777 -0.002043 0.016648 -0.002787 -0.009203 0.014219
# 4 -0.000994 -0.003443 -0.002787 0.043439 0.007545 0.009218
# 5 -0.007366 -0.000430 -0.009203 0.007545 0.038821 -0.023689
# 6 0.004764 0.008467 0.014219 0.009218 -0.023689 0.083002
#
#
# Mechanical properties :
#
#
# Convention : Reuss Voigt Hill
#
# Bulk Modulus (GPa) = 24.94970 55.37088 40.16029
# Shear Modulus (GPa) = 19.76919 29.92678 24.84799
#
# Velocity S-wave (km/s) = 2.96077 3.64285 3.31938
# Velocity P-wave (km/s) = 4.76987 6.49975 5.70080
#
# Compressibility (1/GPa) = 0.04008064
#
# Stress axis : x y z
#
# Youngs Moduli (GPa) = 85.25885 34.70839 60.06782
#
# Poissons Ratio (x) = 0.09489 0.22688
# Poissons Ratio (y) = 0.23308 0.12272
# Poissons Ratio (z) = 0.32203 0.07091
#
# Static dielectric constant tensor:
#      x y z
#    x 1.864020 0.011270 -0.007360 
#    y 0.011270 1.892120 0.005400 
#    z -0.007360 0.005400 1.900260 
# 
# From -- ./inp_files/395917.got.cif
#   From: 2010.05.17/outbox.cif.g08.bks.cpg/sg2_198_cif.got.tgz:395917.got - 2010.06.03 11:33:40.
