data_PCOD9082583
_publ_section_title
;
Structure prediction by ZEFSAII (Michael W. Deem and Ramdas Pophale) SiO2 
 PCOD9082583
Probable space group: P -1
;
_chemical_formula_sum "Si O2"
_cell_formula_units_Z 16
_cell_length_a 11.536072
_cell_length_b 11.848068
_cell_length_c 8.300080
_cell_angle_alpha 55.784936
_cell_angle_beta 105.694494
_cell_angle_gamma 61.865448
_cell_volume 561.343480
_symmetry_space_group_name_H-M "P -1"
_symmetry_group_IT_number 2
_symmetry_cell_setting 'triclinic'
loop_
_space_group_symop_operation_xyz
x,y,z
-x,-y,-z
loop_
_atom_site_type_symbol
_atom_site_label
_atom_site_fract_x
_atom_site_fract_y
_atom_site_fract_z
Si Si1 0.516217 0.125374 0.260307
Si Si2 0.106378 0.697992 0.857313
Si Si3 0.533013 0.577586 0.222229
Si Si4 0.102098 0.306016 0.424040
Si Si5 0.372900 0.985469 0.242801
Si Si6 0.160791 0.998148 0.929593
Si Si7 0.259551 0.440652 0.440703
Si Si8 0.811929 0.158882 0.502989
O O1 0.534441 0.124001 0.459354
O O2 0.709423 0.875485 0.473692
O O3 0.349471 0.170175 0.094821
O O4 0.507220 0.279694 0.049840
O O5 0.191147 0.734036 0.737753
O O6 0.074327 0.585966 0.839631
O O7 0.216212 0.566952 0.165642
O O8 0.896859 0.946271 0.628620
O O9 0.348658 0.748042 0.133983
O O10 0.713453 0.485908 0.457924
O O11 0.611215 0.366056 0.352583
O O12 0.108424 0.451035 0.382230
O O13 0.130709 0.161306 0.680490
O O14 0.203973 0.028914 0.095039
O O15 0.529778 0.815442 0.299013
O O16 0.982392 0.060307 0.765862
#
# Coordination Sequence:
#
# PCOD9082583 Si02
#       8
#     2   2   2   2   2   2   2   2
#     4   9  17  31  53  82 112 146 185 225 278 335
#     4  10  21  38  55  79 113 147 187 232 272 322
#     4  10  20  36  58  84 112 147 184 225 279 330
#     4   9  18  34  56  81 113 146 180 230 283 327
#     4   9  17  31  53  81 114 146 182 229 277 331
#     4   9  19  37  57  83 113 145 184 227 277 327
#     4  10  19  33  56  83 112 146 182 229 283 329
#     4  10  22  40  58  79 113 151 188 228 269 325
#
# _framework density 28.503048
#
# number of rings (size 3 to 8) (size 9 to 14) (size 15 to 20)
#    0.000    2.500    0.000    1.875    0.000    4.500 
#    0.000   20.625    0.000    0.000    0.000    0.000 
#    0.000    0.000    0.000    0.000    0.000    0.000 
#
# Total GULP energy -89730.684144 kJ/mol
# GULP energy per Si atom -5608.167759 kJ/mol
# Density = 2.843817 g / cm^3
# Si number density = 28.503048 Si / 1000 Ang^3
#
#
#
# Elastic Constant Matrix: (Units=GPa)
#
#
# Indices 1 2 3 4 5 6 
#
# 1 109.6871 31.8286 16.9504 -4.5361 9.1433 30.7093
# 2 31.8286 147.3222 37.5992 -20.4337 13.4516 15.5038
# 3 16.9504 37.5992 84.5002 8.6716 6.4918 9.5061
# 4 -4.5361 -20.4337 8.6716 61.7704 -0.4538 5.7933
# 5 9.1433 13.4516 6.4918 -0.4538 33.9183 3.2276
# 6 30.7093 15.5038 9.5061 5.7933 3.2276 52.6371
#
#
#
# Elastic Compliance Matrix: (Units=1/GPa)
#
#
# Indices 1 2 3 4 5 6 
#
# 1 0.011581 -0.001256 -0.001044 0.001151 -0.001817 -0.006213
# 2 -0.001256 0.008846 -0.003703 0.003473 -0.002277 -0.001446
# 3 -0.001044 -0.003703 0.014148 -0.003254 -0.000960 -0.000439
# 4 0.001151 0.003473 -0.003254 0.018163 -0.000529 -0.003073
# 5 -0.001817 -0.002277 -0.000960 -0.000529 0.031047 0.000059
# 6 -0.006213 -0.001446 -0.000439 -0.003073 0.000059 0.023463
#
#
# Mechanical properties :
#
#
# Convention : Reuss Voigt Hill
#
# Bulk Modulus (GPa) = 44.30661 57.14066 50.72364
# Shear Modulus (GPa) = 39.43915 46.67391 43.05653
#
# Velocity S-wave (km/s) = 3.72382 4.05100 3.89085
# Velocity P-wave (km/s) = 5.83673 6.47854 6.16599
#
# Compressibility (1/GPa) = 0.02256999
#
# Stress axis : x y z
#
# Youngs Moduli (GPa) = 86.34577 113.04410 70.68005
#
# Poissons Ratio (x) = 0.14202 0.07376
# Poissons Ratio (y) = 0.10848 0.26172
# Poissons Ratio (z) = 0.09011 0.41859
#
# Static dielectric constant tensor:
#      x y z
#    x 2.286430 -0.000830 0.045130 
#    y -0.000830 2.132090 0.025170 
#    z 0.045130 0.025170 2.178120 
# 
# From -- ./inp_files/176120.got.cif
#   From: 2010.05.17/outbox.cif.g08.bks.cpg/sg2_89_cif.got.tgz:176120.got - 2010.06.03 11:33:40.
