data_PCOD9082824
_publ_section_title
;
Structure prediction by ZEFSAII (Michael W. Deem and Ramdas Pophale) SiO2 
 PCOD9082824
Probable space group: P -1
;
_chemical_formula_sum "Si O2"
_cell_formula_units_Z 14
_cell_length_a 5.547225
_cell_length_b 9.225188
_cell_length_c 24.178212
_cell_angle_alpha 139.487108
_cell_angle_beta 48.483564
_cell_angle_gamma 127.271836
_cell_volume 588.544421
_symmetry_space_group_name_H-M "P -1"
_symmetry_group_IT_number 2
_symmetry_cell_setting 'triclinic'
loop_
_space_group_symop_operation_xyz
x,y,z
-x,-y,-z
loop_
_atom_site_type_symbol
_atom_site_label
_atom_site_fract_x
_atom_site_fract_y
_atom_site_fract_z
Si Si1 0.243083 0.704682 0.620588
Si Si2 0.148263 0.721426 0.479995
Si Si3 0.729888 0.435365 0.302111
Si Si4 0.658318 0.073266 0.056814
Si Si5 0.532222 0.050605 0.604662
Si Si6 0.111613 0.410678 0.793085
Si Si7 0.697775 0.012166 0.803134
O O1 0.182684 0.579088 0.651905
O O2 0.159784 0.489511 0.529304
O O3 0.565801 0.885856 0.603400
O O4 0.985455 0.871625 0.710939
O O5 0.445003 0.581575 0.388311
O O6 0.190955 0.867112 0.459194
O O7 0.240245 0.893432 0.566703
O O8 0.958685 0.542788 0.247423
O O9 0.607512 0.168388 0.228172
O O10 0.748559 0.347306 0.129725
O O11 0.392476 0.968207 0.113671
O O12 0.500000 0.000000 0.000000
O O13 0.000000 0.000000 0.000000
O O14 0.402335 0.269320 0.708147
O O15 0.808090 0.250029 0.823659
#
# Coordination Sequence:
#
# PCOD9082824 Si02
#       7
#     2   2   2   2   2   2   2
#     4  10  19  33  58  83 117 163 204 250 305 362
#     4   9  18  34  52  77 126 159 202 258 298 356
#     4   9  19  34  56  88 121 162 208 252 304 361
#     4  11  26  46  71  98 128 161 206 264 327 390
#     4   9  18  35  55  82 116 162 206 251 306 366
#     4   9  20  42  62  87 121 164 202 256 315 380
#     4   9  21  40  61  89 123 162 202 250 312 379
#
# _framework density 23.787502
#
# number of rings (size 3 to 8) (size 9 to 14) (size 15 to 20)
#    0.000    2.571    0.000    1.286    4.000    2.857 
#    5.143    6.429    0.000    0.000    0.000    0.000 
#    0.000    0.000    0.000    0.000    0.000    0.000 
#
# Total GULP energy -78178.696622 kJ/mol
# GULP energy per Si atom -5584.192616 kJ/mol
# Density = 2.373336 g / cm^3
# Si number density = 23.787502 Si / 1000 Ang^3
#
#
#
# Elastic Constant Matrix: (Units=GPa)
#
#
# Indices 1 2 3 4 5 6 
#
# 1 54.8193 56.7008 41.3438 5.4906 18.8427 -11.3841
# 2 56.7008 232.9145 71.3717 -3.7829 11.1756 -17.6189
# 3 41.3438 71.3717 139.9871 3.4662 16.5867 -7.5883
# 4 5.4906 -3.7829 3.4662 46.8538 -5.3917 -3.8685
# 5 18.8427 11.1756 16.5867 -5.3917 33.4177 -4.6468
# 6 -11.3841 -17.6189 -7.5883 -3.8685 -4.6468 31.2367
#
#
#
# Elastic Compliance Matrix: (Units=1/GPa)
#
#
# Indices 1 2 3 4 5 6 
#
# 1 0.035243 -0.005965 -0.005107 -0.005587 -0.015515 0.005239
# 2 -0.005965 0.006293 -0.001715 0.001764 0.002612 0.001566
# 3 -0.005107 -0.001715 0.009679 -0.000496 -0.001538 -0.000767
# 4 -0.005587 0.001764 -0.000496 0.023201 0.006931 0.002743
# 5 -0.015515 0.002612 -0.001538 0.006931 0.039994 0.002253
# 6 0.005239 0.001566 -0.000767 0.002743 0.002253 0.035295
#
#
# Mechanical properties :
#
#
# Convention : Reuss Voigt Hill
#
# Bulk Modulus (GPa) = 38.99886 85.17263 62.08574
# Shear Modulus (GPa) = 27.19972 39.52195 33.36084
#
# Velocity S-wave (km/s) = 3.38516 4.08052 3.74900
# Velocity P-wave (km/s) = 5.63110 7.62130 6.70051
#
# Compressibility (1/GPa) = 0.02564178
#
# Stress axis : x y z
#
# Youngs Moduli (GPa) = 28.37417 158.91256 103.31511
#
# Poissons Ratio (x) = 0.94786 0.52763
# Poissons Ratio (y) = 0.16924 0.17719
# Poissons Ratio (z) = 0.14491 0.27254
#
# Static dielectric constant tensor:
#      x y z
#    x 2.079790 0.023170 0.005520 
#    y 0.023170 1.940270 -0.015480 
#    z 0.005520 -0.015480 1.869520 
# 
# From -- ./inp_files/52061.got.cif
#   From: 2010.05.17/outbox.cif.g08.bks.cpg/sg2_27_cif.got.tgz:52061.got - 2010.06.03 11:33:40.
