data_PCOD9082290
_publ_section_title
;
Structure prediction by ZEFSAII (Michael W. Deem and Ramdas Pophale) SiO2 
 PCOD9082290
Probable space group: P -1
;
_chemical_formula_sum "Si O2"
_cell_formula_units_Z 15
_cell_length_a 19.671989
_cell_length_b 9.087920
_cell_length_c 7.355575
_cell_angle_alpha 47.637166
_cell_angle_beta 48.029130
_cell_angle_gamma 36.378823
_cell_volume 551.876939
_symmetry_space_group_name_H-M "P -1"
_symmetry_group_IT_number 2
_symmetry_cell_setting 'triclinic'
loop_
_space_group_symop_operation_xyz
x,y,z
-x,-y,-z
loop_
_atom_site_type_symbol
_atom_site_label
_atom_site_fract_x
_atom_site_fract_y
_atom_site_fract_z
Si Si1 0.315715 0.551274 0.059752
Si Si2 0.500000 0.000000 0.000000
Si Si3 0.668735 0.647286 0.415812
Si Si4 0.007022 0.161284 0.201997
Si Si5 0.814146 0.782194 0.055560
Si Si6 0.292290 0.953610 0.358013
Si Si7 0.152790 0.777338 0.856599
Si Si8 0.506821 0.395579 0.277592
O O1 0.198526 0.649169 0.079321
O O2 0.366189 0.703401 0.801260
O O3 0.428316 0.266991 0.021558
O O4 0.301488 0.527776 0.317212
O O5 0.372587 0.030721 0.208592
O O6 0.691840 0.840099 0.273882
O O7 0.753278 0.466045 0.248613
O O8 0.535551 0.774242 0.486811
O O9 0.911647 0.469337 0.164058
O O10 0.968408 0.125487 0.106296
O O11 0.000000 0.000000 0.500000
O O12 0.132517 0.100461 0.040294
O O13 0.785375 0.875873 0.822206
O O14 0.190057 0.957942 0.631612
O O15 0.397485 0.651825 0.366090
O O16 0.500000 0.500000 0.000000
#
# Coordination Sequence:
#
# PCOD9082290 Si02
#       8
#     2   1   2   2   2   2   2   2
#     4  10  20  37  56  85 122 157 199 239 293 349
#     4  10  20  32  52  84 124 152 196 240 286 356
#     4   9  19  36  57  84 117 154 194 243 288 347
#     4  10  19  36  61  88 113 153 202 245 303 360
#     4  10  20  34  59  89 116 150 200 250 296 356
#     4  10  19  33  53  86 118 153 196 237 293 349
#     4  10  20  36  61  81 112 158 195 245 296 353
#     4   8  17  34  56  83 118 158 196 233 285 352
#
# _framework density 27.179970999999998
#
# number of rings (size 3 to 8) (size 9 to 14) (size 15 to 20)
#    0.000    2.400    1.333    1.600    0.000    5.867 
#    0.000   16.667    0.000    3.200    0.000    0.000 
#    0.000    0.000    0.000    0.000    0.000    0.000 
#
# Total GULP energy -83575.150961 kJ/mol
# GULP energy per Si atom -5571.676731 kJ/mol
# Density = 2.711811 g / cm^3
# Si number density = 27.179971 Si / 1000 Ang^3
#
#
#
# Elastic Constant Matrix: (Units=GPa)
#
#
# Indices 1 2 3 4 5 6 
#
# 1 227.8202 5.8268 60.9913 -13.6361 -38.0828 -12.8814
# 2 5.8268 73.9829 -6.4511 -15.0896 -0.9494 -8.4794
# 3 60.9913 -6.4511 72.0457 -22.2039 -27.6313 -6.1378
# 4 -13.6361 -15.0896 -22.2039 18.4221 -4.5319 0.8884
# 5 -38.0828 -0.9494 -27.6313 -4.5319 71.2421 1.1508
# 6 -12.8814 -8.4794 -6.1378 0.8884 1.1508 45.4986
#
#
#
# Elastic Compliance Matrix: (Units=1/GPa)
#
#
# Indices 1 2 3 4 5 6 
#
# 1 0.006015 -0.002215 -0.007005 -0.005804 0.000092 0.000456
# 2 -0.002215 0.030230 0.030331 0.062976 0.014868 0.007493
# 3 -0.007005 0.030331 0.068545 0.109179 0.030028 0.010025
# 4 -0.005804 0.062976 0.109179 0.245898 0.055423 0.018619
# 5 0.000092 0.014868 0.030028 0.055423 0.029375 0.005023
# 6 0.000456 0.007493 0.010025 0.018619 0.005023 0.024366
#
#
# Mechanical properties :
#
#
# Convention : Reuss Voigt Hill
#
# Bulk Modulus (GPa) = 6.80216 54.95364 30.87790
# Shear Modulus (GPa) = 12.15920 47.93135 30.04527
#
# Velocity S-wave (km/s) = 2.11738 4.20394 3.32839
# Velocity P-wave (km/s) = 2.91304 6.62015 5.11431
#
# Compressibility (1/GPa) = 0.14701215
#
# Stress axis : x y z
#
# Youngs Moduli (GPa) = 166.24220 33.07975 14.58898
#
# Poissons Ratio (x) = 0.07327 0.10220
# Poissons Ratio (y) = 0.36822 -0.44250
# Poissons Ratio (z) = 1.16455 -1.00334
#
# Static dielectric constant tensor:
#      x y z
#    x 2.377760 -0.038290 0.283610 
#    y -0.038290 2.242170 0.027060 
#    z 0.283610 0.027060 2.825040 
# 
# From -- ./inp_files/344028.got.cif
#   From: 2010.05.17/outbox.cif.g08.bks.cpg/sg2_173_cif.got.tgz:344028.got - 2010.06.03 11:33:40.
