data_PCOD9082932
_publ_section_title
;
Structure prediction by ZEFSAII (Michael W. Deem and Ramdas Pophale) SiO2 
 PCOD9082932
Probable space group: P -1
;
_chemical_formula_sum "Si O2"
_cell_formula_units_Z 14
_cell_length_a 17.402730
_cell_length_b 11.988383
_cell_length_c 7.232306
_cell_angle_alpha 49.898206
_cell_angle_beta 113.745978
_cell_angle_gamma 148.311384
_cell_volume 565.168351
_symmetry_space_group_name_H-M "P -1"
_symmetry_group_IT_number 2
_symmetry_cell_setting 'triclinic'
loop_
_space_group_symop_operation_xyz
x,y,z
-x,-y,-z
loop_
_atom_site_type_symbol
_atom_site_label
_atom_site_fract_x
_atom_site_fract_y
_atom_site_fract_z
Si Si1 0.347650 0.595209 0.772622
Si Si2 0.876367 0.095696 0.326180
Si Si3 0.196273 0.685651 0.129939
Si Si4 0.818325 0.201679 0.639269
Si Si5 0.350527 0.862243 0.727368
Si Si6 0.762124 0.806296 0.174486
Si Si7 0.444018 0.458976 0.196992
O O1 0.277632 0.618340 0.807595
O O2 0.241497 0.337498 0.811799
O O3 0.475617 0.852368 0.482854
O O4 0.432918 0.615906 0.985174
O O5 0.041872 0.357829 0.310523
O O6 0.872668 0.974912 0.280841
O O7 0.726451 0.834448 0.582985
O O8 0.848689 0.214262 0.079846
O O9 0.250250 0.791149 0.277663
O O10 0.323274 0.815777 0.967963
O O11 0.746143 0.142002 0.439832
O O12 0.000000 0.500000 0.500000
O O13 0.799334 0.006064 0.880581
O O14 0.583219 0.581060 0.312165
O O15 0.500000 0.500000 0.000000
#
# Coordination Sequence:
#
# PCOD9082932 Si02
#       7
#     2   2   2   2   2   2   2
#     4  10  23  39  64  88 123 162 201 251 313 360
#     4  10  20  36  59  90 121 149 207 258 299 350
#     4  10  22  38  61  90 120 165 199 250 304 365
#     4  11  23  38  67  91 121 161 208 248 304 362
#     4  11  22  45  60  90 128 162 200 253 308 368
#     4  10  20  36  61  94 112 158 207 255 300 357
#     4  10  19  33  59  87 117 153 200 254 295 353
#
# _framework density 24.771379
#
# number of rings (size 3 to 8) (size 9 to 14) (size 15 to 20)
#    0.000    1.714    1.429    4.714    6.000    1.143 
#    2.571    5.000    0.000    0.000    0.000    0.000 
#    0.000    0.000    0.000    0.000    0.000    0.000 
#
# Total GULP energy -78214.754130 kJ/mol
# GULP energy per Si atom -5586.768152 kJ/mol
# Density = 2.471500 g / cm^3
# Si number density = 24.771379 Si / 1000 Ang^3
#
#
#
# Elastic Constant Matrix: (Units=GPa)
#
#
# Indices 1 2 3 4 5 6 
#
# 1 64.2399 18.4340 30.0386 -2.7999 7.2983 -40.2191
# 2 18.4340 103.4568 33.1163 -14.5708 2.3545 -43.3913
# 3 30.0386 33.1163 97.9932 -27.2082 -15.3803 -10.4750
# 4 -2.7999 -14.5708 -27.2082 39.9595 -0.7036 3.3229
# 5 7.2983 2.3545 -15.3803 -0.7036 26.2432 -4.3278
# 6 -40.2191 -43.3913 -10.4750 3.3229 -4.3278 50.0689
#
#
#
# Elastic Compliance Matrix: (Units=1/GPa)
#
#
# Indices 1 2 3 4 5 6 
#
# 1 0.067210 0.024726 -0.029470 -0.012453 -0.027348 0.067714
# 2 0.024726 0.026083 -0.014683 -0.002162 -0.011524 0.038542
# 3 -0.029470 -0.014683 0.028604 0.014896 0.021809 -0.029517
# 4 -0.012453 -0.002162 0.014896 0.034548 0.011657 -0.010046
# 5 -0.027348 -0.011524 0.021809 0.011657 0.055992 -0.023326
# 6 0.067714 0.038542 -0.029517 -0.010046 -0.023326 0.100242
#
#
# Mechanical properties :
#
#
# Convention : Reuss Voigt Hill
#
# Bulk Modulus (GPa) = 12.04199 47.65200 29.84700
# Shear Modulus (GPa) = 13.18516 35.52771 24.35644
#
# Velocity S-wave (km/s) = 2.30961 3.79122 3.13908
# Velocity P-wave (km/s) = 3.46182 6.20024 5.02131
#
# Compressibility (1/GPa) = 0.08304276
#
# Stress axis : x y z
#
# Youngs Moduli (GPa) = 14.87880 38.33919 34.95961
#
# Poissons Ratio (x) = -0.94799 1.03027
# Poissons Ratio (y) = -0.36790 0.51333
# Poissons Ratio (z) = 0.43848 0.56295
#
# Static dielectric constant tensor:
#      x y z
#    x 2.040550 0.042800 0.054060 
#    y 0.042800 2.171470 0.074290 
#    z 0.054060 0.074290 2.031140 
# 
# From -- ./inp_files/174053.got.cif
#   From: 2010.05.17/outbox.cif.g08.bks.cpg/sg2_88_cif.got.tgz:174053.got - 2010.06.03 11:33:40.
