data_PCOD9082253
_publ_section_title
;
Structure prediction by ZEFSAII (Michael W. Deem and Ramdas Pophale) SiO2 
 PCOD9082253
Probable space group: P -1
;
_chemical_formula_sum "Si O2"
_cell_formula_units_Z 14
_cell_length_a 16.140473
_cell_length_b 7.483746
_cell_length_c 12.765436
_cell_angle_alpha 130.007216
_cell_angle_beta 25.723423
_cell_angle_gamma 130.560945
_cell_volume 500.766016
_symmetry_space_group_name_H-M "P -1"
_symmetry_group_IT_number 2
_symmetry_cell_setting 'triclinic'
loop_
_space_group_symop_operation_xyz
x,y,z
-x,-y,-z
loop_
_atom_site_type_symbol
_atom_site_label
_atom_site_fract_x
_atom_site_fract_y
_atom_site_fract_z
Si Si1 0.474961 0.364518 0.092453
Si Si2 0.410625 0.970574 0.876939
Si Si3 0.093056 0.696626 0.380843
Si Si4 0.140976 0.090206 0.621888
Si Si5 0.991015 0.710212 0.825865
Si Si6 0.730732 0.523426 0.228180
Si Si7 0.584137 0.213671 0.563072
O O1 0.680568 0.315049 0.876214
O O2 0.349395 0.111444 0.098486
O O3 0.500000 0.500000 0.000000
O O4 0.413658 0.504039 0.314795
O O5 0.260473 0.739153 0.919505
O O6 0.628991 0.928377 0.638250
O O7 0.459691 0.127747 0.776560
O O8 0.069945 0.955638 0.543810
O O9 0.000000 0.500000 0.500000
O O10 0.007544 0.552465 0.321406
O O11 0.015364 0.905017 0.779599
O O12 0.155028 0.352912 0.753605
O O13 0.188438 0.784634 0.693018
O O14 0.806809 0.686289 0.102388
O O15 0.500000 0.500000 0.500000
O O16 0.500000 0.000000 0.500000
#
# Coordination Sequence:
#
# PCOD9082253 Si02
#       7
#     2   2   2   2   2   2   2
#     4   9  17  33  54  75 107 147 177 215 270 325
#     4   8  17  34  52  74 107 143 178 217 269 326
#     4   9  17  31  55  85 107 134 184 231 266 318
#     4   8  16  31  53  81 109 139 177 221 269 318
#     4  10  20  35  55  82 109 142 188 229 269 329
#     4  10  19  33  53  80 115 146 175 229 281 318
#     4  10  21  37  57  79 104 141 187 230 273 326
#
# _framework density 27.957169
#
# number of rings (size 3 to 8) (size 9 to 14) (size 15 to 20)
#    0.000    2.857    0.000    3.000    0.000    5.714 
#    0.000    9.286    0.000    0.000    0.000    0.000 
#    0.000    0.000    0.000    0.000    0.000    0.000 
#
# Total GULP energy -78158.871345 kJ/mol
# GULP energy per Si atom -5582.776525 kJ/mol
# Density = 2.789354 g / cm^3
# Si number density = 27.957169 Si / 1000 Ang^3
#
#
#
# Elastic Constant Matrix: (Units=GPa)
#
#
# Indices 1 2 3 4 5 6 
#
# 1 64.6751 63.8982 41.8991 -2.9717 16.8080 28.9467
# 2 63.8982 219.3453 81.0279 45.0555 25.7662 73.5736
# 3 41.8991 81.0279 142.9313 12.8530 31.6974 15.0559
# 4 -2.9717 45.0555 12.8530 65.2939 6.1590 23.8109
# 5 16.8080 25.7662 31.6974 6.1590 44.4344 -2.4824
# 6 28.9467 73.5736 15.0559 23.8109 -2.4824 75.5600
#
#
#
# Elastic Compliance Matrix: (Units=1/GPa)
#
#
# Indices 1 2 3 4 5 6 
#
# 1 0.029434 -0.005422 -0.003986 0.009605 -0.006950 -0.008458
# 2 -0.005422 0.010340 -0.002874 -0.004450 -0.001617 -0.006069
# 3 -0.003986 -0.002874 0.010525 -0.000730 -0.004102 0.002324
# 4 0.009605 -0.004450 -0.000730 0.021565 -0.003863 -0.006124
# 5 -0.006950 -0.001617 -0.004102 -0.003863 0.029939 0.007255
# 6 -0.008458 -0.006069 0.002324 -0.006124 0.007255 0.024089
#
#
# Mechanical properties :
#
#
# Convention : Reuss Voigt Hill
#
# Bulk Modulus (GPa) = 38.85842 88.95579 63.90710
# Shear Modulus (GPa) = 31.43974 53.06610 42.25292
#
# Velocity S-wave (km/s) = 3.35710 4.36147 3.89182
# Velocity P-wave (km/s) = 5.38110 7.56643 6.56533
#
# Compressibility (1/GPa) = 0.02573445
#
# Stress axis : x y z
#
# Youngs Moduli (GPa) = 33.97443 96.71155 95.01139
#
# Poissons Ratio (x) = 0.52432 0.37875
# Poissons Ratio (y) = 0.18419 0.27311
# Poissons Ratio (z) = 0.13543 0.27799
#
# Static dielectric constant tensor:
#      x y z
#    x 2.224160 -0.108420 0.002120 
#    y -0.108420 2.379360 0.096050 
#    z 0.002120 0.096050 2.173970 
# 
# From -- ./inp_files/579190.got.cif
#   From: 2010.05.17/outbox.cif.g08.bks.cpg/sg2_290_cif.got.tgz:579190.got - 2010.06.03 11:33:40.
