data_PCOD9082103
_publ_section_title
;
Structure prediction by ZEFSAII (Michael W. Deem and Ramdas Pophale) SiO2 
 PCOD9082103
Probable space group: P -1
;
_chemical_formula_sum "Si O2"
_cell_formula_units_Z 16
_cell_length_a 12.477635
_cell_length_b 16.146973
_cell_length_c 5.288412
_cell_angle_alpha 105.419315
_cell_angle_beta 83.642547
_cell_angle_gamma 60.426324
_cell_volume 855.316256
_symmetry_space_group_name_H-M "P -1"
_symmetry_group_IT_number 2
_symmetry_cell_setting 'triclinic'
loop_
_space_group_symop_operation_xyz
x,y,z
-x,-y,-z
loop_
_atom_site_type_symbol
_atom_site_label
_atom_site_fract_x
_atom_site_fract_y
_atom_site_fract_z
Si Si1 0.724344 0.382119 0.807513
Si Si2 0.840174 0.120437 0.152312
Si Si3 0.570909 0.290839 0.548133
Si Si4 0.550534 0.117272 0.667449
Si Si5 0.618715 0.938349 0.110330
Si Si6 0.624340 0.506540 0.444362
Si Si7 0.795661 0.964475 0.792353
Si Si8 0.947059 0.156684 0.648047
O O1 0.622069 0.347600 0.757801
O O2 0.705953 0.453343 0.631353
O O3 0.863663 0.277495 0.704830
O O4 0.695482 0.442974 0.123878
O O5 0.693470 0.218504 0.278784
O O6 0.893840 0.113413 0.413901
O O7 0.910241 0.140878 0.923994
O O8 0.845843 0.017741 0.004609
O O9 0.545142 0.215095 0.644530
O O10 0.443722 0.373326 0.496018
O O11 0.414247 0.137774 0.812580
O O12 0.599857 0.025524 0.377631
O O13 0.664447 0.062254 0.797033
O O14 0.750817 0.898772 0.898289
O O15 0.500000 0.000000 0.000000
O O16 0.500000 0.500000 0.500000
O O17 0.902766 0.899767 0.500866
#
# Coordination Sequence:
#
# PCOD9082103 Si02
#       8
#     2   2   2   2   2   2   2   2
#     4  10  20  34  47  77 111 139 178 219 248 314
#     4  11  22  34  48  82 113 144 183 218 247 324
#     4  10  19  33  55  77 104 147 173 216 275 314
#     4  10  20  36  54  78 108 135 182 226 267 323
#     4   9  20  37  52  75 107 134 178 232 269 311
#     4  10  19  33  51  73 106 141 176 218 265 308
#     4  11  21  33  54  75 108 151 175 217 267 314
#     4  11  23  34  52  76 113 150 185 210 256 315
#
# _framework density 18.706530999999998
#
# number of rings (size 3 to 8) (size 9 to 14) (size 15 to 20)
#    0.000    1.750    1.250    6.000    1.750    2.000 
#    0.000    0.000    0.000    0.000    0.000    1.750 
#    0.000    0.000    0.000    0.000    0.000    0.000 
#
# Total GULP energy -89287.498795 kJ/mol
# GULP energy per Si atom -5580.468675 kJ/mol
# Density = 1.866395 g / cm^3
# Si number density = 18.706531 Si / 1000 Ang^3
#
#
#
# Elastic Constant Matrix: (Units=GPa)
#
#
# Indices 1 2 3 4 5 6 
#
# 1 36.1474 35.8554 20.2983 -5.1975 -18.7350 8.6952
# 2 35.8554 115.9200 26.8384 -12.0151 -20.5857 4.8348
# 3 20.2983 26.8384 88.2369 -11.6043 -15.8996 5.0842
# 4 -5.1975 -12.0151 -11.6043 26.5372 -1.5564 -5.9651
# 5 -18.7350 -20.5857 -15.8996 -1.5564 38.0091 -10.7658
# 6 8.6952 4.8348 5.0842 -5.9651 -10.7658 21.1014
#
#
#
# Elastic Compliance Matrix: (Units=1/GPa)
#
#
# Indices 1 2 3 4 5 6 
#
# 1 0.052420 -0.011915 -0.005082 0.001280 0.014513 -0.009880
# 2 -0.011915 0.013158 -0.000460 0.004609 0.002556 0.004613
# 3 -0.005082 -0.000460 0.013975 0.005707 0.004035 0.002504
# 4 0.001280 0.004609 0.005707 0.046932 0.012106 0.016485
# 5 0.014513 0.002556 0.004035 0.012106 0.041924 0.017273
# 6 -0.009880 0.004613 0.002504 0.016485 0.017273 0.063274
#
#
# Mechanical properties :
#
#
# Convention : Reuss Voigt Hill
#
# Bulk Modulus (GPa) = 22.40218 45.14317 33.77267
# Shear Modulus (GPa) = 17.76346 27.61702 22.69024
#
# Velocity S-wave (km/s) = 3.08488 3.84647 3.48653
# Velocity P-wave (km/s) = 4.96893 6.62660 5.85671
#
# Compressibility (1/GPa) = 0.04463851
#
# Stress axis : x y z
#
# Youngs Moduli (GPa) = 19.07673 75.99920 71.55388
#
# Poissons Ratio (x) = 0.90556 0.36363
# Poissons Ratio (y) = 0.22731 0.03292
# Poissons Ratio (z) = 0.09695 0.03497
#
# Static dielectric constant tensor:
#      x y z
#    x 1.862550 0.022800 0.095910 
#    y 0.022800 1.736000 -0.002520 
#    z 0.095910 -0.002520 1.756150 
# 
# From -- ./inp_files/81799.got.cif
#   From: 2010.05.17/outbox.cif.g08.bks.cpg/sg2_41_cif.got.tgz:81799.got - 2010.06.03 11:33:40.
