data_PCOD9082995
_publ_section_title
;
Structure prediction by ZEFSAII (Michael W. Deem and Ramdas Pophale) SiO2 
 PCOD9082995
Probable space group: P -1
;
_chemical_formula_sum "Si O2"
_cell_formula_units_Z 14
_cell_length_a 16.671536
_cell_length_b 10.993286
_cell_length_c 7.652053
_cell_angle_alpha 103.019565
_cell_angle_beta 77.703494
_cell_angle_gamma 155.106242
_cell_volume 575.031934
_symmetry_space_group_name_H-M "P -1"
_symmetry_group_IT_number 2
_symmetry_cell_setting 'triclinic'
loop_
_space_group_symop_operation_xyz
x,y,z
-x,-y,-z
loop_
_atom_site_type_symbol
_atom_site_label
_atom_site_fract_x
_atom_site_fract_y
_atom_site_fract_z
Si Si1 0.284993 0.575161 0.318102
Si Si2 0.953655 0.613938 0.021977
Si Si3 0.225241 0.983710 0.317524
Si Si4 0.875995 0.343301 0.277016
Si Si5 0.795629 0.663823 0.041675
Si Si6 0.427077 0.046479 0.408809
Si Si7 0.883399 0.935559 0.406261
O O1 0.367967 0.825312 0.308605
O O2 0.058216 0.250292 0.337054
O O3 0.366405 0.668077 0.506251
O O4 0.332261 0.534063 0.136232
O O5 0.150310 0.906268 0.132130
O O6 0.835472 0.353763 0.111706
O O7 0.836856 0.579050 0.053904
O O8 0.018252 0.637193 0.822184
O O9 0.380808 0.089898 0.305338
O O10 0.036868 0.656159 0.379699
O O11 0.244828 0.142326 0.453550
O O12 0.702176 0.099028 0.407536
O O13 0.758588 0.697370 0.238308
O O14 0.000000 0.000000 0.000000
O O15 0.000000 0.000000 0.500000
#
# Coordination Sequence:
#
# PCOD9082995 Si02
#       7
#     2   2   2   2   2   2   2
#     4  10  23  38  56  85 119 148 180 237 289 338
#     4   9  18  32  55  86 107 135 198 235 271 311
#     4  10  19  33  60  87 107 145 195 232 272 334
#     4   9  18  31  57  83 111 139 186 237 273 336
#     4  10  21  35  57  78 112 152 190 225 268 334
#     4  11  21  37  58  87 118 146 179 236 301 328
#     4  11  20  38  62  82 109 150 201 228 264 334
#
# _framework density 24.346474000000001
#
# number of rings (size 3 to 8) (size 9 to 14) (size 15 to 20)
#    0.857    1.143    2.857    1.286    4.000    0.000 
#    0.000    3.571    0.000    0.000    0.000    0.000 
#    0.000    0.000    0.000    0.000    0.000    0.000 
#
# Total GULP energy -78099.362686 kJ/mol
# GULP energy per Si atom -5578.525906 kJ/mol
# Density = 2.429106 g / cm^3
# Si number density = 24.346474 Si / 1000 Ang^3
#
#
#
# Elastic Constant Matrix: (Units=GPa)
#
#
# Indices 1 2 3 4 5 6 
#
# 1 65.3775 -15.9328 8.7338 21.7555 0.5480 -14.5793
# 2 -15.9328 68.8910 10.1332 9.2536 0.9984 0.0165
# 3 8.7338 10.1332 153.7491 40.3957 -30.5290 -9.2664
# 4 21.7555 9.2536 40.3957 31.2091 -7.5564 1.2614
# 5 0.5480 0.9984 -30.5290 -7.5564 40.9563 3.6531
# 6 -14.5793 0.0165 -9.2664 1.2614 3.6531 15.4264
#
#
#
# Elastic Compliance Matrix: (Units=1/GPa)
#
#
# Indices 1 2 3 4 5 6 
#
# 1 0.063325 0.022850 0.019277 -0.081339 -0.009199 0.080232
# 2 0.022850 0.023432 0.007050 -0.034316 -0.004602 0.029701
# 3 0.019277 0.007050 0.017593 -0.038909 0.002712 0.031318
# 4 -0.081339 -0.034316 -0.038909 0.156923 0.012215 -0.115932
# 5 -0.009199 -0.004602 0.002712 0.012215 0.030285 -0.015230
# 6 0.080232 0.029701 0.031318 -0.115932 -0.015230 0.172517
#
#
# Mechanical properties :
#
#
# Convention : Reuss Voigt Hill
#
# Bulk Modulus (GPa) = 4.93330 32.65399 18.79364
# Shear Modulus (GPa) = 11.53959 36.52390 24.03174
#
# Velocity S-wave (km/s) = 2.17946 3.87741 3.14518
# Velocity P-wave (km/s) = 2.89207 5.78680 4.57444
#
# Compressibility (1/GPa) = 0.20270421
#
# Stress axis : x y z
#
# Youngs Moduli (GPa) = 15.79147 42.67605 56.83957
#
# Poissons Ratio (x) = -0.97515 -1.09568
# Poissons Ratio (y) = -0.36083 -0.40072
# Poissons Ratio (z) = -0.30441 -0.30086
#
# Static dielectric constant tensor:
#      x y z
#    x 2.041970 -0.010930 0.057100 
#    y -0.010930 1.948450 0.002420 
#    z 0.057100 0.002420 2.023060 
# 
# From -- ./inp_files/255126.got.cif
#   From: 2010.05.17/outbox.cif.g08.bks.cpg/sg2_128_cif.got.tgz:255126.got - 2010.06.03 11:33:40.
