data_PCOD9082611
_publ_section_title
;
Structure prediction by ZEFSAII (Michael W. Deem and Ramdas Pophale) SiO2 
 PCOD9082611
Probable space group: P -1
;
_chemical_formula_sum "Si O2"
_cell_formula_units_Z 14
_cell_length_a 7.040415
_cell_length_b 8.481464
_cell_length_c 15.749503
_cell_angle_alpha 68.294457
_cell_angle_beta 94.513551
_cell_angle_gamma 53.949690
_cell_volume 649.146385
_symmetry_space_group_name_H-M "P -1"
_symmetry_group_IT_number 2
_symmetry_cell_setting 'triclinic'
loop_
_space_group_symop_operation_xyz
x,y,z
-x,-y,-z
loop_
_atom_site_type_symbol
_atom_site_label
_atom_site_fract_x
_atom_site_fract_y
_atom_site_fract_z
Si Si1 0.896417 0.876784 0.219536
Si Si2 0.838618 0.737960 0.699972
Si Si3 0.424515 0.330147 0.857907
Si Si4 0.423603 0.349493 0.043561
Si Si5 0.370849 0.841153 0.274814
Si Si6 0.078847 0.485753 0.601231
Si Si7 0.791105 0.439001 0.848307
O O1 0.893865 0.714135 0.311649
O O2 0.133202 0.854929 0.258734
O O3 0.957394 0.781146 0.144363
O O4 0.638745 0.135215 0.152088
O O5 0.132748 0.547293 0.780693
O O6 0.876096 0.713263 0.604726
O O7 0.706605 0.641870 0.743682
O O8 0.704823 0.967721 0.699979
O O9 0.818375 0.492810 0.933741
O O10 0.559169 0.144623 0.823143
O O11 0.589963 0.405345 0.847354
O O12 0.500000 0.500000 0.000000
O O13 0.417186 0.271581 0.966033
O O14 0.637885 0.602422 0.363666
O O15 0.000000 0.500000 0.500000
#
# Coordination Sequence:
#
# PCOD9082611 Si02
#       7
#     2   2   2   2   2   2   2
#     4  10  21  38  58  82 115 150 184 227 278 327
#     4  10  20  37  58  82 111 146 186 230 279 331
#     4   9  20  34  51  81 116 148 185 224 265 325
#     4  10  19  33  56  85 115 151 189 222 263 325
#     4  10  20  36  59  83 111 146 184 230 280 329
#     4  10  23  42  60  82 110 141 187 239 283 334
#     4   9  19  34  52  76 112 152 185 222 268 317
#
# _framework density 21.566783999999998
#
# number of rings (size 3 to 8) (size 9 to 14) (size 15 to 20)
#    0.000    2.286    0.000    2.571    0.000    8.000 
#    0.000   13.571    0.000    0.000    0.000    0.000 
#    0.000    0.000    0.000    0.000    0.000    0.000 
#
# Total GULP energy -78075.258535 kJ/mol
# GULP energy per Si atom -5576.804181 kJ/mol
# Density = 2.151770 g / cm^3
# Si number density = 21.566784 Si / 1000 Ang^3
#
#
#
# Elastic Constant Matrix: (Units=GPa)
#
#
# Indices 1 2 3 4 5 6 
#
# 1 63.6416 22.7139 23.2152 5.7839 -1.9614 -8.6326
# 2 22.7139 152.0452 40.3262 40.3189 -9.2060 -11.2472
# 3 23.2152 40.3262 88.5761 37.1769 0.8018 -12.0696
# 4 5.7839 40.3189 37.1769 39.3705 0.1510 -5.4422
# 5 -1.9614 -9.2060 0.8018 0.1510 17.6138 3.9551
# 6 -8.6326 -11.2472 -12.0696 -5.4422 3.9551 26.3996
#
#
#
# Elastic Compliance Matrix: (Units=1/GPa)
#
#
# Indices 1 2 3 4 5 6 
#
# 1 0.018640 -0.002514 -0.005619 0.005638 0.000163 0.003593
# 2 -0.002514 0.009843 0.000465 -0.010057 0.004750 0.000799
# 3 -0.005619 0.000465 0.021150 -0.019000 -0.002180 0.004440
# 4 0.005638 -0.010057 -0.019000 0.052887 -0.004312 0.000421
# 5 0.000163 0.004750 -0.002180 -0.004312 0.061435 -0.009012
# 6 0.003593 0.000799 0.004440 0.000421 -0.009012 0.042862
#
#
# Mechanical properties :
#
#
# Convention : Reuss Voigt Hill
#
# Bulk Modulus (GPa) = 29.15721 52.97485 41.06603
# Shear Modulus (GPa) = 21.40541 31.21059 26.30800
#
# Velocity S-wave (km/s) = 3.15384 3.80828 3.49641
# Velocity P-wave (km/s) = 5.17795 6.62977 5.94832
#
# Compressibility (1/GPa) = 0.03429683
#
# Stress axis : x y z
#
# Youngs Moduli (GPa) = 53.64823 101.59537 47.28041
#
# Poissons Ratio (x) = 0.25538 0.26568
# Poissons Ratio (y) = 0.13486 -0.02197
# Poissons Ratio (z) = 0.30146 -0.04722
#
# Static dielectric constant tensor:
#      x y z
#    x 1.812790 0.017120 -0.004970 
#    y 0.017120 1.856890 0.054550 
#    z -0.004970 0.054550 1.776390 
# 
# From -- ./inp_files/494902.got.cif
#   From: 2010.05.17/outbox.cif.g08.bks.cpg/sg2_248_cif.got.tgz:494902.got - 2010.06.03 11:33:40.
