data_PCOD9082380
_publ_section_title
;
Structure prediction by ZEFSAII (Michael W. Deem and Ramdas Pophale) SiO2 
 PCOD9082380
Probable space group: P -1
;
_chemical_formula_sum "Si O2"
_cell_formula_units_Z 14
_cell_length_a 5.043443
_cell_length_b 23.527209
_cell_length_c 4.992314
_cell_angle_alpha 58.601268
_cell_angle_beta 90.585966
_cell_angle_gamma 92.416883
_cell_volume 505.134441
_symmetry_space_group_name_H-M "P -1"
_symmetry_group_IT_number 2
_symmetry_cell_setting 'triclinic'
loop_
_space_group_symop_operation_xyz
x,y,z
-x,-y,-z
loop_
_atom_site_type_symbol
_atom_site_label
_atom_site_fract_x
_atom_site_fract_y
_atom_site_fract_z
Si Si1 0.549238 0.295213 0.005045
Si Si2 0.049109 0.283165 0.403687
Si Si3 0.948514 0.138326 0.659993
Si Si4 0.438573 0.155281 0.225712
Si Si5 0.417549 0.427375 0.769285
Si Si6 0.583359 0.045242 0.138492
Si Si7 0.921996 0.423391 0.102654
O O1 0.503261 0.368773 0.721471
O O2 0.840300 0.288641 0.140867
O O3 0.463039 0.233823 0.970520
O O4 0.341318 0.288101 0.268565
O O5 0.984074 0.206128 0.671883
O O6 0.994442 0.350674 0.405191
O O7 0.691978 0.141917 0.451177
O O8 0.188560 0.136660 0.456617
O O9 0.880978 0.073857 0.002152
O O10 0.448863 0.113437 0.057846
O O11 0.500000 0.500000 0.500000
O O12 0.611901 0.419721 0.043946
O O13 0.109003 0.421329 0.844828
O O14 0.500000 0.000000 0.500000
O O15 0.500000 0.000000 0.000000
O O16 0.000000 0.500000 0.000000
#
# Coordination Sequence:
#
# PCOD9082380 Si02
#       7
#     2   2   2   2   2   2   2
#     4   8  16  33  59  83 117 169 214 266 326 394
#     4   8  16  33  59  83 117 169 214 266 326 394
#     4  10  22  44  70  98 135 178 231 282 341 411
#     4  10  22  44  70  98 135 178 231 282 341 411
#     4  10  19  33  54  82 121 163 209 266 326 385
#     4  12  26  48  74 108 142 184 230 288 348 418
#     4  10  19  33  54  82 121 163 209 266 326 385
#
# _framework density 27.715395999999998
#
# number of rings (size 3 to 8) (size 9 to 14) (size 15 to 20)
#    0.000    2.286    1.429    0.857    0.000    2.286 
#    2.571    0.000    0.000    0.000    0.000    0.000 
#    0.000    0.000    0.000    0.000    0.000    0.000 
#
# Total GULP energy -78303.241590 kJ/mol
# GULP energy per Si atom -5593.088685 kJ/mol
# Density = 2.765231 g / cm^3
# Si number density = 27.715396 Si / 1000 Ang^3
#
#
#
# Elastic Constant Matrix: (Units=GPa)
#
#
# Indices 1 2 3 4 5 6 
#
# 1 141.0068 30.1075 33.5954 11.7645 -28.8809 20.9117
# 2 30.1075 254.9710 70.6858 -33.1288 -14.6814 9.6013
# 3 33.5954 70.6858 113.0582 -3.1478 -19.8454 12.4191
# 4 11.7645 -33.1288 -3.1478 54.6601 4.1308 -9.8452
# 5 -28.8809 -14.6814 -19.8454 4.1308 38.5365 -3.9714
# 6 20.9117 9.6013 12.4191 -9.8452 -3.9714 47.7330
#
#
#
# Elastic Compliance Matrix: (Units=1/GPa)
#
#
# Indices 1 2 3 4 5 6 
#
# 1 0.009767 -0.000897 -0.000848 -0.003935 0.006536 -0.004146
# 2 -0.000897 0.005272 -0.003120 0.003394 -0.000552 0.000798
# 3 -0.000848 -0.003120 0.011990 -0.001725 0.004317 -0.002117
# 4 -0.003935 0.003394 -0.001725 0.022467 -0.004359 0.005761
# 5 0.006536 -0.000552 0.004317 -0.004359 0.033120 -0.002019
# 6 -0.004146 0.000798 -0.002117 0.005761 -0.002019 0.024177
#
#
# Mechanical properties :
#
#
# Convention : Reuss Voigt Hill
#
# Bulk Modulus (GPa) = 57.80675 86.42368 72.11521
# Shear Modulus (GPa) = 40.88669 53.16242 47.02455
#
# Velocity S-wave (km/s) = 3.84504 4.38443 4.12356
# Velocity P-wave (km/s) = 6.37299 7.54196 6.98198
#
# Compressibility (1/GPa) = 0.01729902
#
# Stress axis : x y z
#
# Youngs Moduli (GPa) = 102.38119 189.68261 83.40405
#
# Poissons Ratio (x) = 0.17015 0.07076
# Poissons Ratio (y) = 0.09184 0.26019
# Poissons Ratio (z) = 0.08687 0.59174
#
# Static dielectric constant tensor:
#      x y z
#    x 2.147850 -0.020770 0.120570 
#    y -0.020770 2.187580 -0.051330 
#    z 0.120570 -0.051330 2.387050 
# 
# From -- ./inp_files/14281.got.cif
#   From: 2010.05.17/outbox.cif.g08.bks.cpg/sg2_8_cif.got.tgz:14281.got - 2010.06.03 11:33:40.
