data_PCOD9082798
_publ_section_title
;
Structure prediction by ZEFSAII (Michael W. Deem and Ramdas Pophale) SiO2 
 PCOD9082798
Probable space group: P -1
;
_chemical_formula_sum "Si O2"
_cell_formula_units_Z 16
_cell_length_a 25.526232
_cell_length_b 7.703937
_cell_length_c 5.581085
_cell_angle_alpha 63.335448
_cell_angle_beta 96.017691
_cell_angle_gamma 52.157639
_cell_volume 652.568520
_symmetry_space_group_name_H-M "P -1"
_symmetry_group_IT_number 2
_symmetry_cell_setting 'triclinic'
loop_
_space_group_symop_operation_xyz
x,y,z
-x,-y,-z
loop_
_atom_site_type_symbol
_atom_site_label
_atom_site_fract_x
_atom_site_fract_y
_atom_site_fract_z
Si Si1 0.639142 0.486429 0.353173
Si Si2 0.487058 0.652270 0.148564
Si Si3 0.993671 0.367169 0.862062
Si Si4 0.310231 0.097204 0.736459
Si Si5 0.081927 0.740362 0.829075
Si Si6 0.307105 0.639353 0.046049
Si Si7 0.754585 0.792820 0.869521
Si Si8 0.871368 0.976481 0.174465
O O1 0.551282 0.646158 0.181711
O O2 0.666513 0.515443 0.103381
O O3 0.699653 0.135406 0.624422
O O4 0.646930 0.557784 0.575455
O O5 0.500000 0.500000 0.500000
O O6 0.500000 0.500000 0.000000
O O7 0.395496 0.953141 0.909821
O O8 0.932543 0.643674 0.488092
O O9 0.084811 0.081756 0.013394
O O10 0.948391 0.291257 0.935165
O O11 0.000000 0.500000 0.000000
O O12 0.270332 0.247590 0.366151
O O13 0.322725 0.828002 0.908614
O O14 0.260043 0.271442 0.844057
O O15 0.119961 0.847673 0.786727
O O16 0.152791 0.412617 0.968448
O O17 0.000000 0.000000 0.500000
O O18 0.215956 0.858387 0.932374
#
# Coordination Sequence:
#
# PCOD9082798 Si02
#       8
#     2   2   2   2   2   2   2   2
#     4  10  19  33  57  94 127 170 216 267 326 399
#     4  12  16  30  55  94 134 165 217 274 325 399
#     4  11  24  44  68  92 126 168 224 286 345 403
#     4  10  19  34  57  93 126 171 215 269 328 399
#     4  12  26  45  68  98 131 176 233 283 338 409
#     4  10  20  33  55  84 126 161 209 261 321 386
#     4  10  21  35  57  85 128 166 211 274 326 383
#     4  11  26  42  67  95 125 177 222 282 347 402
#
# _framework density 24.518498999999998
#
# number of rings (size 3 to 8) (size 9 to 14) (size 15 to 20)
#    0.000    1.250    6.250    1.875    5.250    2.000 
#    0.000    0.000    0.000    0.000    0.000    9.625 
#    0.000    0.000    0.000    0.000    0.000    0.000 
#
# Total GULP energy -89305.472977 kJ/mol
# GULP energy per Si atom -5581.592061 kJ/mol
# Density = 2.446269 g / cm^3
# Si number density = 24.518499 Si / 1000 Ang^3
#
#
#
# Elastic Constant Matrix: (Units=GPa)
#
#
# Indices 1 2 3 4 5 6 
#
# 1 106.5333 27.4188 33.8979 -18.7284 7.3339 -24.2124
# 2 27.4188 68.4001 32.6522 27.7363 -8.1182 -30.7042
# 3 33.8979 32.6522 109.3198 23.8975 10.6517 -1.9803
# 4 -18.7284 27.7363 23.8975 53.1881 -2.4202 -5.0799
# 5 7.3339 -8.1182 10.6517 -2.4202 32.7015 -3.5055
# 6 -24.2124 -30.7042 -1.9803 -5.0799 -3.5055 41.1791
#
#
#
# Elastic Compliance Matrix: (Units=1/GPa)
#
#
# Indices 1 2 3 4 5 6 
#
# 1 0.016387 -0.006405 -0.005508 0.012062 -0.001944 0.005917
# 2 -0.006405 0.041252 -0.007644 -0.017151 0.015668 0.025843
# 3 -0.005508 -0.007644 0.014935 -0.005893 -0.006986 -0.009542
# 4 0.012062 -0.017151 -0.005893 0.034328 -0.002715 -0.001976
# 5 -0.001944 0.015668 -0.006986 -0.002715 0.038388 0.013137
# 6 0.005917 0.025843 -0.009542 -0.001976 0.013137 0.047448
#
#
# Mechanical properties :
#
#
# Convention : Reuss Voigt Hill
#
# Bulk Modulus (GPa) = 29.88832 52.46568 41.17700
# Shear Modulus (GPa) = 20.57567 38.09935 29.33751
#
# Velocity S-wave (km/s) = 2.90002 3.94623 3.46287
# Velocity P-wave (km/s) = 4.84046 6.49681 5.72881
#
# Compressibility (1/GPa) = 0.03345789
#
# Stress axis : x y z
#
# Youngs Moduli (GPa) = 61.02407 24.24137 66.95807
#
# Poissons Ratio (x) = 0.15527 0.36882
# Poissons Ratio (y) = 0.39087 0.51185
# Poissons Ratio (z) = 0.33614 0.18531
#
# Static dielectric constant tensor:
#      x y z
#    x 1.725690 -0.174470 0.377590 
#    y -0.174470 2.246620 0.242220 
#    z 0.377590 0.242220 1.328400 
# 
# From -- ./inp_files/120017.got.cif
#   From: 2010.05.17/outbox.cif.g08.bks.cpg/sg2_61_cif.got.tgz:120017.got - 2010.06.03 11:33:40.
