data_PCOD9082462
_publ_section_title
;
Structure prediction by ZEFSAII (Michael W. Deem and Ramdas Pophale) SiO2 
 PCOD9082462
Probable space group: P -1
;
_chemical_formula_sum "Si O2"
_cell_formula_units_Z 14
_cell_length_a 7.639447
_cell_length_b 8.004412
_cell_length_c 13.554841
_cell_angle_alpha 42.751652
_cell_angle_beta 79.206690
_cell_angle_gamma 64.724483
_cell_volume 497.909292
_symmetry_space_group_name_H-M "P -1"
_symmetry_group_IT_number 2
_symmetry_cell_setting 'triclinic'
loop_
_space_group_symop_operation_xyz
x,y,z
-x,-y,-z
loop_
_atom_site_type_symbol
_atom_site_label
_atom_site_fract_x
_atom_site_fract_y
_atom_site_fract_z
Si Si1 0.415863 0.242765 0.693027
Si Si2 0.853335 0.148403 0.757941
Si Si3 0.738091 0.887274 0.052152
Si Si4 0.384394 0.340352 0.131824
Si Si5 0.670409 0.231696 0.415611
Si Si6 0.843322 0.384397 0.148340
Si Si7 0.763181 0.647091 0.647577
O O1 0.634841 0.213531 0.712107
O O2 0.292051 0.125176 0.824770
O O3 0.304576 0.571637 0.587629
O O4 0.490183 0.984486 0.722455
O O5 0.894708 0.410174 0.660241
O O6 0.009266 0.907309 0.781349
O O7 0.831586 0.052833 0.912085
O O8 0.879251 0.579785 0.137313
O O9 0.500000 0.000000 0.000000
O O10 0.277387 0.445502 0.200392
O O11 0.500000 0.500000 0.000000
O O12 0.230482 0.409434 0.026935
O O13 0.691972 0.330834 0.259778
O O14 0.447405 0.265799 0.423393
O O15 0.807626 0.908164 0.546581
#
# Coordination Sequence:
#
# PCOD9082462 Si02
#       7
#     2   2   2   2   2   2   2
#     4   9  19  34  58  79 110 140 187 217 266 317
#     4  10  19  33  55  82 108 147 175 224 262 328
#     4   9  15  30  53  81 101 137 179 219 253 315
#     4  12  21  33  56  87 110 136 173 237 269 313
#     4   9  20  39  56  78 100 153 188 214 257 329
#     4  11  20  32  58  84 108 137 185 220 272 315
#     4  10  21  36  56  76 114 141 182 221 268 317
#
# _framework density 28.117571999999999
#
# number of rings (size 3 to 8) (size 9 to 14) (size 15 to 20)
#    0.000    2.000    4.286    2.143    0.000    1.714 
#    0.000    0.000    0.000    0.857    0.000    0.000 
#    0.000    0.000    0.000    0.000    0.000    0.000 
#
# Total GULP energy -77959.469716 kJ/mol
# GULP energy per Si atom -5568.533551 kJ/mol
# Density = 2.805358 g / cm^3
# Si number density = 28.117572 Si / 1000 Ang^3
#
#
#
# Elastic Constant Matrix: (Units=GPa)
#
#
# Indices 1 2 3 4 5 6 
#
# 1 55.8546 19.3251 12.8154 -11.9524 -0.7468 -9.2262
# 2 19.3251 224.0343 59.4078 -46.2505 -13.4947 -3.7879
# 3 12.8154 59.4078 121.4023 -1.1319 -16.3407 -4.9484
# 4 -11.9524 -46.2505 -1.1319 65.9456 15.3740 -9.9357
# 5 -0.7468 -13.4947 -16.3407 15.3740 23.4124 -16.3675
# 6 -9.2262 -3.7879 -4.9484 -9.9357 -16.3675 26.8477
#
#
#
# Elastic Compliance Matrix: (Units=1/GPa)
#
#
# Indices 1 2 3 4 5 6 
#
# 1 0.021130 -0.000190 -0.000839 0.004177 0.005691 0.012095
# 2 -0.000190 0.006230 -0.002935 0.004609 -0.000186 0.001865
# 3 -0.000839 -0.002935 0.012456 -0.004429 0.017170 0.010422
# 4 0.004177 0.004609 -0.004429 0.022599 -0.014652 0.000700
# 5 0.005691 -0.000186 0.017170 -0.014652 0.111820 0.067842
# 6 0.012095 0.001865 0.010422 0.000700 0.067842 0.085206
#
#
# Mechanical properties :
#
#
# Convention : Reuss Voigt Hill
#
# Bulk Modulus (GPa) = 31.36022 64.93198 48.14610
# Shear Modulus (GPa) = 17.98566 43.89066 30.93816
#
# Velocity S-wave (km/s) = 2.53189 3.95520 3.32070
# Velocity P-wave (km/s) = 4.44126 6.63334 5.64473
#
# Compressibility (1/GPa) = 0.03188753
#
# Stress axis : x y z
#
# Youngs Moduli (GPa) = 47.32606 160.51410 80.28083
#
# Poissons Ratio (x) = 0.03056 0.06739
# Poissons Ratio (y) = 0.00901 0.23559
# Poissons Ratio (z) = 0.03972 0.47104
#
# Static dielectric constant tensor:
#      x y z
#    x 2.448920 0.020780 0.100220 
#    y 0.020780 2.245910 -0.052310 
#    z 0.100220 -0.052310 2.310910 
# 
# From -- ./inp_files/412577.got.cif
#   From: 2010.05.17/outbox.cif.g08.bks.cpg/sg2_207_cif.got.tgz:412577.got - 2010.06.03 11:33:40.
