data_PCOD9082204
_publ_section_title
;
Structure prediction by ZEFSAII (Michael W. Deem and Ramdas Pophale) SiO2 
 PCOD9082204
Probable space group: P -1
;
_chemical_formula_sum "Si O2"
_cell_formula_units_Z 14
_cell_length_a 5.627281
_cell_length_b 11.510576
_cell_length_c 25.009268
_cell_angle_alpha 26.039903
_cell_angle_beta 112.063279
_cell_angle_gamma 97.387103
_cell_volume 565.529127
_symmetry_space_group_name_H-M "P -1"
_symmetry_group_IT_number 2
_symmetry_cell_setting 'triclinic'
loop_
_space_group_symop_operation_xyz
x,y,z
-x,-y,-z
loop_
_atom_site_type_symbol
_atom_site_label
_atom_site_fract_x
_atom_site_fract_y
_atom_site_fract_z
Si Si1 0.378795 0.797113 0.023619
Si Si2 0.193972 0.852058 0.629778
Si Si3 0.801590 0.824366 0.700626
Si Si4 0.651743 0.824484 0.291348
Si Si5 0.808321 0.253751 0.603967
Si Si6 0.205369 0.083332 0.050313
Si Si7 0.662634 0.565692 0.936249
O O1 0.598137 0.519037 0.195901
O O2 0.534435 0.985255 0.940914
O O3 0.359897 0.611753 0.044845
O O4 0.049310 0.004908 0.934918
O O5 0.450494 0.943336 0.616251
O O6 0.954477 0.924203 0.626893
O O7 0.000000 0.000000 0.500000
O O8 0.997133 0.454774 0.874326
O O9 0.841325 0.954228 0.705400
O O10 0.802152 0.467069 0.466221
O O11 0.940926 0.836996 0.292470
O O12 0.539186 0.057904 0.236074
O O13 0.384892 0.955089 0.173661
O O14 0.500000 0.500000 0.500000
O O15 0.500000 0.500000 0.000000
O O16 0.000000 0.500000 0.000000
#
# Coordination Sequence:
#
# PCOD9082204 Si02
#       7
#     2   2   2   2   2   2   2
#     4  10  19  33  52  90 114 140 194 249 307 344
#     4  10  21  39  66  92 119 152 202 269 327 357
#     4  10  23  41  61  91 125 152 204 260 309 361
#     4  11  24  37  53  83 122 171 211 232 291 362
#     4  11  28  38  54  84 136 178 205 235 290 386
#     4  10  20  35  59  80 111 155 197 257 286 343
#     4  12  22  33  57  86 118 154 199 249 299 344
#
# _framework density 24.755576000000001
#
# number of rings (size 3 to 8) (size 9 to 14) (size 15 to 20)
#    0.000    1.429    2.857    2.143   12.000    0.000 
#    0.000    0.000    0.000    0.000    0.000   24.000 
#    0.000    0.000    0.000    0.000    0.000    0.000 
#
# Total GULP energy -78148.795561 kJ/mol
# GULP energy per Si atom -5582.056826 kJ/mol
# Density = 2.469923 g / cm^3
# Si number density = 24.755576 Si / 1000 Ang^3
#
#
#
# Elastic Constant Matrix: (Units=GPa)
#
#
# Indices 1 2 3 4 5 6 
#
# 1 225.4925 41.1689 38.8278 24.7529 25.1797 -8.0406
# 2 41.1689 60.2288 29.6735 6.4992 -2.4984 10.3142
# 3 38.8278 29.6735 99.4832 30.6686 12.1055 3.6133
# 4 24.7529 6.4992 30.6686 39.2197 7.4294 4.5126
# 5 25.1797 -2.4984 12.1055 7.4294 34.1342 10.8437
# 6 -8.0406 10.3142 3.6133 4.5126 10.8437 29.1573
#
#
#
# Elastic Compliance Matrix: (Units=1/GPa)
#
#
# Indices 1 2 3 4 5 6 
#
# 1 0.006920 -0.006378 0.000908 -0.003451 -0.007483 0.007369
# 2 -0.006378 0.028061 -0.008638 0.005405 0.013929 -0.016631
# 3 0.000908 -0.008638 0.016347 -0.011344 -0.006345 0.005396
# 4 -0.003451 0.005405 -0.011344 0.036244 0.001498 -0.007624
# 5 -0.007483 0.013929 -0.006345 0.001498 0.045137 -0.023223
# 6 0.007369 -0.016631 0.005396 -0.007624 -0.023223 0.051360
#
#
# Mechanical properties :
#
#
# Convention : Reuss Voigt Hill
#
# Bulk Modulus (GPa) = 43.26392 67.17166 55.21779
# Shear Modulus (GPa) = 22.72850 38.87121 30.79986
#
# Velocity S-wave (km/s) = 3.03333 3.96687 3.53109
# Velocity P-wave (km/s) = 5.45733 6.94077 6.24327
#
# Compressibility (1/GPa) = 0.02311395
#
# Stress axis : x y z
#
# Youngs Moduli (GPa) = 144.51008 35.63660 61.17339
#
# Poissons Ratio (x) = 0.22727 -0.05557
# Poissons Ratio (y) = 0.92162 0.52840
# Poissons Ratio (z) = -0.13126 0.30782
#
# Static dielectric constant tensor:
#      x y z
#    x 0.834730 -0.100470 1.259970 
#    y -0.100470 1.977450 0.110410 
#    z 1.259970 0.110410 0.648960 
# 
# From -- ./inp_files/47392.got.cif
#   From: 2010.05.17/outbox.cif.g08.bks.cpg/sg2_24_cif.got.tgz:47392.got - 2010.06.03 11:33:40.
