data_PCOD9082339
_publ_section_title
;
Structure prediction by ZEFSAII (Michael W. Deem and Ramdas Pophale) SiO2 
 PCOD9082339
Probable space group: P -1
;
_chemical_formula_sum "Si O2"
_cell_formula_units_Z 16
_cell_length_a 15.486519
_cell_length_b 9.274088
_cell_length_c 26.332652
_cell_angle_alpha 43.423317
_cell_angle_beta 19.315367
_cell_angle_gamma 41.818896
_cell_volume 829.567977
_symmetry_space_group_name_H-M "P -1"
_symmetry_group_IT_number 2
_symmetry_cell_setting 'triclinic'
loop_
_space_group_symop_operation_xyz
x,y,z
-x,-y,-z
loop_
_atom_site_type_symbol
_atom_site_label
_atom_site_fract_x
_atom_site_fract_y
_atom_site_fract_z
Si Si1 0.232551 0.924843 0.678458
Si Si2 0.946516 0.356144 0.315361
Si Si3 0.334768 0.612691 0.990304
Si Si4 0.288102 0.768278 0.158396
Si Si5 0.391014 0.946924 0.155726
Si Si6 0.394738 0.504982 0.633100
Si Si7 0.969959 0.762697 0.063774
Si Si8 0.143422 0.090800 0.018075
O O1 0.290604 0.677017 0.691239
O O2 0.500000 0.000000 0.500000
O O3 0.003174 0.081835 0.731578
O O4 0.102683 0.940004 0.802650
O O5 0.714902 0.449119 0.461200
O O6 0.769665 0.384487 0.354057
O O7 0.158223 0.501877 0.153635
O O8 0.122055 0.107652 0.287806
O O9 0.200684 0.610180 0.009424
O O10 0.635681 0.465171 0.851545
O O11 0.295833 0.855216 0.969792
O O12 0.328955 0.776670 0.193856
O O13 0.492549 0.887830 0.986387
O O14 0.630437 0.849282 0.087316
O O15 0.302041 0.287868 0.751629
O O16 0.967088 0.749683 0.008111
O O17 0.000000 0.000000 0.000000
#
# Coordination Sequence:
#
# PCOD9082339 Si02
#       8
#     2   2   2   2   2   2   2   2
#     4  11  22  34  54  85 119 136 176 233 280 322
#     4   9  17  31  55  79 105 139 181 214 285 326
#     4   9  18  34  57  78 108 144 179 230 269 323
#     4   9  18  33  53  79 112 141 175 221 281 323
#     4   9  17  31  52  79 110 136 178 227 267 325
#     4  10  19  33  54  80 109 147 177 223 274 325
#     4   9  20  38  54  78 107 147 191 224 261 322
#     4  10  21  34  54  82 109 145 187 222 268 320
#
# _framework density 19.287147000000001
#
# number of rings (size 3 to 8) (size 9 to 14) (size 15 to 20)
#    0.000    2.500    1.250    0.750    5.250    7.000 
#    0.000    0.625    0.000    0.750    0.000    0.000 
#    0.000    0.000    0.000    0.000    0.000    0.000 
#
# Total GULP energy -89144.631026 kJ/mol
# GULP energy per Si atom -5571.539439 kJ/mol
# Density = 1.924325 g / cm^3
# Si number density = 19.287147 Si / 1000 Ang^3
#
#
#
# Elastic Constant Matrix: (Units=GPa)
#
#
# Indices 1 2 3 4 5 6 
#
# 1 94.7421 6.8738 28.8774 8.5752 15.7321 -2.3458
# 2 6.8738 67.1928 38.3504 19.5960 1.6325 7.5294
# 3 28.8774 38.3504 77.6573 19.0336 -6.3333 -7.8422
# 4 8.5752 19.5960 19.0336 29.0386 -0.4779 3.6999
# 5 15.7321 1.6325 -6.3333 -0.4779 18.6799 -0.1647
# 6 -2.3458 7.5294 -7.8422 3.6999 -0.1647 12.2825
#
#
#
# Elastic Compliance Matrix: (Units=1/GPa)
#
#
# Indices 1 2 3 4 5 6 
#
# 1 0.016514 0.006461 -0.011383 -0.001059 -0.018429 -0.008002
# 2 0.006461 0.031576 -0.020801 -0.006043 -0.015671 -0.029794
# 3 -0.011383 -0.020801 0.035478 -0.010131 0.023496 0.036597
# 4 -0.001059 -0.006043 -0.010131 0.047662 -0.000948 -0.017336
# 5 -0.018429 -0.015671 0.023496 -0.000948 0.078564 0.022428
# 6 -0.008002 -0.029794 0.036597 -0.017336 0.022428 0.127042
#
#
# Mechanical properties :
#
#
# Convention : Reuss Voigt Hill
#
# Bulk Modulus (GPa) = 31.13313 43.08842 37.11077
# Shear Modulus (GPa) = 12.53171 23.03292 17.78231
#
# Velocity S-wave (km/s) = 2.55177 3.45948 3.03970
# Velocity P-wave (km/s) = 4.98588 6.19244 5.62163
#
# Compressibility (1/GPa) = 0.03212013
#
# Stress axis : x y z
#
# Youngs Moduli (GPa) = 60.55598 31.66973 28.18682
#
# Poissons Ratio (x) = -0.20461 0.32085
# Poissons Ratio (y) = -0.39124 0.58633
# Poissons Ratio (z) = 0.68930 0.65878
#
# Static dielectric constant tensor:
#      x y z
#    x 1.732450 0.009910 -0.011580 
#    y 0.009910 1.714010 0.025580 
#    z -0.011580 0.025580 1.665180 
# 
# From -- ./inp_files/304718.got.cif
#   From: 2010.05.17/outbox.cif.g08.bks.cpg/sg2_153_cif.got.tgz:304718.got - 2010.06.03 11:33:40.
