data_PCOD9082955
_publ_section_title
;
Structure prediction by ZEFSAII (Michael W. Deem and Ramdas Pophale) SiO2 
 PCOD9082955
Probable space group: P -1
;
_chemical_formula_sum "Si O2"
_cell_formula_units_Z 15
_cell_length_a 20.667859
_cell_length_b 9.986928
_cell_length_c 16.789202
_cell_angle_alpha 47.124996
_cell_angle_beta 159.539867
_cell_angle_gamma 144.171458
_cell_volume 653.777777
_symmetry_space_group_name_H-M "P -1"
_symmetry_group_IT_number 2
_symmetry_cell_setting 'triclinic'
loop_
_space_group_symop_operation_xyz
x,y,z
-x,-y,-z
loop_
_atom_site_type_symbol
_atom_site_label
_atom_site_fract_x
_atom_site_fract_y
_atom_site_fract_z
Si Si1 0.096098 0.709280 0.681683
Si Si2 0.652304 0.766711 0.876549
Si Si3 0.434462 0.664668 0.837166
Si Si4 0.826038 0.199880 0.091763
Si Si5 0.169752 0.199102 0.364220
Si Si6 0.572177 0.771580 0.207249
Si Si7 0.286366 0.643400 0.247406
Si Si8 0.500000 0.000000 0.500000
O O1 0.861695 0.507235 0.437370
O O2 0.187259 0.975624 0.659336
O O3 0.033404 0.643876 0.729548
O O4 0.331741 0.736537 0.928459
O O5 0.534821 0.763638 0.823777
O O6 0.513254 0.484262 0.815270
O O7 0.602543 0.875410 0.705350
O O8 0.951083 0.951077 0.163516
O O9 0.599101 0.917876 0.973423
O O10 0.500000 0.500000 0.000000
O O11 0.711374 0.282133 0.870458
O O12 0.020294 0.214522 0.255101
O O13 0.354279 0.194513 0.628636
O O14 0.305166 0.440236 0.368059
O O15 0.452619 0.867862 0.410356
O O16 0.000000 0.500000 0.000000
#
# Coordination Sequence:
#
# PCOD9082955 Si02
#       8
#     2   2   2   2   2   2   2   1
#     4  11  25  40  60  82 123 165 196 244 296 354
#     4  11  22  35  64  91 117 152 198 251 294 350
#     4  11  22  38  60  92 116 148 200 255 299 342
#     4  10  21  37  60  91 116 151 196 250 297 346
#     4  10  20  37  62  90 117 150 198 248 294 348
#     4  11  24  41  57  85 119 164 203 235 296 362
#     4  10  19  33  59  93 119 149 188 244 301 345
#     4  12  18  34  62  96 120 148 190 254 298 348
#
# _framework density 22.943576
#
# number of rings (size 3 to 8) (size 9 to 14) (size 15 to 20)
#    0.000    1.333    5.333    3.200    1.867    2.667 
#    0.000    4.000    0.000    4.000    0.000    0.000 
#    0.000    0.000    0.000    0.000    0.000    0.000 
#
# Total GULP energy -83573.191205 kJ/mol
# GULP energy per Si atom -5571.546080 kJ/mol
# Density = 2.289136 g / cm^3
# Si number density = 22.943576 Si / 1000 Ang^3
#
#
#
# Elastic Constant Matrix: (Units=GPa)
#
#
# Indices 1 2 3 4 5 6 
#
# 1 41.8943 -9.1907 2.1055 0.4674 -8.1147 9.8116
# 2 -9.1907 82.0113 24.3253 1.1553 -9.8122 3.1522
# 3 2.1055 24.3253 93.0076 -10.6721 -8.3659 10.6108
# 4 0.4674 1.1553 -10.6721 31.0944 11.5711 -13.0811
# 5 -8.1147 -9.8122 -8.3659 11.5711 25.4037 -3.4080
# 6 9.8116 3.1522 10.6108 -13.0811 -3.4080 17.4301
#
#
#
# Elastic Compliance Matrix: (Units=1/GPa)
#
#
# Indices 1 2 3 4 5 6 
#
# 1 0.039573 0.008904 0.000307 -0.025582 0.022621 -0.038849
# 2 0.008904 0.016171 -0.003305 -0.011245 0.011499 -0.012116
# 3 0.000307 -0.003305 0.012579 0.001381 0.001544 -0.005894
# 4 -0.025582 -0.011245 0.001381 0.074247 -0.037290 0.064024
# 5 0.022621 0.011499 0.001544 -0.037290 0.064345 -0.031158
# 6 -0.038849 -0.012116 -0.005894 0.064024 -0.031158 0.126978
#
#
# Mechanical properties :
#
#
# Convention : Reuss Voigt Hill
#
# Bulk Modulus (GPa) = 12.47886 27.93259 20.20572
# Shear Modulus (GPa) = 14.33514 28.09720 21.21617
#
# Velocity S-wave (km/s) = 2.50231 3.50326 3.04420
# Velocity P-wave (km/s) = 3.71477 5.34459 4.60240
#
# Compressibility (1/GPa) = 0.08013553
#
# Stress axis : x y z
#
# Youngs Moduli (GPa) = 25.26976 61.83783 79.49731
#
# Poissons Ratio (x) = -0.55060 -0.02440
# Poissons Ratio (y) = -0.22500 0.26272
# Poissons Ratio (z) = -0.00776 0.20436
#
# Static dielectric constant tensor:
#      x y z
#    x 1.882530 -0.002660 -0.009140 
#    y -0.002660 1.912490 0.017090 
#    z -0.009140 0.017090 1.881460 
# 
# From -- ./inp_files/387543.got.cif
#   From: 2010.05.17/outbox.cif.g08.bks.cpg/sg2_194_cif.got.tgz:387543.got - 2010.06.03 11:33:40.
