data_PCOD9082668
_publ_section_title
;
Structure prediction by ZEFSAII (Michael W. Deem and Ramdas Pophale) SiO2 
 PCOD9082668
Probable space group: P -1
;
_chemical_formula_sum "Si O2"
_cell_formula_units_Z 12
_cell_length_a 9.954463
_cell_length_b 7.070838
_cell_length_c 7.912040
_cell_angle_alpha 55.555904
_cell_angle_beta 96.779962
_cell_angle_gamma 74.019001
_cell_volume 414.353456
_symmetry_space_group_name_H-M "P -1"
_symmetry_group_IT_number 2
_symmetry_cell_setting 'triclinic'
loop_
_space_group_symop_operation_xyz
x,y,z
-x,-y,-z
loop_
_atom_site_type_symbol
_atom_site_label
_atom_site_fract_x
_atom_site_fract_y
_atom_site_fract_z
Si Si1 0.238546 0.538005 0.383527
Si Si2 0.809980 0.763044 0.176175
Si Si3 0.467611 0.736238 0.628638
Si Si4 0.130482 0.798062 0.907714
Si Si5 0.817026 0.921295 0.750667
Si Si6 0.447986 0.781066 0.967338
O O1 0.171490 0.442701 0.576199
O O2 0.405187 0.341344 0.456013
O O3 0.234942 0.808610 0.294157
O O4 0.151407 0.595843 0.162173
O O5 0.904396 0.922116 0.162075
O O6 0.638051 0.963615 0.073316
O O7 0.824511 0.722917 0.998119
O O8 0.312728 0.978083 0.455128
O O9 0.518115 0.789551 0.794241
O O10 0.457275 0.465995 0.785946
O O11 0.298685 0.735625 0.908383
O O12 0.986192 0.839814 0.755842
#
# Coordination Sequence:
#
# PCOD9082668 Si02
#       6
#     2   2   2   2   2   2
#     4  10  19  33  57  75 104 138 165 211 256 298
#     4   9  19  34  55  77 101 134 178 200 252 311
#     4  10  19  35  55  75 105 135 170 212 254 300
#     4   8  19  35  53  77 102 135 172 207 250 304
#     4  11  20  33  54  81 105 128 170 219 252 294
#     4   8  19  37  53  74  99 143 173 198 257 309
#
# _framework density 28.96078
#
# number of rings (size 3 to 8) (size 9 to 14) (size 15 to 20)
#    1.000    1.667    1.667    2.500    0.000    4.667 
#    0.000    0.000    0.000    1.000    0.000    0.000 
#    0.000    0.000    0.000    0.000    0.000    0.000 
#
# Total GULP energy -67029.592672 kJ/mol
# GULP energy per Si atom -5585.799389 kJ/mol
# Density = 2.889486 g / cm^3
# Si number density = 28.960780 Si / 1000 Ang^3
#
#
#
# Elastic Constant Matrix: (Units=GPa)
#
#
# Indices 1 2 3 4 5 6 
#
# 1 115.0824 -12.0344 58.7382 -7.8939 17.5601 -20.7106
# 2 -12.0344 54.7364 5.8641 -11.8639 5.4823 -5.3343
# 3 58.7382 5.8641 195.6455 -10.8624 -28.2132 -6.6325
# 4 -7.8939 -11.8639 -10.8624 51.0268 -9.3555 2.4253
# 5 17.5601 5.4823 -28.2132 -9.3555 46.8971 -12.1477
# 6 -20.7106 -5.3343 -6.6325 2.4253 -12.1477 34.1904
#
#
#
# Elastic Compliance Matrix: (Units=1/GPa)
#
#
# Indices 1 2 3 4 5 6 
#
# 1 0.014074 0.005080 -0.005224 0.000617 -0.007427 0.005622
# 2 0.005080 0.021381 -0.002330 0.004356 -0.003822 0.004294
# 3 -0.005224 -0.002330 0.007941 0.001687 0.007485 0.000553
# 4 0.000617 0.004356 0.001687 0.021917 0.005068 0.001627
# 5 -0.007427 -0.003822 0.007485 0.005068 0.031971 0.007357
# 6 0.005622 0.004294 0.000553 0.001627 0.007357 0.035929
#
#
# Mechanical properties :
#
#
# Convention : Reuss Voigt Hill
#
# Bulk Modulus (GPa) = 26.00840 52.28890 39.14865
# Shear Modulus (GPa) = 33.11754 47.28261 40.20008
#
# Velocity S-wave (km/s) = 3.38528 4.04498 3.72975
# Velocity P-wave (km/s) = 4.92750 6.31744 5.66526
#
# Compressibility (1/GPa) = 0.03844912
#
# Stress axis : x y z
#
# Youngs Moduli (GPa) = 71.05187 46.76997 125.92401
#
# Poissons Ratio (x) = -0.23757 0.65781
# Poissons Ratio (y) = -0.36091 0.29335
# Poissons Ratio (z) = 0.37117 0.10895
#
# Static dielectric constant tensor:
#      x y z
#    x 2.401350 0.084830 0.026110 
#    y 0.084830 2.247430 0.003320 
#    z 0.026110 0.003320 2.254300 
# 
# From -- ./inp_files/251248.got.cif
#   From: 2010.05.17/outbox.cif.g08.bks.cpg/sg2_126_cif.got.tgz:251248.got - 2010.06.03 11:33:40.
