data_PCOD9082937
_publ_section_title
;
Structure prediction by ZEFSAII (Michael W. Deem and Ramdas Pophale) SiO2 
 PCOD9082937
Probable space group: P -1
;
_chemical_formula_sum "Si O2"
_cell_formula_units_Z 16
_cell_length_a 7.705467
_cell_length_b 8.829585
_cell_length_c 12.453191
_cell_angle_alpha 112.979990
_cell_angle_beta 65.992734
_cell_angle_gamma 125.907665
_cell_volume 613.554107
_symmetry_space_group_name_H-M "P -1"
_symmetry_group_IT_number 2
_symmetry_cell_setting 'triclinic'
loop_
_space_group_symop_operation_xyz
x,y,z
-x,-y,-z
loop_
_atom_site_type_symbol
_atom_site_label
_atom_site_fract_x
_atom_site_fract_y
_atom_site_fract_z
Si Si1 0.648447 0.821186 0.539418
Si Si2 0.250448 0.769119 0.333680
Si Si3 0.933557 0.718221 0.574963
Si Si4 0.520704 0.608797 0.300111
Si Si5 0.654998 0.333918 0.242610
Si Si6 0.297188 0.899127 0.136830
Si Si7 0.286021 0.106755 0.006910
Si Si8 0.960213 0.194168 0.189107
O O1 0.853473 0.842355 0.562687
O O2 0.655760 0.761296 0.400584
O O3 0.433241 0.661012 0.614029
O O4 0.635010 0.011693 0.595113
O O5 0.426423 0.699589 0.265308
O O6 0.165798 0.780459 0.240054
O O7 0.064725 0.664832 0.442113
O O8 0.707233 0.545590 0.628213
O O9 0.061445 0.815477 0.679852
O O10 0.644653 0.491391 0.216089
O O11 0.878573 0.331533 0.200987
O O12 0.468548 0.119275 0.192638
O O13 0.185214 0.933245 0.072681
O O14 0.456335 0.820816 0.039316
O O15 0.205240 0.247616 0.106259
O O16 0.187176 0.007100 0.890562
#
# Coordination Sequence:
#
# PCOD9082937 Si02
#       8
#     2   2   2   2   2   2   2   2
#     4  10  21  37  55  82 122 160 195 234 284 354
#     4  11  22  37  60  92 123 150 192 248 297 349
#     4  11  22  37  59  90 125 153 191 241 302 360
#     4  11  22  36  56  83 124 167 192 227 295 368
#     4   9  18  33  54  81 115 154 197 235 285 349
#     4   9  19  38  61  87 116 155 199 247 292 343
#     4   9  18  35  62  87 113 152 206 246 287 344
#     4  10  19  33  59  88 112 150 199 246 283 340
#
# _framework density 26.077567999999999
#
# number of rings (size 3 to 8) (size 9 to 14) (size 15 to 20)
#    0.000    2.000    0.000    5.625    0.000    3.000 
#    0.000    1.250    0.000   13.500    0.000    0.000 
#    0.000    0.000    0.000    0.000    0.000    0.250 
#
# Total GULP energy -89461.339237 kJ/mol
# GULP energy per Si atom -5591.333702 kJ/mol
# Density = 2.601821 g / cm^3
# Si number density = 26.077568 Si / 1000 Ang^3
#
#
#
# Elastic Constant Matrix: (Units=GPa)
#
#
# Indices 1 2 3 4 5 6 
#
# 1 148.4264 40.5566 42.1585 10.0614 -7.9202 -47.7409
# 2 40.5566 86.3474 18.2713 3.8073 -0.0943 -24.1202
# 3 42.1585 18.2713 117.6198 -6.2096 6.9077 -2.7884
# 4 10.0614 3.8073 -6.2096 28.2196 -16.0958 -5.7768
# 5 -7.9202 -0.0943 6.9077 -16.0958 49.2645 17.8788
# 6 -47.7409 -24.1202 -2.7884 -5.7768 17.8788 35.9095
#
#
#
# Elastic Compliance Matrix: (Units=1/GPa)
#
#
# Indices 1 2 3 4 5 6 
#
# 1 0.015483 0.000504 -0.004976 -0.006044 -0.007185 0.023141
# 2 0.000504 0.015608 -0.002142 -0.003137 -0.005392 0.013168
# 3 -0.004976 -0.002142 0.010545 0.003808 0.001666 -0.007453
# 4 -0.006044 -0.003137 0.003808 0.046723 0.017819 -0.011203
# 5 -0.007185 -0.005392 0.001666 0.017819 0.034682 -0.027446
# 6 0.023141 0.013168 -0.007453 -0.011203 -0.027446 0.078741
#
#
# Mechanical properties :
#
#
# Convention : Reuss Voigt Hill
#
# Bulk Modulus (GPa) = 35.20266 61.59628 48.39947
# Shear Modulus (GPa) = 22.27367 39.43919 30.85643
#
# Velocity S-wave (km/s) = 2.92572 3.89315 3.44358
# Velocity P-wave (km/s) = 4.99416 6.62424 5.86610
#
# Compressibility (1/GPa) = 0.02840695
#
# Stress axis : x y z
#
# Youngs Moduli (GPa) = 64.58874 64.06795 94.83298
#
# Poissons Ratio (x) = -0.03227 0.47191
# Poissons Ratio (y) = -0.03253 0.20313
# Poissons Ratio (z) = 0.32141 0.13723
#
# Static dielectric constant tensor:
#      x y z
#    x 2.122100 0.011480 0.004500 
#    y 0.011480 2.078480 0.002040 
#    z 0.004500 0.002040 2.090020 
# 
# From -- ./inp_files/379883.got.cif
#   From: 2010.05.17/outbox.cif.g08.bks.cpg/sg2_190_cif.got.tgz:379883.got - 2010.06.03 11:33:40.
