data_PCOD9082263
_publ_section_title
;
Structure prediction by ZEFSAII (Michael W. Deem and Ramdas Pophale) SiO2 
 PCOD9082263
Probable space group: P -1
;
_chemical_formula_sum "Si O2"
_cell_formula_units_Z 14
_cell_length_a 6.868566
_cell_length_b 16.124206
_cell_length_c 6.403742
_cell_angle_alpha 101.198779
_cell_angle_beta 67.615608
_cell_angle_gamma 78.898670
_cell_volume 614.895872
_symmetry_space_group_name_H-M "P -1"
_symmetry_group_IT_number 2
_symmetry_cell_setting 'triclinic'
loop_
_space_group_symop_operation_xyz
x,y,z
-x,-y,-z
loop_
_atom_site_type_symbol
_atom_site_label
_atom_site_fract_x
_atom_site_fract_y
_atom_site_fract_z
Si Si1 0.762719 0.246150 0.482710
Si Si2 0.485411 0.632295 0.046134
Si Si3 0.155104 0.294347 0.590125
Si Si4 0.122859 0.904607 0.317307
Si Si5 0.073636 0.203642 0.963284
Si Si6 0.878099 0.468337 0.848848
Si Si7 0.468599 0.191425 0.098488
O O1 0.765395 0.156044 0.557723
O O2 0.966449 0.265702 0.530911
O O3 0.560824 0.330978 0.676146
O O4 0.850156 0.233777 0.205716
O O5 0.711733 0.557787 0.871912
O O6 0.476721 0.722159 0.975603
O O7 0.292145 0.587992 0.050788
O O8 0.123628 0.280360 0.841068
O O9 0.379022 0.226070 0.381067
O O10 0.080843 0.398094 0.615271
O O11 0.955294 0.865907 0.232148
O O12 0.322678 0.892630 0.065765
O O13 0.000000 0.000000 0.500000
O O14 0.271519 0.174502 0.032875
O O15 0.000000 0.500000 0.000000
#
# Coordination Sequence:
#
# PCOD9082263 Si02
#       7
#     2   2   2   2   2   2   2
#     4   8  18  38  58  79 111 149 186 225 274 327
#     4   9  19  35  54  80 112 144 185 232 269 318
#     4   9  19  36  56  81 110 147 191 225 268 330
#     4  10  22  38  58  87 113 138 184 232 273 336
#     4  10  20  38  60  79 111 152 181 224 281 326
#     4  10  19  33  53  81 114 145 184 228 272 321
#     4  10  21  38  59  80 109 148 185 227 279 330
#
# _framework density 22.768083000000001
#
# number of rings (size 3 to 8) (size 9 to 14) (size 15 to 20)
#    0.000    2.571    0.000    1.714    0.000    5.143 
#    0.000   10.714    0.000    0.000    0.000    0.000 
#    0.000    0.000    0.000    0.000    0.000    0.000 
#
# Total GULP energy -77979.806774 kJ/mol
# GULP energy per Si atom -5569.986198 kJ/mol
# Density = 2.271626 g / cm^3
# Si number density = 22.768083 Si / 1000 Ang^3
#
#
#
# Elastic Constant Matrix: (Units=GPa)
#
#
# Indices 1 2 3 4 5 6 
#
# 1 79.9584 13.6957 15.1578 9.7370 3.6246 -1.7333
# 2 13.6957 63.0034 53.0949 29.5322 -7.7872 -9.2194
# 3 15.1578 53.0949 144.1267 15.0197 -12.2967 -4.3343
# 4 9.7370 29.5322 15.0197 35.2567 -5.5550 -6.7549
# 5 3.6246 -7.7872 -12.2967 -5.5550 37.7304 9.4410
# 6 -1.7333 -9.2194 -4.3343 -6.7549 9.4410 22.8425
#
#
#
# Elastic Compliance Matrix: (Units=1/GPa)
#
#
# Indices 1 2 3 4 5 6 
#
# 1 0.013304 -0.001112 -0.000898 -0.002616 -0.002331 0.000580
# 2 -0.001112 0.038758 -0.011318 -0.026335 -0.000967 0.006023
# 3 -0.000898 -0.011318 0.010824 0.005113 0.002564 -0.002130
# 4 -0.002616 -0.026335 0.005113 0.050148 0.002924 0.003764
# 5 -0.002331 -0.000967 0.002564 0.002924 0.030781 -0.011938
# 6 0.000580 0.006023 -0.002130 0.003764 -0.011938 0.051896
#
#
# Mechanical properties :
#
#
# Convention : Reuss Voigt Hill
#
# Bulk Modulus (GPa) = 27.60174 50.10948 38.85561
# Shear Modulus (GPa) = 21.32700 32.84194 27.08447
#
# Velocity S-wave (km/s) = 3.06389 3.80209 3.45277
# Velocity P-wave (km/s) = 4.96647 6.42891 5.74442
#
# Compressibility (1/GPa) = 0.03622960
#
# Stress axis : x y z
#
# Youngs Moduli (GPa) = 75.16503 25.80124 92.38619
#
# Poissons Ratio (x) = 0.02868 0.08300
# Poissons Ratio (y) = 0.08356 1.04563
# Poissons Ratio (z) = 0.06753 0.29202
#
# Static dielectric constant tensor:
#      x y z
#    x 1.945590 -0.029300 -0.051960 
#    y -0.029300 1.876250 -0.011360 
#    z -0.051960 -0.011360 1.932990 
# 
# From -- ./inp_files/44843.got.cif
#   From: 2010.05.17/outbox.cif.g08.bks.cpg/sg2_23_cif.got.tgz:44843.got - 2010.06.03 11:33:40.
