data_PCOD9082857
_publ_section_title
;
Structure prediction by ZEFSAII (Michael W. Deem and Ramdas Pophale) SiO2 
 PCOD9082857
Probable space group: P -1
;
_chemical_formula_sum "Si O2"
_cell_formula_units_Z 16
_cell_length_a 12.693375
_cell_length_b 18.885058
_cell_length_c 25.215500
_cell_angle_alpha 23.703199
_cell_angle_beta 151.800125
_cell_angle_gamma 161.009411
_cell_volume 785.149002
_symmetry_space_group_name_H-M "P -1"
_symmetry_group_IT_number 2
_symmetry_cell_setting 'triclinic'
loop_
_space_group_symop_operation_xyz
x,y,z
-x,-y,-z
loop_
_atom_site_type_symbol
_atom_site_label
_atom_site_fract_x
_atom_site_fract_y
_atom_site_fract_z
Si Si1 0.793458 0.430373 0.056440
Si Si2 0.638661 0.760088 0.905034
Si Si3 0.356624 0.522748 0.255595
Si Si4 0.742654 0.010004 0.165480
Si Si5 0.778997 0.545087 0.377499
Si Si6 0.425198 0.067422 0.343370
Si Si7 0.395536 0.210984 0.343364
Si Si8 0.589871 0.856188 0.024307
O O1 0.513737 0.299976 0.064131
O O2 0.633851 0.321670 0.002702
O O3 0.981879 0.359924 0.203464
O O4 0.062714 0.744513 0.957185
O O5 0.501913 0.822957 0.758445
O O6 0.500000 0.500000 0.000000
O O7 0.029957 0.964816 0.939131
O O8 0.468288 0.386447 0.387630
O O9 0.540410 0.738415 0.234428
O O10 0.476808 0.680587 0.145538
O O11 0.503103 0.996421 0.102281
O O12 0.039786 0.090050 0.273405
O O13 0.644445 0.475964 0.304958
O O14 0.000000 0.500000 0.500000
O O15 0.035820 0.817844 0.334948
O O16 0.479553 0.231382 0.304372
O O17 0.582485 0.971801 0.495558
#
# Coordination Sequence:
#
# PCOD9082857 Si02
#       8
#     2   2   2   2   2   2   2   2
#     4  11  23  35  57  88 119 159 189 243 303 353
#     4  12  23  39  56  83 124 157 192 239 301 356
#     4  11  19  36  58  87 120 149 200 249 291 344
#     4  11  20  35  62  90 115 153 197 249 295 343
#     4  10  19  33  58  87 115 148 196 248 287 334
#     4  10  21  37  57  87 117 156 194 245 292 346
#     4  10  19  35  60  88 116 148 200 246 290 341
#     4  11  21  36  58  86 116 153 204 242 289 354
#
# _framework density 20.378297
#
# number of rings (size 3 to 8) (size 9 to 14) (size 15 to 20)
#    0.000    1.250    2.500    7.125    0.000    0.000 
#    2.250    0.000    0.000    9.750    0.000    0.000 
#    0.000    0.000    0.000    0.000    0.000    0.000 
#
# Total GULP energy -89137.025979 kJ/mol
# GULP energy per Si atom -5571.064124 kJ/mol
# Density = 2.033192 g / cm^3
# Si number density = 20.378297 Si / 1000 Ang^3
#
#
#
# Elastic Constant Matrix: (Units=GPa)
#
#
# Indices 1 2 3 4 5 6 
#
# 1 105.7536 33.9038 20.6933 17.0657 20.2951 -1.6918
# 2 33.9038 71.5016 10.5309 27.1255 2.7506 -8.7869
# 3 20.6933 10.5309 76.6102 28.2734 15.8109 5.8052
# 4 17.0657 27.1255 28.2734 31.1691 1.0795 -0.5391
# 5 20.2951 2.7506 15.8109 1.0795 34.3535 9.1186
# 6 -1.6918 -8.7869 5.8052 -0.5391 9.1186 42.2058
#
#
#
# Elastic Compliance Matrix: (Units=1/GPa)
#
#
# Indices 1 2 3 4 5 6 
#
# 1 0.012839 -0.004859 -0.000727 -0.001876 -0.007097 0.001112
# 2 -0.004859 0.026097 0.008107 -0.027213 -0.003285 0.004486
# 3 -0.000727 0.008107 0.025084 -0.029030 -0.010904 0.000193
# 4 -0.001876 -0.027213 -0.029030 0.082534 0.015105 -0.003957
# 5 -0.007097 -0.003285 -0.010904 0.015105 0.040223 -0.007966
# 6 0.001112 0.004486 0.000193 -0.003957 -0.007966 0.026316
#
#
# Mechanical properties :
#
#
# Convention : Reuss Voigt Hill
#
# Bulk Modulus (GPa) = 14.47995 42.68015 28.58005
# Shear Modulus (GPa) = 21.63813 34.12817 27.88315
#
# Velocity S-wave (km/s) = 3.26210 4.09679 3.70304
# Velocity P-wave (km/s) = 4.61621 6.58541 5.68669
#
# Compressibility (1/GPa) = 0.06906099
#
# Stress axis : x y z
#
# Youngs Moduli (GPa) = 77.89015 38.31804 39.86539
#
# Poissons Ratio (x) = 0.18619 0.02899
# Poissons Ratio (y) = 0.37848 -0.32317
# Poissons Ratio (z) = 0.05663 -0.31063
#
# Static dielectric constant tensor:
#      x y z
#    x 1.655590 -0.064800 0.239520 
#    y -0.064800 1.693110 0.100820 
#    z 0.239520 0.100820 1.610990 
# 
# From -- ./inp_files/500860.got.cif
#   From: 2010.05.17/outbox.cif.g08.bks.cpg/sg2_251_cif.got.tgz:500860.got - 2010.06.03 11:33:40.
