data_PCOD9082202
_publ_section_title
;
Structure prediction by ZEFSAII (Michael W. Deem and Ramdas Pophale) SiO2 
 PCOD9082202
Probable space group: P -1
;
_chemical_formula_sum "Si O2"
_cell_formula_units_Z 16
_cell_length_a 8.607080
_cell_length_b 5.869866
_cell_length_c 22.947274
_cell_angle_alpha 113.304268
_cell_angle_beta 143.783529
_cell_angle_gamma 64.063348
_cell_volume 613.998823
_symmetry_space_group_name_H-M "P -1"
_symmetry_group_IT_number 2
_symmetry_cell_setting 'triclinic'
loop_
_space_group_symop_operation_xyz
x,y,z
-x,-y,-z
loop_
_atom_site_type_symbol
_atom_site_label
_atom_site_fract_x
_atom_site_fract_y
_atom_site_fract_z
Si Si1 0.486627 0.833836 0.921761
Si Si2 0.983922 0.574729 0.102721
Si Si3 0.359730 0.951655 0.250487
Si Si4 0.966549 0.444749 0.210054
Si Si5 0.003472 0.775322 0.362135
Si Si6 0.932377 0.733966 0.611043
Si Si7 0.295181 0.043630 0.112591
Si Si8 0.549141 0.980019 0.430617
O O1 0.240082 0.698912 0.836010
O O2 0.513108 0.994052 0.888615
O O3 0.760852 0.618938 0.989710
O O4 0.500000 0.000000 0.000000
O O5 0.853489 0.529882 0.120398
O O6 0.223263 0.340396 0.136235
O O7 0.114544 0.815254 0.173756
O O8 0.413746 0.900408 0.192990
O O9 0.563856 0.890940 0.359515
O O10 0.240049 0.248374 0.255726
O O11 0.029823 0.653034 0.293661
O O12 0.926491 0.545822 0.353433
O O13 0.276638 0.810383 0.480762
O O14 0.889691 0.079935 0.344980
O O15 0.751603 0.891525 0.624950
O O16 0.697756 0.746497 0.492574
O O17 0.000000 0.000000 0.000000
#
# Coordination Sequence:
#
# PCOD9082202 Si02
#       8
#     2   2   2   2   2   2   2   2
#     4  12  23  44  63  92 126 164 211 268 323 390
#     4  11  23  41  63  90 127 168 208 264 320 389
#     4  11  21  38  62  91 125 165 212 260 319 386
#     4  11  23  34  61  93 127 164 212 262 329 376
#     4  10  19  33  52  89 128 164 206 272 315 381
#     4   9  18  28  52  79 128 159 202 263 324 358
#     4  11  24  43  65  89 126 167 212 265 317 388
#     4   9  19  29  54  85 125 162 210 260 319 369
#
# _framework density 26.058682000000001
#
# number of rings (size 3 to 8) (size 9 to 14) (size 15 to 20)
#    0.750    0.750    3.750    2.625    0.000    1.000 
#    0.000    0.000    0.000    0.750    0.000    1.750 
#    0.000    0.000    0.000    0.000    0.000    0.125 
#
# Total GULP energy -89362.652806 kJ/mol
# GULP energy per Si atom -5585.165800 kJ/mol
# Density = 2.599937 g / cm^3
# Si number density = 26.058682 Si / 1000 Ang^3
#
#
#
# Elastic Constant Matrix: (Units=GPa)
#
#
# Indices 1 2 3 4 5 6 
#
# 1 103.9902 38.9871 64.3467 2.9369 -26.4766 20.2829
# 2 38.9871 120.3464 25.2566 -16.6214 -9.9081 19.4161
# 3 64.3467 25.2566 150.5188 -8.3277 -32.0839 26.1071
# 4 2.9369 -16.6214 -8.3277 37.8682 19.5013 -0.3209
# 5 -26.4766 -9.9081 -32.0839 19.5013 47.4998 -4.1110
# 6 20.2829 19.4161 26.1071 -0.3209 -4.1110 47.3401
#
#
#
# Elastic Compliance Matrix: (Units=1/GPa)
#
#
# Indices 1 2 3 4 5 6 
#
# 1 0.017371 -0.004800 -0.004851 -0.009167 0.008988 -0.002080
# 2 -0.004800 0.010930 0.000420 0.006878 -0.003185 -0.002888
# 3 -0.004851 0.000420 0.010013 0.000947 0.003472 -0.003308
# 4 -0.009167 0.006878 0.000947 0.040503 -0.019738 -0.000855
# 5 0.008988 -0.003185 0.003472 -0.019738 0.035718 -0.001492
# 6 -0.002080 -0.002888 -0.003308 -0.000855 -0.001492 0.024889
#
#
# Mechanical properties :
#
#
# Convention : Reuss Voigt Hill
#
# Bulk Modulus (GPa) = 50.37074 70.22625 60.29850
# Shear Modulus (GPa) = 30.39484 42.95929 36.67707
#
# Velocity S-wave (km/s) = 3.41896 4.06465 3.75571
# Velocity P-wave (km/s) = 5.91248 7.00259 6.48050
#
# Compressibility (1/GPa) = 0.01985280
#
# Stress axis : x y z
#
# Youngs Moduli (GPa) = 57.56873 91.49421 99.86776
#
# Poissons Ratio (x) = 0.43915 0.48446
# Poissons Ratio (y) = 0.27631 -0.04199
# Poissons Ratio (z) = 0.27927 -0.03847
#
# Static dielectric constant tensor:
#      x y z
#    x 2.119090 -0.009850 0.001140 
#    y -0.009850 2.108790 -0.080630 
#    z 0.001140 -0.080630 2.006930 
# 
# From -- ./inp_files/585395.got.cif
#   From: 2010.05.17/outbox.cif.g08.bks.cpg/sg2_293_cif.got.tgz:585395.got - 2010.06.03 11:33:40.
