data_PCOD9082701
_publ_section_title
;
Structure prediction by ZEFSAII (Michael W. Deem and Ramdas Pophale) SiO2 
 PCOD9082701
Probable space group: P -1
;
_chemical_formula_sum "Si O2"
_cell_formula_units_Z 16
_cell_length_a 9.983509
_cell_length_b 8.052908
_cell_length_c 9.571900
_cell_angle_alpha 107.451710
_cell_angle_beta 69.674368
_cell_angle_gamma 115.302550
_cell_volume 641.904142
_symmetry_space_group_name_H-M "P -1"
_symmetry_group_IT_number 2
_symmetry_cell_setting 'triclinic'
loop_
_space_group_symop_operation_xyz
x,y,z
-x,-y,-z
loop_
_atom_site_type_symbol
_atom_site_label
_atom_site_fract_x
_atom_site_fract_y
_atom_site_fract_z
Si Si1 0.313082 0.358949 0.661661
Si Si2 0.799171 0.787493 0.051255
Si Si3 0.982725 0.394864 0.192456
Si Si4 0.671717 0.094457 0.093905
Si Si5 0.202688 0.780427 0.193427
Si Si6 0.165469 0.739814 0.511352
Si Si7 0.552399 0.225995 0.406421
Si Si8 0.026133 0.045450 0.697485
O O1 0.303803 0.360458 0.833784
O O2 0.411992 0.237125 0.547340
O O3 0.373877 0.562004 0.625924
O O4 0.144793 0.236485 0.637298
O O5 0.924806 0.924024 0.148926
O O6 0.705509 0.904198 0.047365
O O7 0.884541 0.692785 0.893908
O O8 0.059584 0.597548 0.146516
O O9 0.828496 0.253271 0.140651
O O10 0.933541 0.410576 0.375101
O O11 0.535547 0.097906 0.244710
O O12 0.666787 0.164636 0.956415
O O13 0.215972 0.718647 0.330359
O O14 0.140793 0.951484 0.261138
O O15 0.328804 0.821477 0.550586
O O16 0.072393 0.879786 0.581405
#
# Coordination Sequence:
#
# PCOD9082701 Si02
#       8
#     2   2   2   2   2   2   2   2
#     4   9  19  34  59  85  98 136 185 234 260 299
#     4  10  19  33  57  83 103 135 181 234 258 301
#     4  11  19  34  53  77 108 143 183 220 257 311
#     4  11  19  33  55  79 107 141 184 223 258 310
#     4  12  23  33  53  82 116 146 171 214 273 329
#     4  11  23  35  52  81 117 145 169 216 275 327
#     4  10  19  36  59  81 106 135 183 229 261 312
#     4  10  19  35  54  80 109 140 177 219 261 316
#
# _framework density 24.925837999999999
#
# number of rings (size 3 to 8) (size 9 to 14) (size 15 to 20)
#    0.750    0.750    3.750    4.500    0.000    2.000 
#    0.000    0.000    0.000   11.250    0.000    0.000 
#    0.000    0.000    0.000    0.000    0.000    0.000 
#
# Total GULP energy -89341.617271 kJ/mol
# GULP energy per Si atom -5583.851079 kJ/mol
# Density = 2.486911 g / cm^3
# Si number density = 24.925838 Si / 1000 Ang^3
#
#
#
# Elastic Constant Matrix: (Units=GPa)
#
#
# Indices 1 2 3 4 5 6 
#
# 1 35.5739 10.1336 33.8771 11.0729 -5.9468 -13.6579
# 2 10.1336 66.8513 6.6018 -9.0086 -0.9984 -23.9144
# 3 33.8771 6.6018 153.9301 4.5060 3.1254 -10.3281
# 4 11.0729 -9.0086 4.5060 33.7151 -13.1222 -12.1040
# 5 -5.9468 -0.9984 3.1254 -13.1222 44.0038 12.3081
# 6 -13.6579 -23.9144 -10.3281 -12.1040 12.3081 24.3102
#
#
#
# Elastic Compliance Matrix: (Units=1/GPa)
#
#
# Indices 1 2 3 4 5 6 
#
# 1 0.045636 -0.001039 -0.008601 -0.008144 -0.000470 0.017146
# 2 -0.001039 0.037918 0.001573 0.027214 -0.006434 0.054192
# 3 -0.008601 0.001573 0.008443 0.002283 -0.001687 0.002293
# 4 -0.008144 0.027214 0.002283 0.058627 0.002555 0.051062
# 5 -0.000470 -0.006434 -0.001687 0.002555 0.029225 -0.020834
# 6 0.017146 0.054192 0.002293 0.051062 -0.020834 0.141023
#
#
# Mechanical properties :
#
#
# Convention : Reuss Voigt Hill
#
# Bulk Modulus (GPa) = 13.18184 39.73113 26.45649
# Shear Modulus (GPa) = 13.80093 34.12202 23.96148
#
# Velocity S-wave (km/s) = 2.35559 3.70394 3.10386
# Velocity P-wave (km/s) = 3.56347 5.85376 4.84587
#
# Compressibility (1/GPa) = 0.07586192
#
# Stress axis : x y z
#
# Youngs Moduli (GPa) = 21.91247 26.37295 118.43969
#
# Poissons Ratio (x) = 0.02741 1.01867
# Poissons Ratio (y) = 0.02277 -0.18626
# Poissons Ratio (z) = 0.18846 -0.04147
#
# Static dielectric constant tensor:
#      x y z
#    x 2.013510 0.067720 0.010280 
#    y 0.067720 2.014760 -0.012030 
#    z 0.010280 -0.012030 2.057790 
# 
# From -- ./inp_files/238917.got.cif
#   From: 2010.05.17/outbox.cif.g08.bks.cpg/sg2_120_cif.got.tgz:238917.got - 2010.06.03 11:33:40.
