data_PCOD9082024
_publ_section_title
;
Structure prediction by ZEFSAII (Michael W. Deem and Ramdas Pophale) SiO2 
 PCOD9082024
Probable space group: P -1
;
_chemical_formula_sum "Si O2"
_cell_formula_units_Z 14
_cell_length_a 9.402781
_cell_length_b 11.762066
_cell_length_c 8.762690
_cell_angle_alpha 49.328067
_cell_angle_beta 133.993385
_cell_angle_gamma 125.174987
_cell_volume 515.096232
_symmetry_space_group_name_H-M "P -1"
_symmetry_group_IT_number 2
_symmetry_cell_setting 'triclinic'
loop_
_space_group_symop_operation_xyz
x,y,z
-x,-y,-z
loop_
_atom_site_type_symbol
_atom_site_label
_atom_site_fract_x
_atom_site_fract_y
_atom_site_fract_z
Si Si1 0.842484 0.557023 0.519420
Si Si2 0.335978 0.004531 0.999078
Si Si3 0.918706 0.236061 0.797606
Si Si4 0.529005 0.691331 0.978733
Si Si5 0.072329 0.891804 0.416933
Si Si6 0.764617 0.514481 0.821225
Si Si7 0.687085 0.793863 0.697673
O O1 0.932248 0.416366 0.652356
O O2 0.711729 0.613833 0.239375
O O3 0.999738 0.710982 0.565022
O O4 0.704607 0.491459 0.619447
O O5 0.413638 0.138737 0.059635
O O6 0.125806 0.042549 0.748241
O O7 0.500000 0.000000 0.000000
O O8 0.274272 0.841256 0.177744
O O9 0.896367 0.140445 0.709801
O O10 0.116059 0.202794 0.052978
O O11 0.346195 0.596636 0.028929
O O12 0.513982 0.715343 0.762746
O O13 0.268052 0.028900 0.481560
O O14 0.719128 0.677876 0.692081
O O15 0.000000 0.500000 0.000000
#
# Coordination Sequence:
#
# PCOD9082024 Si02
#       7
#     2   2   2   2   2   2   2
#     4  11  23  39  69  97 127 162 214 265 311 368
#     4  10  19  32  60  94 122 157 209 265 301 360
#     4  11  18  38  65  96 121 163 213 260 304 374
#     4  11  23  43  66  93 124 167 222 255 306 383
#     4  10  21  38  65  95 124 165 217 257 312 372
#     4  12  26  41  63  95 133 167 206 261 329 372
#     4  11  21  42  65  91 129 171 207 259 317 382
#
# _framework density 27.179389
#
# number of rings (size 3 to 8) (size 9 to 14) (size 15 to 20)
#    0.000    1.143    5.714    3.000    2.000    1.714 
#    0.000    0.000    3.143    1.714    0.000    0.000 
#    0.000    0.000    0.000    0.000    0.000    0.000 
#
# Total GULP energy -78293.173548 kJ/mol
# GULP energy per Si atom -5592.369539 kJ/mol
# Density = 2.711753 g / cm^3
# Si number density = 27.179389 Si / 1000 Ang^3
#
#
#
# Elastic Constant Matrix: (Units=GPa)
#
#
# Indices 1 2 3 4 5 6 
#
# 1 183.5689 43.5537 53.6362 -20.8334 -24.8862 4.9495
# 2 43.5537 134.8616 33.8843 -47.0725 -5.1717 3.0223
# 3 53.6362 33.8843 91.7839 -29.6524 11.8049 -0.0109
# 4 -20.8334 -47.0725 -29.6524 44.0875 -1.9947 -10.0342
# 5 -24.8862 -5.1717 11.8049 -1.9947 40.0579 -7.2869
# 6 4.9495 3.0223 -0.0109 -10.0342 -7.2869 47.3191
#
#
#
# Elastic Compliance Matrix: (Units=1/GPa)
#
#
# Indices 1 2 3 4 5 6 
#
# 1 0.008091 -0.001343 -0.005349 -0.000913 0.006389 0.000029
# 2 -0.001343 0.012535 0.000323 0.013620 0.001823 0.002509
# 3 -0.005349 0.000323 0.018142 0.009994 -0.007866 0.001451
# 4 -0.000913 0.013620 0.009994 0.045723 0.002208 0.009264
# 5 0.006389 0.001823 -0.007866 0.002208 0.032448 0.004678
# 6 0.000029 0.002509 0.001451 0.009264 0.004678 0.023655
#
#
# Mechanical properties :
#
#
# Convention : Reuss Voigt Hill
#
# Bulk Modulus (GPa) = 38.41620 74.70699 56.56159
# Shear Modulus (GPa) = 30.86247 44.90225 37.88236
#
# Velocity S-wave (km/s) = 3.37339 4.06898 3.73740
# Velocity P-wave (km/s) = 5.41646 7.04427 6.28330
#
# Compressibility (1/GPa) = 0.02603069
#
# Stress axis : x y z
#
# Youngs Moduli (GPa) = 123.59529 79.77445 55.12024
#
# Poissons Ratio (x) = 0.10716 0.29483
# Poissons Ratio (y) = 0.16603 -0.01782
# Poissons Ratio (z) = 0.66110 -0.02579
#
# Static dielectric constant tensor:
#      x y z
#    x 2.164310 0.144680 -0.016910 
#    y 0.144680 2.108440 -0.006890 
#    z -0.016910 -0.006890 2.192900 
# 
# From -- ./inp_files/158469.got.cif
#   From: 2010.05.17/outbox.cif.g08.bks.cpg/sg2_80_cif.got.tgz:158469.got - 2010.06.03 11:33:40.
