data_PCOD9082163
_publ_section_title
;
Structure prediction by ZEFSAII (Michael W. Deem and Ramdas Pophale) SiO2 
 PCOD9082163
Probable space group: P -1
;
_chemical_formula_sum "Si O2"
_cell_formula_units_Z 14
_cell_length_a 4.995796
_cell_length_b 15.746939
_cell_length_c 8.411559
_cell_angle_alpha 109.374959
_cell_angle_beta 59.095729
_cell_angle_gamma 108.732553
_cell_volume 526.250009
_symmetry_space_group_name_H-M "P -1"
_symmetry_group_IT_number 2
_symmetry_cell_setting 'triclinic'
loop_
_space_group_symop_operation_xyz
x,y,z
-x,-y,-z
loop_
_atom_site_type_symbol
_atom_site_label
_atom_site_fract_x
_atom_site_fract_y
_atom_site_fract_z
Si Si1 0.346028 0.766206 0.288756
Si Si2 0.238344 0.392228 0.594321
Si Si3 0.376606 0.086584 0.164906
Si Si4 0.169068 0.119805 0.594009
Si Si5 0.480013 0.534632 0.852840
Si Si6 0.848335 0.407963 0.272496
Si Si7 0.069959 0.149794 0.991048
O O1 0.515890 0.802620 0.424105
O O2 0.649999 0.765045 0.083226
O O3 0.084930 0.676749 0.329809
O O4 0.143479 0.839007 0.324969
O O5 0.413502 0.436370 0.724821
O O6 0.513602 0.352195 0.397341
O O7 0.164405 0.486841 0.603509
O O8 0.244748 0.070849 0.376652
O O9 0.141603 0.112650 0.118664
O O10 0.707300 0.161242 0.108838
O O11 0.500000 0.000000 0.000000
O O12 0.124717 0.088290 0.775988
O O13 0.203781 0.583383 0.896416
O O14 0.817370 0.603233 0.770769
O O15 0.500000 0.500000 0.000000
#
# Coordination Sequence:
#
# PCOD9082163 Si02
#       7
#     2   2   2   2   2   2   2
#     4  10  21  41  62  83 126 170 201 250 314 368
#     4   9  21  34  64  78 109 162 196 237 313 342
#     4  12  24  42  70  96 125 165 204 253 310 360
#     4  10  23  42  63  92 130 161 208 255 295 383
#     4  10  19  33  52  79 117 138 187 259 299 339
#     4   9  20  34  55  80 110 141 206 246 284 354
#     4  10  22  43  62  93 133 157 204 256 301 365
#
# _framework density 26.603324000000001
#
# number of rings (size 3 to 8) (size 9 to 14) (size 15 to 20)
#    1.714    0.286    1.429    2.143    2.000    1.143 
#    0.000    4.286    0.000    0.000    0.000    0.000 
#    0.000    0.000    0.000    0.000    0.000    0.000 
#
# Total GULP energy -77996.880527 kJ/mol
# GULP energy per Si atom -5571.205752 kJ/mol
# Density = 2.654277 g / cm^3
# Si number density = 26.603324 Si / 1000 Ang^3
#
#
#
# Elastic Constant Matrix: (Units=GPa)
#
#
# Indices 1 2 3 4 5 6 
#
# 1 174.0801 22.8724 46.5009 8.7217 20.6311 29.6550
# 2 22.8724 50.7091 27.8628 -4.5563 -9.3233 18.1478
# 3 46.5009 27.8628 160.1082 -2.2692 26.7096 10.2239
# 4 8.7217 -4.5563 -2.2692 37.9462 3.3440 -5.1305
# 5 20.6311 -9.3233 26.7096 3.3440 52.5156 -8.4879
# 6 29.6550 18.1478 10.2239 -5.1305 -8.4879 36.9517
#
#
#
# Elastic Compliance Matrix: (Units=1/GPa)
#
#
# Indices 1 2 3 4 5 6 
#
# 1 0.007912 -0.001612 -0.001011 -0.002621 -0.003765 -0.006507
# 2 -0.001612 0.027741 -0.004810 0.001591 0.006399 -0.009309
# 3 -0.001011 -0.004810 0.008166 0.000543 -0.004658 -0.000080
# 4 -0.002621 0.001591 0.000543 0.027856 0.000080 0.005057
# 5 -0.003765 0.006399 -0.004658 0.000080 0.025145 0.006955
# 6 -0.006507 -0.009309 -0.000080 0.005057 0.006955 0.039178
#
#
# Mechanical properties :
#
#
# Convention : Reuss Voigt Hill
#
# Bulk Modulus (GPa) = 34.53800 64.37439 49.45620
# Shear Modulus (GPa) = 31.14934 44.66012 37.90473
#
# Velocity S-wave (km/s) = 3.42553 4.10169 3.77876
# Velocity P-wave (km/s) = 5.35317 6.83244 6.13753
#
# Compressibility (1/GPa) = 0.02895362
#
# Stress axis : x y z
#
# Youngs Moduli (GPa) = 126.38301 36.04723 122.45516
#
# Poissons Ratio (x) = 0.05812 0.12379
# Poissons Ratio (y) = 0.20379 0.58900
# Poissons Ratio (z) = 0.12776 0.17338
#
# Static dielectric constant tensor:
#      x y z
#    x 2.039640 0.036140 -0.019550 
#    y 0.036140 2.263030 -0.050240 
#    z -0.019550 -0.050240 2.242210 
# 
# From -- ./inp_files/140720.got.cif
#   From: 2010.05.17/outbox.cif.g08.bks.cpg/sg2_71_cif.got.tgz:140720.got - 2010.06.03 11:33:40.
