data_PCOD9082677
_publ_section_title
;
Structure prediction by ZEFSAII (Michael W. Deem and Ramdas Pophale) SiO2 
 PCOD9082677
Probable space group: P -1
;
_chemical_formula_sum "Si O2"
_cell_formula_units_Z 16
_cell_length_a 18.403418
_cell_length_b 8.083839
_cell_length_c 8.865519
_cell_angle_alpha 130.693316
_cell_angle_beta 38.780673
_cell_angle_gamma 122.797317
_cell_volume 624.804821
_symmetry_space_group_name_H-M "P -1"
_symmetry_group_IT_number 2
_symmetry_cell_setting 'triclinic'
loop_
_space_group_symop_operation_xyz
x,y,z
-x,-y,-z
loop_
_atom_site_type_symbol
_atom_site_label
_atom_site_fract_x
_atom_site_fract_y
_atom_site_fract_z
Si Si1 0.047121 0.305872 0.509951
Si Si2 0.172465 0.531577 0.154650
Si Si3 0.445050 0.956198 0.394457
Si Si4 0.594682 0.323438 0.250729
Si Si5 0.068336 0.748538 0.916402
Si Si6 0.699795 0.407401 0.459188
Si Si7 0.213995 0.082966 0.683366
Si Si8 0.835020 0.866201 0.528962
O O1 0.122475 0.415669 0.316994
O O2 0.039516 0.504737 0.757713
O O3 0.115450 0.117193 0.367453
O O4 0.914110 0.284728 0.650232
O O5 0.304714 0.625337 0.002400
O O6 0.173144 0.326778 0.916772
O O7 0.541091 0.073380 0.198144
O O8 0.328698 0.068985 0.593577
O O9 0.500000 0.000000 0.500000
O O10 0.394005 0.704803 0.338586
O O11 0.500000 0.500000 0.500000
O O12 0.650389 0.378062 0.355780
O O13 0.184751 0.726470 0.810392
O O14 0.115397 0.908949 0.802636
O O15 0.959437 0.834047 0.227256
O O16 0.745206 0.651027 0.570815
O O17 0.230753 0.037824 0.453115
#
# Coordination Sequence:
#
# PCOD9082677 Si02
#       8
#     2   2   2   2   2   2   2   2
#     4  10  22  36  55  81 122 150 171 226 290 341
#     4  11  21  35  56  86 115 146 183 227 286 327
#     4   9  19  31  51  85 108 136 182 248 268 304
#     4  11  17  31  55  81 107 142 192 235 269 316
#     4  10  19  33  57  80 109 148 189 222 271 336
#     4   9  17  29  50  79 105 133 187 226 267 321
#     4  11  20  33  59  87 108 139 200 231 263 331
#     4  11  18  33  57  80 106 151 190 219 273 335
#
# _framework density 25.607994999999999
#
# number of rings (size 3 to 8) (size 9 to 14) (size 15 to 20)
#    0.000    1.750    3.750    2.625    0.000    0.000 
#    0.000    0.625    8.250   13.500    0.000    0.000 
#    0.000    0.000    0.000    0.000    0.000    0.000 
#
# Total GULP energy -89266.215610 kJ/mol
# GULP energy per Si atom -5579.138476 kJ/mol
# Density = 2.554971 g / cm^3
# Si number density = 25.607995 Si / 1000 Ang^3
#
#
#
# Elastic Constant Matrix: (Units=GPa)
#
#
# Indices 1 2 3 4 5 6 
#
# 1 154.8731 19.0951 30.5152 6.8362 -23.7772 -28.4383
# 2 19.0951 74.1619 27.3305 -18.0705 -4.1785 -21.9759
# 3 30.5152 27.3305 79.4711 -10.8938 -12.2758 -12.5196
# 4 6.8362 -18.0705 -10.8938 55.5193 7.6505 1.4241
# 5 -23.7772 -4.1785 -12.2758 7.6505 27.4581 -1.3622
# 6 -28.4383 -21.9759 -12.5196 1.4241 -1.3622 49.2529
#
#
#
# Elastic Compliance Matrix: (Units=1/GPa)
#
#
# Indices 1 2 3 4 5 6 
#
# 1 0.009129 -0.000509 -0.001695 -0.002867 0.008113 0.004920
# 2 -0.000509 0.018446 -0.004521 0.005113 -0.000751 0.006618
# 3 -0.001695 -0.004521 0.015847 0.001176 0.004657 0.001127
# 4 -0.002867 0.005113 0.001176 0.021234 -0.007089 0.000115
# 5 0.008113 -0.000751 0.004657 -0.007089 0.047738 0.007058
# 6 0.004920 0.006618 0.001127 0.000115 0.007058 0.026576
#
#
# Mechanical properties :
#
#
# Convention : Reuss Voigt Hill
#
# Bulk Modulus (GPa) = 33.36399 51.37640 42.37020
# Shear Modulus (GPa) = 30.78641 41.88376 36.33509
#
# Velocity S-wave (km/s) = 3.47106 4.04861 3.77091
# Velocity P-wave (km/s) = 5.39643 6.47775 5.96165
#
# Compressibility (1/GPa) = 0.02997243
#
# Stress axis : x y z
#
# Youngs Moduli (GPa) = 109.53833 54.21265 63.10411
#
# Poissons Ratio (x) = 0.02761 0.10695
# Poissons Ratio (y) = 0.05579 0.28526
# Poissons Ratio (z) = 0.18565 0.24507
#
# Static dielectric constant tensor:
#      x y z
#    x 2.106820 0.017900 0.023780 
#    y 0.017900 2.164230 0.036580 
#    z 0.023780 0.036580 2.056770 
# 
# From -- ./inp_files/329257.got.cif
#   From: 2010.05.17/outbox.cif.g08.bks.cpg/sg2_165_cif.got.tgz:329257.got - 2010.06.03 11:33:40.
