data_PCOD9082672
_publ_section_title
;
Structure prediction by ZEFSAII (Michael W. Deem and Ramdas Pophale) SiO2 
 PCOD9082672
Probable space group: P -1
;
_chemical_formula_sum "Si O2"
_cell_formula_units_Z 16
_cell_length_a 8.769753
_cell_length_b 14.005115
_cell_length_c 17.013400
_cell_angle_alpha 24.432090
_cell_angle_beta 56.980554
_cell_angle_gamma 50.519525
_cell_volume 663.312597
_symmetry_space_group_name_H-M "P -1"
_symmetry_group_IT_number 2
_symmetry_cell_setting 'triclinic'
loop_
_space_group_symop_operation_xyz
x,y,z
-x,-y,-z
loop_
_atom_site_type_symbol
_atom_site_label
_atom_site_fract_x
_atom_site_fract_y
_atom_site_fract_z
Si Si1 0.529044 0.844913 0.291551
Si Si2 0.987605 0.222303 0.583882
Si Si3 0.804764 0.193407 0.492144
Si Si4 0.361358 0.792272 0.222089
Si Si5 0.687411 0.122918 0.137294
Si Si6 0.356240 0.077817 0.366650
Si Si7 0.711952 0.607061 0.693907
Si Si8 0.316391 0.283111 0.927900
O O1 0.704404 0.891200 0.248776
O O2 0.419876 0.722871 0.470767
O O3 0.530635 0.741696 0.280694
O O4 0.363053 0.138110 0.105612
O O5 0.932271 0.144186 0.572742
O O6 0.791252 0.320932 0.619840
O O7 0.097215 0.408349 0.397965
O O8 0.144616 0.983001 0.764443
O O9 0.809642 0.975312 0.595563
O O10 0.812361 0.428106 0.266515
O O11 0.466467 0.752172 0.139725
O O12 0.247470 0.098250 0.034244
O O13 0.482969 0.186401 0.195220
O O14 0.698031 0.349297 0.914843
O O15 0.515519 0.803436 0.557775
O O16 0.280873 0.252460 0.332190
#
# Coordination Sequence:
#
# PCOD9082672 Si02
#       8
#     2   2   2   2   2   2   2   2
#     4   8  17  32  52  77  98 131 181 210 241 310
#     4  10  22  33  49  83 113 131 171 216 263 314
#     4  10  19  33  57  77 105 136 170 225 257 297
#     4   8  18  36  53  82 102 129 182 220 246 314
#     4  10  19  35  54  74 110 142 170 210 259 308
#     4   9  20  37  55  81  99 132 193 210 241 320
#     4  10  20  35  57  75 106 144 166 216 266 301
#     4   9  17  34  59  78  98 136 182 211 261 302
#
# _framework density 24.121357
#
# number of rings (size 3 to 8) (size 9 to 14) (size 15 to 20)
#    0.750    2.000    0.000    1.125    1.750    2.500 
#    0.000    1.250    0.000   11.250    0.000    0.000 
#    0.000    0.000    0.000    0.000    0.000    0.000 
#
# Total GULP energy -89248.357611 kJ/mol
# GULP energy per Si atom -5578.022351 kJ/mol
# Density = 2.406646 g / cm^3
# Si number density = 24.121357 Si / 1000 Ang^3
#
#
#
# Elastic Constant Matrix: (Units=GPa)
#
#
# Indices 1 2 3 4 5 6 
#
# 1 94.1516 18.2114 26.7162 -3.6580 -9.1493 3.3557
# 2 18.2114 62.3261 16.0731 11.0404 -8.9625 -5.1237
# 3 26.7162 16.0731 165.3096 21.9069 -16.2963 -10.7480
# 4 -3.6580 11.0404 21.9069 27.7335 0.1537 -10.5853
# 5 -9.1493 -8.9625 -16.2963 0.1537 26.8365 10.0793
# 6 3.3557 -5.1237 -10.7480 -10.5853 10.0793 29.1312
#
#
#
# Elastic Compliance Matrix: (Units=1/GPa)
#
#
# Indices 1 2 3 4 5 6 
#
# 1 0.012379 -0.003567 -0.002043 0.003750 0.002655 -0.002363
# 2 -0.003567 0.019347 0.000404 -0.009074 0.006083 -0.001439
# 3 -0.002043 0.000404 0.007623 -0.006819 0.004443 -0.000896
# 4 0.003750 -0.009074 -0.006819 0.053025 -0.013478 0.019387
# 5 0.002655 0.006083 0.004443 -0.013478 0.050470 -0.019956
# 6 -0.002363 -0.001439 -0.000896 0.019387 -0.019956 0.047965
#
#
# Mechanical properties :
#
#
# Convention : Reuss Voigt Hill
#
# Bulk Modulus (GPa) = 34.55709 49.30985 41.93347
# Shear Modulus (GPa) = 23.71182 34.12600 28.91891
#
# Velocity S-wave (km/s) = 3.13872 3.76541 3.46626
# Velocity P-wave (km/s) = 5.24336 6.27624 5.78291
#
# Compressibility (1/GPa) = 0.02893762
#
# Stress axis : x y z
#
# Youngs Moduli (GPa) = 80.78490 51.68891 131.17380
#
# Poissons Ratio (x) = 0.18437 0.26793
# Poissons Ratio (y) = 0.28815 -0.05299
# Poissons Ratio (z) = 0.16501 -0.02088
#
# Static dielectric constant tensor:
#      x y z
#    x 1.968160 -0.013690 -0.016740 
#    y -0.013690 2.018160 -0.082720 
#    z -0.016740 -0.082720 1.958260 
# 
# From -- ./inp_files/591172.got.cif
#   From: 2010.05.17/outbox.cif.g08.bks.cpg/sg2_296_cif.got.tgz:591172.got - 2010.06.03 11:33:40.
