data_PCOD9082368
_publ_section_title
;
Structure prediction by ZEFSAII (Michael W. Deem and Ramdas Pophale) SiO2 
 PCOD9082368
Probable space group: P -1
;
_chemical_formula_sum "Si O2"
_cell_formula_units_Z 16
_cell_length_a 14.672364
_cell_length_b 5.392366
_cell_length_c 27.565556
_cell_angle_alpha 88.687396
_cell_angle_beta 30.252523
_cell_angle_gamma 66.439896
_cell_volume 721.205311
_symmetry_space_group_name_H-M "P -1"
_symmetry_group_IT_number 2
_symmetry_cell_setting 'triclinic'
loop_
_space_group_symop_operation_xyz
x,y,z
-x,-y,-z
loop_
_atom_site_type_symbol
_atom_site_label
_atom_site_fract_x
_atom_site_fract_y
_atom_site_fract_z
Si Si1 0.811131 0.419457 0.890702
Si Si2 0.481692 0.769355 0.943534
Si Si3 0.838791 0.412909 0.378757
Si Si4 0.801520 0.672199 0.715302
Si Si5 0.295955 0.248677 0.659504
Si Si6 0.674513 0.200074 0.527639
Si Si7 0.318854 0.135358 0.336793
Si Si8 0.310828 0.639252 0.379883
O O1 0.720025 0.485194 0.875909
O O2 0.126491 0.178949 0.750452
O O3 0.712933 0.269682 0.962286
O O4 0.661109 0.822284 0.978360
O O5 0.610904 0.677718 0.831897
O O6 0.868859 0.430322 0.307940
O O7 0.739346 0.251487 0.444951
O O8 0.101443 0.226273 0.290016
O O9 0.589898 0.852595 0.506242
O O10 0.675614 0.908632 0.723146
O O11 0.073685 0.243824 0.574935
O O12 0.389896 0.345196 0.656410
O O13 0.689406 0.390950 0.561871
O O14 0.444453 0.267647 0.294053
O O15 0.000000 0.500000 0.500000
O O16 0.443074 0.768060 0.307229
O O17 0.000000 0.000000 0.500000
#
# Coordination Sequence:
#
# PCOD9082368 Si02
#       8
#     2   2   2   2   2   2   2   2
#     4  10  22  42  56  79 115 153 205 235 280 324
#     4  10  23  37  61  82 108 159 195 245 278 329
#     4  10  21  35  53  84 119 151 191 230 296 348
#     4  11  21  34  57  90 118 148 194 235 298 352
#     4  10  22  37  53  82 116 160 190 241 278 353
#     4  11  22  32  58  83 121 155 186 232 297 358
#     4  10  19  33  54  81 120 147 175 237 292 352
#     4  10  19  34  51  81 117 149 180 226 291 350
#
# _framework density 22.185085000000001
#
# number of rings (size 3 to 8) (size 9 to 14) (size 15 to 20)
#    0.000    1.750    3.750    1.875    5.250    1.000 
#    0.000    0.000    0.000    0.000    0.000    5.250 
#    0.000    0.000    0.000    0.000    0.000    0.000 
#
# Total GULP energy -89378.402071 kJ/mol
# GULP energy per Si atom -5586.150129 kJ/mol
# Density = 2.213459 g / cm^3
# Si number density = 22.185085 Si / 1000 Ang^3
#
#
#
# Elastic Constant Matrix: (Units=GPa)
#
#
# Indices 1 2 3 4 5 6 
#
# 1 93.2858 24.7012 40.2483 -21.0479 -6.4620 1.4722
# 2 24.7012 107.9441 22.0601 -30.3752 -2.9526 16.4452
# 3 40.2483 22.0601 63.0691 -31.2335 -5.5336 -3.1359
# 4 -21.0479 -30.3752 -31.2335 36.6060 7.0828 1.4893
# 5 -6.4620 -2.9526 -5.5336 7.0828 18.9839 -14.4306
# 6 1.4722 16.4452 -3.1359 1.4893 -14.4306 33.0537
#
#
#
# Elastic Compliance Matrix: (Units=1/GPa)
#
#
# Indices 1 2 3 4 5 6 
#
# 1 0.015199 -0.002159 -0.009521 -0.001939 0.003693 0.001193
# 2 -0.002159 0.016306 0.002472 0.018161 -0.016151 -0.015651
# 3 -0.009521 0.002472 0.033587 0.025735 -0.002604 0.000084
# 4 -0.001939 0.018161 0.025735 0.071320 -0.036418 -0.025621
# 5 0.003693 -0.016151 -0.002604 -0.036418 0.106704 0.055850
# 6 0.001193 -0.015651 0.000084 -0.025621 0.055850 0.063533
#
#
# Mechanical properties :
#
#
# Convention : Reuss Voigt Hill
#
# Bulk Modulus (GPa) = 21.42366 48.70202 35.06284
# Shear Modulus (GPa) = 14.67901 29.54802 22.11351
#
# Velocity S-wave (km/s) = 2.57507 3.65346 3.16060
# Velocity P-wave (km/s) = 4.30338 6.30851 5.39983
#
# Compressibility (1/GPa) = 0.04667737
#
# Stress axis : x y z
#
# Youngs Moduli (GPa) = 65.79517 61.32809 29.77313
#
# Poissons Ratio (x) = 0.13238 0.28347
# Poissons Ratio (y) = 0.14203 -0.07361
# Poissons Ratio (z) = 0.62644 -0.15163
#
# Static dielectric constant tensor:
#      x y z
#    x 1.688380 -0.411300 0.105920 
#    y -0.411300 0.603030 0.326960 
#    z 0.105920 0.326960 1.755770 
# 
# From -- ./inp_files/77318.got.cif
#   From: 2010.05.17/outbox.cif.g08.bks.cpg/sg2_39_cif.got.tgz:77318.got - 2010.06.03 11:33:40.
