data_PCOD9082945
_publ_section_title
;
Structure prediction by ZEFSAII (Michael W. Deem and Ramdas Pophale) SiO2 
 PCOD9082945
Probable space group: P -1
;
_chemical_formula_sum "Si O2"
_cell_formula_units_Z 16
_cell_length_a 19.286467
_cell_length_b 8.547218
_cell_length_c 11.759192
_cell_angle_alpha 124.282238
_cell_angle_beta 127.682300
_cell_angle_gamma 29.115494
_cell_volume 744.303293
_symmetry_space_group_name_H-M "P -1"
_symmetry_group_IT_number 2
_symmetry_cell_setting 'triclinic'
loop_
_space_group_symop_operation_xyz
x,y,z
-x,-y,-z
loop_
_atom_site_type_symbol
_atom_site_label
_atom_site_fract_x
_atom_site_fract_y
_atom_site_fract_z
Si Si1 0.947759 0.799892 0.181790
Si Si2 0.636373 0.839502 0.195343
Si Si3 0.235342 0.579232 0.643533
Si Si4 0.250751 0.181687 0.924631
Si Si5 0.258796 0.403917 0.339298
Si Si6 0.719804 0.279140 0.950517
Si Si7 0.463717 0.747457 0.173017
Si Si8 0.288421 0.516460 0.187554
O O1 0.880310 0.738525 0.154473
O O2 0.123650 0.494396 0.216197
O O3 0.914175 0.049589 0.321949
O O4 0.856936 0.985408 0.049356
O O5 0.731964 0.646386 0.327010
O O6 0.692852 0.888125 0.176681
O O7 0.466425 0.176383 0.201802
O O8 0.656619 0.595960 0.056918
O O9 0.250186 0.487914 0.492818
O O10 0.361644 0.519983 0.770164
O O11 0.208573 0.465763 0.041163
O O12 0.381876 0.898136 0.030181
O O13 0.256275 0.575417 0.313128
O O14 0.404906 0.028453 0.301694
O O15 0.594407 0.339372 0.862204
O O16 0.762570 0.227009 0.840312
#
# Coordination Sequence:
#
# PCOD9082945 Si02
#       8
#     2   2   2   2   2   2   2   2
#     4  10  23  36  61  81 112 149 181 233 268 337
#     4  10  19  33  59  90 111 138 179 240 279 321
#     4  11  22  37  59  81 106 156 193 222 261 329
#     4   9  18  34  57  88 111 133 183 227 294 312
#     4  11  23  42  51  79 119 155 186 211 281 333
#     4   9  20  35  57  91 111 135 187 228 291 320
#     4  10  21  34  62  84 112 141 183 242 270 323
#     4  10  20  33  60  84 117 141 170 243 281 326
#
# _framework density 21.496613
#
# number of rings (size 3 to 8) (size 9 to 14) (size 15 to 20)
#    0.000    2.000    2.500    2.250    5.250    6.500 
#    0.000    5.000    0.000    0.000    0.000    0.000 
#    0.000    0.000    0.000    0.000    0.000    0.000 
#
# Total GULP energy -89380.953991 kJ/mol
# GULP energy per Si atom -5586.309624 kJ/mol
# Density = 2.144769 g / cm^3
# Si number density = 21.496613 Si / 1000 Ang^3
#
#
#
# Elastic Constant Matrix: (Units=GPa)
#
#
# Indices 1 2 3 4 5 6 
#
# 1 166.8473 13.7950 38.4232 -19.4265 -33.2777 14.0459
# 2 13.7950 29.6735 5.9241 -4.4935 -0.3407 -5.7789
# 3 38.4232 5.9241 79.8339 0.5604 -38.7199 8.9469
# 4 -19.4265 -4.4935 0.5604 19.2220 -6.3763 1.2818
# 5 -33.2777 -0.3407 -38.7199 -6.3763 42.3807 -5.7588
# 6 14.0459 -5.7789 8.9469 1.2818 -5.7588 25.5524
#
#
#
# Elastic Compliance Matrix: (Units=1/GPa)
#
#
# Indices 1 2 3 4 5 6 
#
# 1 0.009973 -0.003694 0.000587 0.012706 0.009569 -0.005004
# 2 -0.003694 0.038986 -0.004820 0.003114 -0.004993 0.011254
# 3 0.000587 -0.004820 0.024207 0.006680 0.022854 -0.005073
# 4 0.012706 0.003114 0.006680 0.074602 0.026460 -0.006398
# 5 0.009569 -0.004993 0.022854 0.026460 0.055494 -0.003212
# 6 -0.005004 0.011254 -0.005073 -0.006398 -0.003212 0.045804
#
#
# Mechanical properties :
#
#
# Convention : Reuss Voigt Hill
#
# Bulk Modulus (GPa) = 17.44830 43.62661 30.53745
# Shear Modulus (GPa) = 17.60418 31.97853 24.79135
#
# Velocity S-wave (km/s) = 2.86480 3.86114 3.39966
# Velocity P-wave (km/s) = 4.36774 6.34165 5.44489
#
# Compressibility (1/GPa) = 0.05731217
#
# Stress axis : x y z
#
# Youngs Moduli (GPa) = 100.27043 25.65052 41.31016
#
# Poissons Ratio (x) = 0.09475 -0.02425
# Poissons Ratio (y) = 0.37040 0.19910
# Poissons Ratio (z) = -0.05885 0.12363
#
# Static dielectric constant tensor:
#      x y z
#    x 1.796640 0.032900 -0.024380 
#    y 0.032900 1.821260 0.008600 
#    z -0.024380 0.008600 1.794220 
# 
# From -- ./inp_files/305509.got.cif
#   From: 2010.05.17/outbox.cif.g08.bks.cpg/sg2_153_cif.got.tgz:305509.got - 2010.06.03 11:33:40.
