data_PCOD9082973
_publ_section_title
;
Structure prediction by ZEFSAII (Michael W. Deem and Ramdas Pophale) SiO2 
 PCOD9082973
Probable space group: P -1
;
_chemical_formula_sum "Si O2"
_cell_formula_units_Z 12
_cell_length_a 7.302575
_cell_length_b 12.049683
_cell_length_c 7.800158
_cell_angle_alpha 120.557779
_cell_angle_beta 126.010678
_cell_angle_gamma 83.973222
_cell_volume 459.196675
_symmetry_space_group_name_H-M "P -1"
_symmetry_group_IT_number 2
_symmetry_cell_setting 'triclinic'
loop_
_space_group_symop_operation_xyz
x,y,z
-x,-y,-z
loop_
_atom_site_type_symbol
_atom_site_label
_atom_site_fract_x
_atom_site_fract_y
_atom_site_fract_z
Si Si1 0.964230 0.533258 0.740118
Si Si2 0.527439 0.277453 0.229744
Si Si3 0.241846 0.919451 0.652628
Si Si4 0.842717 0.996531 0.669551
Si Si5 0.884032 0.778132 0.763195
Si Si6 0.164686 0.348446 0.878189
O O1 0.737124 0.409746 0.484205
O O2 0.979409 0.647889 0.696886
O O3 0.174944 0.467522 0.843660
O O4 0.916738 0.601071 0.946199
O O5 0.603233 0.140013 0.177705
O O6 0.343684 0.264734 0.274796
O O7 0.396901 0.303654 0.008013
O O8 0.324580 0.979855 0.556844
O O9 0.043017 0.781514 0.386937
O O10 0.099576 0.012092 0.735212
O O11 0.797774 0.850409 0.613646
O O12 0.905748 0.108840 0.939543
#
# Coordination Sequence:
#
# PCOD9082973 Si02
#       6
#     2   2   2   2   2   2
#     4   9  17  31  57  81 103 139 178 220 263 313
#     4  10  19  33  60  81 103 138 186 218 261 314
#     4  10  20  36  56  80 105 146 177 214 268 319
#     4  10  21  36  54  78 114 143 174 214 270 318
#     4  10  19  36  56  81 108 141 176 222 262 313
#     4   9  16  32  54  80 103 134 178 222 256 312
#
# _framework density 26.132594999999998
#
# number of rings (size 3 to 8) (size 9 to 14) (size 15 to 20)
#    0.000    2.333    3.333    2.000    0.000    1.333 
#    0.000    3.333    0.000    5.000    0.000    0.000 
#    0.000    0.000    0.000    0.000    0.000    0.000 
#
# Total GULP energy -67106.977491 kJ/mol
# GULP energy per Si atom -5592.248124 kJ/mol
# Density = 2.607312 g / cm^3
# Si number density = 26.132595 Si / 1000 Ang^3
#
#
#
# Elastic Constant Matrix: (Units=GPa)
#
#
# Indices 1 2 3 4 5 6 
#
# 1 38.8550 22.9922 19.7055 -3.1029 -6.1170 1.6531
# 2 22.9922 267.1386 45.0032 -32.7450 7.4982 -25.1730
# 3 19.7055 45.0032 61.9615 -9.2651 2.4409 -4.1221
# 4 -3.1029 -32.7450 -9.2651 49.4410 -4.5329 6.8807
# 5 -6.1170 7.4982 2.4409 -4.5329 28.6413 -11.2399
# 6 1.6531 -25.1730 -4.1221 6.8807 -11.2399 36.7090
#
#
#
# Elastic Compliance Matrix: (Units=1/GPa)
#
#
# Indices 1 2 3 4 5 6 
#
# 1 0.032846 -0.001510 -0.009719 0.000126 0.007767 -0.001251
# 2 -0.001510 0.004825 -0.002509 0.002261 0.000039 0.002683
# 3 -0.009719 -0.002509 0.021386 0.001469 -0.003044 -0.000089
# 4 0.000126 0.002261 0.001469 0.022460 0.002140 -0.001845
# 5 0.007767 0.000039 -0.003044 0.002140 0.041761 0.011721
# 6 -0.001251 0.002683 -0.000089 -0.001845 0.011721 0.033062
#
#
# Mechanical properties :
#
#
# Convention : Reuss Voigt Hill
#
# Bulk Modulus (GPa) = 31.66610 60.37302 46.01956
# Shear Modulus (GPa) = 25.72763 41.64186 33.68474
#
# Velocity S-wave (km/s) = 3.14108 3.99618 3.59415
# Velocity P-wave (km/s) = 5.02981 6.66673 5.90526
#
# Compressibility (1/GPa) = 0.03157952
#
# Stress axis : x y z
#
# Youngs Moduli (GPa) = 30.44531 207.25859 46.75914
#
# Poissons Ratio (x) = 0.31298 0.45447
# Poissons Ratio (y) = 0.04598 0.11732
# Poissons Ratio (z) = 0.29591 0.52003
#
# Static dielectric constant tensor:
#      x y z
#    x 2.090830 0.019600 -0.004500 
#    y 0.019600 2.139290 -0.087640 
#    z -0.004500 -0.087640 2.064400 
# 
# From -- ./inp_files/160951.got.cif
#   From: 2010.05.17/outbox.cif.g08.bks.cpg/sg2_81_cif.got.tgz:160951.got - 2010.06.03 11:33:40.
