data_PCOD9082536
_publ_section_title
;
Structure prediction by ZEFSAII (Michael W. Deem and Ramdas Pophale) SiO2 
 PCOD9082536
Probable space group: P -1
;
_chemical_formula_sum "Si O2"
_cell_formula_units_Z 16
_cell_length_a 9.617476
_cell_length_b 17.592796
_cell_length_c 13.177916
_cell_angle_alpha 20.778107
_cell_angle_beta 127.969388
_cell_angle_gamma 128.842849
_cell_volume 612.702514
_symmetry_space_group_name_H-M "P -1"
_symmetry_group_IT_number 2
_symmetry_cell_setting 'triclinic'
loop_
_space_group_symop_operation_xyz
x,y,z
-x,-y,-z
loop_
_atom_site_type_symbol
_atom_site_label
_atom_site_fract_x
_atom_site_fract_y
_atom_site_fract_z
Si Si1 0.215691 0.692290 0.679373
Si Si2 0.860480 0.440921 0.887439
Si Si3 0.333179 0.168215 0.675696
Si Si4 0.745589 0.638551 0.054617
Si Si5 0.630828 0.049099 0.390115
Si Si6 0.390406 0.745567 0.148051
Si Si7 0.006681 0.930273 0.937978
Si Si8 0.661528 0.760196 0.076557
O O1 0.360034 0.808464 0.679631
O O2 0.072944 0.502959 0.907417
O O3 0.090830 0.867886 0.381597
O O4 0.273348 0.578124 0.748149
O O5 0.767395 0.637137 0.641938
O O6 0.786335 0.411622 0.774755
O O7 0.779138 0.211744 0.188234
O O8 0.526483 0.259324 0.697319
O O9 0.212839 0.026452 0.888751
O O10 0.353801 0.993135 0.818052
O O11 0.643624 0.613005 0.149759
O O12 0.691501 0.824594 0.725263
O O13 0.942869 0.748029 0.049489
O O14 0.442652 0.048641 0.249213
O O15 0.546857 0.697321 0.203116
O O16 0.878182 0.825373 0.105268
#
# Coordination Sequence:
#
# PCOD9082536 Si02
#       8
#     2   2   2   2   2   2   2   2
#     4  10  19  33  56  78 109 150 178 213 263 318
#     4  10  21  36  54  81 113 136 179 228 266 310
#     4  10  20  38  61  80 101 143 179 222 274 321
#     4   9  19  34  52  77 111 146 172 216 263 309
#     4  10  20  34  51  80 110 145 180 217 258 318
#     4  10  21  37  60  81 105 137 181 224 273 317
#     4   8  19  36  53  78 113 136 177 219 265 315
#     4   9  20  38  51  80 115 137 175 228 261 311
#
# _framework density 26.113814999999999
#
# number of rings (size 3 to 8) (size 9 to 14) (size 15 to 20)
#    0.750    1.750    0.000    1.875    0.000    3.500 
#    4.500    0.000    0.000    1.500    0.000    0.000 
#    0.000    0.000    0.000    0.000    0.000    0.000 
#
# Total GULP energy -89220.080827 kJ/mol
# GULP energy per Si atom -5576.255052 kJ/mol
# Density = 2.605438 g / cm^3
# Si number density = 26.113815 Si / 1000 Ang^3
#
#
#
# Elastic Constant Matrix: (Units=GPa)
#
#
# Indices 1 2 3 4 5 6 
#
# 1 100.8058 3.3086 35.5957 -10.3266 5.5724 -10.9144
# 2 3.3086 104.0353 45.7623 -31.6903 17.4842 9.1729
# 3 35.5957 45.7623 80.9305 -30.3287 8.1108 -18.4444
# 4 -10.3266 -31.6903 -30.3287 44.1515 -17.1706 6.9127
# 5 5.5724 17.4842 8.1108 -17.1706 33.0158 -5.3551
# 6 -10.9144 9.1729 -18.4444 6.9127 -5.3551 37.8228
#
#
#
# Elastic Compliance Matrix: (Units=1/GPa)
#
#
# Indices 1 2 3 4 5 6 
#
# 1 0.012432 0.003222 -0.007591 -0.000808 -0.002540 -0.001107
# 2 0.003222 0.018270 -0.011744 0.004991 -0.006533 -0.011065
# 3 -0.007591 -0.011744 0.028583 0.010431 0.008149 0.013844
# 4 -0.000808 0.004991 0.010431 0.039320 0.015153 -0.001398
# 5 -0.002540 -0.006533 0.008149 0.015153 0.041338 0.007909
# 6 -0.001107 -0.011065 0.013844 -0.001398 0.007909 0.036929
#
#
# Mechanical properties :
#
#
# Convention : Reuss Voigt Hill
#
# Bulk Modulus (GPa) = 36.95645 50.56721 43.76183
# Shear Modulus (GPa) = 22.92333 36.40503 29.66418
#
# Velocity S-wave (km/s) = 2.96602 3.73780 3.37405
# Velocity P-wave (km/s) = 5.09043 6.16721 5.65451
#
# Compressibility (1/GPa) = 0.02705887
#
# Stress axis : x y z
#
# Youngs Moduli (GPa) = 80.43543 54.73586 34.98577
#
# Poissons Ratio (x) = -0.17634 0.26556
# Poissons Ratio (y) = -0.25914 0.41088
# Poissons Ratio (z) = 0.61055 0.64283
#
# Static dielectric constant tensor:
#      x y z
#    x 2.153090 -0.001800 -0.141630 
#    y -0.001800 2.069820 -0.004250 
#    z -0.141630 -0.004250 2.120970 
# 
# From -- ./inp_files/523171.got.cif
#   From: 2010.05.17/outbox.cif.g08.bks.cpg/sg2_262_cif.got.tgz:523171.got - 2010.06.03 11:33:40.
