data_PCOD9082603
_publ_section_title
;
Structure prediction by ZEFSAII (Michael W. Deem and Ramdas Pophale) SiO2 
 PCOD9082603
Probable space group: P -1
;
_chemical_formula_sum "Si O2"
_cell_formula_units_Z 16
_cell_length_a 14.151632
_cell_length_b 15.724527
_cell_length_c 5.299767
_cell_angle_alpha 98.336806
_cell_angle_beta 126.933952
_cell_angle_gamma 55.710553
_cell_volume 744.652732
_symmetry_space_group_name_H-M "P -1"
_symmetry_group_IT_number 2
_symmetry_cell_setting 'triclinic'
loop_
_space_group_symop_operation_xyz
x,y,z
-x,-y,-z
loop_
_atom_site_type_symbol
_atom_site_label
_atom_site_fract_x
_atom_site_fract_y
_atom_site_fract_z
Si Si1 0.879654 0.145205 0.091668
Si Si2 0.798743 0.507763 0.118402
Si Si3 0.181908 0.671320 0.167212
Si Si4 0.871251 0.816105 0.967326
Si Si5 0.519543 0.404026 0.145796
Si Si6 0.792587 0.949040 0.410206
Si Si7 0.284413 0.840666 0.681552
Si Si8 0.932555 0.601246 0.120547
O O1 0.851330 0.260936 0.111925
O O2 0.789994 0.155161 0.702744
O O3 0.824563 0.120912 0.238163
O O4 0.054921 0.063898 0.306727
O O5 0.813866 0.598711 0.091128
O O6 0.931645 0.432917 0.494523
O O7 0.827339 0.426318 0.909468
O O8 0.639083 0.552853 0.984478
O O9 0.349023 0.623370 0.471754
O O10 0.046546 0.758753 0.169037
O O11 0.815421 0.885815 0.162646
O O12 0.864359 0.716163 0.939308
O O13 0.785170 0.891178 0.617654
O O14 0.588307 0.284672 0.099328
O O15 0.500000 0.500000 0.000000
O O16 0.673570 0.077497 0.245639
O O17 0.000000 0.500000 0.000000
#
# Coordination Sequence:
#
# PCOD9082603 Si02
#       8
#     2   2   2   2   2   2   2   2
#     4  10  19  33  56  84 123 164 203 245 301 365
#     4  11  23  39  63  90 128 165 207 255 320 372
#     4  10  20  38  60  93 132 162 199 252 312 388
#     4  11  22  38  63  91 121 161 207 262 315 357
#     4  11  23  38  62  94 130 170 202 247 314 387
#     4  11  21  35  59  86 120 163 208 255 306 361
#     4  11  22  37  55  85 126 165 206 247 298 376
#     4  11  23  41  64  91 121 156 213 272 313 365
#
# _framework density 21.486523999999999
#
# number of rings (size 3 to 8) (size 9 to 14) (size 15 to 20)
#    0.000    1.250    1.250    7.125    1.750    1.000 
#    0.000    0.000    0.000    1.500    0.000    0.000 
#    0.000    0.000    0.000    0.000    0.000    0.000 
#
# Total GULP energy -89256.695148 kJ/mol
# GULP energy per Si atom -5578.543447 kJ/mol
# Density = 2.143762 g / cm^3
# Si number density = 21.486524 Si / 1000 Ang^3
#
#
#
# Elastic Constant Matrix: (Units=GPa)
#
#
# Indices 1 2 3 4 5 6 
#
# 1 88.0876 53.9089 39.3729 -7.4423 -18.3311 29.7432
# 2 53.9089 168.0867 32.5763 -12.6142 -15.2835 34.0708
# 3 39.3729 32.5763 50.6942 0.1636 -14.1585 10.6612
# 4 -7.4423 -12.6142 0.1636 32.6575 5.4834 -10.5226
# 5 -18.3311 -15.2835 -14.1585 5.4834 38.4778 -8.4942
# 6 29.7432 34.0708 10.6612 -10.5226 -8.4942 37.8889
#
#
#
# Elastic Compliance Matrix: (Units=1/GPa)
#
#
# Indices 1 2 3 4 5 6 
#
# 1 0.023275 -0.002200 -0.013441 0.000264 0.002615 -0.011851
# 2 -0.002200 0.008171 -0.002567 0.001188 0.000079 -0.004551
# 3 -0.013441 -0.002567 0.032691 -0.003971 0.006035 0.003911
# 4 0.000264 0.001188 -0.003971 0.034576 -0.003899 0.008570
# 5 0.002615 0.000079 0.006035 -0.003899 0.030468 0.001926
# 6 -0.011851 -0.004551 0.003911 0.008570 0.001926 0.041500
#
#
# Mechanical properties :
#
#
# Convention : Reuss Voigt Hill
#
# Bulk Modulus (GPa) = 36.07453 62.06496 49.06974
# Shear Modulus (GPa) = 23.11215 33.87220 28.49218
#
# Velocity S-wave (km/s) = 3.28328 3.97475 3.64545
# Velocity P-wave (km/s) = 5.58561 7.07199 6.37229
#
# Compressibility (1/GPa) = 0.02772039
#
# Stress axis : x y z
#
# Youngs Moduli (GPa) = 42.96534 122.38198 30.58936
#
# Poissons Ratio (x) = 0.26923 0.41117
# Poissons Ratio (y) = 0.09452 0.07852
# Poissons Ratio (z) = 0.57752 0.31414
#
# Static dielectric constant tensor:
#      x y z
#    x 1.801270 0.004490 -0.045350 
#    y 0.004490 1.992070 -0.063520 
#    z -0.045350 -0.063520 1.856800 
# 
# From -- ./inp_files/98372.got.cif
#   From: 2010.05.17/outbox.cif.g08.bks.cpg/sg2_50_cif.got.tgz:98372.got - 2010.06.03 11:33:40.
