data_PCOD9082736
_publ_section_title
;
Structure prediction by ZEFSAII (Michael W. Deem and Ramdas Pophale) SiO2 
 PCOD9082736
Probable space group: P -1
;
_chemical_formula_sum "Si O2"
_cell_formula_units_Z 14
_cell_length_a 11.284503
_cell_length_b 8.774156
_cell_length_c 6.849196
_cell_angle_alpha 60.908280
_cell_angle_beta 86.637996
_cell_angle_gamma 116.432553
_cell_volume 496.777709
_symmetry_space_group_name_H-M "P -1"
_symmetry_group_IT_number 2
_symmetry_cell_setting 'triclinic'
loop_
_space_group_symop_operation_xyz
x,y,z
-x,-y,-z
loop_
_atom_site_type_symbol
_atom_site_label
_atom_site_fract_x
_atom_site_fract_y
_atom_site_fract_z
Si Si1 0.373213 0.849551 0.970689
Si Si2 0.509795 0.783817 0.586528
Si Si3 0.741779 0.933373 0.764265
Si Si4 0.093425 0.722897 0.072852
Si Si5 0.970845 0.959885 0.298567
Si Si6 0.312070 0.396755 0.326387
Si Si7 0.808712 0.342777 0.301313
O O1 0.408320 0.002137 0.681226
O O2 0.240654 0.841239 0.101861
O O3 0.346831 0.623785 0.153287
O O4 0.500000 0.000000 0.000000
O O5 0.573409 0.842810 0.767852
O O6 0.563368 0.637448 0.599070
O O7 0.341529 0.677860 0.648726
O O8 0.726851 0.724031 0.802534
O O9 0.802791 0.140661 0.500876
O O10 0.886759 0.003782 0.830653
O O11 0.175106 0.263647 0.559683
O O12 0.944482 0.532832 0.276790
O O13 0.059266 0.872587 0.875965
O O14 0.000000 0.000000 0.500000
O O15 0.151640 0.636230 0.947197
#
# Coordination Sequence:
#
# PCOD9082736 Si02
#       7
#     2   2   2   2   2   2   2
#     4  12  24  41  64  82 110 163 209 238 282 347
#     4  10  22  40  53  93 126 147 190 245 296 340
#     4   9  18  31  57  87 128 148 178 231 306 350
#     4  11  22  36  59  92 117 157 197 230 293 361
#     4  10  15  33  53  89 125 147 185 235 290 356
#     4   9  20  35  58  83 119 145 203 233 291 338
#     4  11  20  35  63  85 130 149 178 247 304 351
#
# _framework density 28.181622000000001
#
# number of rings (size 3 to 8) (size 9 to 14) (size 15 to 20)
#    0.857    0.857    5.714    1.286    6.000    0.571 
#    2.571    2.857    0.000    0.857    0.000    0.000 
#    0.000    0.000    0.000    0.000    0.000    0.000 
#
# Total GULP energy -77989.543200 kJ/mol
# GULP energy per Si atom -5570.681657 kJ/mol
# Density = 2.811748 g / cm^3
# Si number density = 28.181622 Si / 1000 Ang^3
#
#
#
# Elastic Constant Matrix: (Units=GPa)
#
#
# Indices 1 2 3 4 5 6 
#
# 1 254.5683 121.6752 63.4202 -71.1973 33.7462 34.2909
# 2 121.6752 -253.2101 180.2703 136.9599 -9.5917 43.0705
# 3 63.4202 180.2703 101.6195 -118.5209 38.8585 -6.4502
# 4 -71.1973 136.9599 -118.5209 -10.9786 10.6329 -23.3392
# 5 33.7462 -9.5917 38.8585 10.6329 57.2421 0.9213
# 6 34.2909 43.0705 -6.4502 -23.3392 0.9213 51.5224
#
#
#
# Elastic Compliance Matrix: (Units=1/GPa)
#
#
# Indices 1 2 3 4 5 6 
#
# 1 0.005402 -0.000407 -0.003017 -0.000455 -0.001059 -0.003820
# 2 -0.000407 0.005272 0.004751 0.010471 -0.004067 0.001275
# 3 -0.003017 0.004751 0.006876 0.002249 -0.002511 -0.000039
# 4 -0.000455 0.010471 0.002249 0.016783 -0.002613 -0.000520
# 5 -0.001059 -0.004067 -0.002511 -0.002613 0.019566 0.002257
# 6 -0.003820 0.001275 -0.000039 -0.000520 0.002257 0.020605
#
#
# Mechanical properties :
#
#
# Convention : Reuss Voigt Hill
#
# Bulk Modulus (GPa) = 49.49626 92.63433 71.06530
# Shear Modulus (GPa) = 63.62572 2.06465 32.84518
#
# Velocity S-wave (km/s) = 4.75668 0.85686 3.41762
# Velocity P-wave (km/s) = 6.91155 5.82416 6.39102
#
# Compressibility (1/GPa) = 0.02020355
#
# Stress axis : x y z
#
# Youngs Moduli (GPa) = 185.10982 189.69086 145.42882
#
# Poissons Ratio (x) = 0.07728 0.43871
# Poissons Ratio (y) = 0.07541 -0.69090
# Poissons Ratio (z) = 0.55842 -0.90118
#
# Static dielectric constant tensor:
#      x y z
#    x 1.969800 -0.596190 -0.173660 
#    y -0.596190 1.951910 0.011000 
#    z -0.173660 0.011000 2.059020 
# 
# From -- ./inp_files/427272.got.cif
#   From: 2010.05.17/outbox.cif.g08.bks.cpg/sg2_214_cif.got.tgz:427272.got - 2010.06.03 11:33:40.
