data_PCOD9082407
_publ_section_title
;
Structure prediction by ZEFSAII (Michael W. Deem and Ramdas Pophale) SiO2 
 PCOD9082407
Probable space group: P -1
;
_chemical_formula_sum "Si O2"
_cell_formula_units_Z 16
_cell_length_a 28.233712
_cell_length_b 9.480912
_cell_length_c 21.768589
_cell_angle_alpha 26.670941
_cell_angle_beta 161.563722
_cell_angle_gamma 150.804596
_cell_volume 814.006077
_symmetry_space_group_name_H-M "P -1"
_symmetry_group_IT_number 2
_symmetry_cell_setting 'triclinic'
loop_
_space_group_symop_operation_xyz
x,y,z
-x,-y,-z
loop_
_atom_site_type_symbol
_atom_site_label
_atom_site_fract_x
_atom_site_fract_y
_atom_site_fract_z
Si Si1 0.566252 0.105533 0.358145
Si Si2 0.589337 0.286247 0.041863
Si Si3 0.903736 0.770185 0.792199
Si Si4 0.315662 0.533135 0.116732
Si Si5 0.148952 0.139935 0.165695
Si Si6 0.385651 0.707798 0.391087
Si Si7 0.184443 0.262973 0.938686
Si Si8 0.533660 0.154619 0.158379
O O1 0.512307 0.436772 0.179394
O O2 0.581230 0.050743 0.325113
O O3 0.730266 0.098540 0.591622
O O4 0.448589 0.817220 0.357621
O O5 0.737007 0.472171 0.115721
O O6 0.625367 0.181233 0.196435
O O7 0.500000 0.000000 0.000000
O O8 0.891618 0.790373 0.842521
O O9 0.734835 0.618513 0.621254
O O10 0.000000 0.500000 0.000000
O O11 0.011464 0.096164 0.776162
O O12 0.234875 0.445843 0.115895
O O13 0.461425 0.348324 0.364128
O O14 0.200337 0.420728 0.963898
O O15 0.383756 0.904114 0.053773
O O16 0.000000 0.000000 0.000000
O O17 0.291680 0.989236 0.181611
O O18 0.500000 0.500000 0.000000
#
# Coordination Sequence:
#
# PCOD9082407 Si02
#       8
#     2   2   2   2   2   2   2   2
#     4   9  20  36  57  88 115 146 195 239 283 350
#     4  10  19  36  58  84 113 153 199 240 277 332
#     4  10  20  35  52  80 119 151 176 225 295 349
#     4  11  19  33  58  85 109 149 189 235 290 341
#     4  11  21  36  58  87 119 149 184 238 301 351
#     4   9  19  33  56  85 116 141 183 237 291 356
#     4  10  19  33  54  86 115 146 186 234 290 344
#     4  10  20  34  56  82 109 149 197 236 276 324
#
# _framework density 19.655871999999999
#
# number of rings (size 3 to 8) (size 9 to 14) (size 15 to 20)
#    0.000    2.000    2.500    1.875    0.000    3.000 
#    0.000    0.000    0.000   11.250    0.000    0.000 
#    0.000    0.000    0.000    0.000    0.000    0.000 
#
# Total GULP energy -89102.177625 kJ/mol
# GULP energy per Si atom -5568.886102 kJ/mol
# Density = 1.961113 g / cm^3
# Si number density = 19.655872 Si / 1000 Ang^3
#
#
#
# Elastic Constant Matrix: (Units=GPa)
#
#
# Indices 1 2 3 4 5 6 
#
# 1 107.8714 42.5108 15.2254 2.4984 -1.1543 16.7288
# 2 42.5108 118.6113 17.9524 10.1915 -3.2917 23.5880
# 3 15.2254 17.9524 44.4985 11.1796 2.1046 6.9141
# 4 2.4984 10.1915 11.1796 32.2380 -3.9865 4.3182
# 5 -1.1543 -3.2917 2.1046 -3.9865 23.8763 -0.3183
# 6 16.7288 23.5880 6.9141 4.3182 -0.3183 34.3081
#
#
#
# Elastic Compliance Matrix: (Units=1/GPa)
#
#
# Indices 1 2 3 4 5 6 
#
# 1 0.011320 -0.003192 -0.002514 0.001471 0.000535 -0.002999
# 2 -0.003192 0.011170 -0.002215 -0.001632 0.001236 -0.005461
# 3 -0.002514 -0.002215 0.026874 -0.008738 -0.004276 -0.001607
# 4 0.001471 -0.001632 -0.008738 0.035559 0.006523 -0.002250
# 5 0.000535 0.001236 -0.004276 0.006523 0.043536 -0.000666
# 6 -0.002999 -0.005461 -0.001607 -0.002250 -0.000666 0.034965
#
#
# Mechanical properties :
#
#
# Convention : Reuss Voigt Hill
#
# Bulk Modulus (GPa) = 29.83088 46.92871 38.37980
# Shear Modulus (GPa) = 26.25503 31.10398 28.67951
#
# Velocity S-wave (km/s) = 3.65874 3.98229 3.82394
# Velocity P-wave (km/s) = 5.74961 6.71356 6.25019
#
# Compressibility (1/GPa) = 0.03352231
#
# Stress axis : x y z
#
# Youngs Moduli (GPa) = 88.34175 89.52182 37.21119
#
# Poissons Ratio (x) = 0.28573 0.09357
# Poissons Ratio (y) = 0.28196 0.08241
# Poissons Ratio (z) = 0.22213 0.19825
#
# Static dielectric constant tensor:
#      x y z
#    x 1.715020 0.023140 -0.009550 
#    y 0.023140 1.713940 -0.016730 
#    z -0.009550 -0.016730 1.714360 
# 
# From -- ./inp_files/200958.got.cif
#   From: 2010.05.17/outbox.cif.g08.bks.cpg/sg2_101_cif.got.tgz:200958.got - 2010.06.03 11:33:40.
