data_PCOD9082211
_publ_section_title
;
Structure prediction by ZEFSAII (Michael W. Deem and Ramdas Pophale) SiO2 
 PCOD9082211
Probable space group: P -1
;
_chemical_formula_sum "Si O2"
_cell_formula_units_Z 16
_cell_length_a 13.800278
_cell_length_b 6.750694
_cell_length_c 14.344565
_cell_angle_alpha 108.435415
_cell_angle_beta 145.602541
_cell_angle_gamma 91.601858
_cell_volume 603.247268
_symmetry_space_group_name_H-M "P -1"
_symmetry_group_IT_number 2
_symmetry_cell_setting 'triclinic'
loop_
_space_group_symop_operation_xyz
x,y,z
-x,-y,-z
loop_
_atom_site_type_symbol
_atom_site_label
_atom_site_fract_x
_atom_site_fract_y
_atom_site_fract_z
Si Si1 0.243860 0.681105 0.827132
Si Si2 0.150966 0.838752 0.120017
Si Si3 0.054695 0.139378 0.781078
Si Si4 0.672571 0.850213 0.157049
Si Si5 0.568025 0.025827 0.794350
Si Si6 0.168310 0.759785 0.509880
Si Si7 0.746125 0.585483 0.837094
Si Si8 0.329505 0.186431 0.492293
O O1 0.011591 0.457957 0.605934
O O2 0.287968 0.908107 0.831693
O O3 0.430285 0.651136 0.940815
O O4 0.294368 0.784688 0.987926
O O5 0.190172 0.615644 0.120894
O O6 0.292694 0.005892 0.172470
O O7 0.234902 0.980592 0.305312
O O8 0.911153 0.736333 0.909007
O O9 0.191855 0.207187 0.808147
O O10 0.928832 0.263285 0.672079
O O11 0.194980 0.255714 0.998154
O O12 0.872361 0.858945 0.621827
O O13 0.765564 0.975657 0.349664
O O14 0.383858 0.790187 0.668038
O O15 0.455067 0.132763 0.660291
O O16 0.503195 0.432442 0.614317
#
# Coordination Sequence:
#
# PCOD9082211 Si02
#       8
#     2   2   2   2   2   2   2   2
#     4  10  21  36  53  71  97 133 171 202 242 301
#     4   9  16  27  47  76 106 130 159 203 246 287
#     4  10  20  32  50  77 104 127 162 208 250 289
#     4  10  22  37  50  71 101 132 165 207 250 292
#     4   9  17  29  48  75  99 123 163 207 242 282
#     4  10  19  33  53  74  97 128 168 208 246 291
#     4   9  16  27  46  74 104 133 158 190 249 299
#     4   9  17  29  47  76 107 129 159 206 248 288
#
# _framework density 26.523119000000001
#
# number of rings (size 3 to 8) (size 9 to 14) (size 15 to 20)
#    0.000    2.500    0.000    3.750    0.000    4.500 
#    0.000    0.000    0.000    3.000    0.000    7.875 
#    0.000    0.000    0.000    0.000    0.000    0.000 
#
# Total GULP energy -89359.438920 kJ/mol
# GULP energy per Si atom -5584.964932 kJ/mol
# Density = 2.646275 g / cm^3
# Si number density = 26.523119 Si / 1000 Ang^3
#
#
#
# Elastic Constant Matrix: (Units=GPa)
#
#
# Indices 1 2 3 4 5 6 
#
# 1 198.9288 10.6127 70.3759 20.6493 46.9229 29.8222
# 2 10.6127 45.3823 8.8918 2.9581 6.2731 13.8779
# 3 70.3759 8.8918 126.5884 22.9734 35.7628 23.6609
# 4 20.6493 2.9581 22.9734 33.2624 37.0182 11.5381
# 5 46.9229 6.2731 35.7628 37.0182 67.8331 7.9628
# 6 29.8222 13.8779 23.6609 11.5381 7.9628 41.9823
#
#
#
# Elastic Compliance Matrix: (Units=1/GPa)
#
#
# Indices 1 2 3 4 5 6 
#
# 1 0.007534 0.000651 -0.002607 0.006048 -0.006670 -0.004495
# 2 0.000651 0.025093 -0.000064 0.006395 -0.005111 -0.009510
# 3 -0.002607 -0.000064 0.011055 -0.002095 -0.002487 -0.003310
# 4 0.006048 0.006395 -0.002095 0.090977 -0.050903 -0.020578
# 5 -0.006670 -0.005111 -0.002487 -0.050903 0.047414 0.012826
# 6 -0.004495 -0.009510 -0.003310 -0.020578 0.012826 0.035244
#
#
# Mechanical properties :
#
#
# Convention : Reuss Voigt Hill
#
# Bulk Modulus (GPa) = 25.22563 61.18448 43.20505
# Shear Modulus (GPa) = 21.31557 47.35017 34.33287
#
# Velocity S-wave (km/s) = 2.83797 4.22980 3.60175
# Velocity P-wave (km/s) = 4.50224 6.85371 5.79843
#
# Compressibility (1/GPa) = 0.03964222
#
# Stress axis : x y z
#
# Youngs Moduli (GPa) = 132.73289 39.85194 90.45582
#
# Poissons Ratio (x) = -0.02596 0.23585
# Poissons Ratio (y) = -0.08645 0.00577
# Poissons Ratio (z) = 0.34607 0.00254
#
# Static dielectric constant tensor:
#      x y z
#    x 2.187120 -0.037070 0.102030 
#    y -0.037070 2.284280 0.065860 
#    z 0.102030 0.065860 2.024750 
# 
# From -- ./inp_files/348885.got.cif
#   From: 2010.05.17/outbox.cif.g08.bks.cpg/sg2_175_cif.got.tgz:348885.got - 2010.06.03 11:33:40.
