data_PCOD9082271
_publ_section_title
;
Structure prediction by ZEFSAII (Michael W. Deem and Ramdas Pophale) SiO2 
 PCOD9082271
Probable space group: P -1
;
_chemical_formula_sum "Si O2"
_cell_formula_units_Z 16
_cell_length_a 10.854440
_cell_length_b 19.657854
_cell_length_c 12.685151
_cell_angle_alpha 23.695260
_cell_angle_beta 134.226682
_cell_angle_gamma 143.126075
_cell_volume 645.788843
_symmetry_space_group_name_H-M "P -1"
_symmetry_group_IT_number 2
_symmetry_cell_setting 'triclinic'
loop_
_space_group_symop_operation_xyz
x,y,z
-x,-y,-z
loop_
_atom_site_type_symbol
_atom_site_label
_atom_site_fract_x
_atom_site_fract_y
_atom_site_fract_z
Si Si1 0.991535 0.194983 0.431738
Si Si2 0.250917 0.659728 0.313201
Si Si3 0.285536 0.043814 0.863622
Si Si4 0.111945 0.325904 0.535366
Si Si5 0.698229 0.912326 0.954773
Si Si6 0.252047 0.423763 0.064655
Si Si7 0.688614 0.530329 0.201680
Si Si8 0.580403 0.824354 0.788813
O O1 0.104317 0.077879 0.690659
O O2 0.089113 0.360750 0.349549
O O3 0.070688 0.290382 0.228436
O O4 0.746406 0.036311 0.529843
O O5 0.496031 0.749876 0.323784
O O6 0.141005 0.502423 0.376260
O O7 0.204157 0.554675 0.547768
O O8 0.245814 0.858006 0.033307
O O9 0.319009 0.006855 0.057805
O O10 0.283499 0.276026 0.734330
O O11 0.905485 0.106832 0.752245
O O12 0.543656 0.845010 0.859905
O O13 0.438357 0.385151 0.239451
O O14 0.206902 0.398663 0.950375
O O15 0.372750 0.663924 0.828658
O O16 0.698937 0.707783 0.023808
#
# Coordination Sequence:
#
# PCOD9082271 Si02
#       8
#     2   2   2   2   2   2   2   2
#     4  10  19  33  53  83 101 129 172 215 257 309
#     4  11  20  34  48  75 111 139 163 208 254 314
#     4  10  22  30  48  78 109 137 167 197 264 322
#     4   9  18  30  51  74 101 130 169 211 254 307
#     4   9  17  31  47  76 101 129 170 209 256 308
#     4   9  18  33  52  77  99 133 173 219 255 290
#     4   9  18  33  49  74 102 135 173 211 249 301
#     4   9  17  31  53  76 103 126 169 221 251 297
#
# _framework density 24.7759
#
# number of rings (size 3 to 8) (size 9 to 14) (size 15 to 20)
#    0.750    1.750    2.500    0.750    1.750    2.000 
#    0.000    0.000    0.000    0.750    3.250    1.750 
#    0.000    0.000    0.000    0.000    0.000    0.000 
#
# Total GULP energy -89349.864303 kJ/mol
# GULP energy per Si atom -5584.366519 kJ/mol
# Density = 2.471951 g / cm^3
# Si number density = 24.775900 Si / 1000 Ang^3
#
#
#
# Elastic Constant Matrix: (Units=GPa)
#
#
# Indices 1 2 3 4 5 6 
#
# 1 -24.0378 -50.1902 3.1833 0.7034 5.1193 5.4840
# 2 -50.1902 -30.7862 -15.2664 -37.4041 21.4485 5.6953
# 3 3.1833 -15.2664 32.3853 -14.1423 -3.7923 4.4382
# 4 0.7034 -37.4041 -14.1423 18.4658 -10.8905 9.2378
# 5 5.1193 21.4485 -3.7923 -10.8905 40.8753 -0.6901
# 6 5.4840 5.6953 4.4382 9.2378 -0.6901 35.4724
#
#
#
# Elastic Compliance Matrix: (Units=1/GPa)
#
#
# Indices 1 2 3 4 5 6 
#
# 1 -0.042058 0.003724 0.031462 0.050013 0.019377 -0.010680
# 2 0.003724 -0.002912 -0.015072 -0.025987 -0.007119 0.008406
# 3 0.031462 -0.015072 0.004795 -0.033444 -0.004403 0.005580
# 4 0.050013 -0.025987 -0.033444 -0.033207 -0.004423 0.009187
# 5 0.019377 -0.007119 -0.004403 -0.004423 0.024192 0.000321
# 6 -0.010680 0.008406 0.005580 0.009187 0.000321 0.025408
#
#
# Mechanical properties :
#
#
# Convention : Reuss Voigt Hill
#
# Bulk Modulus (GPa) = 18058.61991 -16.33169 9021.14411
# Shear Modulus (GPa) = -78.13543 21.61832 -28.25855
#
# Velocity S-wave (km/s) = -5.62186 2.95711 -3.38089
# Velocity P-wave (km/s) = 85.22011 2.24794 60.28068
#
# Compressibility (1/GPa) = 0.00005538
#
# Stress axis : x y z
#
# Youngs Moduli (GPa) = -23.77692 -343.46459 208.53191
#
# Poissons Ratio (x) = 1.27923 -6.56092
# Poissons Ratio (y) = 0.08856 3.14308
# Poissons Ratio (z) = 0.74808 -5.17684
#
# Static dielectric constant tensor:
#      x y z
#    x 2.001250 0.009790 -0.021640 
#    y 0.009790 1.946860 0.023660 
#    z -0.021640 0.023660 1.996530 
# 
# From -- ./inp_files/436410.got.cif
#   From: 2010.05.17/outbox.cif.g08.bks.cpg/sg2_219_cif.got.tgz:436410.got - 2010.06.03 11:33:40.
