data_PCOD9082414
_publ_section_title
;
Structure prediction by ZEFSAII (Michael W. Deem and Ramdas Pophale) SiO2 
 PCOD9082414
Probable space group: P -1
;
_chemical_formula_sum "Si O2"
_cell_formula_units_Z 14
_cell_length_a 21.909303
_cell_length_b 13.946361
_cell_length_c 11.484094
_cell_angle_alpha 38.875286
_cell_angle_beta 147.971370
_cell_angle_gamma 161.692095
_cell_volume 577.216943
_symmetry_space_group_name_H-M "P -1"
_symmetry_group_IT_number 2
_symmetry_cell_setting 'triclinic'
loop_
_space_group_symop_operation_xyz
x,y,z
-x,-y,-z
loop_
_atom_site_type_symbol
_atom_site_label
_atom_site_fract_x
_atom_site_fract_y
_atom_site_fract_z
Si Si1 0.182314 0.496984 0.462443
Si Si2 0.167417 0.866694 0.473038
Si Si3 0.856107 0.717461 0.618255
Si Si4 0.254438 0.241531 0.913315
Si Si5 0.576738 0.583908 0.719907
Si Si6 0.670272 0.018711 0.132648
Si Si7 0.667877 0.183552 0.373164
O O1 0.245636 0.526638 0.403833
O O2 0.188283 0.340896 0.686243
O O3 0.322875 0.770454 0.518076
O O4 0.919093 0.255067 0.259985
O O5 0.262868 0.905721 0.470929
O O6 0.892712 0.536390 0.352725
O O7 0.260454 0.146003 0.366219
O O8 0.273814 0.887297 0.730349
O O9 0.654307 0.579480 0.483873
O O10 0.000000 0.000000 0.500000
O O11 0.054111 0.901600 0.857152
O O12 0.500000 0.500000 0.000000
O O13 0.293104 0.265019 0.089022
O O14 0.498053 0.321975 0.817171
O O15 0.553172 0.010352 0.871363
#
# Coordination Sequence:
#
# PCOD9082414 Si02
#       7
#     2   2   2   2   2   2   2
#     4  10  19  34  59  88 109 147 193 223 276 347
#     4  10  25  40  55  84 115 151 193 236 278 333
#     4  10  19  33  54  88 120 139 180 235 284 336
#     4  11  18  32  57  88 116 149 178 227 288 333
#     4  12  21  35  60  90 117 142 186 243 280 325
#     4  11  20  37  62  83 111 151 189 235 282 335
#     4  10  22  42  60  76 115 158 191 226 284 341
#
# _framework density 24.254313
#
# number of rings (size 3 to 8) (size 9 to 14) (size 15 to 20)
#    0.000    1.429    7.143    0.857    0.000    1.714 
#    0.000    0.714    0.000    1.714    0.000    0.000 
#    0.000    0.000    0.000    0.000    0.000    0.000 
#
# Total GULP energy -78296.900274 kJ/mol
# GULP energy per Si atom -5592.635734 kJ/mol
# Density = 2.419911 g / cm^3
# Si number density = 24.254313 Si / 1000 Ang^3
#
#
#
# Elastic Constant Matrix: (Units=GPa)
#
#
# Indices 1 2 3 4 5 6 
#
# 1 94.5026 9.5608 26.4625 8.1999 -5.3022 -22.5375
# 2 9.5608 47.5012 17.6447 -0.4756 -4.9133 5.8161
# 3 26.4625 17.6447 126.7646 31.3204 -9.6916 4.1823
# 4 8.1999 -0.4756 31.3204 33.0503 -5.4504 -8.9120
# 5 -5.3022 -4.9133 -9.6916 -5.4504 39.8058 12.7532
# 6 -22.5375 5.8161 4.1823 -8.9120 12.7532 38.8909
#
#
#
# Elastic Compliance Matrix: (Units=1/GPa)
#
#
# Indices 1 2 3 4 5 6 
#
# 1 0.013995 -0.002957 -0.003582 0.002250 -0.002339 0.010220
# 2 -0.002957 0.023882 -0.002966 0.003046 0.004041 -0.005593
# 3 -0.003582 -0.002966 0.012537 -0.012402 0.002655 -0.006693
# 4 0.002250 0.003046 -0.012402 0.044838 -0.000218 0.012528
# 5 -0.002339 0.004041 0.002655 -0.000218 0.029791 -0.012065
# 6 0.010220 -0.005593 -0.006693 0.012528 -0.012065 0.040019
#
#
# Mechanical properties :
#
#
# Convention : Reuss Voigt Hill
#
# Bulk Modulus (GPa) = 31.84260 41.78939 36.81599
# Shear Modulus (GPa) = 25.70165 36.68941 31.19553
#
# Velocity S-wave (km/s) = 3.25879 3.89356 3.59023
# Velocity P-wave (km/s) = 5.22655 6.12210 5.69197
#
# Compressibility (1/GPa) = 0.03140447
#
# Stress axis : x y z
#
# Youngs Moduli (GPa) = 71.45556 41.87174 79.76252
#
# Poissons Ratio (x) = 0.12382 0.28568
# Poissons Ratio (y) = 0.21130 0.23659
# Poissons Ratio (z) = 0.25593 0.12420
#
# Static dielectric constant tensor:
#      x y z
#    x 1.988030 -0.024950 -0.047240 
#    y -0.024950 1.977890 0.020390 
#    z -0.047240 0.020390 1.904560 
# 
# From -- ./inp_files/94218.got.cif
#   From: 2010.05.17/outbox.cif.g08.bks.cpg/sg2_48_cif.got.tgz:94218.got - 2010.06.03 11:33:40.
