data_PCOD9082679
_publ_section_title
;
Structure prediction by ZEFSAII (Michael W. Deem and Ramdas Pophale) SiO2 
 PCOD9082679
Probable space group: P -1
;
_chemical_formula_sum "Si O2"
_cell_formula_units_Z 14
_cell_length_a 8.327811
_cell_length_b 7.141691
_cell_length_c 16.645615
_cell_angle_alpha 124.593647
_cell_angle_beta 136.522702
_cell_angle_gamma 65.748616
_cell_volume 560.746426
_symmetry_space_group_name_H-M "P -1"
_symmetry_group_IT_number 2
_symmetry_cell_setting 'triclinic'
loop_
_space_group_symop_operation_xyz
x,y,z
-x,-y,-z
loop_
_atom_site_type_symbol
_atom_site_label
_atom_site_fract_x
_atom_site_fract_y
_atom_site_fract_z
Si Si1 0.567199 0.796947 0.685873
Si Si2 0.596560 0.185690 0.910069
Si Si3 0.934207 0.216464 0.474375
Si Si4 0.105660 0.126040 0.761038
Si Si5 0.386787 0.471318 0.752640
Si Si6 0.612907 0.143597 0.651028
Si Si7 0.065682 0.612649 0.793305
O O1 0.316890 0.675663 0.570625
O O2 0.797132 0.681074 0.707636
O O3 0.623081 0.934304 0.821443
O O4 0.515004 0.997897 0.653071
O O5 0.376578 0.172363 0.888080
O O6 0.518312 0.349063 0.847093
O O7 0.820074 0.279157 0.059260
O O8 0.150843 0.376761 0.602790
O O9 0.911092 0.103625 0.351638
O O10 0.000000 0.000000 0.500000
O O11 0.052965 0.340583 0.735139
O O12 0.893361 0.128499 0.745861
O O13 0.557311 0.405776 0.722597
O O14 0.250691 0.668626 0.802882
O O15 0.500000 0.000000 0.500000
#
# Coordination Sequence:
#
# PCOD9082679 Si02
#       7
#     2   2   2   2   2   2   2
#     4  10  22  35  59  81 110 141 180 228 276 314
#     4   9  19  37  59  76 108 152 184 213 261 334
#     4  11  15  35  54  78 104 146 181 214 265 334
#     4  10  19  33  60  82 104 145 187 218 263 325
#     4  10  19  33  57  80 111 141 184 216 267 323
#     4  11  20  36  56  80 110 147 179 213 278 337
#     4  11  21  37  55  85 110 138 188 231 258 306
#
# _framework density 24.966721
#
# number of rings (size 3 to 8) (size 9 to 14) (size 15 to 20)
#    0.000    1.714    7.143    2.143    0.000    0.571 
#    0.000   10.714    0.000    0.000    0.000    0.000 
#    0.000    0.000    0.000    0.000    0.000    0.000 
#
# Total GULP energy -77943.852275 kJ/mol
# GULP energy per Si atom -5567.418020 kJ/mol
# Density = 2.490990 g / cm^3
# Si number density = 24.966721 Si / 1000 Ang^3
#
#
#
# Elastic Constant Matrix: (Units=GPa)
#
#
# Indices 1 2 3 4 5 6 
#
# 1 113.3633 15.7216 22.5063 -7.4744 5.7421 -45.3427
# 2 15.7216 61.4446 19.0534 -7.4441 -0.3726 -19.5361
# 3 22.5063 19.0534 128.1135 -1.3762 -4.6012 -17.4654
# 4 -7.4744 -7.4441 -1.3762 25.0445 -10.5929 2.5850
# 5 5.7421 -0.3726 -4.6012 -10.5929 29.8819 -2.6291
# 6 -45.3427 -19.5361 -17.4654 2.5850 -2.6291 52.0183
#
#
#
# Elastic Compliance Matrix: (Units=1/GPa)
#
#
# Indices 1 2 3 4 5 6 
#
# 1 0.013884 0.000868 -0.000938 0.002796 -0.000760 0.011936
# 2 0.000868 0.019783 -0.001925 0.006418 0.002706 0.007357
# 3 -0.000938 -0.001925 0.008507 0.000169 0.001648 0.001390
# 4 0.002796 0.006418 0.000169 0.049736 0.017492 0.003317
# 5 -0.000760 0.002706 0.001648 0.017492 0.040282 0.002074
# 6 0.011936 0.007357 0.001390 0.003317 0.002074 0.032798
#
#
# Mechanical properties :
#
#
# Convention : Reuss Voigt Hill
#
# Bulk Modulus (GPa) = 26.19018 46.38713 36.28865
# Shear Modulus (GPa) = 27.51635 37.76496 32.64065
#
# Velocity S-wave (km/s) = 3.32342 3.89345 3.61967
# Velocity P-wave (km/s) = 5.02391 6.23152 5.66001
#
# Compressibility (1/GPa) = 0.03818225
#
# Stress axis : x y z
#
# Youngs Moduli (GPa) = 72.02529 50.54808 117.54589
#
# Poissons Ratio (x) = -0.04385 0.11028
# Poissons Ratio (y) = -0.06249 0.22633
# Poissons Ratio (z) = 0.06757 0.09733
#
# Static dielectric constant tensor:
#      x y z
#    x 2.074570 0.000300 -0.055560 
#    y 0.000300 2.136630 0.038000 
#    z -0.055560 0.038000 1.895430 
# 
# From -- ./inp_files/172671.got.cif
#   From: 2010.05.17/outbox.cif.g08.bks.cpg/sg2_87_cif.got.tgz:172671.got - 2010.06.03 11:33:40.
