data_PCOD9082738
_publ_section_title
;
Structure prediction by ZEFSAII (Michael W. Deem and Ramdas Pophale) SiO2 
 PCOD9082738
Probable space group: P -1
;
_chemical_formula_sum "Si O2"
_cell_formula_units_Z 14
_cell_length_a 8.302518
_cell_length_b 14.172065
_cell_length_c 8.223745
_cell_angle_alpha 94.856139
_cell_angle_beta 127.746821
_cell_angle_gamma 59.391875
_cell_volume 620.800026
_symmetry_space_group_name_H-M "P -1"
_symmetry_group_IT_number 2
_symmetry_cell_setting 'triclinic'
loop_
_space_group_symop_operation_xyz
x,y,z
-x,-y,-z
loop_
_atom_site_type_symbol
_atom_site_label
_atom_site_fract_x
_atom_site_fract_y
_atom_site_fract_z
Si Si1 0.142806 0.591553 0.345157
Si Si2 0.958003 0.075321 0.327500
Si Si3 0.522423 0.647040 0.624882
Si Si4 0.069511 0.233846 0.038620
Si Si5 0.668299 0.872401 0.498420
Si Si6 0.759170 0.139138 0.761659
Si Si7 0.621422 0.750275 0.993349
O O1 0.327587 0.616226 0.546837
O O2 0.276890 0.455815 0.385362
O O3 0.110048 0.643748 0.147586
O O4 0.858698 0.669072 0.245478
O O5 0.667094 0.173264 0.132399
O O6 0.121666 0.125676 0.465312
O O7 0.000000 0.000000 0.500000
O O8 0.063368 0.986278 0.229229
O O9 0.367718 0.768678 0.452241
O O10 0.645695 0.661421 0.858754
O O11 0.184008 0.223418 0.282482
O O12 0.301722 0.173468 0.044946
O O13 0.922024 0.175710 0.953271
O O14 0.467499 0.856393 0.292307
O O15 0.500000 0.000000 0.500000
#
# Coordination Sequence:
#
# PCOD9082738 Si02
#       7
#     2   2   2   2   2   2   2
#     4   8  19  29  54  82 100 131 174 215 252 299
#     4  11  21  34  52  77 107 139 169 210 265 313
#     4  10  15  33  54  78 105 131 171 216 253 297
#     4   9  19  34  52  81  98 134 180 208 253 301
#     4  10  20  35  52  70 105 141 175 210 250 306
#     4  10  19  35  55  75 105 139 175 210 249 308
#     4  10  18  31  51  79 106 130 169 212 260 302
#
# _framework density 22.551542999999999
#
# number of rings (size 3 to 8) (size 9 to 14) (size 15 to 20)
#    0.857    1.429    2.857    1.286    0.000    2.857 
#    0.000    2.857    0.000    3.429    0.000    6.000 
#    0.000    0.000    0.000    0.000    0.000    0.000 
#
# Total GULP energy -78043.677253 kJ/mol
# GULP energy per Si atom -5574.548375 kJ/mol
# Density = 2.250022 g / cm^3
# Si number density = 22.551543 Si / 1000 Ang^3
#
#
#
# Elastic Constant Matrix: (Units=GPa)
#
#
# Indices 1 2 3 4 5 6 
#
# 1 105.6867 25.1227 27.5807 2.2043 55.0720 -5.6461
# 2 25.1227 68.9612 6.3836 -4.2792 26.7153 -2.0435
# 3 27.5807 6.3836 75.1825 15.7912 41.1075 3.4776
# 4 2.2043 -4.2792 15.7912 27.1761 7.0061 10.2640
# 5 55.0720 26.7153 41.1075 7.0061 56.0015 -6.1430
# 6 -5.6461 -2.0435 3.4776 10.2640 -6.1430 24.7751
#
#
#
# Elastic Compliance Matrix: (Units=1/GPa)
#
#
# Indices 1 2 3 4 5 6 
#
# 1 0.021533 0.002613 0.006823 0.003673 -0.028372 -0.004392
# 2 0.002613 0.020238 0.006238 0.006191 -0.018202 -0.005689
# 3 0.006823 0.006238 0.028594 -0.005490 -0.030789 -0.007304
# 4 0.003673 0.006191 -0.005490 0.052047 -0.011492 -0.022293
# 5 -0.028372 -0.018202 -0.030789 -0.011492 0.080800 0.021150
# 6 -0.004392 -0.005689 -0.007304 -0.022293 0.021150 0.054398
#
#
# Mechanical properties :
#
#
# Convention : Reuss Voigt Hill
#
# Bulk Modulus (GPa) = 9.83148 40.88939 25.36043
# Shear Modulus (GPa) = 19.21845 34.30677 26.76261
#
# Velocity S-wave (km/s) = 2.92242 3.90457 3.44863
# Velocity P-wave (km/s) = 3.96943 6.20471 5.20840
#
# Compressibility (1/GPa) = 0.10171408
#
# Stress axis : x y z
#
# Youngs Moduli (GPa) = 46.43948 49.41088 34.97261
#
# Poissons Ratio (x) = -0.12910 -0.23863
# Poissons Ratio (y) = -0.12134 -0.21816
# Poissons Ratio (z) = -0.31688 -0.30822
#
# Static dielectric constant tensor:
#      x y z
#    x 1.912720 -0.010820 0.000880 
#    y -0.010820 1.820270 0.005020 
#    z 0.000880 0.005020 1.867810 
# 
# From -- ./inp_files/197319.got.cif
#   From: 2010.05.17/outbox.cif.g08.bks.cpg/sg2_99_cif.got.tgz:197319.got - 2010.06.03 11:33:40.
