data_PCOD9082349
_publ_section_title
;
Structure prediction by ZEFSAII (Michael W. Deem and Ramdas Pophale) SiO2 
 PCOD9082349
Probable space group: P -1
;
_chemical_formula_sum "Si O2"
_cell_formula_units_Z 14
_cell_length_a 7.624531
_cell_length_b 25.325304
_cell_length_c 8.752780
_cell_angle_alpha 128.925499
_cell_angle_beta 52.495825
_cell_angle_gamma 154.448494
_cell_volume 562.668638
_symmetry_space_group_name_H-M "P -1"
_symmetry_group_IT_number 2
_symmetry_cell_setting 'triclinic'
loop_
_space_group_symop_operation_xyz
x,y,z
-x,-y,-z
loop_
_atom_site_type_symbol
_atom_site_label
_atom_site_fract_x
_atom_site_fract_y
_atom_site_fract_z
Si Si1 0.515569 0.684591 0.207899
Si Si2 0.159566 0.325154 0.470522
Si Si3 0.666856 0.355486 0.419092
Si Si4 0.331852 0.148339 0.726203
Si Si5 0.725364 0.991489 0.301672
Si Si6 0.539013 0.202197 0.048405
Si Si7 0.421430 0.528716 0.800820
O O1 0.504411 0.694285 0.411103
O O2 0.806998 0.817676 0.218827
O O3 0.050787 0.578353 0.199009
O O4 0.551579 0.614794 0.019176
O O5 0.316795 0.292758 0.377492
O O6 0.376014 0.436093 0.669376
O O7 0.300470 0.380527 0.327955
O O8 0.681647 0.209410 0.541472
O O9 0.826005 0.324933 0.216541
O O10 0.000000 0.500000 0.500000
O O11 0.128315 0.025617 0.675664
O O12 0.510550 0.221980 0.926916
O O13 0.114211 0.100790 0.184041
O O14 0.500000 0.000000 0.500000
O O15 0.409258 0.864155 0.135593
#
# Coordination Sequence:
#
# PCOD9082349 Si02
#       7
#     2   2   2   2   2   2   2
#     4  10  20  34  53  78 118 158 192 235 293 339
#     4  10  19  33  54  80 114 153 203 239 275 343
#     4  12  23  35  54  86 125 159 183 241 299 343
#     4   9  19  36  62  84 107 151 198 241 282 349
#     4   9  18  38  68  88 105 149 205 249 280 342
#     4   9  21  38  60  89 115 148 197 243 291 343
#     4   9  19  35  51  76 112 162 206 228 270 353
#
# _framework density 24.881430000000002
#
# number of rings (size 3 to 8) (size 9 to 14) (size 15 to 20)
#    0.857    1.429    1.429    1.714    4.000    0.571 
#    0.000    0.714    0.000    0.857    0.000    0.000 
#    0.000    0.000    0.000    0.000    0.000    0.000 
#
# Total GULP energy -78064.335580 kJ/mol
# GULP energy per Si atom -5576.023970 kJ/mol
# Density = 2.482480 g / cm^3
# Si number density = 24.881430 Si / 1000 Ang^3
#
#
#
# Elastic Constant Matrix: (Units=GPa)
#
#
# Indices 1 2 3 4 5 6 
#
# 1 76.5791 13.4977 29.6692 -0.0402 -20.9752 -23.4021
# 2 13.4977 74.8414 30.6923 3.4257 4.2738 -23.9002
# 3 29.6692 30.6923 170.3249 21.6625 -32.6411 -16.0046
# 4 -0.0402 3.4257 21.6625 44.3293 -10.7281 6.9488
# 5 -20.9752 4.2738 -32.6411 -10.7281 37.5625 -0.2066
# 6 -23.4021 -23.9002 -16.0046 6.9488 -0.2066 39.5529
#
#
#
# Elastic Compliance Matrix: (Units=1/GPa)
#
#
# Indices 1 2 3 4 5 6 
#
# 1 0.019729 -0.000613 -0.000288 0.001196 0.011239 0.011035
# 2 -0.000613 0.018366 -0.003007 -0.002928 -0.005826 0.010003
# 3 -0.000288 -0.003007 0.008216 -0.002462 0.006628 0.001804
# 4 0.001196 -0.002928 -0.002462 0.026592 0.006420 -0.006696
# 5 0.011239 -0.005826 0.006628 0.006420 0.041181 0.004898
# 6 0.011035 0.010003 0.001804 -0.006696 0.004898 0.039788
#
#
# Mechanical properties :
#
#
# Convention : Reuss Voigt Hill
#
# Bulk Modulus (GPa) = 25.97648 52.16265 39.06956
# Shear Modulus (GPa) = 28.65007 40.81467 34.73237
#
# Velocity S-wave (km/s) = 3.39700 4.05454 3.74025
# Velocity P-wave (km/s) = 5.08419 6.55203 5.86421
#
# Compressibility (1/GPa) = 0.03849637
#
# Stress axis : x y z
#
# Youngs Moduli (GPa) = 50.68669 54.44735 121.71557
#
# Poissons Ratio (x) = 0.03337 0.03500
# Poissons Ratio (y) = 0.03106 0.36600
# Poissons Ratio (z) = 0.01458 0.16373
#
# Static dielectric constant tensor:
#      x y z
#    x 1.773170 0.087340 0.016480 
#    y 0.087340 2.045870 0.091990 
#    z 0.016480 0.091990 1.961990 
# 
# From -- ./inp_files/227484.got.cif
#   From: 2010.05.17/outbox.cif.g08.bks.cpg/sg2_114_cif.got.tgz:227484.got - 2010.06.03 11:33:40.
