data_PCOD9082336
_publ_section_title
;
Structure prediction by ZEFSAII (Michael W. Deem and Ramdas Pophale) SiO2 
 PCOD9082336
Probable space group: P -1
;
_chemical_formula_sum "Si O2"
_cell_formula_units_Z 14
_cell_length_a 11.134622
_cell_length_b 13.651049
_cell_length_c 9.153022
_cell_angle_alpha 110.674806
_cell_angle_beta 132.583166
_cell_angle_gamma 105.992545
_cell_volume 637.444261
_symmetry_space_group_name_H-M "P -1"
_symmetry_group_IT_number 2
_symmetry_cell_setting 'triclinic'
loop_
_space_group_symop_operation_xyz
x,y,z
-x,-y,-z
loop_
_atom_site_type_symbol
_atom_site_label
_atom_site_fract_x
_atom_site_fract_y
_atom_site_fract_z
Si Si1 0.015188 0.256447 0.876249
Si Si2 0.737804 0.317969 0.720644
Si Si3 0.769152 0.604191 0.574240
Si Si4 0.572643 0.280604 0.245995
Si Si5 0.256155 0.953942 0.729197
Si Si6 0.621675 0.440567 0.884898
Si Si7 0.984198 0.338414 0.454438
O O1 0.810732 0.235187 0.765091
O O2 0.857734 0.108963 0.560246
O O3 0.175344 0.312178 0.182419
O O4 0.194918 0.407320 0.993953
O O5 0.599350 0.255896 0.421429
O O6 0.607710 0.319035 0.740647
O O7 0.000000 0.500000 0.000000
O O8 0.602195 0.419485 0.353981
O O9 0.630390 0.619434 0.365122
O O10 0.000610 0.668939 0.709706
O O11 0.791197 0.329737 0.357273
O O12 0.327421 0.107903 0.896791
O O13 0.067442 0.801209 0.595231
O O14 0.500000 0.000000 0.000000
O O15 0.752884 0.500792 0.180023
#
# Coordination Sequence:
#
# PCOD9082336 Si02
#       7
#     2   2   2   2   2   2   2
#     4  10  18  34  56  81 104 141 186 221 251 322
#     4  10  15  31  57  79 102 135 190 217 253 306
#     4  12  22  31  57  87 111 130 180 233 267 295
#     4  11  19  34  59  84 100 142 184 223 255 320
#     4   9  18  36  59  75 105 146 184 205 271 325
#     4  10  19  34  54  80 108 146 176 214 267 328
#     4  10  20  37  54  79 113 141 173 222 273 318
#
# _framework density 21.962706000000001
#
# number of rings (size 3 to 8) (size 9 to 14) (size 15 to 20)
#    0.000    1.714    8.571    1.286    0.000    0.000 
#    0.000    5.714    3.143    0.857    0.000    0.000 
#    0.000    0.000    0.000    0.000    0.000    0.000 
#
# Total GULP energy -77972.249447 kJ/mol
# GULP energy per Si atom -5569.446389 kJ/mol
# Density = 2.191272 g / cm^3
# Si number density = 21.962706 Si / 1000 Ang^3
#
#
#
# Elastic Constant Matrix: (Units=GPa)
#
#
# Indices 1 2 3 4 5 6 
#
# 1 73.6567 4.4003 37.6110 -3.8546 -15.7366 4.5148
# 2 4.4003 28.5457 23.4467 -3.7200 -8.2515 -2.3913
# 3 37.6110 23.4467 120.2778 8.3767 -45.8387 -1.5679
# 4 -3.8546 -3.7200 8.3767 16.8397 -1.0478 -7.4055
# 5 -15.7366 -8.2515 -45.8387 -1.0478 33.1278 -12.1327
# 6 4.5148 -2.3913 -1.5679 -7.4055 -12.1327 22.5906
#
#
#
# Elastic Compliance Matrix: (Units=1/GPa)
#
#
# Indices 1 2 3 4 5 6 
#
# 1 0.017219 0.003662 -0.006996 0.007472 -0.000935 -0.001592
# 2 0.003662 0.048518 -0.009117 0.023405 0.007644 0.015549
# 3 -0.006996 -0.009117 0.030228 -0.004672 0.045376 0.025369
# 4 0.007472 0.023405 -0.004672 0.087619 0.020474 0.040378
# 5 -0.000935 0.007644 0.045376 0.020474 0.123310 0.077083
# 6 -0.001592 0.015549 0.025369 0.040378 0.077083 0.102627
#
#
# Mechanical properties :
#
#
# Convention : Reuss Voigt Hill
#
# Bulk Modulus (GPa) = 14.07215 39.26625 26.66920
# Shear Modulus (GPa) = 10.91442 24.97976 17.94709
#
# Velocity S-wave (km/s) = 2.23166 3.37615 2.86171
# Velocity P-wave (km/s) = 3.61409 5.75459 4.80505
#
# Compressibility (1/GPa) = 0.07106235
#
# Stress axis : x y z
#
# Youngs Moduli (GPa) = 58.07642 20.61101 33.08196
#
# Poissons Ratio (x) = -0.07547 0.23143
# Poissons Ratio (y) = -0.21267 0.30162
# Poissons Ratio (z) = 0.40628 0.18792
#
# Static dielectric constant tensor:
#      x y z
#    x 1.855860 0.001240 -0.016850 
#    y 0.001240 1.846210 -0.005950 
#    z -0.016850 -0.005950 1.871910 
# 
# From -- ./inp_files/169487.got.cif
#   From: 2010.05.17/outbox.cif.g08.bks.cpg/sg2_85_cif.got.tgz:169487.got - 2010.06.03 11:33:40.
