data_PCOD9082258
_publ_section_title
;
Structure prediction by ZEFSAII (Michael W. Deem and Ramdas Pophale) SiO2 
 PCOD9082258
Probable space group: P -1
;
_chemical_formula_sum "Si O2"
_cell_formula_units_Z 16
_cell_length_a 8.732964
_cell_length_b 7.648241
_cell_length_c 20.201463
_cell_angle_alpha 115.896829
_cell_angle_beta 137.723284
_cell_angle_gamma 51.732024
_cell_volume 712.053319
_symmetry_space_group_name_H-M "P -1"
_symmetry_group_IT_number 2
_symmetry_cell_setting 'triclinic'
loop_
_space_group_symop_operation_xyz
x,y,z
-x,-y,-z
loop_
_atom_site_type_symbol
_atom_site_label
_atom_site_fract_x
_atom_site_fract_y
_atom_site_fract_z
Si Si1 0.783059 0.597066 0.628922
Si Si2 0.685746 0.854318 0.277060
Si Si3 0.421288 0.689100 0.257964
Si Si4 0.098005 0.802948 0.709217
Si Si5 0.374733 0.093544 0.880781
Si Si6 0.518274 0.577628 0.415403
Si Si7 0.084023 0.864463 0.573585
Si Si8 0.102211 0.284544 0.951464
O O1 0.570685 0.673554 0.514712
O O2 0.640220 0.551720 0.636896
O O3 0.021737 0.346902 0.652143
O O4 0.923029 0.747435 0.694215
O O5 0.511442 0.847065 0.278223
O O6 0.610472 0.823806 0.173989
O O7 0.692317 0.082343 0.320296
O O8 0.648774 0.437784 0.268829
O O9 0.400093 0.716876 0.334790
O O10 0.149885 0.737140 0.148667
O O11 0.942327 0.897960 0.604936
O O12 0.210974 0.958631 0.798993
O O13 0.226797 0.284770 0.919675
O O14 0.662371 0.923517 0.970725
O O15 0.805047 0.388781 0.452978
O O16 0.000000 0.000000 0.500000
O O17 0.000000 0.500000 0.000000
#
# Coordination Sequence:
#
# PCOD9082258 Si02
#       8
#     2   2   2   2   2   2   2   2
#     4  10  20  36  57  84 125 156 205 241 301 350
#     4  10  21  37  59  88 119 157 198 252 298 357
#     4  10  21  37  62  85 121 158 207 243 307 355
#     4   9  20  36  59  84 119 160 197 250 298 360
#     4  10  22  41  65  91 123 154 201 253 308 358
#     4  10  21  35  55  86 117 168 197 248 293 358
#     4  10  19  33  53  80 118 159 203 242 288 348
#     4  11  22  41  68  89 118 160 198 254 311 365
#
# _framework density 22.470227000000001
#
# number of rings (size 3 to 8) (size 9 to 14) (size 15 to 20)
#    0.000    2.000    2.500    0.750    1.750    3.000 
#    0.000    1.250    5.500    0.000    0.000    0.000 
#    0.000    0.000    0.000    0.000    0.000    0.000 
#
# Total GULP energy -89242.703317 kJ/mol
# GULP energy per Si atom -5577.668957 kJ/mol
# Density = 2.241908 g / cm^3
# Si number density = 22.470227 Si / 1000 Ang^3
#
#
#
# Elastic Constant Matrix: (Units=GPa)
#
#
# Indices 1 2 3 4 5 6 
#
# 1 145.1528 21.2335 37.9172 -1.8617 -20.7368 6.7778
# 2 21.2335 47.8080 9.6572 -4.9062 0.7133 -11.3061
# 3 37.9172 9.6572 75.6737 -21.5921 -20.8441 -1.3253
# 4 -1.8617 -4.9062 -21.5921 24.8595 -5.8066 0.1535
# 5 -20.7368 0.7133 -20.8441 -5.8066 31.4195 0.6440
# 6 6.7778 -11.3061 -1.3253 0.1535 0.6440 36.6044
#
#
#
# Elastic Compliance Matrix: (Units=1/GPa)
#
#
# Indices 1 2 3 4 5 6 
#
# 1 0.009133 -0.004334 -0.004194 -0.003133 0.002831 -0.003218
# 2 -0.004334 0.025482 -0.001283 0.002606 -0.003987 0.008686
# 3 -0.004194 -0.001283 0.031270 0.032177 0.023933 0.000956
# 4 -0.003133 0.002606 0.032177 0.076214 0.033271 0.001645
# 5 0.002831 -0.003987 0.023933 0.033271 0.055854 -0.002011
# 6 -0.003218 0.008686 0.000956 0.001645 -0.002011 0.030661
#
#
# Mechanical properties :
#
#
# Convention : Reuss Voigt Hill
#
# Bulk Modulus (GPa) = 21.61506 45.13892 33.37699
# Shear Modulus (GPa) = 18.96402 31.89847 25.43125
#
# Velocity S-wave (km/s) = 2.90825 3.77183 3.36784
# Velocity P-wave (km/s) = 4.57357 6.25307 5.47807
#
# Compressibility (1/GPa) = 0.04626403
#
# Stress axis : x y z
#
# Youngs Moduli (GPa) = 109.48864 39.24309 31.97996
#
# Poissons Ratio (x) = 0.17009 0.13411
# Poissons Ratio (y) = 0.47455 0.04102
# Poissons Ratio (z) = 0.45914 0.05034
#
# Static dielectric constant tensor:
#      x y z
#    x 1.949600 -0.023090 -0.011410 
#    y -0.023090 1.909060 0.015870 
#    z -0.011410 0.015870 1.842730 
# 
# From -- ./inp_files/314834.got.cif
#   From: 2010.05.17/outbox.cif.g08.bks.cpg/sg2_158_cif.got.tgz:314834.got - 2010.06.03 11:33:40.
