data_PCOD9082728
_publ_section_title
;
Structure prediction by ZEFSAII (Michael W. Deem and Ramdas Pophale) SiO2 
 PCOD9082728
Probable space group: P -1
;
_chemical_formula_sum "Si O2"
_cell_formula_units_Z 14
_cell_length_a 17.965330
_cell_length_b 7.655978
_cell_length_c 19.138292
_cell_angle_alpha 118.591042
_cell_angle_beta 21.421766
_cell_angle_gamma 129.885929
_cell_volume 668.629278
_symmetry_space_group_name_H-M "P -1"
_symmetry_group_IT_number 2
_symmetry_cell_setting 'triclinic'
loop_
_space_group_symop_operation_xyz
x,y,z
-x,-y,-z
loop_
_atom_site_type_symbol
_atom_site_label
_atom_site_fract_x
_atom_site_fract_y
_atom_site_fract_z
Si Si1 0.408880 0.969285 0.978023
Si Si2 0.724378 0.227099 0.392747
Si Si3 0.087787 0.147530 0.122916
Si Si4 0.616195 0.303699 0.654816
Si Si5 0.088019 0.216291 0.684755
Si Si6 0.823560 0.441109 0.776475
Si Si7 0.802860 0.858416 0.579563
O O1 0.603317 0.916166 0.774745
O O2 0.585324 0.261839 0.899651
O O3 0.211793 0.906012 0.079032
O O4 0.235635 0.773545 0.155954
O O5 0.649784 0.204398 0.534756
O O6 0.968449 0.220651 0.181531
O O7 0.776606 0.488106 0.376269
O O8 0.500000 0.000000 0.500000
O O9 0.196675 0.367008 0.127409
O O10 0.868125 0.891759 0.306553
O O11 0.313836 0.131395 0.901657
O O12 0.665842 0.567346 0.653656
O O13 0.885277 0.401935 0.478114
O O14 0.115122 0.108586 0.567469
O O15 0.000000 0.000000 0.500000
#
# Coordination Sequence:
#
# PCOD9082728 Si02
#       7
#     2   2   2   2   2   2   2
#     4  11  18  33  57  86 121 164 208 240 286 346
#     4  10  23  46  68  87 116 155 205 261 313 369
#     4  11  23  40  60  90 130 156 199 257 305 361
#     4  10  19  37  60  88 122 161 199 246 302 358
#     4  11  24  39  60  94 124 160 204 253 304 359
#     4  10  19  33  57  85 124 165 202 242 281 353
#     4  11  18  34  61  85 120 172 209 238 292 353
#
# _framework density 20.938358999999998
#
# number of rings (size 3 to 8) (size 9 to 14) (size 15 to 20)
#    0.000    1.429    7.143    0.857    0.000    4.000 
#    0.000    2.143    0.000    0.000    0.000    0.000 
#    0.000    0.000    0.000    0.000    0.000    0.000 
#
# Total GULP energy -77937.726286 kJ/mol
# GULP energy per Si atom -5566.980449 kJ/mol
# Density = 2.089070 g / cm^3
# Si number density = 20.938359 Si / 1000 Ang^3
#
#
#
# Elastic Constant Matrix: (Units=GPa)
#
#
# Indices 1 2 3 4 5 6 
#
# 1 23.2521 32.6692 7.9918 -14.8111 1.9290 1.9359
# 2 32.6692 87.3681 18.3483 -12.3087 -12.3016 17.2663
# 3 7.9918 18.3483 88.7264 8.3429 -8.8675 2.0141
# 4 -14.8111 -12.3087 8.3429 20.2585 -2.3725 -6.8758
# 5 1.9290 -12.3016 -8.8675 -2.3725 18.1041 -8.8537
# 6 1.9359 17.2663 2.0141 -6.8758 -8.8537 28.9569
#
#
#
# Elastic Compliance Matrix: (Units=1/GPa)
#
#
# Indices 1 2 3 4 5 6 
#
# 1 0.445744 -0.150064 -0.046175 0.278722 -0.085165 0.103034
# 2 -0.150064 0.066098 0.012272 -0.083405 0.037053 -0.038709
# 3 -0.046175 0.012272 0.017699 -0.035597 0.012297 -0.010154
# 4 0.278722 -0.083405 -0.035597 0.240665 -0.032809 0.080689
# 5 -0.085165 0.037053 0.012297 -0.032809 0.092846 0.003342
# 6 0.103034 -0.038709 -0.010154 0.080689 0.003342 0.071615
#
#
# Mechanical properties :
#
#
# Convention : Reuss Voigt Hill
#
# Bulk Modulus (GPa) = 6.18786 35.26280 20.72533
# Shear Modulus (GPa) = 3.68604 22.81972 13.25288
#
# Velocity S-wave (km/s) = 1.32825 3.30487 2.51857
# Velocity P-wave (km/s) = 2.30521 5.60720 4.28688
#
# Compressibility (1/GPa) = 0.16160679
#
# Stress axis : x y z
#
# Youngs Moduli (GPa) = 2.24344 15.12903 56.50191
#
# Poissons Ratio (x) = 2.27033 2.60898
# Poissons Ratio (y) = 0.33666 -0.69340
# Poissons Ratio (z) = 0.10359 -0.18567
#
# Static dielectric constant tensor:
#      x y z
#    x 1.873540 -0.047550 0.025030 
#    y -0.047550 1.735820 -0.008470 
#    z 0.025030 -0.008470 1.883160 
# 
# From -- ./inp_files/197739.got.cif
#   From: 2010.05.17/outbox.cif.g08.bks.cpg/sg2_99_cif.got.tgz:197739.got - 2010.06.03 11:33:40.
