data_PCOD9082160
_publ_section_title
;
Structure prediction by ZEFSAII (Michael W. Deem and Ramdas Pophale) SiO2 
 PCOD9082160
Probable space group: P -1
;
_chemical_formula_sum "Si O2"
_cell_formula_units_Z 14
_cell_length_a 7.732011
_cell_length_b 6.354987
_cell_length_c 21.196632
_cell_angle_alpha 123.750607
_cell_angle_beta 131.974277
_cell_angle_gamma 63.896079
_cell_volume 639.865358
_symmetry_space_group_name_H-M "P -1"
_symmetry_group_IT_number 2
_symmetry_cell_setting 'triclinic'
loop_
_space_group_symop_operation_xyz
x,y,z
-x,-y,-z
loop_
_atom_site_type_symbol
_atom_site_label
_atom_site_fract_x
_atom_site_fract_y
_atom_site_fract_z
Si Si1 0.564770 0.695291 0.732688
Si Si2 0.909272 0.087943 0.910203
Si Si3 0.232755 0.627029 0.952386
Si Si4 0.080743 0.777134 0.574880
Si Si5 0.747939 0.725231 0.638178
Si Si6 0.878973 0.247547 0.785597
Si Si7 0.753202 0.188733 0.517927
O O1 0.287703 0.765433 0.673699
O O2 0.657000 0.697593 0.683245
O O3 0.643678 0.417852 0.734227
O O4 0.704965 0.900127 0.836651
O O5 0.881627 0.207611 0.854676
O O6 0.867946 0.297310 0.989655
O O7 0.152651 0.898803 0.943547
O O8 0.086516 0.417642 0.849782
O O9 0.500000 0.500000 0.000000
O O10 0.190074 0.868859 0.551133
O O11 0.000000 0.500000 0.500000
O O12 0.853926 0.978913 0.556984
O O13 0.866918 0.447417 0.603567
O O14 0.526784 0.766789 0.543947
O O15 0.889508 0.967176 0.712636
#
# Coordination Sequence:
#
# PCOD9082160 Si02
#       7
#     2   2   2   2   2   2   2
#     4   9  19  35  55  78 111 146 181 230 277 330
#     4   9  20  40  60  83 115 151 184 230 289 339
#     4  10  21  39  63  86 114 145 186 239 283 338
#     4  10  19  33  52  79 111 145 188 228 273 326
#     4   9  18  35  56  77 108 150 187 228 277 324
#     4  10  19  36  61  82 112 151 188 223 287 347
#     4   9  19  34  53  77 110 147 187 233 270 318
#
# _framework density 21.879605999999999
#
# number of rings (size 3 to 8) (size 9 to 14) (size 15 to 20)
#    0.000    2.571    0.000    1.286    0.000    2.857 
#   10.286    4.286    6.286    0.000    0.000    0.000 
#    0.000    0.000    0.000    0.000    0.000    0.000 
#
# Total GULP energy -78088.299927 kJ/mol
# GULP energy per Si atom -5577.735709 kJ/mol
# Density = 2.182981 g / cm^3
# Si number density = 21.879606 Si / 1000 Ang^3
#
#
#
# Elastic Constant Matrix: (Units=GPa)
#
#
# Indices 1 2 3 4 5 6 
#
# 1 45.8543 28.3180 7.7672 -14.5699 -5.1204 1.1748
# 2 28.3180 159.7584 61.8974 -20.8946 12.4973 -16.7622
# 3 7.7672 61.8974 98.7935 -7.8276 7.8099 -13.4789
# 4 -14.5699 -20.8946 -7.8276 48.8278 -2.3639 -0.2818
# 5 -5.1204 12.4973 7.8099 -2.3639 24.8894 -5.7321
# 6 1.1748 -16.7622 -13.4789 -0.2818 -5.7321 19.9571
#
#
#
# Elastic Compliance Matrix: (Units=1/GPa)
#
#
# Indices 1 2 3 4 5 6 
#
# 1 0.028077 -0.005314 0.000547 0.006566 0.008132 -0.003318
# 2 -0.005314 0.010060 -0.004855 0.001802 -0.003407 0.004530
# 3 0.000547 -0.004855 0.013889 0.000312 -0.000603 0.005102
# 4 0.006566 0.001802 0.000312 0.023429 0.003167 0.002579
# 5 0.008132 -0.003407 -0.000603 0.003167 0.046259 0.009584
# 6 -0.003318 0.004530 0.005102 0.002579 0.009584 0.060343
#
#
# Mechanical properties :
#
#
# Convention : Reuss Voigt Hill
#
# Bulk Modulus (GPa) = 30.50500 55.59682 43.05091
# Shear Modulus (GPa) = 23.55951 32.49643 28.02797
#
# Velocity S-wave (km/s) = 3.28499 3.85806 3.58300
# Velocity P-wave (km/s) = 5.32548 6.73139 6.06928
#
# Compressibility (1/GPa) = 0.03278152
#
# Stress axis : x y z
#
# Youngs Moduli (GPa) = 35.61654 99.40439 71.99697
#
# Poissons Ratio (x) = 0.52825 -0.03936
# Poissons Ratio (y) = 0.18927 0.34954
# Poissons Ratio (z) = -0.01947 0.48260
#
# Static dielectric constant tensor:
#      x y z
#    x 1.859910 -0.021890 0.010320 
#    y -0.021890 1.841930 -0.009040 
#    z 0.010320 -0.009040 1.807970 
# 
# From -- ./inp_files/39588.got.cif
#   From: 2010.05.17/outbox.cif.g08.bks.cpg/sg2_20_cif.got.tgz:39588.got - 2010.06.03 11:33:40.
