data_PCOD9082498
_publ_section_title
;
Structure prediction by ZEFSAII (Michael W. Deem and Ramdas Pophale) SiO2 
 PCOD9082498
Probable space group: P -1
;
_chemical_formula_sum "Si O2"
_cell_formula_units_Z 14
_cell_length_a 9.288184
_cell_length_b 17.262264
_cell_length_c 11.651546
_cell_angle_alpha 135.778673
_cell_angle_beta 45.366057
_cell_angle_gamma 99.012020
_cell_volume 663.132857
_symmetry_space_group_name_H-M "P -1"
_symmetry_group_IT_number 2
_symmetry_cell_setting 'triclinic'
loop_
_space_group_symop_operation_xyz
x,y,z
-x,-y,-z
loop_
_atom_site_type_symbol
_atom_site_label
_atom_site_fract_x
_atom_site_fract_y
_atom_site_fract_z
Si Si1 0.639510 0.909271 0.443255
Si Si2 0.880426 0.504512 0.453079
Si Si3 0.936973 0.367596 0.842805
Si Si4 0.253114 0.359121 0.864752
Si Si5 0.732489 0.343276 0.276482
Si Si6 0.473787 0.221941 0.233205
Si Si7 0.853743 0.945855 0.572087
O O1 0.533033 0.825751 0.445188
O O2 0.631646 0.986790 0.643840
O O3 0.500000 0.000000 0.500000
O O4 0.973618 0.781484 0.088389
O O5 0.791417 0.409456 0.413403
O O6 0.637388 0.673297 0.709407
O O7 0.000000 0.500000 0.500000
O O8 0.121381 0.416941 0.126417
O O9 0.020086 0.395931 0.945904
O O10 0.207891 0.279304 0.513659
O O11 0.924172 0.240607 0.731725
O O12 0.695834 0.537055 0.101012
O O13 0.500000 0.500000 0.500000
O O14 0.618197 0.263513 0.271989
O O15 0.690086 0.045140 0.883741
O O16 0.000000 0.000000 0.500000
#
# Coordination Sequence:
#
# PCOD9082498 Si02
#       7
#     2   2   2   2   2   2   2
#     4  10  20  34  57  85 118 154 189 237 296 355
#     4   9  18  31  55  85 115 149 195 240 288 351
#     4   9  18  35  58  80 113 155 201 240 286 353
#     4   8  17  34  55  77 109 153 196 228 282 341
#     4   9  18  34  53  81 116 151 196 239 280 338
#     4  10  19  33  55  85 112 151 196 242 296 341
#     4  11  21  34  56  87 116 147 200 252 290 341
#
# _framework density 21.111910000000002
#
# number of rings (size 3 to 8) (size 9 to 14) (size 15 to 20)
#    0.000    2.571    1.429    1.286    4.000    0.000 
#    0.000    0.000    0.000   12.000    0.000    0.000 
#    0.000    0.000    0.000    0.000    0.000    0.000 
#
# Total GULP energy -77980.262836 kJ/mol
# GULP energy per Si atom -5570.018774 kJ/mol
# Density = 2.106386 g / cm^3
# Si number density = 21.111910 Si / 1000 Ang^3
#
#
#
# Elastic Constant Matrix: (Units=GPa)
#
#
# Indices 1 2 3 4 5 6 
#
# 1 99.9009 40.5592 27.4866 14.5515 32.8205 -1.8262
# 2 40.5592 127.1793 17.6519 24.7006 13.3667 10.4909
# 3 27.4866 17.6519 64.6180 -2.6097 21.3059 5.6627
# 4 14.5515 24.7006 -2.6097 34.3654 7.0901 7.9032
# 5 32.8205 13.3667 21.3059 7.0901 32.2793 2.6510
# 6 -1.8262 10.4909 5.6627 7.9032 2.6510 30.3883
#
#
#
# Elastic Compliance Matrix: (Units=1/GPa)
#
#
# Indices 1 2 3 4 5 6 
#
# 1 0.017298 -0.003485 -0.002196 -0.003099 -0.014402 0.004714
# 2 -0.003485 0.010404 -0.002149 -0.006156 0.002169 -0.001989
# 3 -0.002196 -0.002149 0.021865 0.007752 -0.012653 -0.004377
# 4 -0.003099 -0.006156 0.007752 0.038992 -0.007241 -0.009015
# 5 -0.014402 0.002169 -0.012653 -0.007241 0.054844 -0.002158
# 6 0.004714 -0.001989 -0.004377 -0.009015 -0.002158 0.037226
#
#
# Mechanical properties :
#
#
# Convention : Reuss Voigt Hill
#
# Bulk Modulus (GPa) = 29.49199 51.45485 40.47342
# Shear Modulus (GPa) = 24.08575 33.13998 28.61287
#
# Velocity S-wave (km/s) = 3.38133 3.96628 3.68543
# Velocity P-wave (km/s) = 5.40779 6.73799 6.10920
#
# Compressibility (1/GPa) = 0.03390751
#
# Stress axis : x y z
#
# Youngs Moduli (GPa) = 57.80976 96.11366 45.73472
#
# Poissons Ratio (x) = 0.33497 0.10042
# Poissons Ratio (y) = 0.20147 0.09830
# Poissons Ratio (z) = 0.12693 0.20658
#
# Static dielectric constant tensor:
#      x y z
#    x 1.824850 -0.084090 0.116170 
#    y -0.084090 2.028850 -0.138720 
#    z 0.116170 -0.138720 2.017620 
# 
# From -- ./inp_files/210487.got.cif
#   From: 2010.05.17/outbox.cif.g08.bks.cpg/sg2_106_cif.got.tgz:210487.got - 2010.06.03 11:33:40.
