data_PCOD9082459
_publ_section_title
;
Structure prediction by ZEFSAII (Michael W. Deem and Ramdas Pophale) SiO2 
 PCOD9082459
Probable space group: P -1
;
_chemical_formula_sum "Si O2"
_cell_formula_units_Z 16
_cell_length_a 8.719658
_cell_length_b 8.036378
_cell_length_c 14.415360
_cell_angle_alpha 126.872651
_cell_angle_beta 52.060346
_cell_angle_gamma 110.303363
_cell_volume 636.921926
_symmetry_space_group_name_H-M "P -1"
_symmetry_group_IT_number 2
_symmetry_cell_setting 'triclinic'
loop_
_space_group_symop_operation_xyz
x,y,z
-x,-y,-z
loop_
_atom_site_type_symbol
_atom_site_label
_atom_site_fract_x
_atom_site_fract_y
_atom_site_fract_z
Si Si1 0.218847 0.210859 0.441243
Si Si2 0.570524 0.773941 0.031847
Si Si3 0.388157 0.773933 0.807918
Si Si4 0.810493 0.453674 0.927674
Si Si5 0.126539 0.701152 0.502356
Si Si6 0.711230 0.374464 0.390151
Si Si7 0.204407 0.352540 0.808128
Si Si8 0.442495 0.840448 0.315664
O O1 0.384389 0.251468 0.314570
O O2 0.159038 0.422283 0.588264
O O3 0.033602 0.138103 0.428858
O O4 0.324445 0.057515 0.423088
O O5 0.377548 0.684311 0.027574
O O6 0.502359 0.796255 0.172626
O O7 0.631827 0.004687 0.058881
O O8 0.744143 0.600250 0.915412
O O9 0.276037 0.780457 0.752353
O O10 0.305714 0.566555 0.812467
O O11 0.012552 0.322780 0.809425
O O12 0.848599 0.610352 0.051525
O O13 0.236062 0.736850 0.570400
O O14 0.293686 0.677025 0.355766
O O15 0.000000 0.500000 0.500000
O O16 0.500000 0.500000 0.500000
O O17 0.373181 0.176081 0.691149
#
# Coordination Sequence:
#
# PCOD9082459 Si02
#       8
#     2   2   2   2   2   2   2   2
#     4   9  19  35  53  80 116 151 191 232 275 323
#     4   9  20  39  59  81 114 147 186 233 286 341
#     4  10  20  37  58  84 115 150 188 231 276 336
#     4   9  20  39  59  83 112 145 181 238 295 338
#     4  10  19  33  55  81 114 153 193 231 275 326
#     4   9  18  34  52  76 113 148 181 227 273 317
#     4  10  20  36  60  85 113 145 189 234 286 341
#     4  10  19  35  56  81 113 151 190 233 276 332
#
# _framework density 25.120816999999999
#
# number of rings (size 3 to 8) (size 9 to 14) (size 15 to 20)
#    0.000    2.500    0.000    2.625    0.000    3.000 
#    0.000   25.000    0.000    0.000    0.000    0.000 
#    0.000    0.000    0.000    0.000    0.000    0.000 
#
# Total GULP energy -89199.936468 kJ/mol
# GULP energy per Si atom -5574.996029 kJ/mol
# Density = 2.506364 g / cm^3
# Si number density = 25.120817 Si / 1000 Ang^3
#
#
#
# Elastic Constant Matrix: (Units=GPa)
#
#
# Indices 1 2 3 4 5 6 
#
# 1 178.8197 45.2678 45.5438 25.9554 -41.7993 -22.5345
# 2 45.2678 100.0166 15.9555 17.6488 -13.8045 0.0193
# 3 45.5438 15.9555 36.6688 6.8603 -17.3861 -3.7081
# 4 25.9554 17.6488 6.8603 37.3332 -0.5505 3.7471
# 5 -41.7993 -13.8045 -17.3861 -0.5505 45.5442 7.8703
# 6 -22.5345 0.0193 -3.7081 3.7471 7.8703 31.7122
#
#
#
# Elastic Compliance Matrix: (Units=1/GPa)
#
#
# Indices 1 2 3 4 5 6 
#
# 1 0.011175 -0.001911 -0.008900 -0.005789 0.005118 0.006315
# 2 -0.001911 0.012006 -0.001561 -0.003891 0.001494 -0.001459
# 3 -0.008900 -0.001561 0.042645 -0.000457 0.008206 -0.003320
# 4 -0.005789 -0.003891 -0.000457 0.033346 -0.005081 -0.006844
# 5 0.005118 0.001494 0.008206 -0.005081 0.030592 -0.002396
# 6 0.006315 -0.001459 -0.003320 -0.006844 -0.002396 0.037037
#
#
# Mechanical properties :
#
#
# Convention : Reuss Voigt Hill
#
# Bulk Modulus (GPa) = 24.34225 58.78216 41.56220
# Shear Modulus (GPa) = 24.36169 36.83377 30.59773
#
# Velocity S-wave (km/s) = 3.11751 3.83334 3.49380
# Velocity P-wave (km/s) = 4.76126 6.56073 5.73205
#
# Compressibility (1/GPa) = 0.04108084
#
# Stress axis : x y z
#
# Youngs Moduli (GPa) = 89.48254 83.29429 23.44941
#
# Poissons Ratio (x) = 0.15922 0.20870
# Poissons Ratio (y) = 0.17104 0.03661
# Poissons Ratio (z) = 0.79639 0.13003
#
# Static dielectric constant tensor:
#      x y z
#    x 2.081670 -0.004760 -0.025700 
#    y -0.004760 2.081640 0.054490 
#    z -0.025700 0.054490 2.108670 
# 
# From -- ./inp_files/555495.got.cif
#   From: 2010.05.17/outbox.cif.g08.bks.cpg/sg2_278_cif.got.tgz:555495.got - 2010.06.03 11:33:40.
