data_PCOD9082897
_publ_section_title
;
Structure prediction by ZEFSAII (Michael W. Deem and Ramdas Pophale) SiO2 
 PCOD9082897
Probable space group: P -1
;
_chemical_formula_sum "Si O2"
_cell_formula_units_Z 16
_cell_length_a 9.022849
_cell_length_b 9.514381
_cell_length_c 11.977167
_cell_angle_alpha 73.476128
_cell_angle_beta 140.896903
_cell_angle_gamma 115.689174
_cell_volume 581.957328
_symmetry_space_group_name_H-M "P -1"
_symmetry_group_IT_number 2
_symmetry_cell_setting 'triclinic'
loop_
_space_group_symop_operation_xyz
x,y,z
-x,-y,-z
loop_
_atom_site_type_symbol
_atom_site_label
_atom_site_fract_x
_atom_site_fract_y
_atom_site_fract_z
Si Si1 0.805984 0.385441 0.037095
Si Si2 0.524769 0.676337 0.939520
Si Si3 0.692321 0.353944 0.647945
Si Si4 0.401150 0.447083 0.635873
Si Si5 0.919757 0.082954 0.827342
Si Si6 0.945623 0.846011 0.424019
Si Si7 0.449061 0.861252 0.664175
Si Si8 0.539072 0.084920 0.886342
O O1 0.633181 0.467721 0.852499
O O2 0.798670 0.232015 0.998068
O O3 0.685136 0.311610 0.101104
O O4 0.076411 0.505244 0.195401
O O5 0.448419 0.705184 0.762944
O O6 0.500000 0.500000 0.000000
O O7 0.807289 0.806690 0.088784
O O8 0.460711 0.342405 0.594193
O O9 0.627220 0.405245 0.477555
O O10 0.784678 0.209393 0.735784
O O11 0.125604 0.333899 0.538415
O O12 0.669859 0.929787 0.688123
O O13 0.000000 0.000000 0.000000
O O14 0.666024 0.832961 0.235023
O O15 0.176968 0.867794 0.471346
O O16 0.000000 0.000000 0.500000
O O17 0.497987 0.975375 0.779581
O O18 0.500000 0.000000 0.000000
#
# Coordination Sequence:
#
# PCOD9082897 Si02
#       8
#     2   2   2   2   2   2   2   2
#     4  11  21  38  63  90 126 159 207 256 313 372
#     4  11  21  37  62  87 115 169 216 244 300 367
#     4  11  21  40  63  90 133 159 203 258 319 379
#     4  10  23  36  61  99 122 160 203 258 322 375
#     4  10  22  38  63  89 117 167 216 251 299 371
#     4   9  18  32  56  84 121 152 190 241 308 367
#     4  10  20  38  62  87 122 158 204 255 311 368
#     4  10  19  33  58  93 118 152 196 252 315 373
#
# _framework density 27.493424999999998
#
# number of rings (size 3 to 8) (size 9 to 14) (size 15 to 20)
#    0.000    1.750    2.500    3.375    1.750    0.000 
#    0.000    0.625    0.000    3.750    0.000    0.000 
#    0.000    0.000    0.000    0.000    0.000    0.000 
#
# Total GULP energy -89195.037610 kJ/mol
# GULP energy per Si atom -5574.689851 kJ/mol
# Density = 2.743085 g / cm^3
# Si number density = 27.493425 Si / 1000 Ang^3
#
#
#
# Elastic Constant Matrix: (Units=GPa)
#
#
# Indices 1 2 3 4 5 6 
#
# 1 96.4011 24.5348 17.1543 -3.8684 1.6987 38.2253
# 2 24.5348 139.3138 29.6023 -4.9876 2.6315 32.2289
# 3 17.1543 29.6023 119.7578 -2.0535 -2.0037 18.1465
# 4 -3.8684 -4.9876 -2.0535 49.2170 3.2516 9.4371
# 5 1.6987 2.6315 -2.0037 3.2516 52.5409 5.5733
# 6 38.2253 32.2289 18.1465 9.4371 5.5733 54.1098
#
#
#
# Elastic Compliance Matrix: (Units=1/GPa)
#
#
# Indices 1 2 3 4 5 6 
#
# 1 0.014945 0.000139 -0.000427 0.003271 0.000470 -0.011116
# 2 0.000139 0.008697 -0.001362 0.001824 -0.000060 -0.005133
# 3 -0.000427 -0.001362 0.009086 0.000569 0.000616 -0.002097
# 4 0.003271 0.001824 0.000569 0.022252 -0.000769 -0.007390
# 5 0.000470 -0.000060 0.000616 -0.000769 0.019342 -0.002361
# 6 -0.011116 -0.005133 -0.002097 -0.007390 -0.002361 0.031626
#
#
# Mechanical properties :
#
#
# Convention : Reuss Voigt Hill
#
# Bulk Modulus (GPa) = 33.98120 55.33948 44.66034
# Shear Modulus (GPa) = 41.99707 50.11897 46.05802
#
# Velocity S-wave (km/s) = 3.91260 4.27423 4.09741
# Velocity P-wave (km/s) = 5.72694 6.67313 6.21806
#
# Compressibility (1/GPa) = 0.02942803
#
# Stress axis : x y z
#
# Youngs Moduli (GPa) = 66.91340 114.98376 110.06297
#
# Poissons Ratio (x) = -0.01593 0.04695
# Poissons Ratio (y) = -0.00927 0.14985
# Poissons Ratio (z) = 0.02855 0.15655
#
# Static dielectric constant tensor:
#      x y z
#    x 2.380280 0.393910 0.009860 
#    y 0.393910 3.178320 0.163840 
#    z 0.009860 0.163840 2.240610 
# 
# From -- ./inp_files/568009.got.cif
#   From: 2010.05.17/outbox.cif.g08.bks.cpg/sg2_285_cif.got.tgz:568009.got - 2010.06.03 11:33:40.
