data_PCOD9082704
_publ_section_title
;
Structure prediction by ZEFSAII (Michael W. Deem and Ramdas Pophale) SiO2 
 PCOD9082704
Probable space group: P -1
;
_chemical_formula_sum "Si O2"
_cell_formula_units_Z 16
_cell_length_a 22.094751
_cell_length_b 12.181558
_cell_length_c 14.551758
_cell_angle_alpha 28.920941
_cell_angle_beta 150.125161
_cell_angle_gamma 148.437251
_cell_volume 870.150450
_symmetry_space_group_name_H-M "P -1"
_symmetry_group_IT_number 2
_symmetry_cell_setting 'triclinic'
loop_
_space_group_symop_operation_xyz
x,y,z
-x,-y,-z
loop_
_atom_site_type_symbol
_atom_site_label
_atom_site_fract_x
_atom_site_fract_y
_atom_site_fract_z
Si Si1 0.938259 0.219105 0.663671
Si Si2 0.294223 0.619028 0.075295
Si Si3 0.888199 0.294024 0.941579
Si Si4 0.644082 0.841983 0.532604
Si Si5 0.683824 0.880759 0.345136
Si Si6 0.014157 0.587644 0.220823
Si Si7 0.633700 0.352936 0.636194
Si Si8 0.003527 0.909351 0.354614
O O1 0.970046 0.232978 0.803007
O O2 0.000000 0.500000 0.500000
O O3 0.993894 0.087489 0.755898
O O4 0.779957 0.075338 0.555110
O O5 0.338898 0.415343 0.236849
O O6 0.325399 0.622478 0.220834
O O7 0.137964 0.514501 0.932761
O O8 0.343438 0.895008 0.899368
O O9 0.909414 0.336977 0.828973
O O10 0.744683 0.285508 0.782738
O O11 0.000000 0.500000 0.000000
O O12 0.916930 0.050249 0.175723
O O13 0.619788 0.836024 0.395021
O O14 0.517624 0.835683 0.426445
O O15 0.639847 0.625226 0.419630
O O16 0.841923 0.962721 0.507860
O O17 0.044625 0.363611 0.469076
#
# Coordination Sequence:
#
# PCOD9082704 Si02
#       8
#     2   2   2   2   2   2   2   2
#     4   9  19  39  63  83 105 138 186 243 284 312
#     4  10  19  33  57  83 107 144 184 225 280 322
#     4  12  21  35  53  80 117 152 182 216 267 333
#     4  10  21  35  53  80 113 141 180 232 276 323
#     4   9  17  33  54  79 110 143 180 227 275 325
#     4  10  20  35  59  83 105 142 188 234 274 313
#     4  11  22  34  49  78 118 152 178 217 269 332
#     4   9  19  34  56  84 109 136 185 234 272 319
#
# _framework density 18.387625
#
# number of rings (size 3 to 8) (size 9 to 14) (size 15 to 20)
#    0.000    2.000    2.500    3.750    0.000    5.500 
#    0.000    0.625    0.000    3.000    0.000    0.000 
#    0.000    0.000    0.000    0.000    0.000    0.000 
#
# Total GULP energy -89170.658123 kJ/mol
# GULP energy per Si atom -5573.166133 kJ/mol
# Density = 1.834577 g / cm^3
# Si number density = 18.387625 Si / 1000 Ang^3
#
#
#
# Elastic Constant Matrix: (Units=GPa)
#
#
# Indices 1 2 3 4 5 6 
#
# 1 62.6201 38.0531 42.1303 -7.2011 11.5271 25.8431
# 2 38.0531 74.9335 38.9796 -2.6742 17.3843 3.5865
# 3 42.1303 38.9796 91.7787 -15.8757 9.9306 16.4127
# 4 -7.2011 -2.6742 -15.8757 17.6208 -0.5160 8.5860
# 5 11.5271 17.3843 9.9306 -0.5160 35.7718 13.3641
# 6 25.8431 3.5865 16.4127 8.5860 13.3641 16.3599
#
#
#
# Elastic Compliance Matrix: (Units=1/GPa)
#
#
# Indices 1 2 3 4 5 6 
#
# 1 0.001766 0.008935 -0.017676 -0.037671 -0.018400 0.047785
# 2 0.008935 0.009385 0.001280 0.022691 0.005040 -0.033482
# 3 -0.017676 0.001280 0.015683 -0.001618 -0.005856 0.017541
# 4 -0.037671 0.022691 -0.001618 0.006566 -0.025958 0.073914
# 5 -0.018400 0.005040 -0.005856 -0.025958 0.021524 0.029876
# 6 0.047785 -0.033482 0.017541 0.073914 0.029876 -0.087814
#
#
# Mechanical properties :
#
#
# Convention : Reuss Voigt Hill
#
# Bulk Modulus (GPa) = 83.95259 51.96203 67.95731
# Shear Modulus (GPa) = -357.27717 21.29513 -167.99102
#
# Velocity S-wave (km/s) = -13.95439 3.40681 -9.56866
# Velocity P-wave (km/s) = 14.62453 6.61784 9.22175
#
# Compressibility (1/GPa) = 0.01191148
#
# Stress axis : x y z
#
# Youngs Moduli (GPa) = 566.14507 106.55396 63.76136
#
# Poissons Ratio (x) = -0.95210 1.12708
# Poissons Ratio (y) = -5.05871 -0.08158
# Poissons Ratio (z) = 10.00745 -0.13634
#
# Static dielectric constant tensor:
#      x y z
#    x 1.634140 0.008230 -0.013820 
#    y 0.008230 1.677890 -0.024920 
#    z -0.013820 -0.024920 1.668660 
# 
# From -- ./inp_files/431288.got.cif
#   From: 2010.05.17/outbox.cif.g08.bks.cpg/sg2_216_cif.got.tgz:431288.got - 2010.06.03 11:33:40.
