data_PCOD9082935
_publ_section_title
;
Structure prediction by ZEFSAII (Michael W. Deem and Ramdas Pophale) SiO2 
 PCOD9082935
Probable space group: P -1
;
_chemical_formula_sum "Si O2"
_cell_formula_units_Z 14
_cell_length_a 7.232929
_cell_length_b 9.274302
_cell_length_c 16.132017
_cell_angle_alpha 141.492674
_cell_angle_beta 48.905151
_cell_angle_gamma 124.018451
_cell_volume 505.407922
_symmetry_space_group_name_H-M "P -1"
_symmetry_group_IT_number 2
_symmetry_cell_setting 'triclinic'
loop_
_space_group_symop_operation_xyz
x,y,z
-x,-y,-z
loop_
_atom_site_type_symbol
_atom_site_label
_atom_site_fract_x
_atom_site_fract_y
_atom_site_fract_z
Si Si1 0.770411 0.567484 0.185077
Si Si2 0.028022 0.537216 0.339433
Si Si3 0.301564 0.342248 0.311963
Si Si4 0.433136 0.815759 0.685437
Si Si5 0.838806 0.157147 0.884067
Si Si6 0.416384 0.912086 0.393802
Si Si7 0.362739 0.293811 0.003412
O O1 0.577522 0.453695 0.257370
O O2 0.587303 0.697100 0.236608
O O3 0.991957 0.775032 0.215791
O O4 0.917861 0.349514 0.016471
O O5 0.134511 0.514696 0.392296
O O6 0.139388 0.800831 0.409531
O O7 0.756934 0.411170 0.363092
O O8 0.150928 0.393508 0.164769
O O9 0.344936 0.236996 0.342387
O O10 0.180840 0.103351 0.197174
O O11 0.516664 0.886290 0.600404
O O12 0.314730 0.047863 0.858034
O O13 0.564908 0.219215 0.975594
O O14 0.500000 0.000000 0.500000
O O15 0.500000 0.500000 0.000000
#
# Coordination Sequence:
#
# PCOD9082935 Si02
#       7
#     2   2   2   2   2   2   2
#     4  10  20  36  59  90 121 170 202 253 321 369
#     4  11  23  43  63  95 138 166 208 267 322 380
#     4  10  22  36  60  95 130 160 204 256 323 385
#     4  11  24  38  65  97 124 171 216 255 328 388
#     4  10  19  33  59  87 134 155 197 254 320 380
#     4  11  24  46  66  87 128 176 222 266 310 374
#     4  11  20  36  60  98 136 166 202 261 323 393
#
# _framework density 27.700396000000001
#
# number of rings (size 3 to 8) (size 9 to 14) (size 15 to 20)
#    0.000    1.429    4.286    1.714    4.000    1.714 
#    0.000    2.857    0.000   14.571    0.000    0.000 
#    0.000    0.000    0.000    0.000    0.000    0.000 
#
# Total GULP energy -78180.493957 kJ/mol
# GULP energy per Si atom -5584.320997 kJ/mol
# Density = 2.763735 g / cm^3
# Si number density = 27.700396 Si / 1000 Ang^3
#
#
#
# Elastic Constant Matrix: (Units=GPa)
#
#
# Indices 1 2 3 4 5 6 
#
# 1 96.0655 56.1720 23.0292 -3.7154 11.1097 -1.1973
# 2 56.1720 172.7709 41.1321 4.1274 17.1803 23.7720
# 3 23.0292 41.1321 120.5923 9.7576 16.9441 5.8935
# 4 -3.7154 4.1274 9.7576 44.9448 -12.9251 9.2994
# 5 11.1097 17.1803 16.9441 -12.9251 29.5864 0.4287
# 6 -1.1973 23.7720 5.8935 9.2994 0.4287 59.2535
#
#
#
# Elastic Compliance Matrix: (Units=1/GPa)
#
#
# Indices 1 2 3 4 5 6 
#
# 1 0.013377 -0.004226 -0.001049 0.000851 -0.001625 0.001948
# 2 -0.004226 0.008211 -0.001376 -0.000966 -0.002770 -0.003071
# 3 -0.001049 -0.001376 0.010182 -0.004057 -0.006413 0.000201
# 4 0.000851 -0.000966 -0.004057 0.028386 0.015019 -0.003755
# 5 -0.001625 -0.002770 -0.006413 0.015019 0.046266 -0.000975
# 6 0.001948 -0.003071 0.000201 -0.003755 -0.000975 0.018724
#
#
# Mechanical properties :
#
#
# Convention : Reuss Voigt Hill
#
# Bulk Modulus (GPa) = 54.15044 70.01057 62.08050
# Shear Modulus (GPa) = 34.57707 44.69666 39.63686
#
# Velocity S-wave (km/s) = 3.53689 4.02129 3.78685
# Velocity P-wave (km/s) = 6.02250 6.84764 6.44828
#
# Compressibility (1/GPa) = 0.01846707
#
# Stress axis : x y z
#
# Youngs Moduli (GPa) = 74.75277 121.79041 98.21702
#
# Poissons Ratio (x) = 0.51475 0.10302
# Poissons Ratio (y) = 0.31594 0.13514
# Poissons Ratio (z) = 0.07841 0.16758
#
# Static dielectric constant tensor:
#      x y z
#    x 2.223910 0.030870 0.051620 
#    y 0.030870 2.115550 -0.033310 
#    z 0.051620 -0.033310 2.494640 
# 
# From -- ./inp_files/241872.got.cif
#   From: 2010.05.17/outbox.cif.g08.bks.cpg/sg2_121_cif.got.tgz:241872.got - 2010.06.03 11:33:40.
