data_PCOD9082027
_publ_section_title
;
Structure prediction by ZEFSAII (Michael W. Deem and Ramdas Pophale) SiO2 
 PCOD9082027
Probable space group: P -1
;
_chemical_formula_sum "Si O2"
_cell_formula_units_Z 14
_cell_length_a 9.252215
_cell_length_b 12.614944
_cell_length_c 14.536318
_cell_angle_alpha 138.193130
_cell_angle_beta 38.912330
_cell_angle_gamma 109.264973
_cell_volume 569.824103
_symmetry_space_group_name_H-M "P -1"
_symmetry_group_IT_number 2
_symmetry_cell_setting 'triclinic'
loop_
_space_group_symop_operation_xyz
x,y,z
-x,-y,-z
loop_
_atom_site_type_symbol
_atom_site_label
_atom_site_fract_x
_atom_site_fract_y
_atom_site_fract_z
Si Si1 0.526551 0.507253 0.166168
Si Si2 0.297143 0.037455 0.882910
Si Si3 0.262605 0.900195 0.631612
Si Si4 0.902361 0.746685 0.166003
Si Si5 0.752219 0.758711 0.607186
Si Si6 0.434430 0.193077 0.063044
Si Si7 0.747064 0.632480 0.988792
O O1 0.300709 0.701480 0.462046
O O2 0.465258 0.347414 0.097993
O O3 0.543148 0.593609 0.117577
O O4 0.838561 0.394342 0.986232
O O5 0.143935 0.000105 0.854362
O O6 0.535149 0.823507 0.670779
O O7 0.210519 0.169713 0.104308
O O8 0.395497 0.156490 0.853901
O O9 0.593596 0.828538 0.414431
O O10 0.101066 0.067937 0.742833
O O11 0.922345 0.644052 0.993268
O O12 0.646866 0.745224 0.750701
O O13 0.040007 0.554865 0.302197
O O14 0.719756 0.964079 0.766331
#
# Coordination Sequence:
#
# PCOD9082027 Si02
#       7
#     2   2   2   2   2   2   2
#     4  11  20  34  53  89 107 132 173 231 257 312
#     4   9  18  36  55  78 101 146 176 212 254 332
#     4   9  17  33  55  75 112 141 170 210 271 306
#     4   9  18  32  52  81 109 143 169 209 264 332
#     4   9  19  41  53  72 106 152 173 213 260 326
#     4   9  22  38  54  75 112 139 179 214 273 303
#     4  10  19  32  61  80 101 139 185 210 266 307
#
# _framework density 24.568988000000001
#
# number of rings (size 3 to 8) (size 9 to 14) (size 15 to 20)
#    0.857    1.714    0.000    4.286    0.000    1.714 
#    2.571    2.857    0.000    3.429    0.000    0.000 
#    0.000    0.000    0.000    0.000    0.000    0.000 
#
# Total GULP energy -78036.231335 kJ/mol
# GULP energy per Si atom -5574.016524 kJ/mol
# Density = 2.451307 g / cm^3
# Si number density = 24.568988 Si / 1000 Ang^3
#
#
#
# Elastic Constant Matrix: (Units=GPa)
#
#
# Indices 1 2 3 4 5 6 
#
# 1 24.8392 -111.9359 17.1742 -6.5267 7.5268 -11.7186
# 2 -111.9359 -249.3534 57.1145 -8.1017 -11.9873 -30.7870
# 3 17.1742 57.1145 115.8208 3.6024 23.3266 5.7280
# 4 -6.5267 -8.1017 3.6024 31.5690 1.7493 11.5343
# 5 7.5268 -11.9873 23.3266 1.7493 33.1916 12.0630
# 6 -11.7186 -30.7870 5.7280 11.5343 12.0630 36.9710
#
#
#
# Elastic Compliance Matrix: (Units=1/GPa)
#
#
# Indices 1 2 3 4 5 6 
#
# 1 0.014896 -0.006034 0.002211 0.001154 -0.007722 0.001514
# 2 -0.006034 -0.000725 0.001130 -0.000551 0.001426 -0.002985
# 3 0.002211 0.001130 0.009155 -0.000973 -0.007564 0.002995
# 4 0.001154 -0.000551 -0.000973 0.036159 0.002719 -0.012110
# 5 -0.007722 0.001426 -0.007564 0.002719 0.043007 -0.014969
# 6 0.001514 -0.002985 0.002995 -0.012110 -0.014969 0.033241
#
#
# Mechanical properties :
#
#
# Convention : Reuss Voigt Hill
#
# Bulk Modulus (GPa) = 55.74115 -20.44308 17.64903
# Shear Modulus (GPa) = 33.99067 15.60989 24.80028
#
# Velocity S-wave (km/s) = 3.72355 2.52335 3.18057
# Velocity P-wave (km/s) = 6.42054 0.38855 4.54831
#
# Compressibility (1/GPa) = 0.01794007
#
# Stress axis : x y z
#
# Youngs Moduli (GPa) = 67.12987 -1379.13069 109.23417
#
# Poissons Ratio (x) = -8.32149 -0.24153
# Poissons Ratio (y) = 0.40505 -0.12341
# Poissons Ratio (z) = -0.14843 1.55813
#
# Static dielectric constant tensor:
#      x y z
#    x 2.067880 0.006380 0.015290 
#    y 0.006380 1.967760 -0.025250 
#    z 0.015290 -0.025250 1.910380 
# 
# From -- ./inp_files/258569.got.cif
#   From: 2010.05.17/outbox.cif.g08.bks.cpg/sg2_130_cif.got.tgz:258569.got - 2010.06.03 11:33:40.
