data_PCOD9082280
_publ_section_title
;
Structure prediction by ZEFSAII (Michael W. Deem and Ramdas Pophale) SiO2 
 PCOD9082280
Probable space group: P -1
;
_chemical_formula_sum "Si O2"
_cell_formula_units_Z 14
_cell_length_a 21.747643
_cell_length_b 5.401943
_cell_length_c 13.471661
_cell_angle_alpha 55.850350
_cell_angle_beta 31.003367
_cell_angle_gamma 66.242245
_cell_volume 663.164475
_symmetry_space_group_name_H-M "P -1"
_symmetry_group_IT_number 2
_symmetry_cell_setting 'triclinic'
loop_
_space_group_symop_operation_xyz
x,y,z
-x,-y,-z
loop_
_atom_site_type_symbol
_atom_site_label
_atom_site_fract_x
_atom_site_fract_y
_atom_site_fract_z
Si Si1 0.196058 0.078702 0.591287
Si Si2 0.610078 0.149812 0.085006
Si Si3 0.064885 0.211841 0.987043
Si Si4 0.648007 0.197251 0.396730
Si Si5 0.730231 0.905775 0.146112
Si Si6 0.727336 0.411813 0.514604
Si Si7 0.540407 0.775190 0.075851
O O1 0.265741 0.423928 0.425698
O O2 0.256871 0.882371 0.633391
O O3 0.224901 0.901863 0.492010
O O4 0.051170 0.052844 0.810605
O O5 0.600125 0.503476 0.012072
O O6 0.483970 0.981983 0.349360
O O7 0.714688 0.096908 0.027019
O O8 0.612755 0.973836 0.017539
O O9 0.132582 0.135448 0.009155
O O10 0.179551 0.330304 0.730899
O O11 0.000000 0.500000 0.000000
O O12 0.658364 0.561241 0.304223
O O13 0.682436 0.078288 0.267765
O O14 0.593214 0.381402 0.664059
O O15 0.500000 0.000000 0.000000
#
# Coordination Sequence:
#
# PCOD9082280 Si02
#       7
#     2   2   2   2   2   2   2
#     4  11  19  31  55  78 120 143 184 216 255 331
#     4  12  23  39  54  86 115 146 188 234 280 347
#     4  10  19  33  53  84 118 154 180 212 261 346
#     4  12  19  35  53  83 123 157 177 211 274 350
#     4  12  23  32  54  82 124 161 174 213 279 342
#     4  11  19  35  52  82 110 141 183 234 268 320
#     4  12  24  42  62  79 105 148 199 250 286 315
#
# _framework density 21.110901999999999
#
# number of rings (size 3 to 8) (size 9 to 14) (size 15 to 20)
#    0.000    0.571    7.143    3.429    0.000    0.000 
#    0.000    0.000    0.000    0.000    0.000   14.000 
#    0.000    0.000    0.000    0.000    0.000    0.000 
#
# Total GULP energy -78071.847470 kJ/mol
# GULP energy per Si atom -5576.560534 kJ/mol
# Density = 2.106285 g / cm^3
# Si number density = 21.110902 Si / 1000 Ang^3
#
#
#
# Elastic Constant Matrix: (Units=GPa)
#
#
# Indices 1 2 3 4 5 6 
#
# 1 132.1002 49.0276 14.0655 -9.8526 -12.4338 -1.1593
# 2 49.0276 147.9741 10.6998 -11.4283 4.4989 27.0999
# 3 14.0655 10.6998 20.5983 -2.8090 -8.0722 -4.1161
# 4 -9.8526 -11.4283 -2.8090 17.4977 -0.0343 -0.7070
# 5 -12.4338 4.4989 -8.0722 -0.0343 19.7201 6.1112
# 6 -1.1593 27.0999 -4.1161 -0.7070 6.1112 48.1770
#
#
#
# Elastic Compliance Matrix: (Units=1/GPa)
#
#
# Indices 1 2 3 4 5 6 
#
# 1 0.009772 -0.003238 -0.002104 0.003109 0.005672 0.001203
# 2 -0.003238 0.009574 -0.005203 0.003373 -0.004720 -0.005260
# 3 -0.002104 -0.005203 0.064163 0.005981 0.024480 0.005340
# 4 0.003109 0.003373 0.005981 0.062036 0.004030 -0.000912
# 5 0.005672 -0.004720 0.024480 0.004030 0.066472 -0.003490
# 6 0.001203 -0.005260 0.005340 -0.000912 -0.003490 0.024630
#
#
# Mechanical properties :
#
#
# Convention : Reuss Voigt Hill
#
# Bulk Modulus (GPa) = 16.02054 49.80648 32.91351
# Shear Modulus (GPa) = 17.95054 32.20428 25.07741
#
# Velocity S-wave (km/s) = 2.91915 3.90998 3.45032
# Velocity P-wave (km/s) = 4.35513 6.63535 5.61226
#
# Compressibility (1/GPa) = 0.06241989
#
# Stress axis : x y z
#
# Youngs Moduli (GPa) = 102.33128 104.44545 15.58529
#
# Poissons Ratio (x) = 0.33823 0.03279
# Poissons Ratio (y) = 0.33138 0.08109
# Poissons Ratio (z) = 0.21527 0.54342
#
# Static dielectric constant tensor:
#      x y z
#    x 1.852710 0.078550 0.026800 
#    y 0.078550 1.881160 0.017100 
#    z 0.026800 0.017100 1.868780 
# 
# From -- ./inp_files/63826.got.cif
#   From: 2010.05.17/outbox.cif.g08.bks.cpg/sg2_32_cif.got.tgz:63826.got - 2010.06.03 11:33:40.
