data_PCOD9082485
_publ_section_title
;
Structure prediction by ZEFSAII (Michael W. Deem and Ramdas Pophale) SiO2 
 PCOD9082485
Probable space group: P -1
;
_chemical_formula_sum "Si O2"
_cell_formula_units_Z 16
_cell_length_a 7.536996
_cell_length_b 9.810282
_cell_length_c 11.892412
_cell_angle_alpha 110.361348
_cell_angle_beta 118.727004
_cell_angle_gamma 72.573192
_cell_volume 713.501985
_symmetry_space_group_name_H-M "P -1"
_symmetry_group_IT_number 2
_symmetry_cell_setting 'triclinic'
loop_
_space_group_symop_operation_xyz
x,y,z
-x,-y,-z
loop_
_atom_site_type_symbol
_atom_site_label
_atom_site_fract_x
_atom_site_fract_y
_atom_site_fract_z
Si Si1 0.859607 0.688010 0.217271
Si Si2 0.558750 0.324705 0.477057
Si Si3 0.276025 0.600799 0.977205
Si Si4 0.384121 0.304307 0.200598
Si Si5 0.718306 0.903114 0.063254
Si Si6 0.705175 0.341058 0.750572
Si Si7 0.156091 0.802637 0.787244
Si Si8 0.999852 0.336672 0.503605
O O1 0.855832 0.530978 0.112308
O O2 0.698604 0.812804 0.145627
O O3 0.074396 0.726079 0.250151
O O4 0.849809 0.679998 0.346872
O O5 0.500000 0.500000 0.500000
O O6 0.406861 0.263056 0.327048
O O7 0.553759 0.287817 0.596675
O O8 0.788878 0.305122 0.490427
O O9 0.179111 0.714335 0.885400
O O10 0.500000 0.500000 0.000000
O O11 0.296063 0.681767 0.124118
O O12 0.328033 0.479787 0.219406
O O13 0.615554 0.256949 0.211020
O O14 0.241571 0.216943 0.058181
O O15 0.866825 0.022961 0.152498
O O16 0.500000 0.000000 0.000000
O O17 0.994076 0.762030 0.634955
O O18 0.000000 0.500000 0.500000
#
# Coordination Sequence:
#
# PCOD9082485 Si02
#       8
#     2   2   2   2   2   2   2   2
#     4  11  22  35  58  81 110 148 186 229 281 324
#     4   8  17  30  51  80 106 142 177 222 272 326
#     4  12  20  33  56  83 110 140 183 235 271 321
#     4   9  16  33  56  79 108 144 185 226 270 328
#     4  10  20  36  53  80 114 151 186 223 274 338
#     4  10  19  33  55  84 109 138 188 232 274 323
#     4  10  20  34  54  81 114 146 184 225 276 326
#     4  10  19  34  54  83 114 138 180 240 277 312
#
# _framework density 22.424603999999999
#
# number of rings (size 3 to 8) (size 9 to 14) (size 15 to 20)
#    0.000    2.000    3.750    1.125    0.000    0.500 
#    0.000    0.625    0.000    0.750    0.000    0.000 
#    0.000    0.000    0.000    0.000    0.000    0.000 
#
# Total GULP energy -89142.460296 kJ/mol
# GULP energy per Si atom -5571.403768 kJ/mol
# Density = 2.237356 g / cm^3
# Si number density = 22.424604 Si / 1000 Ang^3
#
#
#
# Elastic Constant Matrix: (Units=GPa)
#
#
# Indices 1 2 3 4 5 6 
#
# 1 34.2335 -8.8552 7.2464 -11.6955 -15.6136 -2.3078
# 2 -8.8552 98.5230 64.5545 -10.6247 -9.9841 11.3785
# 3 7.2464 64.5545 231.1593 -23.3324 -32.9548 17.5997
# 4 -11.6955 -10.6247 -23.3324 35.8219 12.6158 1.2639
# 5 -15.6136 -9.9841 -32.9548 12.6158 21.9224 -3.5044
# 6 -2.3078 11.3785 17.5997 1.2639 -3.5044 14.4581
#
#
#
# Elastic Compliance Matrix: (Units=1/GPa)
#
#
# Indices 1 2 3 4 5 6 
#
# 1 0.052333 0.006958 0.002230 0.005353 0.042303 0.009948
# 2 0.006958 0.014044 -0.002734 0.003312 0.004403 -0.005836
# 3 0.002230 -0.002734 0.006720 0.001180 0.009200 -0.003546
# 4 0.005353 0.003312 0.001180 0.037457 -0.016119 -0.010369
# 5 0.042303 0.004403 0.009200 -0.016119 0.103839 0.018666
# 6 0.009948 -0.005836 -0.003546 -0.010369 0.018666 0.085094
#
#
# Mechanical properties :
#
#
# Convention : Reuss Voigt Hill
#
# Bulk Modulus (GPa) = 11.62727 54.42303 33.02515
# Shear Modulus (GPa) = 15.86059 34.50516 25.18287
#
# Velocity S-wave (km/s) = 2.66237 3.92691 3.35476
# Velocity P-wave (km/s) = 3.82717 6.69946 5.45573
#
# Compressibility (1/GPa) = 0.08600472
#
# Stress axis : x y z
#
# Youngs Moduli (GPa) = 19.10858 71.20576 148.80655
#
# Poissons Ratio (x) = -0.49542 -0.33187
# Poissons Ratio (y) = -0.13295 0.40679
# Poissons Ratio (z) = -0.04262 0.19465
#
# Static dielectric constant tensor:
#      x y z
#    x 1.948250 0.013080 0.043140 
#    y 0.013080 1.802740 -0.014880 
#    z 0.043140 -0.014880 1.988460 
# 
# From -- ./inp_files/205665.got.cif
#   From: 2010.05.17/outbox.cif.g08.bks.cpg/sg2_103_cif.got.tgz:205665.got - 2010.06.03 11:33:40.
