data_PCOD9082018
_publ_section_title
;
Structure prediction by ZEFSAII (Michael W. Deem and Ramdas Pophale) SiO2 
 PCOD9082018
Probable space group: P -1
;
_chemical_formula_sum "Si O2"
_cell_formula_units_Z 16
_cell_length_a 12.650664
_cell_length_b 16.284749
_cell_length_c 13.879527
_cell_angle_alpha 142.980012
_cell_angle_beta 47.084428
_cell_angle_gamma 154.039153
_cell_volume 746.205458
_symmetry_space_group_name_H-M "P -1"
_symmetry_group_IT_number 2
_symmetry_cell_setting 'triclinic'
loop_
_space_group_symop_operation_xyz
x,y,z
-x,-y,-z
loop_
_atom_site_type_symbol
_atom_site_label
_atom_site_fract_x
_atom_site_fract_y
_atom_site_fract_z
Si Si1 0.669996 0.300916 0.227991
Si Si2 0.779361 0.749709 0.091932
Si Si3 0.887486 0.174801 0.908007
Si Si4 0.007601 0.651256 0.193653
Si Si5 0.749064 0.317955 0.610546
Si Si6 0.787829 0.054512 0.353730
Si Si7 0.071946 0.827046 0.839028
Si Si8 0.438314 0.900986 0.691814
O O1 0.639678 0.259613 0.323742
O O2 0.812630 0.516001 0.273199
O O3 0.387495 0.093953 0.175320
O O4 0.818377 0.274959 0.081895
O O5 0.910224 0.744095 0.076961
O O6 0.814863 0.932184 0.277153
O O7 0.500000 0.500000 0.000000
O O8 0.947308 0.858565 0.995780
O O9 0.996751 0.253247 0.806082
O O10 0.274167 0.872893 0.280129
O O11 0.000000 0.500000 0.000000
O O12 0.855371 0.259768 0.536276
O O13 0.670039 0.222162 0.459782
O O14 0.913462 0.574608 0.734084
O O15 0.506868 0.163787 0.676867
O O16 0.914799 0.142145 0.253741
O O17 0.337840 0.977185 0.848029
#
# Coordination Sequence:
#
# PCOD9082018 Si02
#       8
#     2   2   2   2   2   2   2   2
#     4   9  17  35  56  82 116 150 201 243 302 344
#     4  12  23  39  60  90 132 161 193 249 312 357
#     4   9  19  35  53  82 123 152 186 251 301 351
#     4   9  19  32  54  88 115 148 198 251 301 345
#     4  10  22  40  59  86 124 163 208 244 288 362
#     4  10  22  39  56  84 122 163 202 239 292 360
#     4  11  22  39  59  90 125 162 201 247 299 362
#     4  10  19  32  60  87 116 152 195 253 297 343
#
# _framework density 21.441815999999999
#
# number of rings (size 3 to 8) (size 9 to 14) (size 15 to 20)
#    0.000    2.000    2.500    2.625    0.000    8.000 
#    2.250    0.000    0.000    3.000    0.000   15.750 
#    0.000    0.000    0.000    0.000    0.000    0.000 
#
# Total GULP energy -89079.177316 kJ/mol
# GULP energy per Si atom -5567.448582 kJ/mol
# Density = 2.139301 g / cm^3
# Si number density = 21.441816 Si / 1000 Ang^3
#
#
#
# Elastic Constant Matrix: (Units=GPa)
#
#
# Indices 1 2 3 4 5 6 
#
# 1 108.7727 45.3145 21.1591 7.4975 0.7078 9.4296
# 2 45.3145 126.2120 14.9042 3.8950 -2.6839 -22.6809
# 3 21.1591 14.9042 47.9591 4.3773 -10.3412 -1.2593
# 4 7.4975 3.8950 4.3773 27.5597 -4.3230 2.0107
# 5 0.7078 -2.6839 -10.3412 -4.3230 29.4906 -9.4625
# 6 9.4296 -22.6809 -1.2593 2.0107 -9.4625 27.4324
#
#
#
# Elastic Compliance Matrix: (Units=1/GPa)
#
#
# Indices 1 2 3 4 5 6 
#
# 1 0.014795 -0.007177 -0.006171 -0.002266 -0.007959 -0.013882
# 2 -0.007177 0.013412 0.000901 -0.000183 0.006802 0.015957
# 3 -0.006171 0.000901 0.026193 -0.001350 0.011868 0.008261
# 4 -0.002266 -0.000183 -0.001350 0.037958 0.004967 -0.000503
# 5 -0.007959 0.006802 0.011868 0.004967 0.047620 0.024966
# 6 -0.013882 0.015957 0.008261 -0.000503 0.024966 0.063446
#
#
# Mechanical properties :
#
#
# Convention : Reuss Voigt Hill
#
# Bulk Modulus (GPa) = 33.89234 49.52217 41.70726
# Shear Modulus (GPa) = 20.99495 30.33426 25.66460
#
# Velocity S-wave (km/s) = 3.13255 3.76536 3.46344
# Velocity P-wave (km/s) = 5.37818 6.48461 5.95714
#
# Compressibility (1/GPa) = 0.02950519
#
# Stress axis : x y z
#
# Youngs Moduli (GPa) = 67.58828 74.56267 38.17861
#
# Poissons Ratio (x) = 0.53517 0.23560
# Poissons Ratio (y) = 0.48511 -0.03440
# Poissons Ratio (z) = 0.41708 -0.06719
#
# Static dielectric constant tensor:
#      x y z
#    x 1.817580 -0.017530 0.012200 
#    y -0.017530 1.826890 0.011330 
#    z 0.012200 0.011330 1.826460 
# 
# From -- ./inp_files/522489.got.cif
#   From: 2010.05.17/outbox.cif.g08.bks.cpg/sg2_262_cif.got.tgz:522489.got - 2010.06.03 11:33:40.
