data_PCOD9082191
_publ_section_title
;
Structure prediction by ZEFSAII (Michael W. Deem and Ramdas Pophale) SiO2 
 PCOD9082191
Probable space group: P -1
;
_chemical_formula_sum "Si O2"
_cell_formula_units_Z 16
_cell_length_a 16.873148
_cell_length_b 35.605236
_cell_length_c 20.629823
_cell_angle_alpha 15.129856
_cell_angle_beta 18.034055
_cell_angle_gamma 17.679919
_cell_volume 903.497213
_symmetry_space_group_name_H-M "P -1"
_symmetry_group_IT_number 2
_symmetry_cell_setting 'triclinic'
loop_
_space_group_symop_operation_xyz
x,y,z
-x,-y,-z
loop_
_atom_site_type_symbol
_atom_site_label
_atom_site_fract_x
_atom_site_fract_y
_atom_site_fract_z
Si Si1 0.843830 0.888466 0.287821
Si Si2 0.314093 0.932798 0.339577
Si Si3 0.283278 0.191697 0.347648
Si Si4 0.635779 0.557305 0.741344
Si Si5 0.173976 0.052105 0.550087
Si Si6 0.211500 0.755239 0.100620
Si Si7 0.340448 0.874771 0.264652
Si Si8 0.270455 0.485262 0.403258
O O1 0.877477 0.780458 0.505507
O O2 0.502767 0.987104 0.379971
O O3 0.986431 0.796224 0.265267
O O4 0.000000 0.000000 0.000000
O O5 0.493690 0.749267 0.526416
O O6 0.280453 0.938424 0.278669
O O7 0.000000 0.000000 0.500000
O O8 0.486442 0.035658 0.051774
O O9 0.115002 0.198105 0.402598
O O10 0.485014 0.280317 0.043366
O O11 0.500000 0.000000 0.500000
O O12 0.608442 0.495635 0.793219
O O13 0.964710 0.494620 0.607703
O O14 0.500000 0.500000 0.000000
O O15 0.947500 0.094871 0.598421
O O16 0.144078 0.912086 0.848073
O O17 0.234379 0.618548 0.261507
O O18 0.536229 0.687289 0.430834
#
# Coordination Sequence:
#
# PCOD9082191 Si02
#       8
#     2   2   2   2   2   2   2   2
#     4  10  15  31  54  78 107 136 182 230 270 314
#     4  10  21  39  59  80 108 145 180 226 277 322
#     4   8  16  29  49  76 104 136 174 225 268 311
#     4  10  21  38  60  79 108 145 184 225 271 329
#     4  10  19  31  54  82 103 141 181 230 272 315
#     4  10  18  32  54  80 106 139 185 227 268 322
#     4  10  22  38  53  79 117 141 182 226 271 334
#     4  10  22  37  54  80 111 150 178 223 277 325
#
# _framework density 17.708964999999999
#
# number of rings (size 3 to 8) (size 9 to 14) (size 15 to 20)
#    0.000    2.500    3.750    1.500    0.000    7.000 
#    0.000    0.625    0.000    0.750    0.000    0.000 
#    0.000    0.000    0.000    0.000    0.000    0.000 
#
# Total GULP energy -89131.102792 kJ/mol
# GULP energy per Si atom -5570.693924 kJ/mol
# Density = 1.766866 g / cm^3
# Si number density = 17.708965 Si / 1000 Ang^3
#
#
#
# Elastic Constant Matrix: (Units=GPa)
#
#
# Indices 1 2 3 4 5 6 
#
# 1 121.9361 61.2975 65.7216 3.7860 -16.8698 6.8542
# 2 61.2975 82.8565 45.1329 17.9210 -0.8351 18.6404
# 3 65.7216 45.1329 84.2745 24.7820 2.0730 12.2890
# 4 3.7860 17.9210 24.7820 24.2507 6.5986 -4.8575
# 5 -16.8698 -0.8351 2.0730 6.5986 30.5057 7.1763
# 6 6.8542 18.6404 12.2890 -4.8575 7.1763 36.6753
#
#
#
# Elastic Compliance Matrix: (Units=1/GPa)
#
#
# Indices 1 2 3 4 5 6 
#
# 1 0.036168 -0.024226 -0.032849 0.048587 0.005924 0.021837
# 2 -0.024226 0.037067 0.016563 -0.046634 0.002835 -0.026593
# 3 -0.032849 0.016563 0.052208 -0.066095 -0.000265 -0.028475
# 4 0.048587 -0.046634 -0.066095 0.152372 -0.017058 0.060287
# 5 0.005924 0.002835 -0.000265 -0.017058 0.042928 -0.013118
# 6 0.021837 -0.026593 -0.028475 0.060287 -0.013118 0.056794
#
#
# Mechanical properties :
#
#
# Convention : Reuss Voigt Hill
#
# Bulk Modulus (GPa) = 22.51306 70.37454 46.44380
# Shear Modulus (GPa) = 10.56260 26.08068 18.32164
#
# Velocity S-wave (km/s) = 2.44489 3.84179 3.22000
# Velocity P-wave (km/s) = 4.55087 7.71394 6.33306
#
# Compressibility (1/GPa) = 0.04441867
#
# Stress axis : x y z
#
# Youngs Moduli (GPa) = 27.64876 26.97812 19.15404
#
# Poissons Ratio (x) = 0.65356 0.62920
# Poissons Ratio (y) = 0.66981 -0.31724
# Poissons Ratio (z) = 0.90824 -0.44683
#
# Static dielectric constant tensor:
#      x y z
#    x 1.645140 0.014850 -0.000100 
#    y 0.014850 1.605660 0.008810 
#    z -0.000100 0.008810 1.616060 
# 
# From -- ./inp_files/574619.got.cif
#   From: 2010.05.17/outbox.cif.g08.bks.cpg/sg2_288_cif.got.tgz:574619.got - 2010.06.03 11:33:40.
