data_PCOD9082956
_publ_section_title
;
Structure prediction by ZEFSAII (Michael W. Deem and Ramdas Pophale) SiO2 
 PCOD9082956
Probable space group: P -1
;
_chemical_formula_sum "Si O2"
_cell_formula_units_Z 16
_cell_length_a 19.256737
_cell_length_b 7.500786
_cell_length_c 14.296059
_cell_angle_alpha 99.912538
_cell_angle_beta 23.599418
_cell_angle_gamma 85.001423
_cell_volume 638.317534
_symmetry_space_group_name_H-M "P -1"
_symmetry_group_IT_number 2
_symmetry_cell_setting 'triclinic'
loop_
_space_group_symop_operation_xyz
x,y,z
-x,-y,-z
loop_
_atom_site_type_symbol
_atom_site_label
_atom_site_fract_x
_atom_site_fract_y
_atom_site_fract_z
Si Si1 0.959248 0.324550 0.145076
Si Si2 0.537955 0.373947 0.186369
Si Si3 0.835787 0.214994 0.649376
Si Si4 0.680518 0.824642 0.185046
Si Si5 0.870134 0.814351 0.274908
Si Si6 0.274788 0.127817 0.076031
Si Si7 0.296383 0.605818 0.828824
Si Si8 0.452928 0.880488 0.127984
O O1 0.712903 0.405288 0.464120
O O2 0.910145 0.571025 0.210978
O O3 0.095228 0.222477 0.063167
O O4 0.115304 0.158471 0.851974
O O5 0.673672 0.298160 0.107641
O O6 0.648212 0.410725 0.969418
O O7 0.579971 0.137152 0.089089
O O8 0.689950 0.187836 0.753727
O O9 0.019898 0.232557 0.384436
O O10 0.000000 0.000000 0.500000
O O11 0.714400 0.590642 0.137706
O O12 0.500000 0.000000 0.500000
O O13 0.628568 0.892056 0.147781
O O14 0.694873 0.979499 0.585116
O O15 0.084832 0.778404 0.044392
O O16 0.308381 0.259645 0.125249
O O17 0.500000 0.500000 0.500000
O O18 0.500000 0.000000 0.000000
#
# Coordination Sequence:
#
# PCOD9082956 Si02
#       8
#     2   2   2   2   2   2   2   2
#     4  10  20  37  62  90 126 167 208 263 328 391
#     4  11  20  41  68  92 125 167 228 264 316 393
#     4  10  21  38  64  97 129 171 221 274 314 383
#     4  11  25  43  62  93 138 169 207 274 344 383
#     4  10  19  33  59  93 119 163 218 260 308 390
#     4  11  23  42  66  98 134 172 215 278 328 378
#     4  11  22  38  66  95 128 167 219 265 326 398
#     4  12  20  36  65  97 129 172 230 266 319 385
#
# _framework density 25.065894
#
# number of rings (size 3 to 8) (size 9 to 14) (size 15 to 20)
#    0.000    1.250    5.000    3.000    1.750    0.000 
#    2.250    1.875    0.000    0.000    0.000    0.000 
#    0.000    0.000    0.000    0.000    0.000    0.000 
#
# Total GULP energy -89253.970299 kJ/mol
# GULP energy per Si atom -5578.373144 kJ/mol
# Density = 2.500884 g / cm^3
# Si number density = 25.065894 Si / 1000 Ang^3
#
#
#
# Elastic Constant Matrix: (Units=GPa)
#
#
# Indices 1 2 3 4 5 6 
#
# 1 208.5076 16.1253 58.8883 -16.7059 8.9863 15.7312
# 2 16.1253 55.0073 6.9659 -7.7539 5.1173 0.0448
# 3 58.8883 6.9659 157.1925 -21.1213 11.9799 13.5581
# 4 -16.7059 -7.7539 -21.1213 29.4949 7.9864 1.8762
# 5 8.9863 5.1173 11.9799 7.9864 52.6885 -11.2594
# 6 15.7312 0.0448 13.5581 1.8762 -11.2594 25.2972
#
#
#
# Elastic Compliance Matrix: (Units=1/GPa)
#
#
# Indices 1 2 3 4 5 6 
#
# 1 0.005848 -0.000959 -0.001259 0.002937 -0.001926 -0.004035
# 2 -0.000959 0.019521 0.000691 0.006045 -0.003162 -0.001664
# 3 -0.001259 0.000691 0.008635 0.007201 -0.004247 -0.006270
# 4 0.002937 0.006045 0.007201 0.046789 -0.013014 -0.014959
# 5 -0.001926 -0.003162 -0.004247 -0.013014 0.025974 0.016005
# 6 -0.004035 -0.001664 -0.006270 -0.014959 0.016005 0.053636
#
#
# Mechanical properties :
#
#
# Convention : Reuss Voigt Hill
#
# Bulk Modulus (GPa) = 32.30996 64.96293 48.63644
# Shear Modulus (GPa) = 28.77322 44.07799 36.42560
#
# Velocity S-wave (km/s) = 3.39175 4.19798 3.81621
# Velocity P-wave (km/s) = 5.31569 7.03353 6.23406
#
# Compressibility (1/GPa) = 0.03095021
#
# Stress axis : x y z
#
# Youngs Moduli (GPa) = 170.98456 51.22804 115.81140
#
# Poissons Ratio (x) = 0.04911 0.14581
# Poissons Ratio (y) = 0.16390 -0.08001
# Poissons Ratio (z) = 0.21528 -0.03539
#
# Static dielectric constant tensor:
#      x y z
#    x 2.049930 0.042140 -0.086470 
#    y 0.042140 1.789840 0.427490 
#    z -0.086470 0.427490 1.267070 
# 
# From -- ./inp_files/540500.got.cif
#   From: 2010.05.17/outbox.cif.g08.bks.cpg/sg2_271_cif.got.tgz:540500.got - 2010.06.03 11:33:40.
