data_PCOD9082378
_publ_section_title
;
Structure prediction by ZEFSAII (Michael W. Deem and Ramdas Pophale) SiO2 
 PCOD9082378
Probable space group: P -1
;
_chemical_formula_sum "Si O2"
_cell_formula_units_Z 12
_cell_length_a 8.580852
_cell_length_b 6.052986
_cell_length_c 11.592159
_cell_angle_alpha 73.519292
_cell_angle_beta 129.456837
_cell_angle_gamma 110.463113
_cell_volume 433.966050
_symmetry_space_group_name_H-M "P -1"
_symmetry_group_IT_number 2
_symmetry_cell_setting 'triclinic'
loop_
_space_group_symop_operation_xyz
x,y,z
-x,-y,-z
loop_
_atom_site_type_symbol
_atom_site_label
_atom_site_fract_x
_atom_site_fract_y
_atom_site_fract_z
Si Si1 0.730813 0.528993 0.416127
Si Si2 0.206176 0.925223 0.347687
Si Si3 0.822036 0.909013 0.023602
Si Si4 0.849362 0.276679 0.310637
Si Si5 0.549923 0.874109 0.356779
Si Si6 0.186477 0.594394 0.982829
O O1 0.749096 0.467020 0.302125
O O2 0.108490 0.653115 0.810955
O O3 0.940955 0.716748 0.520911
O O4 0.523236 0.610966 0.336003
O O5 0.969725 0.898134 0.206419
O O6 0.307748 0.116971 0.461880
O O7 0.246253 0.691452 0.462971
O O8 0.351683 0.955807 0.298417
O O9 0.720948 0.638336 0.972894
O O10 0.715261 0.132257 0.966807
O O11 0.000000 0.000000 0.000000
O O12 0.682958 0.039544 0.298631
O O13 0.000000 0.500000 0.000000
#
# Coordination Sequence:
#
# PCOD9082378 Si02
#       6
#     2   2   2   2   2   2
#     4  10  19  33  54  82 117 151 191 237 294 354
#     4  10  20  35  54  84 117 156 195 234 298 357
#     4  10  21  38  61  87 109 152 206 248 281 343
#     4  10  20  32  53  86 114 147 196 240 295 342
#     4  10  21  33  53  85 122 154 185 241 302 355
#     4  10  21  37  61  86 111 151 202 248 287 338
#
# _framework density 27.651928999999999
#
# number of rings (size 3 to 8) (size 9 to 14) (size 15 to 20)
#    0.000    2.000    1.667    2.000    2.333    0.000 
#    0.000    0.000    0.000    8.000    0.000    0.000 
#    0.000    0.000    0.000    0.000    0.000    0.000 
#
# Total GULP energy -67002.341740 kJ/mol
# GULP energy per Si atom -5583.528478 kJ/mol
# Density = 2.758899 g / cm^3
# Si number density = 27.651929 Si / 1000 Ang^3
#
#
#
# Elastic Constant Matrix: (Units=GPa)
#
#
# Indices 1 2 3 4 5 6 
#
# 1 94.2652 42.6900 53.3177 -6.7920 -14.7250 -5.0478
# 2 42.6900 187.6808 35.8911 -4.6952 8.6901 -39.1982
# 3 53.3177 35.8911 103.7702 2.3739 -8.7600 1.3514
# 4 -6.7920 -4.6952 2.3739 40.5180 2.8430 -8.4723
# 5 -14.7250 8.6901 -8.7600 2.8430 51.4679 -5.8063
# 6 -5.0478 -39.1982 1.3514 -8.4723 -5.8063 54.1414
#
#
#
# Elastic Compliance Matrix: (Units=1/GPa)
#
#
# Indices 1 2 3 4 5 6 
#
# 1 0.016800 -0.002266 -0.007604 0.002936 0.003844 0.000988
# 2 -0.002266 0.007381 -0.001640 0.001792 -0.001678 0.005274
# 3 -0.007604 -0.001640 0.014244 -0.002883 0.000385 -0.002662
# 4 0.002936 0.001792 -0.002883 0.026807 -0.000785 0.005754
# 5 0.003844 -0.001678 0.000385 -0.000785 0.021065 0.001270
# 6 0.000988 0.005274 -0.002662 0.005754 0.001270 0.023484
#
#
# Mechanical properties :
#
#
# Convention : Reuss Voigt Hill
#
# Bulk Modulus (GPa) = 64.90960 72.16821 68.53891
# Shear Modulus (GPa) = 36.24860 46.14660 41.19760
#
# Velocity S-wave (km/s) = 3.62455 4.08957 3.86406
# Velocity P-wave (km/s) = 6.40634 6.96096 6.68940
#
# Compressibility (1/GPa) = 0.01540604
#
# Stress axis : x y z
#
# Youngs Moduli (GPa) = 59.52323 135.47830 70.20474
#
# Poissons Ratio (x) = 0.30693 0.53383
# Poissons Ratio (y) = 0.13485 0.11515
# Poissons Ratio (z) = 0.45261 0.22222
#
# Static dielectric constant tensor:
#      x y z
#    x 2.110590 -0.038510 0.016880 
#    y -0.038510 2.311150 0.028160 
#    z 0.016880 0.028160 2.258450 
# 
# From -- ./inp_files/91418.got.cif
#   From: 2010.05.17/outbox.cif.g08.bks.cpg/sg2_46_cif.got.tgz:91418.got - 2010.06.03 11:33:40.
