data_PCOD9082064
_publ_section_title
;
Structure prediction by ZEFSAII (Michael W. Deem and Ramdas Pophale) SiO2 
 PCOD9082064
Probable space group: P -1
;
_chemical_formula_sum "Si O2"
_cell_formula_units_Z 16
_cell_length_a 11.027824
_cell_length_b 5.268961
_cell_length_c 12.302649
_cell_angle_alpha 102.693411
_cell_angle_beta 84.156362
_cell_angle_gamma 89.763785
_cell_volume 693.494036
_symmetry_space_group_name_H-M "P -1"
_symmetry_group_IT_number 2
_symmetry_cell_setting 'triclinic'
loop_
_space_group_symop_operation_xyz
x,y,z
-x,-y,-z
loop_
_atom_site_type_symbol
_atom_site_label
_atom_site_fract_x
_atom_site_fract_y
_atom_site_fract_z
Si Si1 0.429905 0.662854 0.612126
Si Si2 0.312449 0.260376 0.335066
Si Si3 0.653680 0.260805 0.042183
Si Si4 0.769360 0.553766 0.252364
Si Si5 0.003361 0.551495 0.632196
Si Si6 0.044775 0.069547 0.683908
Si Si7 0.362438 0.312058 0.091538
Si Si8 0.758018 0.156714 0.518809
O O1 0.500000 0.500000 0.500000
O O2 0.540114 0.787224 0.676622
O O3 0.358538 0.461798 0.675259
O O4 0.340955 0.858019 0.572148
O O5 0.296705 0.283868 0.209986
O O6 0.260131 0.538709 0.415221
O O7 0.267500 0.034855 0.397423
O O8 0.744541 0.373799 0.134808
O O9 0.510603 0.317630 0.089951
O O10 0.674392 0.427281 0.946457
O O11 0.665357 0.951129 0.997233
O O12 0.859024 0.447459 0.330410
O O13 0.847283 0.810080 0.241341
O O14 0.000000 0.500000 0.500000
O O15 0.043031 0.694017 0.322733
O O16 0.960999 0.833964 0.700779
O O17 0.118969 0.959982 0.560729
#
# Coordination Sequence:
#
# PCOD9082064 Si02
#       8
#     2   2   2   2   2   2   2   2
#     4  10  19  33  46  76 105 149 176 209 244 315
#     4  11  21  33  50  70 108 143 185 217 255 289
#     4  10  21  35  51  69 100 142 190 219 262 291
#     4  10  21  34  56  75 110 143 178 214 261 309
#     4  10  21  36  55  77 109 138 168 215 269 323
#     4  10  20  34  53  78 108 137 167 208 265 324
#     4  10  21  36  48  71 100 143 188 230 246 293
#     4  11  20  34  49  76 104 143 176 212 256 319
#
# _framework density 23.071573000000001
#
# number of rings (size 3 to 8) (size 9 to 14) (size 15 to 20)
#    0.750    1.000    2.500    3.750    1.750    1.000 
#    2.250    0.000    0.000    0.000    0.000    0.000 
#    0.000   20.000    0.000    0.000    0.000    0.000 
#
# Total GULP energy -89116.765769 kJ/mol
# GULP energy per Si atom -5569.797861 kJ/mol
# Density = 2.301906 g / cm^3
# Si number density = 23.071573 Si / 1000 Ang^3
#
#
#
# Elastic Constant Matrix: (Units=GPa)
#
#
# Indices 1 2 3 4 5 6 
#
# 1 80.5873 22.3751 23.0673 -4.1668 14.0316 2.0803
# 2 22.3751 154.9706 14.7954 0.2035 6.5264 22.9462
# 3 23.0673 14.7954 88.2037 1.8281 13.5417 15.7227
# 4 -4.1668 0.2035 1.8281 28.8845 15.0233 3.8598
# 5 14.0316 6.5264 13.5417 15.0233 30.5259 2.0559
# 6 2.0803 22.9462 15.7227 3.8598 2.0559 29.8235
#
#
#
# Elastic Compliance Matrix: (Units=1/GPa)
#
#
# Indices 1 2 3 4 5 6 
#
# 1 0.015622 -0.001842 -0.002800 0.006958 -0.009072 0.001528
# 2 -0.001842 0.007611 0.000417 0.001006 -0.001056 -0.006005
# 3 -0.002800 0.000417 0.014209 0.002816 -0.005981 -0.007568
# 4 0.006958 0.001006 0.002816 0.051873 -0.029693 -0.007411
# 5 -0.009072 -0.001056 -0.005981 -0.029693 0.054104 0.004712
# 6 0.001528 -0.006005 -0.007568 -0.007411 0.004712 0.042668
#
#
# Mechanical properties :
#
#
# Convention : Reuss Voigt Hill
#
# Bulk Modulus (GPa) = 34.49340 49.35970 41.92655
# Shear Modulus (GPa) = 24.48562 35.41503 29.95033
#
# Velocity S-wave (km/s) = 3.26128 3.92217 3.60689
# Velocity P-wave (km/s) = 5.40040 6.47702 5.96306
#
# Compressibility (1/GPa) = 0.02899105
#
# Stress axis : x y z
#
# Youngs Moduli (GPa) = 64.01355 131.38518 70.37866
#
# Poissons Ratio (x) = 0.24195 0.19709
# Poissons Ratio (y) = 0.11788 -0.02932
# Poissons Ratio (z) = 0.17926 -0.05473
#
# Static dielectric constant tensor:
#      x y z
#    x 2.028410 0.046650 0.127940 
#    y 0.046650 2.070100 0.011340 
#    z 0.127940 0.011340 1.891440 
# 
# From -- ./inp_files/100176.got.cif
#   From: 2010.05.17/outbox.cif.g08.bks.cpg/sg2_51_cif.got.tgz:100176.got - 2010.06.03 11:33:40.
