data_PCOD9082586
_publ_section_title
;
Structure prediction by ZEFSAII (Michael W. Deem and Ramdas Pophale) SiO2 
 PCOD9082586
Probable space group: P -1
;
_chemical_formula_sum "Si O2"
_cell_formula_units_Z 16
_cell_length_a 11.483789
_cell_length_b 6.881150
_cell_length_c 17.849369
_cell_angle_alpha 41.994103
_cell_angle_beta 123.916071
_cell_angle_gamma 114.413420
_cell_volume 783.126001
_symmetry_space_group_name_H-M "P -1"
_symmetry_group_IT_number 2
_symmetry_cell_setting 'triclinic'
loop_
_space_group_symop_operation_xyz
x,y,z
-x,-y,-z
loop_
_atom_site_type_symbol
_atom_site_label
_atom_site_fract_x
_atom_site_fract_y
_atom_site_fract_z
Si Si1 0.030506 0.222892 0.511324
Si Si2 0.073527 0.892869 0.981914
Si Si3 0.616444 0.942821 0.932515
Si Si4 0.949265 0.780030 0.818032
Si Si5 0.546047 0.392022 0.143319
Si Si6 0.409892 0.448625 0.723317
Si Si7 0.219778 0.906453 0.790576
Si Si8 0.200106 0.731438 0.465196
O O1 0.126476 0.500209 0.449129
O O2 0.887811 0.306603 0.478068
O O3 0.118397 0.050645 0.652904
O O4 0.000000 0.000000 0.500000
O O5 0.100564 0.547126 0.094752
O O6 0.223500 0.047630 0.987817
O O7 0.974835 0.937367 0.861567
O O8 0.000000 0.000000 0.000000
O O9 0.585145 0.786613 0.885966
O O10 0.551856 0.265176 0.812962
O O11 0.534796 0.733178 0.021970
O O12 0.109248 0.757935 0.848747
O O13 0.842531 0.960963 0.674670
O O14 0.573928 0.363140 0.249462
O O15 0.673600 0.281756 0.167598
O O16 0.352595 0.629443 0.578817
O O17 0.302418 0.179890 0.776642
#
# Coordination Sequence:
#
# PCOD9082586 Si02
#       8
#     2   2   2   2   2   2   2   2
#     4   9  16  27  48  78 114 146 173 213 260 318
#     4  11  24  41  59  78 104 142 190 237 277 322
#     4  10  22  35  53  83 110 140 187 226 270 325
#     4  10  22  38  58  81 110 145 183 231 275 321
#     4  10  19  33  56  83 114 147 175 218 274 325
#     4  10  19  34  56  82 116 145 172 219 270 329
#     4   9  18  31  51  84 112 138 176 213 266 326
#     4   9  19  33  51  81 111 143 182 216 271 331
#
# _framework density 20.430941000000001
#
# number of rings (size 3 to 8) (size 9 to 14) (size 15 to 20)
#    0.000    2.250    0.000    3.375    0.000    7.000 
#    0.000    0.625    0.000    1.500    0.000    0.000 
#    0.000    0.000    0.000    0.000    0.000    0.000 
#
# Total GULP energy -89146.651896 kJ/mol
# GULP energy per Si atom -5571.665744 kJ/mol
# Density = 2.038444 g / cm^3
# Si number density = 20.430941 Si / 1000 Ang^3
#
#
#
# Elastic Constant Matrix: (Units=GPa)
#
#
# Indices 1 2 3 4 5 6 
#
# 1 19.2250 13.5281 6.5166 2.0025 5.8277 -3.4718
# 2 13.5281 119.0167 15.4958 16.2034 -5.9526 -8.6142
# 3 6.5166 15.4958 93.4786 -0.3834 8.9284 -9.5992
# 4 2.0025 16.2034 -0.3834 21.1381 -1.8823 0.4348
# 5 5.8277 -5.9526 8.9284 -1.8823 22.9810 -5.4699
# 6 -3.4718 -8.6142 -9.5992 0.4348 -5.4699 26.2360
#
#
#
# Elastic Compliance Matrix: (Units=1/GPa)
#
#
# Indices 1 2 3 4 5 6 
#
# 1 0.063520 -0.007518 -0.001350 -0.001852 -0.017235 0.001881
# 2 -0.007518 0.010964 -0.001510 -0.007296 0.005527 0.003326
# 3 -0.001350 -0.001510 0.011700 0.001098 -0.003841 0.002787
# 4 -0.001852 -0.007296 0.001098 0.053319 0.001870 -0.002732
# 5 -0.017235 0.005527 -0.003841 0.001870 0.053146 0.009178
# 6 0.001881 0.003326 0.002787 -0.002732 0.009178 0.042435
#
#
# Mechanical properties :
#
#
# Convention : Reuss Voigt Hill
#
# Bulk Modulus (GPa) = 15.28398 33.64459 24.46429
# Shear Modulus (GPa) = 18.00840 27.14968 22.57904
#
# Velocity S-wave (km/s) = 2.97211 3.64930 3.32797
# Velocity P-wave (km/s) = 4.39032 5.85318 5.17371
#
# Compressibility (1/GPa) = 0.06542798
#
# Stress axis : x y z
#
# Youngs Moduli (GPa) = 15.74297 91.21058 85.47321
#
# Poissons Ratio (x) = 0.68572 0.11541
# Poissons Ratio (y) = 0.11835 0.12903
# Poissons Ratio (z) = 0.02126 0.13769
#
# Static dielectric constant tensor:
#      x y z
#    x 1.571520 0.139030 0.013540 
#    y 0.139030 1.662070 0.000110 
#    z 0.013540 0.000110 1.787570 
# 
# From -- ./inp_files/564363.got.cif
#   From: 2010.05.17/outbox.cif.g08.bks.cpg/sg2_283_cif.got.tgz:564363.got - 2010.06.03 11:33:40.
