data_PCOD9082820
_publ_section_title
;
Structure prediction by ZEFSAII (Michael W. Deem and Ramdas Pophale) SiO2 
 PCOD9082820
Probable space group: P -1
;
_chemical_formula_sum "Si O2"
_cell_formula_units_Z 16
_cell_length_a 15.154925
_cell_length_b 8.097320
_cell_length_c 6.829920
_cell_angle_alpha 106.123864
_cell_angle_beta 94.657188
_cell_angle_gamma 70.804250
_cell_volume 760.346150
_symmetry_space_group_name_H-M "P -1"
_symmetry_group_IT_number 2
_symmetry_cell_setting 'triclinic'
loop_
_space_group_symop_operation_xyz
x,y,z
-x,-y,-z
loop_
_atom_site_type_symbol
_atom_site_label
_atom_site_fract_x
_atom_site_fract_y
_atom_site_fract_z
Si Si1 0.599788 0.236090 0.526997
Si Si2 0.657548 0.841456 0.579125
Si Si3 0.525069 0.797395 0.861349
Si Si4 0.576370 0.600735 0.206919
Si Si5 0.999528 0.707440 0.386946
Si Si6 0.152504 0.412870 0.462186
Si Si7 0.940645 0.039448 0.200970
Si Si8 0.257477 0.690755 0.696982
O O1 0.555843 0.202616 0.303200
O O2 0.514645 0.383330 0.670758
O O3 0.692146 0.278694 0.485864
O O4 0.621705 0.055249 0.602418
O O5 0.615112 0.769030 0.732755
O O6 0.621130 0.747035 0.359550
O O7 0.767648 0.776346 0.615780
O O8 0.544169 0.665659 0.005823
O O9 0.500000 0.000000 0.000000
O O10 0.657347 0.407192 0.173037
O O11 0.920112 0.626320 0.415075
O O12 0.091488 0.532593 0.315512
O O13 0.024297 0.824925 0.608013
O O14 0.965199 0.847736 0.252776
O O15 0.208007 0.539652 0.600738
O O16 0.827918 0.134201 0.193584
O O17 0.000000 0.000000 0.000000
#
# Coordination Sequence:
#
# PCOD9082820 Si02
#       8
#     2   2   2   2   2   2   2   2
#     4  11  20  35  57  81 113 151 190 230 281 326
#     4  10  19  33  58  82 109 147 192 231 275 333
#     4  11  19  35  54  79 110 149 189 231 274 328
#     4  10  20  37  56  78 113 151 188 234 279 327
#     4   9  19  40  64  83 113 148 182 233 283 335
#     4   9  19  38  60  84 113 149 189 228 279 334
#     4  10  21  40  62  87 116 143 184 233 287 335
#     4  10  22  37  57  85 115 151 188 232 280 335
#
# _framework density 21.043049
#
# number of rings (size 3 to 8) (size 9 to 14) (size 15 to 20)
#    0.000    2.000    2.500    1.875    0.000    1.500 
#    2.250    9.375    0.000    0.000    0.000    0.000 
#    0.000    0.000    0.000    0.000    0.000    0.000 
#
# Total GULP energy -89259.103313 kJ/mol
# GULP energy per Si atom -5578.693957 kJ/mol
# Density = 2.099515 g / cm^3
# Si number density = 21.043049 Si / 1000 Ang^3
#
#
#
# Elastic Constant Matrix: (Units=GPa)
#
#
# Indices 1 2 3 4 5 6 
#
# 1 121.9809 55.2877 31.8911 -9.7203 -18.8700 -17.0393
# 2 55.2877 128.7340 47.5746 -25.1093 -8.3365 -26.3656
# 3 31.8911 47.5746 78.8639 -20.8009 -8.3843 -7.1946
# 4 -9.7203 -25.1093 -20.8009 26.1942 9.5849 -2.5133
# 5 -18.8700 -8.3365 -8.3843 9.5849 14.3822 0.6339
# 6 -17.0393 -26.3656 -7.1946 -2.5133 0.6339 47.8540
#
#
#
# Elastic Compliance Matrix: (Units=1/GPa)
#
#
# Indices 1 2 3 4 5 6 
#
# 1 0.013635 -0.005222 -0.002606 -0.008995 0.019300 0.000858
# 2 -0.005222 0.014679 -0.003642 0.013412 -0.009691 0.006513
# 3 -0.002606 -0.003642 0.018711 0.011226 -0.002126 0.000496
# 4 -0.008995 0.013412 0.011226 0.075199 -0.048060 0.010461
# 5 0.019300 -0.009691 -0.002126 -0.048060 0.120154 -0.002903
# 6 0.000858 0.006513 0.000496 0.010461 -0.002903 0.025454
#
#
# Mechanical properties :
#
#
# Convention : Reuss Voigt Hill
#
# Bulk Modulus (GPa) = 41.51884 66.56507 54.04196
# Shear Modulus (GPa) = 16.73362 30.67442 23.70402
#
# Velocity S-wave (km/s) = 2.82300 3.82212 3.35991
# Velocity P-wave (km/s) = 5.51354 7.15400 6.38665
#
# Compressibility (1/GPa) = 0.02408545
#
# Stress axis : x y z
#
# Youngs Moduli (GPa) = 73.34182 68.12520 53.44399
#
# Poissons Ratio (x) = 0.35572 0.13928
# Poissons Ratio (y) = 0.38296 0.19465
# Poissons Ratio (z) = 0.19114 0.24811
#
# Static dielectric constant tensor:
#      x y z
#    x 1.806040 -0.016110 -0.033080 
#    y -0.016110 1.813860 -0.004740 
#    z -0.033080 -0.004740 1.825150 
# 
# From -- ./inp_files/90736.got.cif
#   From: 2010.05.17/outbox.cif.g08.bks.cpg/sg2_46_cif.got.tgz:90736.got - 2010.06.03 11:33:40.
