data_PCOD9082875
_publ_section_title
;
Structure prediction by ZEFSAII (Michael W. Deem and Ramdas Pophale) SiO2 
 PCOD9082875
Probable space group: P -1
;
_chemical_formula_sum "Si O2"
_cell_formula_units_Z 16
_cell_length_a 10.051652
_cell_length_b 18.049021
_cell_length_c 11.072155
_cell_angle_alpha 51.003370
_cell_angle_beta 46.374446
_cell_angle_gamma 30.324161
_cell_volume 731.006495
_symmetry_space_group_name_H-M "P -1"
_symmetry_group_IT_number 2
_symmetry_cell_setting 'triclinic'
loop_
_space_group_symop_operation_xyz
x,y,z
-x,-y,-z
loop_
_atom_site_type_symbol
_atom_site_label
_atom_site_fract_x
_atom_site_fract_y
_atom_site_fract_z
Si Si1 0.203482 0.510756 0.345490
Si Si2 0.980157 0.809268 0.206907
Si Si3 0.901519 0.014935 0.411033
Si Si4 0.681986 0.429448 0.285388
Si Si5 0.199303 0.740610 0.388763
Si Si6 0.670184 0.277986 0.124344
Si Si7 0.099164 0.245689 0.017580
Si Si8 0.512773 0.045423 0.771040
O O1 0.025337 0.677866 0.296364
O O2 0.467844 0.434782 0.350162
O O3 0.354945 0.429879 0.205646
O O4 0.000000 0.500000 0.500000
O O5 0.967887 0.829482 0.335765
O O6 0.708853 0.941981 0.160310
O O7 0.247910 0.757411 0.030972
O O8 0.164804 0.859045 0.342048
O O9 0.775712 0.146637 0.270768
O O10 0.647129 0.043896 0.573879
O O11 0.000000 0.000000 0.500000
O O12 0.484452 0.589984 0.300153
O O13 0.834226 0.316646 0.417609
O O14 0.912494 0.375456 0.099850
O O15 0.862011 0.288715 0.041241
O O16 0.252537 0.102684 0.147200
O O17 0.341295 0.179668 0.837455
#
# Coordination Sequence:
#
# PCOD9082875 Si02
#       8
#     2   2   2   2   2   2   2   2
#     4  10  19  36  62  90 114 146 197 247 290 344
#     4  10  22  36  55  86 119 159 191 237 296 346
#     4  12  21  36  59  87 112 152 202 245 293 339
#     4   9  18  38  61  85 118 153 195 239 295 353
#     4  10  21  36  58  83 117 158 196 236 294 361
#     4  10  20  35  57  83 119 156 194 244 288 343
#     4   9  17  35  59  87 110 149 195 244 291 335
#     4  10  19  33  58  89 114 143 195 246 285 340
#
# _framework density 21.887630000000001
#
# number of rings (size 3 to 8) (size 9 to 14) (size 15 to 20)
#    0.000    2.000    2.500    1.875    0.000    2.000 
#    0.000    0.000    0.000    1.500    0.000    0.000 
#    0.000    0.000    0.000    0.000    0.000    0.000 
#
# Total GULP energy -89092.030103 kJ/mol
# GULP energy per Si atom -5568.251881 kJ/mol
# Density = 2.183781 g / cm^3
# Si number density = 21.887630 Si / 1000 Ang^3
#
#
#
# Elastic Constant Matrix: (Units=GPa)
#
#
# Indices 1 2 3 4 5 6 
#
# 1 63.8339 18.2473 31.9683 5.2833 21.9316 -0.1898
# 2 18.2473 69.2871 20.6214 9.9996 4.3538 17.9476
# 3 31.9683 20.6214 86.8869 3.5172 13.2587 1.1707
# 4 5.2833 9.9996 3.5172 39.8040 -5.0761 4.7852
# 5 21.9316 4.3538 13.2587 -5.0761 34.2506 0.9132
# 6 -0.1898 17.9476 1.1707 4.7852 0.9132 30.8120
#
#
#
# Elastic Compliance Matrix: (Units=1/GPa)
#
#
# Indices 1 2 3 4 5 6 
#
# 1 0.024983 -0.004406 -0.005931 -0.003925 -0.013829 0.003965
# 2 -0.004406 0.019612 -0.002995 -0.002580 0.001398 -0.010978
# 3 -0.005931 -0.002995 0.014623 -0.000093 -0.001528 0.001212
# 4 -0.003925 -0.002580 -0.000093 0.027560 0.007042 -0.003007
# 5 -0.013829 0.001398 -0.001528 0.007042 0.039592 -0.003108
# 6 0.003965 -0.010978 0.001212 -0.003007 -0.003108 0.039387
#
#
# Mechanical properties :
#
#
# Convention : Reuss Voigt Hill
#
# Bulk Modulus (GPa) = 30.71645 40.18689 35.45167
# Shear Modulus (GPa) = 24.59757 30.91806 27.75781
#
# Velocity S-wave (km/s) = 3.35597 3.76251 3.56504
# Velocity P-wave (km/s) = 5.39267 6.10538 5.76006
#
# Compressibility (1/GPa) = 0.03255585
#
# Stress axis : x y z
#
# Youngs Moduli (GPa) = 40.02687 50.98792 68.38692
#
# Poissons Ratio (x) = 0.22465 0.40558
# Poissons Ratio (y) = 0.17636 0.20479
# Poissons Ratio (z) = 0.23738 0.15269
#
# Static dielectric constant tensor:
#      x y z
#    x 1.863740 -0.036820 -0.017510 
#    y -0.036820 1.878440 0.064970 
#    z -0.017510 0.064970 1.890010 
# 
# From -- ./inp_files/438054.got.cif
#   From: 2010.05.17/outbox.cif.g08.bks.cpg/sg2_220_cif.got.tgz:438054.got - 2010.06.03 11:33:40.
