data_PCOD9082569
_publ_section_title
;
Structure prediction by ZEFSAII (Michael W. Deem and Ramdas Pophale) SiO2 
 PCOD9082569
Probable space group: P -1
;
_chemical_formula_sum "Si O2"
_cell_formula_units_Z 16
_cell_length_a 21.713424
_cell_length_b 12.454485
_cell_length_c 21.892781
_cell_angle_alpha 152.000357
_cell_angle_beta 20.863606
_cell_angle_gamma 153.313922
_cell_volume 903.198365
_symmetry_space_group_name_H-M "P -1"
_symmetry_group_IT_number 2
_symmetry_cell_setting 'triclinic'
loop_
_space_group_symop_operation_xyz
x,y,z
-x,-y,-z
loop_
_atom_site_type_symbol
_atom_site_label
_atom_site_fract_x
_atom_site_fract_y
_atom_site_fract_z
Si Si1 0.553569 0.317155 0.475944
Si Si2 0.865342 0.729007 0.192452
Si Si3 0.993693 0.944837 0.884910
Si Si4 0.836601 0.596364 0.956367
Si Si5 0.624166 0.143110 0.514509
Si Si6 0.410207 0.426909 0.300461
Si Si7 0.934740 0.626605 0.209646
Si Si8 0.880363 0.106605 0.705363
O O1 0.355851 0.331352 0.645888
O O2 0.627484 0.483918 0.553029
O O3 0.726891 0.424754 0.322258
O O4 0.489807 0.024932 0.407049
O O5 0.906264 0.758178 0.240965
O O6 0.998612 0.965532 0.146499
O O7 0.925177 0.507892 0.003834
O O8 0.180554 0.887854 0.687761
O O9 0.837559 0.706911 0.943562
O O10 0.017636 0.181653 0.024854
O O11 0.877919 0.352216 0.799155
O O12 0.634890 0.530056 0.139986
O O13 0.654223 0.427839 0.619042
O O14 0.500000 0.000000 0.500000
O O15 0.319988 0.130928 0.225367
O O16 0.028416 0.811053 0.271482
O O17 0.000000 0.000000 0.500000
#
# Coordination Sequence:
#
# PCOD9082569 Si02
#       8
#     2   2   2   2   2   2   2   2
#     4  10  19  35  57  86 112 141 187 238 282 324
#     4  10  21  38  56  88 112 143 192 236 281 334
#     4  10  19  33  56  82 114 132 187 241 282 325
#     4  11  21  32  56  83 111 147 178 241 284 323
#     4   9  17  30  52  81 110 141 176 235 282 327
#     4  11  20  34  54  84 119 144 181 228 287 347
#     4  11  22  36  60  81 114 155 184 231 284 329
#     4  12  23  36  53  81 118 152 187 218 283 347
#
# _framework density 17.714822999999999
#
# number of rings (size 3 to 8) (size 9 to 14) (size 15 to 20)
#    0.000    1.500    6.250    1.500    3.500    0.000 
#    0.000    0.000    0.000    7.500    0.000    0.000 
#    0.000    0.000    0.000    0.000    0.000    0.000 
#
# Total GULP energy -89191.210077 kJ/mol
# GULP energy per Si atom -5574.450630 kJ/mol
# Density = 1.767450 g / cm^3
# Si number density = 17.714823 Si / 1000 Ang^3
#
#
#
# Elastic Constant Matrix: (Units=GPa)
#
#
# Indices 1 2 3 4 5 6 
#
# 1 89.5110 33.7589 12.1395 6.5149 1.7362 -20.6247
# 2 33.7589 95.6057 17.1826 11.7148 0.9810 -18.8807
# 3 12.1395 17.1826 53.3091 13.4494 -1.4065 -8.1680
# 4 6.5149 11.7148 13.4494 31.6184 -8.2403 -0.7851
# 5 1.7362 0.9810 -1.4065 -8.2403 23.8249 0.4190
# 6 -20.6247 -18.8807 -8.1680 -0.7851 0.4190 27.9340
#
#
#
# Elastic Compliance Matrix: (Units=1/GPa)
#
#
# Indices 1 2 3 4 5 6 
#
# 1 0.014538 -0.003120 -0.000598 -0.001832 -0.001748 0.008425
# 2 -0.003120 0.013635 -0.001756 -0.004010 -0.001936 0.006316
# 3 -0.000598 -0.001756 0.022435 -0.009121 -0.001797 0.004702
# 4 -0.001832 -0.004010 -0.009121 0.040874 0.013999 -0.005791
# 5 -0.001748 -0.001936 -0.001797 0.013999 0.046976 -0.003435
# 6 0.008425 0.006316 0.004702 -0.005791 -0.003435 0.047552
#
#
# Mechanical properties :
#
#
# Convention : Reuss Voigt Hill
#
# Bulk Modulus (GPa) = 25.21449 40.50975 32.86212
# Shear Modulus (GPa) = 23.78926 28.36510 26.07718
#
# Velocity S-wave (km/s) = 3.66854 4.00585 3.84090
# Velocity P-wave (km/s) = 5.67527 6.65681 6.18554
#
# Compressibility (1/GPa) = 0.03965974
#
# Stress axis : x y z
#
# Youngs Moduli (GPa) = 68.78509 73.33915 44.57344
#
# Poissons Ratio (x) = 0.22880 0.02666
# Poissons Ratio (y) = 0.21459 0.07828
# Poissons Ratio (z) = 0.04115 0.12881
#
# Static dielectric constant tensor:
#      x y z
#    x 1.615040 -0.037080 -0.015090 
#    y -0.037080 1.671740 -0.013460 
#    z -0.015090 -0.013460 1.627330 
# 
# From -- ./inp_files/254695.got.cif
#   From: 2010.05.17/outbox.cif.g08.bks.cpg/sg2_128_cif.got.tgz:254695.got - 2010.06.03 11:33:40.
