data_PCOD9082209
_publ_section_title
;
Structure prediction by ZEFSAII (Michael W. Deem and Ramdas Pophale) SiO2 
 PCOD9082209
Probable space group: P -1
;
_chemical_formula_sum "Si O2"
_cell_formula_units_Z 14
_cell_length_a 8.200616
_cell_length_b 11.937439
_cell_length_c 10.923992
_cell_angle_alpha 127.931243
_cell_angle_beta 119.808010
_cell_angle_gamma 99.552196
_cell_volume 530.475126
_symmetry_space_group_name_H-M "P -1"
_symmetry_group_IT_number 2
_symmetry_cell_setting 'triclinic'
loop_
_space_group_symop_operation_xyz
x,y,z
-x,-y,-z
loop_
_atom_site_type_symbol
_atom_site_label
_atom_site_fract_x
_atom_site_fract_y
_atom_site_fract_z
Si Si1 0.149999 0.704260 0.523769
Si Si2 0.561841 0.582266 0.806393
Si Si3 0.654628 0.897755 0.194722
Si Si4 0.923728 0.078925 0.926741
Si Si5 0.897829 0.617577 0.635493
Si Si6 0.088357 0.406864 0.897037
Si Si7 0.210112 0.035315 0.450905
O O1 0.036188 0.665425 0.590000
O O2 0.946137 0.599997 0.265712
O O3 0.237213 0.586648 0.486114
O O4 0.341704 0.935340 0.727302
O O5 0.341006 0.412450 0.520714
O O6 0.498875 0.703724 0.924758
O O7 0.814716 0.746797 0.932266
O O8 0.641938 0.514747 0.897006
O O9 0.960384 0.009529 0.360365
O O10 0.601713 0.843456 0.282343
O O11 0.723267 0.932876 0.646872
O O12 0.892756 0.205449 0.077892
O O13 0.000000 0.000000 0.000000
O O14 0.889231 0.176236 0.701850
O O15 0.000000 0.500000 0.000000
#
# Coordination Sequence:
#
# PCOD9082209 Si02
#       7
#     2   2   2   2   2   2   2
#     4  10  20  34  55  76 107 147 177 212 259 322
#     4  10  21  34  54  81 109 136 176 228 260 306
#     4   8  15  32  52  74  98 136 179 209 259 307
#     4  10  19  33  53  74 104 143 177 211 261 321
#     4  11  22  34  50  83 114 135 174 221 268 311
#     4   9  17  33  55  76 101 140 181 215 260 311
#     4   8  15  28  51  74  96 132 181 215 241 311
#
# _framework density 26.391435999999999
#
# number of rings (size 3 to 8) (size 9 to 14) (size 15 to 20)
#    0.000    2.857    0.000    4.714    0.000    1.143 
#    0.000    0.000    0.000    0.000    0.000   28.000 
#    0.000    0.000    0.000    0.000    0.000    0.000 
#
# Total GULP energy -78207.891932 kJ/mol
# GULP energy per Si atom -5586.277995 kJ/mol
# Density = 2.633137 g / cm^3
# Si number density = 26.391436 Si / 1000 Ang^3
#
#
#
# Elastic Constant Matrix: (Units=GPa)
#
#
# Indices 1 2 3 4 5 6 
#
# 1 60.6906 39.1555 51.2078 -1.4274 -24.3457 6.2199
# 2 39.1555 177.2090 53.6445 -10.6766 -20.0734 1.6289
# 3 51.2078 53.6445 140.7105 -17.7623 -30.6304 4.3567
# 4 -1.4274 -10.6766 -17.7623 45.1036 6.1836 -18.2536
# 5 -24.3457 -20.0734 -30.6304 6.1836 42.2849 -5.0524
# 6 6.2199 1.6289 4.3567 -18.2536 -5.0524 32.1125
#
#
#
# Elastic Compliance Matrix: (Units=1/GPa)
#
#
# Indices 1 2 3 4 5 6 
#
# 1 0.030202 -0.003430 -0.008207 -0.007366 0.010036 -0.007170
# 2 -0.003430 0.006871 -0.001124 0.001603 0.000411 0.001444
# 3 -0.008207 -0.001124 0.011679 0.005050 0.002867 0.003384
# 4 -0.007366 0.001603 0.005050 0.032135 -0.002303 0.018564
# 5 0.010036 0.000411 0.002867 -0.002303 0.032204 0.001404
# 6 -0.007170 0.001444 0.003384 0.018564 0.001404 0.042770
#
#
# Mechanical properties :
#
#
# Convention : Reuss Voigt Hill
#
# Bulk Modulus (GPa) = 43.04747 74.06952 58.55849
# Shear Modulus (GPa) = 26.43748 39.54037 32.98893
#
# Velocity S-wave (km/s) = 3.16847 3.87489 3.53935
# Velocity P-wave (km/s) = 5.45272 6.93876 6.24013
#
# Compressibility (1/GPa) = 0.02323017
#
# Stress axis : x y z
#
# Youngs Moduli (GPa) = 33.11063 145.53696 85.62602
#
# Poissons Ratio (x) = 0.49919 0.70269
# Poissons Ratio (y) = 0.11357 0.09626
# Poissons Ratio (z) = 0.27172 0.16361
#
# Static dielectric constant tensor:
#      x y z
#    x 2.165440 -0.039860 0.000230 
#    y -0.039860 2.025010 -0.013210 
#    z 0.000230 -0.013210 2.135120 
# 
# From -- ./inp_files/391487.got.cif
#   From: 2010.05.17/outbox.cif.g08.bks.cpg/sg2_196_cif.got.tgz:391487.got - 2010.06.03 11:33:40.
