data_PCOD9082496
_publ_section_title
;
Structure prediction by ZEFSAII (Michael W. Deem and Ramdas Pophale) SiO2 
 PCOD9082496
Probable space group: P -1
;
_chemical_formula_sum "Si O2"
_cell_formula_units_Z 16
_cell_length_a 23.425936
_cell_length_b 5.158914
_cell_length_c 8.695578
_cell_angle_alpha 87.965078
_cell_angle_beta 128.575934
_cell_angle_gamma 90.834691
_cell_volume 821.003939
_symmetry_space_group_name_H-M "P -1"
_symmetry_group_IT_number 2
_symmetry_cell_setting 'triclinic'
loop_
_space_group_symop_operation_xyz
x,y,z
-x,-y,-z
loop_
_atom_site_type_symbol
_atom_site_label
_atom_site_fract_x
_atom_site_fract_y
_atom_site_fract_z
Si Si1 0.834453 0.720222 0.537505
Si Si2 0.541693 0.575859 0.223299
Si Si3 0.035727 0.057701 0.815341
Si Si4 0.392684 0.804157 0.067525
Si Si5 0.336952 0.313090 0.795935
Si Si6 0.092698 0.771067 0.207545
Si Si7 0.453420 0.748109 0.470064
Si Si8 0.062725 0.293798 0.563076
O O1 0.747983 0.717095 0.378749
O O2 0.865405 0.499788 0.708247
O O3 0.870114 0.635575 0.434677
O O4 0.862257 0.999780 0.637154
O O5 0.616731 0.692287 0.284710
O O6 0.557916 0.332975 0.369546
O O7 0.500000 0.500000 0.000000
O O8 0.479991 0.766957 0.185629
O O9 0.979576 0.906658 0.614054
O O10 0.087336 0.186845 0.772874
O O11 0.074564 0.868204 0.004336
O O12 0.984605 0.245931 0.829624
O O13 0.353448 0.580336 0.908535
O O14 0.366510 0.080630 0.957445
O O15 0.384541 0.767573 0.238479
O O16 0.500000 0.500000 0.500000
O O17 0.500000 0.000000 0.500000
O O18 0.000000 0.500000 0.500000
#
# Coordination Sequence:
#
# PCOD9082496 Si02
#       8
#     2   2   2   2   2   2   2   2
#     4  11  23  38  56  82 118 151 185 235 286 342
#     4   9  19  35  59  85 108 144 189 230 268 330
#     4   9  20  34  58  87 108 144 190 241 275 335
#     4  10  20  37  58  81 109 146 190 228 274 330
#     4  11  22  38  56  81 113 151 185 227 284 331
#     4  10  21  37  58  83 114 145 188 234 288 331
#     4  10  19  33  55  85 111 135 178 235 276 313
#     4  10  19  35  58  85 110 146 194 232 280 331
#
# _framework density 19.488333999999998
#
# number of rings (size 3 to 8) (size 9 to 14) (size 15 to 20)
#    0.000    2.000    1.250    3.375    1.750    4.500 
#    0.000    2.500    0.000    0.000    0.000    0.000 
#    0.000    0.000    0.000    0.000    0.000    0.000 
#
# Total GULP energy -89141.183649 kJ/mol
# GULP energy per Si atom -5571.323978 kJ/mol
# Density = 1.944398 g / cm^3
# Si number density = 19.488334 Si / 1000 Ang^3
#
#
#
# Elastic Constant Matrix: (Units=GPa)
#
#
# Indices 1 2 3 4 5 6 
#
# 1 83.7093 7.1803 55.2650 -10.8448 2.6674 17.5089
# 2 7.1803 61.1543 2.4333 -9.6355 -1.4264 5.2996
# 3 55.2650 2.4333 95.4097 -20.9313 -20.7237 21.3653
# 4 -10.8448 -9.6355 -20.9313 35.4069 2.9283 -4.2239
# 5 2.6674 -1.4264 -20.7237 2.9283 35.8847 0.9962
# 6 17.5089 5.2996 21.3653 -4.2239 0.9962 21.4122
#
#
#
# Elastic Compliance Matrix: (Units=1/GPa)
#
#
# Indices 1 2 3 4 5 6 
#
# 1 0.022890 -0.002420 -0.015302 -0.002168 -0.010380 -0.002795
# 2 -0.002420 0.017908 0.004052 0.005627 0.002926 -0.005522
# 3 -0.015302 0.004052 0.028905 0.010119 0.017614 -0.016155
# 4 -0.002168 0.005627 0.010119 0.034434 0.003505 -0.003087
# 5 -0.010380 0.002926 0.017614 0.003505 0.038945 -0.010932
# 6 -0.002795 -0.005522 -0.016155 -0.003087 -0.010932 0.066374
#
#
# Mechanical properties :
#
#
# Convention : Reuss Voigt Hill
#
# Bulk Modulus (GPa) = 23.60549 41.11449 32.35999
# Shear Modulus (GPa) = 19.92685 30.23374 25.08030
#
# Velocity S-wave (km/s) = 3.20113 3.94302 3.59128
# Velocity P-wave (km/s) = 5.07955 6.47091 5.81698
#
# Compressibility (1/GPa) = 0.04236303
#
# Stress axis : x y z
#
# Youngs Moduli (GPa) = 43.68651 55.83972 34.59657
#
# Poissons Ratio (x) = 0.13515 0.52938
# Poissons Ratio (y) = 0.10573 -0.14018
# Poissons Ratio (z) = 0.66847 -0.22625
#
# Static dielectric constant tensor:
#      x y z
#    x 1.751400 0.011670 -0.066280 
#    y 0.011670 1.728320 0.002890 
#    z -0.066280 0.002890 1.726180 
# 
# From -- ./inp_files/42061.got.cif
#   From: 2010.05.17/outbox.cif.g08.bks.cpg/sg2_22_cif.got.tgz:42061.got - 2010.06.03 11:33:40.
