data_PCOD9082891
_publ_section_title
;
Structure prediction by ZEFSAII (Michael W. Deem and Ramdas Pophale) SiO2 
 PCOD9082891
Probable space group: P -1
;
_chemical_formula_sum "Si O2"
_cell_formula_units_Z 14
_cell_length_a 11.064303
_cell_length_b 9.183479
_cell_length_c 8.231077
_cell_angle_alpha 110.906960
_cell_angle_beta 108.907951
_cell_angle_gamma 50.978468
_cell_volume 601.271526
_symmetry_space_group_name_H-M "P -1"
_symmetry_group_IT_number 2
_symmetry_cell_setting 'triclinic'
loop_
_space_group_symop_operation_xyz
x,y,z
-x,-y,-z
loop_
_atom_site_type_symbol
_atom_site_label
_atom_site_fract_x
_atom_site_fract_y
_atom_site_fract_z
Si Si1 0.780354 0.276308 0.134192
Si Si2 0.338483 0.338446 0.927235
Si Si3 0.754427 0.050686 0.485957
Si Si4 0.486593 0.628502 0.696006
Si Si5 0.128187 0.276778 0.989763
Si Si6 0.013555 0.911134 0.282263
Si Si7 0.679687 0.041016 0.804311
O O1 0.766440 0.459406 0.131743
O O2 0.630206 0.367555 0.223701
O O3 0.930279 0.121329 0.247191
O O4 0.755261 0.153377 0.944171
O O5 0.250267 0.240576 0.888054
O O6 0.498996 0.188844 0.840192
O O7 0.380537 0.389567 0.140103
O O8 0.611964 0.161909 0.345368
O O9 0.707922 0.996990 0.607832
O O10 0.808396 0.183541 0.631665
O O11 0.913275 0.918805 0.396684
O O12 0.500000 0.500000 0.500000
O O13 0.022977 0.197595 0.900939
O O14 0.000000 0.500000 0.000000
O O15 0.236494 0.159810 0.144307
#
# Coordination Sequence:
#
# PCOD9082891 Si02
#       7
#     2   2   2   2   2   2   2
#     4   9  19  35  62  93 117 157 209 255 296 354
#     4  11  22  40  63  95 125 157 210 257 305 363
#     4  10  20  38  67  90 121 157 210 252 316 350
#     4  10  19  33  58  92 122 154 199 257 303 353
#     4  11  26  41  61  89 129 169 203 247 311 371
#     4   9  22  41  62  92 127 160 199 260 305 370
#     4  10  21  39  64  90 119 164 209 255 300 362
#
# _framework density 23.283988999999998
#
# number of rings (size 3 to 8) (size 9 to 14) (size 15 to 20)
#    0.000    2.000    0.000    4.714    6.000    1.143 
#    0.000    5.000    0.000    0.000    0.000    0.000 
#    0.000    0.000    0.000    0.000    0.000    0.000 
#
# Total GULP energy -78030.059981 kJ/mol
# GULP energy per Si atom -5573.575713 kJ/mol
# Density = 2.323099 g / cm^3
# Si number density = 23.283989 Si / 1000 Ang^3
#
#
#
# Elastic Constant Matrix: (Units=GPa)
#
#
# Indices 1 2 3 4 5 6 
#
# 1 60.6104 37.2912 10.2800 -14.6819 -11.2409 1.3105
# 2 37.2912 139.8920 35.5115 -25.7910 -7.9596 13.6046
# 3 10.2800 35.5115 56.9842 -17.1260 -20.5358 -1.2439
# 4 -14.6819 -25.7910 -17.1260 33.9971 -0.3335 -10.1149
# 5 -11.2409 -7.9596 -20.5358 -0.3335 45.3404 -3.4182
# 6 1.3105 13.6046 -1.2439 -10.1149 -3.4182 32.5811
#
#
#
# Elastic Compliance Matrix: (Units=1/GPa)
#
#
# Indices 1 2 3 4 5 6 
#
# 1 0.022773 -0.005687 0.005224 0.009864 0.007501 0.005507
# 2 -0.005687 0.010786 -0.006454 0.001120 -0.002768 -0.004464
# 3 0.005224 -0.006454 0.031242 0.016324 0.015212 0.010341
# 4 0.009864 0.001120 0.016324 0.047541 0.011571 0.015732
# 5 0.007501 -0.002768 0.015212 0.011571 0.031029 0.008283
# 6 0.005507 -0.004464 0.010341 0.015732 0.008283 0.038483
#
#
# Mechanical properties :
#
#
# Convention : Reuss Voigt Hill
#
# Bulk Modulus (GPa) = 19.62048 47.07244 33.34646
# Shear Modulus (GPa) = 23.50977 34.01064 28.76021
#
# Velocity S-wave (km/s) = 3.18102 3.82604 3.51834
# Velocity P-wave (km/s) = 4.68367 6.30703 5.55497
#
# Compressibility (1/GPa) = 0.05096715
#
# Stress axis : x y z
#
# Youngs Moduli (GPa) = 43.91092 92.71445 32.00805
#
# Poissons Ratio (x) = 0.52726 -0.16720
# Poissons Ratio (y) = 0.24972 0.20658
# Poissons Ratio (z) = -0.22938 0.59837
#
# Static dielectric constant tensor:
#      x y z
#    x 1.897670 -0.011830 -0.025750 
#    y -0.011830 1.939880 0.005110 
#    z -0.025750 0.005110 2.142570 
# 
# From -- ./inp_files/240577.got.cif
#   From: 2010.05.17/outbox.cif.g08.bks.cpg/sg2_121_cif.got.tgz:240577.got - 2010.06.03 11:33:40.
