data_PCOD9082421
_publ_section_title
;
Structure prediction by ZEFSAII (Michael W. Deem and Ramdas Pophale) SiO2 
 PCOD9082421
Probable space group: P -1
;
_chemical_formula_sum "Si O2"
_cell_formula_units_Z 16
_cell_length_a 10.720603
_cell_length_b 8.866395
_cell_length_c 15.337881
_cell_angle_alpha 82.469834
_cell_angle_beta 26.056698
_cell_angle_gamma 79.709128
_cell_volume 628.638087
_symmetry_space_group_name_H-M "P -1"
_symmetry_group_IT_number 2
_symmetry_cell_setting 'triclinic'
loop_
_space_group_symop_operation_xyz
x,y,z
-x,-y,-z
loop_
_atom_site_type_symbol
_atom_site_label
_atom_site_fract_x
_atom_site_fract_y
_atom_site_fract_z
Si Si1 0.696968 0.690712 0.166980
Si Si2 0.220574 0.956116 0.477035
Si Si3 0.047015 0.245585 0.441690
Si Si4 0.922160 0.164984 0.944049
Si Si5 0.315258 0.531851 0.229260
Si Si6 0.725181 0.418188 0.288436
Si Si7 0.616217 0.111152 0.314176
Si Si8 0.940094 0.437689 0.791073
O O1 0.479313 0.845344 0.274802
O O2 0.868101 0.745982 0.137637
O O3 0.600069 0.538506 0.282516
O O4 0.944958 0.639255 0.946247
O O5 0.991679 0.835481 0.621448
O O6 0.352589 0.013121 0.478599
O O7 0.102521 0.106398 0.485329
O O8 0.774300 0.360894 0.640538
O O9 0.287762 0.355816 0.280623
O O10 0.890869 0.271476 0.871522
O O11 0.095221 0.997643 0.831110
O O12 0.676496 0.151142 0.171346
O O13 0.072907 0.573156 0.303979
O O14 0.634509 0.543224 0.996279
O O15 0.578246 0.263824 0.383723
O O16 0.797472 0.494031 0.330207
#
# Coordination Sequence:
#
# PCOD9082421 Si02
#       8
#     2   2   2   2   2   2   2   2
#     4   8  15  27  48  80 107 134 168 214 263 312
#     4  10  19  33  55  75 104 139 182 219 255 310
#     4  10  22  38  55  76 104 145 187 221 255 313
#     4   8  15  27  48  78 112 135 166 216 267 313
#     4  10  22  37  56  77 103 143 185 222 264 309
#     4   9  16  27  51  83 111 131 165 216 269 317
#     4   9  16  28  51  85 110 137 170 210 264 322
#     4  10  19  35  56  81 109 136 173 226 273 310
#
# _framework density 25.451848999999999
#
# number of rings (size 3 to 8) (size 9 to 14) (size 15 to 20)
#    0.000    2.750    0.000    3.000    0.000    2.000 
#    0.000    2.500    0.000   28.500    0.000    0.000 
#    0.000    0.000    0.000    0.000    0.000    0.000 
#
# Total GULP energy -89265.052051 kJ/mol
# GULP energy per Si atom -5579.065753 kJ/mol
# Density = 2.539392 g / cm^3
# Si number density = 25.451849 Si / 1000 Ang^3
#
#
#
# Elastic Constant Matrix: (Units=GPa)
#
#
# Indices 1 2 3 4 5 6 
#
# 1 97.3534 62.4040 16.6961 0.6241 -5.5451 15.1899
# 2 62.4040 159.3941 21.8903 5.5889 2.1246 20.3406
# 3 16.6961 21.8903 38.2616 1.9345 9.0574 12.1587
# 4 0.6241 5.5889 1.9345 28.1553 3.1797 -5.8199
# 5 -5.5451 2.1246 9.0574 3.1797 30.8043 -6.8623
# 6 15.1899 20.3406 12.1587 -5.8199 -6.8623 55.3797
#
#
#
# Elastic Compliance Matrix: (Units=1/GPa)
#
#
# Indices 1 2 3 4 5 6 
#
# 1 0.014609 -0.005125 -0.004207 0.000391 0.004033 -0.000660
# 2 -0.005125 0.008841 -0.001895 -0.001740 -0.001186 -0.001755
# 3 -0.004207 -0.001895 0.034406 -0.002054 -0.012186 -0.007430
# 4 0.000391 -0.001740 -0.002054 0.037182 -0.002010 0.004641
# 5 0.004033 -0.001186 -0.012186 -0.002010 0.038524 0.006568
# 6 -0.000660 -0.001755 -0.007430 0.004641 0.006568 0.021816
#
#
# Mechanical properties :
#
#
# Convention : Reuss Voigt Hill
#
# Bulk Modulus (GPa) = 28.24803 55.22111 41.73457
# Shear Modulus (GPa) = 26.36678 35.80244 31.08461
#
# Velocity S-wave (km/s) = 3.22211 3.75463 3.49852
# Velocity P-wave (km/s) = 4.99653 6.36708 5.72298
#
# Compressibility (1/GPa) = 0.03540070
#
# Stress axis : x y z
#
# Youngs Moduli (GPa) = 68.45270 113.10575 29.06492
#
# Poissons Ratio (x) = 0.57964 0.12229
# Poissons Ratio (y) = 0.35081 0.05509
# Poissons Ratio (z) = 0.28801 0.21437
#
# Static dielectric constant tensor:
#      x y z
#    x 2.078040 -0.011000 -0.068870 
#    y -0.011000 2.064330 -0.015860 
#    z -0.068870 -0.015860 2.107420 
# 
# From -- ./inp_files/565309.got.cif
#   From: 2010.05.17/outbox.cif.g08.bks.cpg/sg2_283_cif.got.tgz:565309.got - 2010.06.03 11:33:40.
