data_PCOD9082228
_publ_section_title
;
Structure prediction by ZEFSAII (Michael W. Deem and Ramdas Pophale) SiO2 
 PCOD9082228
Probable space group: P -1
;
_chemical_formula_sum "Si O2"
_cell_formula_units_Z 16
_cell_length_a 19.735557
_cell_length_b 9.763703
_cell_length_c 10.698450
_cell_angle_alpha 119.470509
_cell_angle_beta 32.317472
_cell_angle_gamma 136.959908
_cell_volume 706.160876
_symmetry_space_group_name_H-M "P -1"
_symmetry_group_IT_number 2
_symmetry_cell_setting 'triclinic'
loop_
_space_group_symop_operation_xyz
x,y,z
-x,-y,-z
loop_
_atom_site_type_symbol
_atom_site_label
_atom_site_fract_x
_atom_site_fract_y
_atom_site_fract_z
Si Si1 0.654101 0.836996 0.427668
Si Si2 0.454730 0.645257 0.260045
Si Si3 0.751799 0.810932 0.716724
Si Si4 0.649403 0.278142 0.313216
Si Si5 0.612889 0.533463 0.161400
Si Si6 0.990720 0.285951 0.037159
Si Si7 0.049616 0.685765 0.162654
Si Si8 0.069272 0.223670 0.373776
O O1 0.518678 0.827926 0.553406
O O2 0.666719 0.683341 0.263529
O O3 0.545887 0.711005 0.664518
O O4 0.845195 0.068417 0.239592
O O5 0.302073 0.407419 0.340601
O O6 0.398011 0.743130 0.476249
O O7 0.541131 0.598835 0.203837
O O8 0.584035 0.769377 0.997500
O O9 0.846424 0.855348 0.721356
O O10 0.888781 0.010495 0.504761
O O11 0.751075 0.203437 0.092208
O O12 0.805128 0.539619 0.168689
O O13 0.782849 0.595111 0.868045
O O14 0.949586 0.437483 0.184142
O O15 0.969461 0.231769 0.898182
O O16 0.987600 0.704035 0.397311
#
# Coordination Sequence:
#
# PCOD9082228 Si02
#       8
#     2   2   2   2   2   2   2   2
#     4  10  20  39  56  79 106 143 186 214 270 304
#     4   9  17  34  49  80 109 131 183 214 266 325
#     4   9  19  29  53  79 107 143 162 223 278 315
#     4   9  19  34  55  79 108 137 179 223 251 322
#     4   9  21  36  54  78 108 139 178 228 252 325
#     4   9  20  36  56  79 110 143 169 225 265 311
#     4   9  20  35  51  86 107 136 180 218 265 327
#     4  10  19  33  53  77 112 137 173 217 276 310
#
# _framework density 22.657727000000001
#
# number of rings (size 3 to 8) (size 9 to 14) (size 15 to 20)
#    0.750    2.000    0.000    0.750    8.750    0.500 
#    2.250    3.125    0.000    0.000    0.000    0.000 
#    0.000    0.000    0.000    0.000    0.000    0.000 
#
# Total GULP energy -89140.130909 kJ/mol
# GULP energy per Si atom -5571.258182 kJ/mol
# Density = 2.260616 g / cm^3
# Si number density = 22.657727 Si / 1000 Ang^3
#
#
#
# Elastic Constant Matrix: (Units=GPa)
#
#
# Indices 1 2 3 4 5 6 
#
# 1 23.5533 -4.1945 7.6359 1.1626 -6.5964 -1.9097
# 2 -4.1945 57.6454 49.5553 -14.5653 9.2179 3.8124
# 3 7.6359 49.5553 188.1823 -11.8471 11.7005 -2.8751
# 4 1.1626 -14.5653 -11.8471 49.2261 -3.6220 -0.0829
# 5 -6.5964 9.2179 11.7005 -3.6220 26.7985 -5.3377
# 6 -1.9097 3.8124 -2.8751 -0.0829 -5.3377 15.0581
#
#
#
# Elastic Compliance Matrix: (Units=1/GPa)
#
#
# Indices 1 2 3 4 5 6 
#
# 1 0.049159 0.003928 -0.003763 0.000166 0.014327 0.009601
# 2 0.003928 0.026286 -0.006475 0.005639 -0.006404 -0.009632
# 3 -0.003763 -0.006475 0.007285 -0.000181 -0.001502 0.002020
# 4 0.000166 0.005639 -0.000181 0.022004 0.000959 -0.000980
# 5 0.014327 -0.006404 -0.001502 0.000959 0.047836 0.020114
# 6 0.009601 -0.009632 0.002020 -0.000980 0.020114 0.077576
#
#
# Mechanical properties :
#
#
# Convention : Reuss Voigt Hill
#
# Bulk Modulus (GPa) = 14.26362 41.70823 27.98592
# Shear Modulus (GPa) = 18.78738 32.64217 25.71478
#
# Velocity S-wave (km/s) = 2.88268 3.79973 3.37252
# Velocity P-wave (km/s) = 4.16997 6.13991 5.24820
#
# Compressibility (1/GPa) = 0.07010843
#
# Stress axis : x y z
#
# Youngs Moduli (GPa) = 20.34221 38.04355 137.27417
#
# Poissons Ratio (x) = -0.14942 0.51652
# Poissons Ratio (y) = -0.07990 0.88890
# Poissons Ratio (z) = 0.07654 0.24634
#
# Static dielectric constant tensor:
#      x y z
#    x 1.881010 0.026590 -0.014330 
#    y 0.026590 1.921030 -0.039100 
#    z -0.014330 -0.039100 1.944980 
# 
# From -- ./inp_files/352643.got.cif
#   From: 2010.05.17/outbox.cif.g08.bks.cpg/sg2_177_cif.got.tgz:352643.got - 2010.06.03 11:33:40.
