data_PCOD9082379
_publ_section_title
;
Structure prediction by ZEFSAII (Michael W. Deem and Ramdas Pophale) SiO2 
 PCOD9082379
Probable space group: P -1
;
_chemical_formula_sum "Si O2"
_cell_formula_units_Z 16
_cell_length_a 13.848707
_cell_length_b 21.234428
_cell_length_c 5.403100
_cell_angle_alpha 82.776346
_cell_angle_beta 84.915892
_cell_angle_gamma 23.494792
_cell_volume 626.973162
_symmetry_space_group_name_H-M "P -1"
_symmetry_group_IT_number 2
_symmetry_cell_setting 'triclinic'
loop_
_space_group_symop_operation_xyz
x,y,z
-x,-y,-z
loop_
_atom_site_type_symbol
_atom_site_label
_atom_site_fract_x
_atom_site_fract_y
_atom_site_fract_z
Si Si1 0.415206 0.750952 0.996532
Si Si2 0.759441 0.867169 0.328223
Si Si3 0.814062 0.599434 0.226048
Si Si4 0.807386 0.716869 0.648504
Si Si5 0.851041 0.400224 0.004201
Si Si6 0.449774 0.904640 0.029917
Si Si7 0.989104 0.822475 0.687336
Si Si8 0.992030 0.062431 0.661708
O O1 0.261990 0.893243 0.798738
O O2 0.588717 0.689158 0.159310
O O3 0.602033 0.587496 0.922884
O O4 0.211738 0.832781 0.144378
O O5 0.673330 0.853840 0.471233
O O6 0.823261 0.882805 0.503438
O O7 0.016445 0.691811 0.237805
O O8 0.611955 0.985874 0.077343
O O9 0.654799 0.757432 0.246161
O O10 0.982611 0.453777 0.430550
O O11 0.000000 0.500000 0.000000
O O12 0.970093 0.661445 0.841358
O O13 0.602236 0.799163 0.796169
O O14 0.838886 0.336966 0.164763
O O15 0.186119 0.043691 0.123476
O O16 0.076003 0.831224 0.510446
O O17 0.000000 0.000000 0.500000
#
# Coordination Sequence:
#
# PCOD9082379 Si02
#       8
#     2   2   2   2   2   2   2   2
#     4  10  22  41  62  89 119 153 199 242 290 352
#     4  10  20  34  55  80 114 155 193 235 287 344
#     4   9  18  36  61  86 117 152 187 238 295 345
#     4   9  19  34  54  83 115 153 193 234 290 347
#     4   9  21  38  56  82 118 150 191 243 287 343
#     4  10  19  33  54  82 118 152 192 240 284 344
#     4  10  22  37  56  84 113 150 195 238 290 345
#     4  11  24  41  64  88 116 155 197 244 294 344
#
# _framework density 25.519434
#
# number of rings (size 3 to 8) (size 9 to 14) (size 15 to 20)
#    0.000    2.250    0.000    1.875    0.000   13.000 
#    0.000    1.250    0.000   10.500    0.000    0.000 
#    0.000    0.000    0.000    0.000    0.000    0.000 
#
# Total GULP energy -89224.843604 kJ/mol
# GULP energy per Si atom -5576.552725 kJ/mol
# Density = 2.546135 g / cm^3
# Si number density = 25.519434 Si / 1000 Ang^3
#
#
#
# Elastic Constant Matrix: (Units=GPa)
#
#
# Indices 1 2 3 4 5 6 
#
# 1 116.8767 21.3233 15.0347 -1.0423 -20.7142 12.8717
# 2 21.3233 158.4828 12.9893 -6.9950 -1.3584 20.5455
# 3 15.0347 12.9893 36.4686 -10.1318 -20.9154 0.6038
# 4 -1.0423 -6.9950 -10.1318 35.9812 5.8219 0.4094
# 5 -20.7142 -1.3584 -20.9154 5.8219 40.2463 9.0295
# 6 12.8717 20.5455 0.6038 0.4094 9.0295 39.8562
#
#
#
# Elastic Compliance Matrix: (Units=1/GPa)
#
#
# Indices 1 2 3 4 5 6 
#
# 1 0.010316 -0.000765 -0.000741 -0.000981 0.006000 -0.004275
# 2 -0.000765 0.007049 -0.002362 0.000848 -0.000792 -0.003180
# 3 -0.000741 -0.002362 0.043496 0.008272 0.021899 -0.004248
# 4 -0.000981 0.000848 0.008272 0.030338 -0.000465 -0.000452
# 5 0.006000 -0.000792 0.021899 -0.000465 0.041902 -0.011349
# 6 -0.004275 -0.003180 -0.004248 -0.000452 -0.011349 0.030751
#
#
# Mechanical properties :
#
#
# Convention : Reuss Voigt Hill
#
# Bulk Modulus (GPa) = 18.82331 45.61362 32.21847
# Shear Modulus (GPa) = 26.41352 40.71546 33.56449
#
# Velocity S-wave (km/s) = 3.22069 3.99867 3.63057
# Velocity P-wave (km/s) = 4.60679 6.26354 5.49793
#
# Compressibility (1/GPa) = 0.05312561
#
# Stress axis : x y z
#
# Youngs Moduli (GPa) = 96.93325 141.85990 22.99072
#
# Poissons Ratio (x) = 0.10851 0.01705
# Poissons Ratio (y) = 0.07414 0.05429
# Poissons Ratio (z) = 0.07187 0.33502
#
# Static dielectric constant tensor:
#      x y z
#    x 2.134130 -0.124110 -0.010450 
#    y -0.124110 2.447550 0.124960 
#    z -0.010450 0.124960 2.318190 
# 
# From -- ./inp_files/101056.got.cif
#   From: 2010.05.17/outbox.cif.g08.bks.cpg/sg2_51_cif.got.tgz:101056.got - 2010.06.03 11:33:40.
