data_PCOD9082960
_publ_section_title
;
Structure prediction by ZEFSAII (Michael W. Deem and Ramdas Pophale) SiO2 
 PCOD9082960
Probable space group: P -1
;
_chemical_formula_sum "Si O2"
_cell_formula_units_Z 12
_cell_length_a 12.894544
_cell_length_b 8.095394
_cell_length_c 5.225100
_cell_angle_alpha 85.887760
_cell_angle_beta 85.199504
_cell_angle_gamma 123.323934
_cell_volume 449.591016
_symmetry_space_group_name_H-M "P -1"
_symmetry_group_IT_number 2
_symmetry_cell_setting 'triclinic'
loop_
_space_group_symop_operation_xyz
x,y,z
-x,-y,-z
loop_
_atom_site_type_symbol
_atom_site_label
_atom_site_fract_x
_atom_site_fract_y
_atom_site_fract_z
Si Si1 0.058524 0.862646 0.034128
Si Si2 0.861200 0.962794 0.501960
Si Si3 0.680563 0.226159 0.740575
Si Si4 0.814214 0.456696 0.162806
Si Si5 0.658582 0.618417 0.248285
Si Si6 0.533653 0.773296 0.898657
O O1 0.957803 0.633820 0.147638
O O2 0.153385 0.964822 0.234152
O O3 0.119303 0.888167 0.744148
O O4 0.000000 0.000000 0.000000
O O5 0.742277 0.748158 0.460516
O O6 0.000000 0.000000 0.500000
O O7 0.745745 0.345393 0.452944
O O8 0.608797 0.990906 0.737377
O O9 0.780029 0.313584 0.944623
O O10 0.571779 0.245515 0.885191
O O11 0.757574 0.587788 0.087188
O O12 0.534333 0.392385 0.294966
O O13 0.615233 0.729773 0.069143
#
# Coordination Sequence:
#
# PCOD9082960 Si02
#       6
#     2   2   2   2   2   2
#     4  10  19  34  58  94 117 154 201 256 301 358
#     4  10  19  33  59  94 119 151 196 262 304 351
#     4  10  23  41  62  87 126 171 199 243 316 376
#     4  11  21  37  67  92 120 161 208 254 302 370
#     4  10  20  37  66  96 121 158 212 262 294 358
#     4   9  22  42  61  91 129 166 204 252 307 367
#
# _framework density 26.690925
#
# number of rings (size 3 to 8) (size 9 to 14) (size 15 to 20)
#    0.000    2.000    3.333    1.000    2.333    6.667 
#    0.000    8.333    0.000    6.000    0.000    0.000 
#    0.000    0.000    0.000    0.000    0.000    0.000 
#
# Total GULP energy -67133.740133 kJ/mol
# GULP energy per Si atom -5594.478344 kJ/mol
# Density = 2.663018 g / cm^3
# Si number density = 26.690925 Si / 1000 Ang^3
#
#
#
# Elastic Constant Matrix: (Units=GPa)
#
#
# Indices 1 2 3 4 5 6 
#
# 1 120.1893 59.5702 37.2857 3.3190 8.8548 16.9385
# 2 59.5702 273.8553 113.5786 6.6343 3.4887 43.2622
# 3 37.2857 113.5786 193.2123 1.8166 5.5732 22.9407
# 4 3.3190 6.6343 1.8166 54.0438 19.1448 4.5006
# 5 8.8548 3.4887 5.5732 19.1448 28.7660 1.0198
# 6 16.9385 43.2622 22.9407 4.5006 1.0198 39.7904
#
#
#
# Elastic Compliance Matrix: (Units=1/GPa)
#
#
# Indices 1 2 3 4 5 6 
#
# 1 0.009787 -0.001487 -0.000670 0.000937 -0.003248 -0.002186
# 2 -0.001487 0.005689 -0.002595 -0.000433 0.000702 -0.004025
# 3 -0.000670 -0.002595 0.006973 0.000637 -0.001220 -0.000954
# 4 0.000937 -0.000433 0.000637 0.024590 -0.016631 -0.002650
# 5 -0.003248 0.000702 -0.001220 -0.016631 0.046912 0.002002
# 6 -0.002186 -0.004025 -0.000954 -0.002650 0.002002 0.031237
#
#
# Mechanical properties :
#
#
# Convention : Reuss Voigt Hill
#
# Bulk Modulus (GPa) = 77.25851 112.01396 94.63623
# Shear Modulus (GPa) = 35.96963 49.64155 42.80559
#
# Velocity S-wave (km/s) = 3.67500 4.31730 4.00903
# Velocity P-wave (km/s) = 6.85682 8.17987 7.54739
#
# Compressibility (1/GPa) = 0.01294356
#
# Stress axis : x y z
#
# Youngs Moduli (GPa) = 102.18105 175.78326 143.40684
#
# Poissons Ratio (x) = 0.26137 0.09610
# Poissons Ratio (y) = 0.15193 0.37221
# Poissons Ratio (z) = 0.06847 0.45624
#
# Static dielectric constant tensor:
#      x y z
#    x 2.314660 -0.063060 -0.065660 
#    y -0.063060 2.111670 -0.002180 
#    z -0.065660 -0.002180 2.066320 
# 
# From -- ./inp_files/88636.got.cif
#   From: 2010.05.17/outbox.cif.g08.bks.cpg/sg2_45_cif.got.tgz:88636.got - 2010.06.03 11:33:40.
