data_PCOD9082963
_publ_section_title
;
Structure prediction by ZEFSAII (Michael W. Deem and Ramdas Pophale) SiO2 
 PCOD9082963
Probable space group: P -1
;
_chemical_formula_sum "Si O2"
_cell_formula_units_Z 16
_cell_length_a 8.869358
_cell_length_b 15.264484
_cell_length_c 27.808747
_cell_angle_alpha 18.265972
_cell_angle_beta 52.579005
_cell_angle_gamma 44.717840
_cell_volume 790.914392
_symmetry_space_group_name_H-M "P -1"
_symmetry_group_IT_number 2
_symmetry_cell_setting 'triclinic'
loop_
_space_group_symop_operation_xyz
x,y,z
-x,-y,-z
loop_
_atom_site_type_symbol
_atom_site_label
_atom_site_fract_x
_atom_site_fract_y
_atom_site_fract_z
Si Si1 0.706114 0.548572 0.942030
Si Si2 0.609127 0.421195 0.403806
Si Si3 0.295292 0.552307 0.476761
Si Si4 0.331671 0.136886 0.761735
Si Si5 0.629518 0.863175 0.095556
Si Si6 0.592870 0.371737 0.916062
Si Si7 0.850586 0.667548 0.748208
Si Si8 0.917857 0.246350 0.147221
O O1 0.789347 0.625717 0.836924
O O2 0.585572 0.873650 0.830494
O O3 0.500000 0.500000 0.000000
O O4 0.888500 0.234400 0.101491
O O5 0.412863 0.416688 0.473292
O O6 0.687663 0.602186 0.331285
O O7 0.537493 0.664774 0.245701
O O8 0.790827 0.039155 0.558545
O O9 0.500000 0.500000 0.500000
O O10 0.211334 0.343268 0.629808
O O11 0.091274 0.918553 0.313428
O O12 0.274917 0.902585 0.924018
O O13 0.890605 0.596597 0.174310
O O14 0.500000 0.000000 0.000000
O O15 0.609119 0.159195 0.977572
O O16 0.702515 0.589083 0.782432
O O17 0.330731 0.594703 0.865201
O O18 0.000000 0.500000 0.000000
#
# Coordination Sequence:
#
# PCOD9082963 Si02
#       8
#     2   2   2   2   2   2   2   2
#     4  11  21  39  63  99 130 166 209 258 330 387
#     4  10  22  39  62  93 125 162 216 254 313 379
#     4  10  19  33  59  94 127 159 194 256 318 364
#     4   9  18  37  61  92 129 159 201 252 314 387
#     4  11  26  44  64  92 120 168 230 268 305 372
#     4  10  23  45  63  94 127 169 213 261 321 384
#     4  12  23  41  69  86 130 171 209 264 325 377
#     4  11  22  35  63  95 133 163 209 258 316 383
#
# _framework density 20.229749000000002
#
# number of rings (size 3 to 8) (size 9 to 14) (size 15 to 20)
#    0.000    1.500    3.750    4.500    5.250    0.000 
#    0.000    4.375    0.000    0.000    0.000    0.000 
#    0.000    0.000    0.000    0.000    0.000    0.000 
#
# Total GULP energy -89135.946163 kJ/mol
# GULP energy per Si atom -5570.996635 kJ/mol
# Density = 2.018371 g / cm^3
# Si number density = 20.229749 Si / 1000 Ang^3
#
#
#
# Elastic Constant Matrix: (Units=GPa)
#
#
# Indices 1 2 3 4 5 6 
#
# 1 78.2975 25.1807 50.9562 -2.8784 11.7870 6.0312
# 2 25.1807 64.7573 35.4310 -2.6002 8.6295 17.1149
# 3 50.9562 35.4310 129.4154 -9.4344 20.0874 10.0861
# 4 -2.8784 -2.6002 -9.4344 37.6786 7.2737 7.1107
# 5 11.7870 8.6295 20.0874 7.2737 35.0080 0.0914
# 6 6.0312 17.1149 10.0861 7.1107 0.0914 27.0939
#
#
#
# Elastic Compliance Matrix: (Units=1/GPa)
#
#
# Indices 1 2 3 4 5 6 
#
# 1 0.017988 -0.003712 -0.005843 -0.000107 -0.001768 0.000550
# 2 -0.003712 0.022592 -0.002884 0.003728 -0.003404 -0.013338
# 3 -0.005843 -0.002884 0.012054 0.003784 -0.005019 -0.002341
# 4 -0.000107 0.003728 0.003784 0.031877 -0.009645 -0.012073
# 5 -0.001768 -0.003404 -0.005019 -0.009645 0.034865 0.006826
# 6 0.000550 -0.013338 -0.002341 -0.012073 0.006826 0.049229
#
#
# Mechanical properties :
#
#
# Convention : Reuss Voigt Hill
#
# Bulk Modulus (GPa) = 36.02655 55.06734 45.54694
# Shear Modulus (GPa) = 24.66280 30.68292 27.67286
#
# Velocity S-wave (km/s) = 3.49540 3.89874 3.70256
# Velocity P-wave (km/s) = 5.84276 6.89543 6.39080
#
# Compressibility (1/GPa) = 0.02775730
#
# Stress axis : x y z
#
# Youngs Moduli (GPa) = 55.59336 44.26340 82.95750
#
# Poissons Ratio (x) = 0.16430 0.48468
# Poissons Ratio (y) = 0.20635 0.23925
# Poissons Ratio (z) = 0.32481 0.12766
#
# Static dielectric constant tensor:
#      x y z
#    x 1.761980 0.026940 -0.023890 
#    y 0.026940 1.751040 0.017900 
#    z -0.023890 0.017900 1.800850 
# 
# From -- ./inp_files/617288.got.cif
#   From: 2010.05.17/outbox.cif.g08.bks.cpg/sg2_309_cif.got.tgz:617288.got - 2010.06.03 11:33:40.
