data_PCOD9082899
_publ_section_title
;
Structure prediction by ZEFSAII (Michael W. Deem and Ramdas Pophale) SiO2 
 PCOD9082899
Probable space group: P -1
;
_chemical_formula_sum "Si O2"
_cell_formula_units_Z 14
_cell_length_a 12.184967
_cell_length_b 7.798651
_cell_length_c 19.255621
_cell_angle_alpha 62.757091
_cell_angle_beta 21.941557
_cell_angle_gamma 63.441623
_cell_volume 606.481958
_symmetry_space_group_name_H-M "P -1"
_symmetry_group_IT_number 2
_symmetry_cell_setting 'triclinic'
loop_
_space_group_symop_operation_xyz
x,y,z
-x,-y,-z
loop_
_atom_site_type_symbol
_atom_site_label
_atom_site_fract_x
_atom_site_fract_y
_atom_site_fract_z
Si Si1 0.761537 0.180375 0.620050
Si Si2 0.432984 0.049410 0.709069
Si Si3 0.782489 0.956251 0.390416
Si Si4 0.813298 0.253266 0.997944
Si Si5 0.598775 0.027524 0.029815
Si Si6 0.710088 0.629609 0.929349
Si Si7 0.042444 0.520694 0.327184
O O1 0.592471 0.140109 0.797588
O O2 0.916282 0.377178 0.483350
O O3 0.524445 0.169256 0.699753
O O4 0.000000 0.000000 0.500000
O O5 0.693041 0.033479 0.504214
O O6 0.362469 0.838379 0.818798
O O7 0.138563 0.147584 0.830089
O O8 0.867274 0.727716 0.388313
O O9 0.500000 0.000000 0.500000
O O10 0.073608 0.044404 0.172757
O O11 0.836946 0.483925 0.942038
O O12 0.664518 0.172453 0.029399
O O13 0.402525 0.153236 0.066686
O O14 0.938021 0.572767 0.743590
O O15 0.382629 0.549769 0.135578
#
# Coordination Sequence:
#
# PCOD9082899 Si02
#       7
#     2   2   2   2   2   2   2
#     4  11  21  39  60  86 120 153 190 245 286 344
#     4  10  22  33  59  90 115 148 197 237 294 335
#     4  11  20  38  60  86 119 153 190 243 285 346
#     4  10  16  34  57  85 110 149 203 238 264 354
#     4  10  18  33  65  79 114 157 197 225 296 336
#     4  10  15  33  61  85  99 158 204 229 264 355
#     4  10  18  32  63  84 110 150 201 223 295 335
#
# _framework density 23.083950000000002
#
# number of rings (size 3 to 8) (size 9 to 14) (size 15 to 20)
#    0.000    1.714    7.143    0.857    0.000    0.000 
#    0.000   10.714    3.143    0.000    0.000    0.000 
#    0.000    0.000    0.000    0.000    0.000    0.000 
#
# Total GULP energy -78164.647287 kJ/mol
# GULP energy per Si atom -5583.189092 kJ/mol
# Density = 2.303141 g / cm^3
# Si number density = 23.083950 Si / 1000 Ang^3
#
#
#
# Elastic Constant Matrix: (Units=GPa)
#
#
# Indices 1 2 3 4 5 6 
#
# 1 56.5228 31.4669 24.5112 -1.0182 -6.6151 -17.4322
# 2 31.4669 95.9189 44.3305 -8.8550 11.5959 -29.9399
# 3 24.5112 44.3305 162.1515 -21.2900 29.9736 -21.3034
# 4 -1.0182 -8.8550 -21.2900 38.3051 -11.6615 3.8713
# 5 -6.6151 11.5959 29.9736 -11.6615 36.9502 -0.9707
# 6 -17.4322 -29.9399 -21.3034 3.8713 -0.9707 29.1211
#
#
#
# Elastic Compliance Matrix: (Units=1/GPa)
#
#
# Indices 1 2 3 4 5 6 
#
# 1 0.025551 -0.005757 -0.002990 -0.000369 0.008888 0.007534
# 2 -0.005757 0.017828 -0.001187 0.000332 -0.005195 0.013797
# 3 -0.002990 -0.001187 0.008835 0.002270 -0.006536 0.002933
# 4 -0.000369 0.000332 0.002270 0.029874 0.007365 -0.001944
# 5 0.008888 -0.005195 -0.006536 0.007365 0.037793 -0.004522
# 6 0.007534 0.013797 0.002933 -0.001944 -0.004522 0.055288
#
#
# Mechanical properties :
#
#
# Convention : Reuss Voigt Hill
#
# Bulk Modulus (GPa) = 30.91588 57.24559 44.08073
# Shear Modulus (GPa) = 24.29313 35.16091 29.72702
#
# Velocity S-wave (km/s) = 3.24756 3.90702 3.59246
# Velocity P-wave (km/s) = 5.24253 6.72353 6.02868
#
# Compressibility (1/GPa) = 0.03234584
#
# Stress axis : x y z
#
# Youngs Moduli (GPa) = 39.13778 56.09078 113.18255
#
# Poissons Ratio (x) = 0.32293 0.33841
# Poissons Ratio (y) = 0.22532 0.13436
# Poissons Ratio (z) = 0.11702 0.06658
#
# Static dielectric constant tensor:
#      x y z
#    x 1.938050 0.083530 0.019020 
#    y 0.083530 2.066850 -0.028190 
#    z 0.019020 -0.028190 1.851100 
# 
# From -- ./inp_files/448595.got.cif
#   From: 2010.05.17/outbox.cif.g08.bks.cpg/sg2_225_cif.got.tgz:448595.got - 2010.06.03 11:33:40.
