data_PCOD9082011
_publ_section_title
;
Structure prediction by ZEFSAII (Michael W. Deem and Ramdas Pophale) SiO2 
 PCOD9082011
Probable space group: P -1
;
_chemical_formula_sum "Si O2"
_cell_formula_units_Z 14
_cell_length_a 7.926324
_cell_length_b 9.708102
_cell_length_c 8.171573
_cell_angle_alpha 128.087302
_cell_angle_beta 91.819878
_cell_angle_gamma 82.328019
_cell_volume 489.446920
_symmetry_space_group_name_H-M "P -1"
_symmetry_group_IT_number 2
_symmetry_cell_setting 'triclinic'
loop_
_space_group_symop_operation_xyz
x,y,z
-x,-y,-z
loop_
_atom_site_type_symbol
_atom_site_label
_atom_site_fract_x
_atom_site_fract_y
_atom_site_fract_z
Si Si1 0.374013 0.649394 0.473401
Si Si2 0.310390 0.505677 0.787819
Si Si3 0.979204 0.404395 0.646940
Si Si4 0.983396 0.150881 0.745308
Si Si5 0.137937 0.072345 0.179069
Si Si6 0.522432 0.234457 0.785191
Si Si7 0.329615 0.025456 0.853015
O O1 0.564835 0.545609 0.398910
O O2 0.214360 0.542656 0.377628
O O3 0.369978 0.757645 0.373522
O O4 0.336732 0.814353 0.713668
O O5 0.340149 0.329551 0.772664
O O6 0.112936 0.543521 0.762898
O O7 0.409325 0.634815 0.988272
O O8 0.961285 0.330289 0.775316
O O9 0.063819 0.246596 0.410198
O O10 0.156647 0.116084 0.826822
O O11 0.836109 0.089206 0.809046
O O12 0.000000 0.000000 0.500000
O O13 0.300239 0.096138 0.089461
O O14 0.000000 0.000000 0.000000
O O15 0.475484 0.071641 0.768912
#
# Coordination Sequence:
#
# PCOD9082011 Si02
#       7
#     2   2   2   2   2   2   2
#     4  10  19  32  60  83 108 137 190 231 268 320
#     4   9  21  37  51  84 110 146 185 223 270 323
#     4  11  18  34  61  80 108 148 182 226 271 326
#     4   9  15  27  49  83 109 132 176 225 269 317
#     4   9  18  30  51  86 115 141 173 225 290 319
#     4   9  20  36  52  78 117 144 179 226 275 318
#     4  11  17  33  56  82 114 145 173 232 279 317
#
# _framework density 28.603715000000001
#
# number of rings (size 3 to 8) (size 9 to 14) (size 15 to 20)
#    0.857    1.429    5.714    0.429    0.000    0.571 
#    0.000    1.429    0.000    0.857    3.714    0.000 
#    0.000    0.000    0.000    0.000    0.000    0.000 
#
# Total GULP energy -78277.447497 kJ/mol
# GULP energy per Si atom -5591.246250 kJ/mol
# Density = 2.853861 g / cm^3
# Si number density = 28.603715 Si / 1000 Ang^3
#
#
#
# Elastic Constant Matrix: (Units=GPa)
#
#
# Indices 1 2 3 4 5 6 
#
# 1 174.6377 5.1809 10.0634 3.9300 10.0379 18.2210
# 2 5.1809 48.9073 -0.0614 -12.9763 5.9668 9.0195
# 3 10.0634 -0.0614 87.9414 -12.7358 0.4877 8.5974
# 4 3.9300 -12.9763 -12.7358 44.6039 3.3665 -2.9382
# 5 10.0379 5.9668 0.4877 3.3665 40.9775 -1.9714
# 6 18.2210 9.0195 8.5974 -2.9382 -1.9714 53.7103
#
#
#
# Elastic Compliance Matrix: (Units=1/GPa)
#
#
# Indices 1 2 3 4 5 6 
#
# 1 0.006083 -0.000314 -0.000611 -0.000824 -0.001466 -0.002012
# 2 -0.000314 0.023671 0.001526 0.007411 -0.004183 -0.003861
# 3 -0.000611 0.001526 0.012188 0.003906 -0.000626 -0.001809
# 4 -0.000824 0.007411 0.003906 0.025977 -0.003072 -0.000282
# 5 -0.001466 -0.004183 -0.000626 -0.003072 0.025732 0.002076
# 6 -0.002012 -0.003861 -0.001809 -0.000282 0.002076 0.020300
#
#
# Mechanical properties :
#
#
# Convention : Reuss Voigt Hill
#
# Bulk Modulus (GPa) = 23.17708 37.98357 30.58032
# Shear Modulus (GPa) = 39.33021 47.61190 43.47105
#
# Velocity S-wave (km/s) = 3.71213 4.08430 3.90265
# Velocity P-wave (km/s) = 5.14719 5.96239 5.56972
#
# Compressibility (1/GPa) = 0.04314608
#
# Stress axis : x y z
#
# Youngs Moduli (GPa) = 164.38158 42.24634 82.04656
#
# Poissons Ratio (x) = 0.01325 0.05011
# Poissons Ratio (y) = 0.05157 -0.12523
# Poissons Ratio (z) = 0.10040 -0.06448
#
# Static dielectric constant tensor:
#      x y z
#    x 2.516240 -0.041900 -0.167870 
#    y -0.041900 2.305110 -0.063860 
#    z -0.167870 -0.063860 2.248400 
# 
# From -- ./inp_files/183156.got.cif
#   From: 2010.05.17/outbox.cif.g08.bks.cpg/sg2_92_cif.got.tgz:183156.got - 2010.06.03 11:33:40.
