data_PCOD9082669
_publ_section_title
;
Structure prediction by ZEFSAII (Michael W. Deem and Ramdas Pophale) SiO2 
 PCOD9082669
Probable space group: P -1
;
_chemical_formula_sum "Si O2"
_cell_formula_units_Z 16
_cell_length_a 5.699804
_cell_length_b 15.684102
_cell_length_c 14.686471
_cell_angle_alpha 34.285565
_cell_angle_beta 69.353996
_cell_angle_gamma 60.161652
_cell_volume 636.928636
_symmetry_space_group_name_H-M "P -1"
_symmetry_group_IT_number 2
_symmetry_cell_setting 'triclinic'
loop_
_space_group_symop_operation_xyz
x,y,z
-x,-y,-z
loop_
_atom_site_type_symbol
_atom_site_label
_atom_site_fract_x
_atom_site_fract_y
_atom_site_fract_z
Si Si1 0.853056 0.770833 0.717880
Si Si2 0.264569 0.129096 0.048048
Si Si3 0.872155 0.154656 0.712072
Si Si4 0.074937 0.554440 0.114301
Si Si5 0.401550 0.685256 0.684905
Si Si6 0.339378 0.540503 0.636228
Si Si7 0.662048 0.954753 0.401839
Si Si8 0.809522 0.202630 0.884665
O O1 0.897788 0.586822 0.839371
O O2 0.814380 0.903096 0.523617
O O3 0.150439 0.742636 0.737983
O O4 0.572960 0.863661 0.726408
O O5 0.088688 0.251021 0.044860
O O6 0.044545 0.176565 0.951007
O O7 0.551450 0.148660 0.984188
O O8 0.318827 0.937335 0.215441
O O9 0.734330 0.347163 0.540537
O O10 0.926940 0.133874 0.830060
O O11 0.139183 0.076473 0.682451
O O12 0.384368 0.493805 0.156742
O O13 0.896043 0.523644 0.248721
O O14 0.315780 0.660229 0.618063
O O15 0.531381 0.818193 0.540659
O O16 0.634567 0.397857 0.724142
#
# Coordination Sequence:
#
# PCOD9082669 Si02
#       8
#     2   2   2   2   2   2   2   2
#     4   9  18  34  58  84 124 158 201 248 320 374
#     4  11  25  44  65  91 128 174 206 252 321 379
#     4  12  23  41  61  95 126 157 213 269 303 364
#     4   9  18  37  60  84 119 168 202 246 310 386
#     4  10  15  32  61  83 120 155 208 244 311 368
#     4  10  20  38  60  94 120 160 211 261 304 365
#     4  10  20  33  54  92 121 155 200 264 308 360
#     4  11  25  45  65  89 128 177 207 248 320 382
#
# _framework density 25.120553000000001
#
# number of rings (size 3 to 8) (size 9 to 14) (size 15 to 20)
#    0.000    1.750    5.000    1.500    0.000    2.000 
#    0.000    3.125    0.000    0.750    0.000    0.000 
#    0.000    0.000    0.000    0.000    0.000    0.000 
#
# Total GULP energy -89309.623592 kJ/mol
# GULP energy per Si atom -5581.851475 kJ/mol
# Density = 2.506338 g / cm^3
# Si number density = 25.120553 Si / 1000 Ang^3
#
#
#
# Elastic Constant Matrix: (Units=GPa)
#
#
# Indices 1 2 3 4 5 6 
#
# 1 87.0020 28.1264 20.6299 8.6979 8.7602 -20.3486
# 2 28.1264 131.1695 22.5376 -5.0893 1.5064 -17.1652
# 3 20.6299 22.5376 44.6391 5.3256 6.5505 10.7230
# 4 8.6979 -5.0893 5.3256 34.4520 3.9120 -1.1465
# 5 8.7602 1.5064 6.5505 3.9120 30.9246 -8.2359
# 6 -20.3486 -17.1652 10.7230 -1.1465 -8.2359 30.5305
#
#
#
# Elastic Compliance Matrix: (Units=1/GPa)
#
#
# Indices 1 2 3 4 5 6 
#
# 1 0.018672 0.000534 -0.013347 -0.002267 0.002606 0.018051
# 2 0.000534 0.010474 -0.008912 0.002722 0.003670 0.010467
# 3 -0.013347 -0.008912 0.043410 -0.004253 -0.013197 -0.032873
# 4 -0.002267 0.002722 -0.004253 0.030949 -0.001931 0.002154
# 5 0.002606 0.003670 -0.013197 -0.001931 0.039526 0.019025
# 6 0.018051 0.010467 -0.032873 0.002154 0.019025 0.067428
#
#
# Mechanical properties :
#
#
# Convention : Reuss Voigt Hill
#
# Bulk Modulus (GPa) = 34.35745 45.04426 39.70086
# Shear Modulus (GPa) = 18.96729 31.94919 25.45824
#
# Velocity S-wave (km/s) = 2.75080 3.57015 3.18691
# Velocity P-wave (km/s) = 4.87811 5.91310 5.42036
#
# Compressibility (1/GPa) = 0.02910577
#
# Stress axis : x y z
#
# Youngs Moduli (GPa) = 53.55504 95.47708 23.03610
#
# Poissons Ratio (x) = -0.05095 0.30746
# Poissons Ratio (y) = -0.02858 0.20530
# Poissons Ratio (z) = 0.71479 0.85090
#
# Static dielectric constant tensor:
#      x y z
#    x 2.042140 0.015900 0.044160 
#    y 0.015900 2.030020 -0.017690 
#    z 0.044160 -0.017690 2.088640 
# 
# From -- ./inp_files/288590.got.cif
#   From: 2010.05.17/outbox.cif.g08.bks.cpg/sg2_145_cif.got.tgz:288590.got - 2010.06.03 11:33:40.
