data_PCOD9082030
_publ_section_title
;
Structure prediction by ZEFSAII (Michael W. Deem and Ramdas Pophale) SiO2 
 PCOD9082030
Probable space group: P -1
;
_chemical_formula_sum "Si O2"
_cell_formula_units_Z 16
_cell_length_a 15.525416
_cell_length_b 9.940827
_cell_length_c 9.205442
_cell_angle_alpha 95.708295
_cell_angle_beta 58.639219
_cell_angle_gamma 140.391734
_cell_volume 644.005881
_symmetry_space_group_name_H-M "P -1"
_symmetry_group_IT_number 2
_symmetry_cell_setting 'triclinic'
loop_
_space_group_symop_operation_xyz
x,y,z
-x,-y,-z
loop_
_atom_site_type_symbol
_atom_site_label
_atom_site_fract_x
_atom_site_fract_y
_atom_site_fract_z
Si Si1 0.374998 0.488779 0.157735
Si Si2 0.243286 0.097339 0.399778
Si Si3 0.415932 0.231173 0.544215
Si Si4 0.302431 0.573086 0.481406
Si Si5 0.894790 0.038756 0.021823
Si Si6 0.906409 0.220119 0.752162
Si Si7 0.899316 0.750450 0.867246
Si Si8 0.138181 0.658600 0.753772
O O1 0.428682 0.670872 0.241569
O O2 0.287359 0.455057 0.087326
O O3 0.236909 0.239190 0.352181
O O4 0.500000 0.500000 0.000000
O O5 0.240637 0.981780 0.263953
O O6 0.058764 0.871956 0.636115
O O7 0.411567 0.266016 0.384324
O O8 0.613789 0.428834 0.468575
O O9 0.280728 0.945154 0.651658
O O10 0.290929 0.194479 0.742962
O O11 0.277494 0.687734 0.602208
O O12 0.092371 0.338426 0.571694
O O13 0.848817 0.095203 0.945211
O O14 0.943571 0.956952 0.888018
O O15 0.063040 0.272216 0.009813
O O16 0.986231 0.460831 0.734178
O O17 0.000000 0.500000 0.000000
#
# Coordination Sequence:
#
# PCOD9082030 Si02
#       8
#     2   2   2   2   2   2   2   2
#     4  12  23  37  60  90 129 158 195 248 311 355
#     4  11  23  38  62  87 123 161 196 253 297 363
#     4  11  22  40  59  91 122 154 205 250 303 344
#     4  10  23  37  62  89 119 158 201 245 304 360
#     4  10  19  32  61  86 115 156 201 242 291 367
#     4  10  20  38  61  88 113 158 205 237 299 357
#     4  10  19  35  56  86 119 157 198 240 296 361
#     4  10  21  40  67  86 115 161 207 249 293 358
#
# _framework density 24.844491999999999
#
# number of rings (size 3 to 8) (size 9 to 14) (size 15 to 20)
#    0.750    0.750    3.750    2.250    0.000    2.000 
#    0.000    0.000    0.000    1.500    0.000    0.000 
#    0.000    0.000    0.000    0.000    0.000    0.000 
#
# Total GULP energy -89084.006351 kJ/mol
# GULP energy per Si atom -5567.750397 kJ/mol
# Density = 2.478795 g / cm^3
# Si number density = 24.844492 Si / 1000 Ang^3
#
#
#
# Elastic Constant Matrix: (Units=GPa)
#
#
# Indices 1 2 3 4 5 6 
#
# 1 78.5208 39.8748 38.2144 11.4039 -12.6652 18.1223
# 2 39.8748 110.5109 39.7589 29.7880 6.8037 7.8340
# 3 38.2144 39.7589 119.1445 32.2467 -7.7565 2.2202
# 4 11.4039 29.7880 32.2467 35.8816 0.2037 4.4944
# 5 -12.6652 6.8037 -7.7565 0.2037 33.0673 5.5780
# 6 18.1223 7.8340 2.2202 4.4944 5.5780 53.3857
#
#
#
# Elastic Compliance Matrix: (Units=1/GPa)
#
#
# Indices 1 2 3 4 5 6 
#
# 1 0.021440 -0.007261 -0.004892 0.004483 0.009780 -0.007408
# 2 -0.007261 0.014675 -0.000365 -0.009736 -0.006128 0.001787
# 3 -0.004892 -0.000365 0.012782 -0.009874 0.000937 0.001916
# 4 0.004483 -0.009736 -0.009874 0.043836 0.001734 -0.003554
# 5 0.009780 -0.006128 0.000937 0.001734 0.036541 -0.006424
# 6 -0.007408 0.001787 0.001916 -0.003554 -0.006424 0.021875
#
#
# Mechanical properties :
#
#
# Convention : Reuss Voigt Hill
#
# Bulk Modulus (GPa) = 41.91168 60.43027 51.17098
# Shear Modulus (GPa) = 27.15308 37.15546 32.15427
#
# Velocity S-wave (km/s) = 3.30952 3.87139 3.60143
# Velocity P-wave (km/s) = 5.61339 6.66031 6.15914
#
# Compressibility (1/GPa) = 0.02385970
#
# Stress axis : x y z
#
# Youngs Moduli (GPa) = 46.64131 68.14160 78.23491
#
# Poissons Ratio (x) = 0.49481 0.38274
# Poissons Ratio (y) = 0.33868 0.02858
# Poissons Ratio (z) = 0.22818 0.02490
#
# Static dielectric constant tensor:
#      x y z
#    x 2.002130 -0.015790 0.021740 
#    y -0.015790 2.048380 -0.035180 
#    z 0.021740 -0.035180 2.100590 
# 
# From -- ./inp_files/307493.got.cif
#   From: 2010.05.17/outbox.cif.g08.bks.cpg/sg2_154_cif.got.tgz:307493.got - 2010.06.03 11:33:40.
