data_PCOD9082894
_publ_section_title
;
Structure prediction by ZEFSAII (Michael W. Deem and Ramdas Pophale) SiO2 
 PCOD9082894
Probable space group: P -1
;
_chemical_formula_sum "Si O2"
_cell_formula_units_Z 16
_cell_length_a 10.392753
_cell_length_b 22.861683
_cell_length_c 9.302486
_cell_angle_alpha 139.474572
_cell_angle_beta 28.399078
_cell_angle_gamma 139.347654
_cell_volume 653.430445
_symmetry_space_group_name_H-M "P -1"
_symmetry_group_IT_number 2
_symmetry_cell_setting 'triclinic'
loop_
_space_group_symop_operation_xyz
x,y,z
-x,-y,-z
loop_
_atom_site_type_symbol
_atom_site_label
_atom_site_fract_x
_atom_site_fract_y
_atom_site_fract_z
Si Si1 0.265973 0.507751 0.546838
Si Si2 0.946455 0.100350 0.746461
Si Si3 0.309774 0.596539 0.981291
Si Si4 0.184698 0.258766 0.620135
Si Si5 0.264986 0.221589 0.173632
Si Si6 0.366303 0.890643 0.457827
Si Si7 0.768794 0.340763 0.338889
Si Si8 0.478316 0.820149 0.526431
O O1 0.265981 0.574494 0.811378
O O2 0.552046 0.479367 0.228070
O O3 0.235178 0.556281 0.516206
O O4 0.994718 0.419181 0.678759
O O5 0.009836 0.151832 0.627034
O O6 0.195995 0.162794 0.720264
O O7 0.000000 0.000000 0.500000
O O8 0.658638 0.114609 0.115923
O O9 0.541617 0.696247 0.961201
O O10 0.171860 0.276231 0.498456
O O11 0.507150 0.276940 0.382677
O O12 0.053148 0.323858 0.968486
O O13 0.972748 0.147633 0.276149
O O14 0.482768 0.164888 0.902680
O O15 0.461294 0.860575 0.461929
O O16 0.500000 0.000000 0.500000
O O17 0.694016 0.288119 0.466947
#
# Coordination Sequence:
#
# PCOD9082894 Si02
#       8
#     2   2   2   2   2   2   2   2
#     4  10  19  33  58  92 126 151 188 235 312 366
#     4  10  21  36  62  84 115 145 188 264 305 362
#     4  10  21  33  57  91 126 154 187 244 298 372
#     4  10  21  33  57  91 115 156 191 237 312 348
#     4  12  24  42  62  86 127 159 204 250 298 359
#     4  12  28  43  64  83 117 173 210 252 286 347
#     4  10  19  37  59  87 125 153 187 241 299 361
#     4  10  23  41  57  85 116 155 207 235 300 357
#
# _framework density 24.486155
#
# number of rings (size 3 to 8) (size 9 to 14) (size 15 to 20)
#    0.000    1.500    1.250    3.750    7.000    0.000 
#    0.000    0.000    0.000    4.500    0.000    0.000 
#    0.000    0.000    0.000    0.000    0.000    0.000 
#
# Total GULP energy -89394.351439 kJ/mol
# GULP energy per Si atom -5587.146965 kJ/mol
# Density = 2.443042 g / cm^3
# Si number density = 24.486155 Si / 1000 Ang^3
#
#
#
# Elastic Constant Matrix: (Units=GPa)
#
#
# Indices 1 2 3 4 5 6 
#
# 1 64.9299 37.1192 13.8044 -13.8568 -2.8421 -24.6234
# 2 37.1192 133.3881 15.9067 -19.2293 -7.7901 -18.1952
# 3 13.8044 15.9067 90.7651 -12.6122 -22.6785 3.9023
# 4 -13.8568 -19.2293 -12.6122 36.4183 -2.2129 -6.9355
# 5 -2.8421 -7.7901 -22.6785 -2.2129 26.9201 -2.0561
# 6 -24.6234 -18.1952 3.9023 -6.9355 -2.0561 35.7324
#
#
#
# Elastic Compliance Matrix: (Units=1/GPa)
#
#
# Indices 1 2 3 4 5 6 
#
# 1 0.028201 -0.002728 -0.002204 0.012691 0.002972 0.020919
# 2 -0.002728 0.009772 0.000074 0.005167 0.003354 0.004284
# 3 -0.002204 0.000074 0.015357 0.005038 0.013031 -0.001431
# 4 0.012691 0.005167 0.005038 0.041203 0.011957 0.019512
# 5 0.002972 0.003354 0.013031 0.011957 0.050972 0.007587
# 6 0.020919 0.004284 -0.001431 0.019512 0.007587 0.048963
#
#
# Mechanical properties :
#
#
# Convention : Reuss Voigt Hill
#
# Bulk Modulus (GPa) = 22.92838 46.97153 34.94996
# Shear Modulus (GPa) = 22.85991 34.63101 28.74546
#
# Velocity S-wave (km/s) = 3.05878 3.76481 3.43001
# Velocity P-wave (km/s) = 4.67536 6.17438 5.47640
#
# Compressibility (1/GPa) = 0.04361407
#
# Stress axis : x y z
#
# Youngs Moduli (GPa) = 35.45934 102.32801 65.11573
#
# Poissons Ratio (x) = 0.27919 0.14354
# Poissons Ratio (y) = 0.09675 -0.00484
# Poissons Ratio (z) = 0.07817 -0.00760
#
# Static dielectric constant tensor:
#      x y z
#    x 1.983060 -0.002430 0.070600 
#    y -0.002430 1.988770 0.016580 
#    z 0.070600 0.016580 1.925670 
# 
# From -- ./inp_files/439267.got.cif
#   From: 2010.05.17/outbox.cif.g08.bks.cpg/sg2_220_cif.got.tgz:439267.got - 2010.06.03 11:33:40.
