data_PCOD9082411
_publ_section_title
;
Structure prediction by ZEFSAII (Michael W. Deem and Ramdas Pophale) SiO2 
 PCOD9082411
Probable space group: P -1
;
_chemical_formula_sum "Si O2"
_cell_formula_units_Z 14
_cell_length_a 7.015407
_cell_length_b 23.641270
_cell_length_c 12.653882
_cell_angle_alpha 29.043019
_cell_angle_beta 52.631775
_cell_angle_gamma 67.536557
_cell_volume 747.326438
_symmetry_space_group_name_H-M "P -1"
_symmetry_group_IT_number 2
_symmetry_cell_setting 'triclinic'
loop_
_space_group_symop_operation_xyz
x,y,z
-x,-y,-z
loop_
_atom_site_type_symbol
_atom_site_label
_atom_site_fract_x
_atom_site_fract_y
_atom_site_fract_z
Si Si1 0.979457 0.637224 0.777617
Si Si2 0.622915 0.341721 0.677506
Si Si3 0.280218 0.064280 0.851734
Si Si4 0.511289 0.153723 0.834817
Si Si5 0.450916 0.335076 0.279490
Si Si6 0.408417 0.416506 0.824646
Si Si7 0.772694 0.540172 0.691553
O O1 0.781654 0.650560 0.734136
O O2 0.250696 0.745990 0.476922
O O3 0.845415 0.652537 0.906293
O O4 0.000000 0.500000 0.000000
O O5 0.498329 0.227419 0.824506
O O6 0.470181 0.332377 0.853086
O O7 0.623466 0.466049 0.414738
O O8 0.925502 0.371518 0.552280
O O9 0.417607 0.965171 0.965097
O O10 0.575131 0.806629 0.471290
O O11 0.276642 0.102926 0.913075
O O12 0.000000 0.000000 0.000000
O O13 0.400572 0.384688 0.329255
O O14 0.708257 0.426974 0.983911
O O15 0.651908 0.476846 0.724910
#
# Coordination Sequence:
#
# PCOD9082411 Si02
#       7
#     2   2   2   2   2   2   2
#     4  11  19  36  57  89 114 142 183 237 274 333
#     4  11  20  37  52  85 116 148 175 226 282 334
#     4  11  22  38  54  85 109 145 192 234 273 329
#     4  11  23  35  60  81 112 148 185 234 277 320
#     4  10  20  32  58  88 113 144 187 231 282 318
#     4  10  22  31  55  84 118 145 179 217 285 339
#     4  10  19  33  54  87 114 143 176 232 275 331
#
# _framework density 18.733447000000002
#
# number of rings (size 3 to 8) (size 9 to 14) (size 15 to 20)
#    0.000    1.429    4.286    1.286    6.000    0.000 
#    0.000    0.000    0.000    6.857    3.714    0.000 
#    0.000    0.000    0.000    0.000    0.000    0.000 
#
# Total GULP energy -78134.762785 kJ/mol
# GULP energy per Si atom -5581.054485 kJ/mol
# Density = 1.869081 g / cm^3
# Si number density = 18.733447 Si / 1000 Ang^3
#
#
#
# Elastic Constant Matrix: (Units=GPa)
#
#
# Indices 1 2 3 4 5 6 
#
# 1 97.1636 33.2667 17.0544 -7.3391 -1.7744 14.3921
# 2 33.2667 147.2730 38.4046 9.1414 -3.0116 21.7971
# 3 17.0544 38.4046 71.0668 -8.0935 17.7127 -9.2266
# 4 -7.3391 9.1414 -8.0935 29.3546 -3.5748 2.8682
# 5 -1.7744 -3.0116 17.7127 -3.5748 30.7974 -12.3418
# 6 14.3921 21.7971 -9.2266 2.8682 -12.3418 29.3692
#
#
#
# Elastic Compliance Matrix: (Units=1/GPa)
#
#
# Indices 1 2 3 4 5 6 
#
# 1 0.012414 -0.001414 -0.002630 0.003425 0.000006 -0.006192
# 2 -0.001414 0.010595 -0.007328 -0.004695 0.001217 -0.008503
# 3 -0.002630 -0.007328 0.022945 0.005866 -0.009654 0.009306
# 4 0.003425 -0.004695 0.005866 0.038082 0.000910 0.000312
# 5 0.000006 0.001217 -0.009654 0.000910 0.044052 0.014484
# 6 -0.006192 -0.008503 0.009306 0.000312 0.014484 0.052374
#
#
# Mechanical properties :
#
#
# Convention : Reuss Voigt Hill
#
# Bulk Modulus (GPa) = 43.08656 54.77275 48.92965
# Shear Modulus (GPa) = 23.70301 33.02275 28.36288
#
# Velocity S-wave (km/s) = 3.56093 4.20309 3.89527
# Velocity P-wave (km/s) = 6.32113 7.27022 6.81222
#
# Compressibility (1/GPa) = 0.02320909
#
# Stress axis : x y z
#
# Youngs Moduli (GPa) = 80.55627 94.38142 43.58216
#
# Poissons Ratio (x) = 0.13348 0.11462
# Poissons Ratio (y) = 0.11393 0.31938
# Poissons Ratio (z) = 0.21187 0.69165
#
# Static dielectric constant tensor:
#      x y z
#    x 1.713740 0.028830 -0.015240 
#    y 0.028830 1.669280 -0.014940 
#    z -0.015240 -0.014940 1.673290 
# 
# From -- ./inp_files/368898.got.cif
#   From: 2010.05.17/outbox.cif.g08.bks.cpg/sg2_185_cif.got.tgz:368898.got - 2010.06.03 11:33:40.
