data_PCOD9082634
_publ_section_title
;
Structure prediction by ZEFSAII (Michael W. Deem and Ramdas Pophale) SiO2 
 PCOD9082634
Probable space group: P -1
;
_chemical_formula_sum "Si O2"
_cell_formula_units_Z 16
_cell_length_a 16.532908
_cell_length_b 8.302268
_cell_length_c 15.899985
_cell_angle_alpha 116.722480
_cell_angle_beta 155.699145
_cell_angle_gamma 57.974654
_cell_volume 757.904352
_symmetry_space_group_name_H-M "P -1"
_symmetry_group_IT_number 2
_symmetry_cell_setting 'triclinic'
loop_
_space_group_symop_operation_xyz
x,y,z
-x,-y,-z
loop_
_atom_site_type_symbol
_atom_site_label
_atom_site_fract_x
_atom_site_fract_y
_atom_site_fract_z
Si Si1 0.174942 0.501165 0.732155
Si Si2 0.238883 0.980134 0.228373
Si Si3 0.519424 0.857044 0.758814
Si Si4 0.155254 0.413669 0.884124
Si Si5 0.754931 0.371858 0.578506
Si Si6 0.602730 0.719151 0.620397
Si Si7 0.443126 0.735516 0.067694
Si Si8 0.585688 0.346050 0.796766
O O1 0.121934 0.436707 0.758247
O O2 0.391169 0.353031 0.868394
O O3 0.000000 0.500000 0.500000
O O4 0.224876 0.702057 0.830516
O O5 0.368358 0.845835 0.395609
O O6 0.359129 0.867590 0.233640
O O7 0.265414 0.186140 0.293003
O O8 0.000000 0.000000 0.000000
O O9 0.296573 0.824606 0.526197
O O10 0.629317 0.759610 0.753153
O O11 0.539257 0.062546 0.841461
O O12 0.630800 0.742720 0.920023
O O13 0.977613 0.364000 0.754472
O O14 0.200430 0.606363 0.998144
O O15 0.690317 0.491542 0.632043
O O16 0.586892 0.518618 0.393836
O O17 0.494684 0.618932 0.176607
#
# Coordination Sequence:
#
# PCOD9082634 Si02
#       8
#     2   2   2   2   2   2   2   2
#     4  10  22  42  67  88 109 148 200 249 303 356
#     4  10  19  33  56  87 118 153 200 249 281 329
#     4  11  23  39  57  88 125 157 195 236 297 352
#     4  10  22  38  59  87 116 157 197 241 297 355
#     4  10  21  37  58  83 123 165 195 234 281 345
#     4  10  21  36  55  86 122 162 200 234 284 342
#     4  10  21  40  63  87 116 151 188 253 299 348
#     4   9  18  37  58  82 117 152 197 243 289 337
#
# _framework density 21.110844
#
# number of rings (size 3 to 8) (size 9 to 14) (size 15 to 20)
#    0.000    2.000    1.250    1.875    0.000    4.000 
#    4.500    1.250    0.000    0.000    0.000    0.000 
#    0.000    0.000    0.000    0.000    0.000    0.000 
#
# Total GULP energy -89103.935880 kJ/mol
# GULP energy per Si atom -5568.995992 kJ/mol
# Density = 2.106279 g / cm^3
# Si number density = 21.110844 Si / 1000 Ang^3
#
#
#
# Elastic Constant Matrix: (Units=GPa)
#
#
# Indices 1 2 3 4 5 6 
#
# 1 49.1667 8.7118 20.4404 9.0328 -2.4701 1.1315
# 2 8.7118 63.0981 23.8037 38.0657 -3.5283 0.2595
# 3 20.4404 23.8037 103.6409 26.2165 2.4524 4.4113
# 4 9.0328 38.0657 26.2165 36.0293 1.4285 -1.8424
# 5 -2.4701 -3.5283 2.4524 1.4285 34.6207 3.7606
# 6 1.1315 0.2595 4.4113 -1.8424 3.7606 24.5334
#
#
#
# Elastic Compliance Matrix: (Units=1/GPa)
#
#
# Indices 1 2 3 4 5 6 
#
# 1 0.022579 0.000792 -0.003633 -0.003996 0.002227 -0.001038
# 2 0.000792 0.046318 0.002283 -0.051392 0.007380 -0.005927
# 3 -0.003633 0.002283 0.012729 -0.010907 -0.000159 -0.002940
# 4 -0.003996 -0.051392 -0.010907 0.091943 -0.009748 0.011088
# 5 0.002227 0.007380 -0.000159 -0.009748 0.030818 -0.005608
# 6 -0.001038 -0.005927 -0.002940 0.011088 -0.005608 0.043092
#
#
# Mechanical properties :
#
#
# Convention : Reuss Voigt Hill
#
# Bulk Modulus (GPa) = 12.42065 35.75751 24.08908
# Shear Modulus (GPa) = 18.15337 29.89999 24.02668
#
# Velocity S-wave (km/s) = 2.93560 3.76750 3.37726
# Velocity P-wave (km/s) = 4.16973 5.99168 5.16173
#
# Compressibility (1/GPa) = 0.08051110
#
# Stress axis : x y z
#
# Youngs Moduli (GPa) = 44.28954 21.58985 78.56202
#
# Poissons Ratio (x) = -0.01711 0.28540
# Poissons Ratio (y) = -0.03510 -0.17936
# Poissons Ratio (z) = 0.16089 -0.04929
#
# Static dielectric constant tensor:
#      x y z
#    x 1.791300 -0.005390 0.007810 
#    y -0.005390 1.814290 0.074210 
#    z 0.007810 0.074210 1.811300 
# 
# From -- ./inp_files/140572.got.cif
#   From: 2010.05.17/outbox.cif.g08.bks.cpg/sg2_71_cif.got.tgz:140572.got - 2010.06.03 11:33:40.
