data_PCOD9082195
_publ_section_title
;
Structure prediction by ZEFSAII (Michael W. Deem and Ramdas Pophale) SiO2 
 PCOD9082195
Probable space group: P -1
;
_chemical_formula_sum "Si O2"
_cell_formula_units_Z 16
_cell_length_a 12.334271
_cell_length_b 11.572096
_cell_length_c 11.747746
_cell_angle_alpha 60.775862
_cell_angle_beta 30.351600
_cell_angle_gamma 57.244685
_cell_volume 711.665720
_symmetry_space_group_name_H-M "P -1"
_symmetry_group_IT_number 2
_symmetry_cell_setting 'triclinic'
loop_
_space_group_symop_operation_xyz
x,y,z
-x,-y,-z
loop_
_atom_site_type_symbol
_atom_site_label
_atom_site_fract_x
_atom_site_fract_y
_atom_site_fract_z
Si Si1 0.008857 0.337450 0.086576
Si Si2 0.344554 0.302103 0.985728
Si Si3 0.367314 0.558346 0.480417
Si Si4 0.181772 0.792507 0.881415
Si Si5 0.600267 0.713468 0.693024
Si Si6 0.113802 0.080317 0.694302
Si Si7 0.078211 0.544551 0.561670
Si Si8 0.719415 0.219223 0.837001
O O1 0.819775 0.316085 0.356028
O O2 0.943594 0.286871 0.050238
O O3 0.229782 0.265346 0.992850
O O4 0.000000 0.500000 0.000000
O O5 0.165991 0.380923 0.204054
O O6 0.462416 0.412412 0.776982
O O7 0.547084 0.188844 0.915191
O O8 0.500000 0.500000 0.500000
O O9 0.211451 0.486214 0.585996
O O10 0.425491 0.718777 0.745675
O O11 0.204078 0.924485 0.727018
O O12 0.022368 0.841065 0.111120
O O13 0.692933 0.847852 0.545146
O O14 0.823914 0.585999 0.545985
O O15 0.445028 0.714377 0.942386
O O16 0.925162 0.101350 0.757010
O O17 0.169857 0.667150 0.369689
#
# Coordination Sequence:
#
# PCOD9082195 Si02
#       8
#     2   2   2   2   2   2   2   2
#     4  11  22  36  63  91 126 165 202 257 319 368
#     4  10  22  37  58  87 132 165 200 253 313 375
#     4  10  19  33  52  85 125 158 197 245 302 375
#     4  10  24  42  62  96 126 161 214 258 309 379
#     4  11  22  37  67  90 126 165 206 264 320 368
#     4  10  23  42  65  89 126 171 210 256 306 373
#     4  10  22  34  57  93 124 161 201 258 316 370
#     4  10  22  40  59  91 130 161 215 256 307 380
#
# _framework density 22.482465999999999
#
# number of rings (size 3 to 8) (size 9 to 14) (size 15 to 20)
#    0.000    1.750    1.250    2.250    5.250    5.000 
#    0.000    0.625    0.000   10.500    0.000    0.000 
#    0.000    0.000    0.000    0.000    0.000    0.000 
#
# Total GULP energy -89152.917056 kJ/mol
# GULP energy per Si atom -5572.057316 kJ/mol
# Density = 2.243129 g / cm^3
# Si number density = 22.482466 Si / 1000 Ang^3
#
#
#
# Elastic Constant Matrix: (Units=GPa)
#
#
# Indices 1 2 3 4 5 6 
#
# 1 146.6686 20.8066 19.0678 2.9193 -29.6670 -28.1825
# 2 20.8066 27.5014 16.3753 -4.0437 -3.4575 -9.3004
# 3 19.0678 16.3753 140.3802 -12.7749 8.1804 -9.5110
# 4 2.9193 -4.0437 -12.7749 14.1422 -6.7141 -3.2122
# 5 -29.6670 -3.4575 8.1804 -6.7141 37.8412 -0.5990
# 6 -28.1825 -9.3004 -9.5110 -3.2122 -0.5990 24.4832
#
#
#
# Elastic Compliance Matrix: (Units=1/GPa)
#
#
# Indices 1 2 3 4 5 6 
#
# 1 0.011690 -0.002117 -0.000655 0.004162 0.010060 0.013190
# 2 -0.002117 0.049565 -0.002923 0.019494 0.007244 0.017990
# 3 -0.000655 -0.002923 0.008400 0.006751 -0.001363 0.002251
# 4 0.004162 0.019494 0.006751 0.098111 0.021439 0.028216
# 5 0.010060 0.007244 -0.001363 0.021439 0.039352 0.017578
# 6 0.013190 0.017990 0.002251 0.028216 0.017578 0.067868
#
#
# Mechanical properties :
#
#
# Convention : Reuss Voigt Hill
#
# Bulk Modulus (GPa) = 17.16310 47.44996 32.30653
# Shear Modulus (GPa) = 16.35065 32.51334 24.43200
#
# Velocity S-wave (km/s) = 2.69971 3.80697 3.30011
# Velocity P-wave (km/s) = 4.16755 6.36201 5.37790
#
# Compressibility (1/GPa) = 0.05826455
#
# Stress axis : x y z
#
# Youngs Moduli (GPa) = 85.54240 20.17539 119.05050
#
# Poissons Ratio (x) = 0.04271 0.07794
# Poissons Ratio (y) = 0.18110 0.34804
# Poissons Ratio (z) = 0.05601 0.05898
#
# Static dielectric constant tensor:
#      x y z
#    x 1.990230 -0.009640 -0.030010 
#    y -0.009640 1.826130 0.021860 
#    z -0.030010 0.021860 1.867050 
# 
# From -- ./inp_files/427687.got.cif
#   From: 2010.05.17/outbox.cif.g08.bks.cpg/sg2_214_cif.got.tgz:427687.got - 2010.06.03 11:33:40.
