data_PCOD9082795
_publ_section_title
;
Structure prediction by ZEFSAII (Michael W. Deem and Ramdas Pophale) SiO2 
 PCOD9082795
Probable space group: P -1
;
_chemical_formula_sum "Si O2"
_cell_formula_units_Z 16
_cell_length_a 20.635419
_cell_length_b 9.287598
_cell_length_c 15.337846
_cell_angle_alpha 140.446433
_cell_angle_beta 28.950675
_cell_angle_gamma 143.857179
_cell_volume 817.605807
_symmetry_space_group_name_H-M "P -1"
_symmetry_group_IT_number 2
_symmetry_cell_setting 'triclinic'
loop_
_space_group_symop_operation_xyz
x,y,z
-x,-y,-z
loop_
_atom_site_type_symbol
_atom_site_label
_atom_site_fract_x
_atom_site_fract_y
_atom_site_fract_z
Si Si1 0.204564 0.908895 0.279482
Si Si2 0.347929 0.313122 0.442284
Si Si3 0.643957 0.063151 0.610551
Si Si4 0.426017 0.880019 0.623627
Si Si5 0.076896 0.407551 0.441130
Si Si6 0.402404 0.196263 0.040592
Si Si7 0.255798 0.184382 0.035097
Si Si8 0.605186 0.398954 0.058619
O O1 0.038476 0.708441 0.398965
O O2 0.241018 0.134981 0.410238
O O3 0.246230 0.003504 0.176162
O O4 0.320895 0.793338 0.114689
O O5 0.346105 0.579798 0.576543
O O6 0.516815 0.386240 0.244133
O O7 0.315376 0.143294 0.487585
O O8 0.777398 0.342613 0.586327
O O9 0.566445 0.975037 0.568104
O O10 0.512528 0.075583 0.829034
O O11 0.500000 0.000000 0.500000
O O12 0.306166 0.974017 0.845414
O O13 0.113319 0.192147 0.252745
O O14 0.000000 0.500000 0.500000
O O15 0.367480 0.300371 0.041138
O O16 0.483144 0.351530 0.103710
O O17 0.271976 0.342426 0.001538
#
# Coordination Sequence:
#
# PCOD9082795 Si02
#       8
#     2   2   2   2   2   2   2   2
#     4  11  21  36  64  93 121 156 190 249 303 356
#     4  11  19  37  60  91 119 155 202 239 290 355
#     4  11  21  37  65  91 116 154 203 249 294 348
#     4  11  25  38  58  90 121 161 198 250 293 347
#     4  12  22  38  64  92 121 152 197 248 309 357
#     4  10  19  33  57  94 116 146 195 253 304 332
#     4  11  22  35  57  87 119 156 195 249 300 346
#     4  11  17  33  63  89 118 145 198 255 294 342
#
# _framework density 19.569333
#
# number of rings (size 3 to 8) (size 9 to 14) (size 15 to 20)
#    0.000    1.000    7.500    1.500    1.750    0.500 
#    0.000    0.625    0.000    4.500    0.000    0.000 
#    0.000    0.000    0.000    0.000    0.000    0.000 
#
# Total GULP energy -89072.336714 kJ/mol
# GULP energy per Si atom -5567.021045 kJ/mol
# Density = 1.952479 g / cm^3
# Si number density = 19.569333 Si / 1000 Ang^3
#
#
#
# Elastic Constant Matrix: (Units=GPa)
#
#
# Indices 1 2 3 4 5 6 
#
# 1 61.7038 27.0874 13.3012 6.1939 10.1702 -6.7470
# 2 27.0874 104.7356 45.8918 -4.7909 7.7091 -3.4637
# 3 13.3012 45.8918 97.7382 -1.6022 -4.4431 4.9184
# 4 6.1939 -4.7909 -1.6022 36.5948 -8.4038 9.1485
# 5 10.1702 7.7091 -4.4431 -8.4038 18.5112 -0.5846
# 6 -6.7470 -3.4637 4.9184 9.1485 -0.5846 14.7549
#
#
#
# Elastic Compliance Matrix: (Units=1/GPa)
#
#
# Indices 1 2 3 4 5 6 
#
# 1 0.025457 -0.003370 -0.004033 -0.014507 -0.019492 0.020416
# 2 -0.003370 0.013742 -0.006419 -0.000042 -0.005316 0.003640
# 3 -0.004033 -0.006419 0.014961 0.005857 0.010775 -0.011543
# 4 -0.014507 -0.000042 0.005857 0.045620 0.028976 -0.035734
# 5 -0.019492 -0.005316 0.010775 0.028976 0.081786 -0.028479
# 6 0.020416 0.003640 -0.011543 -0.035734 -0.028479 0.102840
#
#
# Mechanical properties :
#
#
# Convention : Reuss Voigt Hill
#
# Bulk Modulus (GPa) = 37.71555 48.52649 43.12102
# Shear Modulus (GPa) = 15.58168 25.83199 20.70683
#
# Velocity S-wave (km/s) = 2.82482 3.63715 3.25642
# Velocity P-wave (km/s) = 5.47303 6.51840 6.01846
#
# Compressibility (1/GPa) = 0.02651426
#
# Stress axis : x y z
#
# Youngs Moduli (GPa) = 39.28233 72.76987 66.83998
#
# Poissons Ratio (x) = 0.24525 0.26958
# Poissons Ratio (y) = 0.13239 0.42906
# Poissons Ratio (z) = 0.15844 0.46713
#
# Static dielectric constant tensor:
#      x y z
#    x 1.705610 -0.007050 -0.020740 
#    y -0.007050 1.794030 -0.037740 
#    z -0.020740 -0.037740 1.722760 
# 
# From -- ./inp_files/540582.got.cif
#   From: 2010.05.17/outbox.cif.g08.bks.cpg/sg2_271_cif.got.tgz:540582.got - 2010.06.03 11:33:40.
