data_PCOD9082327
_publ_section_title
;
Structure prediction by ZEFSAII (Michael W. Deem and Ramdas Pophale) SiO2 
 PCOD9082327
Probable space group: P -1
;
_chemical_formula_sum "Si O2"
_cell_formula_units_Z 14
_cell_length_a 27.088149
_cell_length_b 27.044593
_cell_length_c 8.466340
_cell_angle_alpha 141.532613
_cell_angle_beta 37.740109
_cell_angle_gamma 169.333584
_cell_volume 701.734211
_symmetry_space_group_name_H-M "P -1"
_symmetry_group_IT_number 2
_symmetry_cell_setting 'triclinic'
loop_
_space_group_symop_operation_xyz
x,y,z
-x,-y,-z
loop_
_atom_site_type_symbol
_atom_site_label
_atom_site_fract_x
_atom_site_fract_y
_atom_site_fract_z
Si Si1 0.710363 0.264174 0.683320
Si Si2 0.406934 0.324441 0.353416
Si Si3 0.257533 0.259883 0.888227
Si Si4 0.244698 0.626096 0.457300
Si Si5 0.378512 0.925410 0.965839
Si Si6 0.780310 0.098251 0.470031
Si Si7 0.929120 0.791706 0.032593
O O1 0.677171 0.307394 0.758290
O O2 0.000000 0.500000 0.500000
O O3 0.500000 0.000000 0.500000
O O4 0.616258 0.183923 0.900124
O O5 0.500000 0.500000 0.500000
O O6 0.336487 0.267556 0.574843
O O7 0.675151 0.528895 0.131170
O O8 0.144620 0.047381 0.227413
O O9 0.183717 0.265559 0.975946
O O10 0.500000 0.500000 0.000000
O O11 0.000000 0.000000 0.000000
O O12 0.229336 0.707039 0.729196
O O13 0.960564 0.318222 0.440942
O O14 0.476580 0.810970 0.449000
O O15 0.207350 0.838943 0.243489
O O16 0.500000 0.000000 0.000000
O O17 0.909356 0.133607 0.244960
#
# Coordination Sequence:
#
# PCOD9082327 Si02
#       7
#     2   2   2   2   2   2   2
#     4  10  19  33  54  79 105 139 191 249 285 330
#     4  10  20  39  63  85 113 155 195 229 284 366
#     4  11  21  37  64  93 117 147 193 244 289 350
#     4  10  20  36  56  81 110 154 202 241 289 345
#     4   9  19  35  57  81 110 152 200 238 283 341
#     4  11  22  37  57  82 116 152 193 247 290 343
#     4  11  22  39  60  89 123 159 196 238 299 361
#
# _framework density 19.950572000000001
#
# number of rings (size 3 to 8) (size 9 to 14) (size 15 to 20)
#    0.000    1.714    0.000    8.143    0.000    3.429 
#    0.000    4.286    0.000    1.714    0.000    0.000 
#    0.000    0.000    0.000    0.000    0.000    0.000 
#
# Total GULP energy -77994.400422 kJ/mol
# GULP energy per Si atom -5571.028602 kJ/mol
# Density = 1.990516 g / cm^3
# Si number density = 19.950572 Si / 1000 Ang^3
#
#
#
# Elastic Constant Matrix: (Units=GPa)
#
#
# Indices 1 2 3 4 5 6 
#
# 1 86.6425 28.5673 57.2462 -7.1003 27.2032 1.4340
# 2 28.5673 119.0408 34.6603 -3.8498 18.2891 4.0654
# 3 57.2462 34.6603 112.0198 -17.6335 -0.6126 8.3699
# 4 -7.1003 -3.8498 -17.6335 35.5995 1.3670 9.0086
# 5 27.2032 18.2891 -0.6126 1.3670 33.4455 -8.1438
# 6 1.4340 4.0654 8.3699 9.0086 -8.1438 41.2580
#
#
#
# Elastic Compliance Matrix: (Units=1/GPa)
#
#
# Indices 1 2 3 4 5 6 
#
# 1 0.029311 0.001491 -0.015308 0.000218 -0.025720 -0.003184
# 2 0.001491 0.010367 -0.003833 0.000263 -0.007404 -0.001815
# 3 -0.015308 -0.003833 0.019023 0.005754 0.014325 -0.001378
# 4 0.000218 0.000263 0.005754 0.033507 -0.003844 -0.009276
# 5 -0.025720 -0.007404 0.014325 -0.003844 0.057965 0.010998
# 6 -0.003184 -0.001815 -0.001378 -0.009276 0.010998 0.029003
#
#
# Mechanical properties :
#
#
# Convention : Reuss Voigt Hill
#
# Bulk Modulus (GPa) = 42.73633 62.07231 52.40432
# Shear Modulus (GPa) = 22.49448 35.20922 28.85185
#
# Velocity S-wave (km/s) = 3.36149 4.20554 3.80698
# Velocity P-wave (km/s) = 6.04431 7.40018 6.75634
#
# Compressibility (1/GPa) = 0.02339930
#
# Stress axis : x y z
#
# Youngs Moduli (GPa) = 34.11743 96.46180 52.56770
#
# Poissons Ratio (x) = -0.14379 0.80473
# Poissons Ratio (y) = -0.05086 0.20148
# Poissons Ratio (z) = 0.52228 0.36972
#
# Static dielectric constant tensor:
#      x y z
#    x 1.773490 0.009970 0.044090 
#    y 0.009970 1.733860 -0.027430 
#    z 0.044090 -0.027430 1.815770 
# 
# From -- ./inp_files/357923.got.cif
#   From: 2010.05.17/outbox.cif.g08.bks.cpg/sg2_179_cif.got.tgz:357923.got - 2010.06.03 11:33:40.
