data_PCOD9082518
_publ_section_title
;
Structure prediction by ZEFSAII (Michael W. Deem and Ramdas Pophale) SiO2 
 PCOD9082518
Probable space group: P -1
;
_chemical_formula_sum "Si O2"
_cell_formula_units_Z 14
_cell_length_a 8.789911
_cell_length_b 9.292951
_cell_length_c 11.968327
_cell_angle_alpha 67.961915
_cell_angle_beta 130.822201
_cell_angle_gamma 118.421107
_cell_volume 647.618045
_symmetry_space_group_name_H-M "P -1"
_symmetry_group_IT_number 2
_symmetry_cell_setting 'triclinic'
loop_
_space_group_symop_operation_xyz
x,y,z
-x,-y,-z
loop_
_atom_site_type_symbol
_atom_site_label
_atom_site_fract_x
_atom_site_fract_y
_atom_site_fract_z
Si Si1 0.954152 0.416413 0.236102
Si Si2 0.468135 0.623093 0.660745
Si Si3 0.590396 0.349165 0.695222
Si Si4 0.642845 0.909902 0.530095
Si Si5 0.072070 0.743743 0.486888
Si Si6 0.590258 0.195270 0.984331
Si Si7 0.305770 0.393477 0.831377
O O1 0.967583 0.327683 0.386323
O O2 0.816087 0.537286 0.156463
O O3 0.178495 0.532708 0.265147
O O4 0.818988 0.275979 0.127907
O O5 0.459616 0.474386 0.617589
O O6 0.664635 0.779421 0.670542
O O7 0.255442 0.674885 0.545449
O O8 0.476614 0.551344 0.808114
O O9 0.483182 0.208603 0.594806
O O10 0.599439 0.262605 0.842990
O O11 0.500000 0.000000 0.500000
O O12 0.838051 0.058218 0.533158
O O13 0.870390 0.682595 0.327298
O O14 0.423874 0.264298 0.950508
O O15 0.500000 0.000000 0.000000
#
# Coordination Sequence:
#
# PCOD9082518 Si02
#       7
#     2   2   2   2   2   2   2
#     4  11  21  40  64  87 117 161 200 236 291 362
#     4   9  19  35  57  86 121 152 188 237 291 347
#     4  11  22  38  60  87 119 157 198 243 294 353
#     4  10  19  33  55  88 122 151 186 239 294 343
#     4  10  20  37  62  92 120 153 195 243 294 348
#     4  11  25  43  59  85 121 157 199 250 296 343
#     4  10  21  40  63  87 117 159 200 238 291 358
#
# _framework density 21.617681000000001
#
# number of rings (size 3 to 8) (size 9 to 14) (size 15 to 20)
#    0.000    1.714    0.000    6.429    0.000    2.286 
#    0.000    5.000    0.000    0.000    0.000    0.000 
#    0.000    0.000    0.000    0.000    0.000    0.000 
#
# Total GULP energy -78212.425654 kJ/mol
# GULP energy per Si atom -5586.601832 kJ/mol
# Density = 2.156848 g / cm^3
# Si number density = 21.617681 Si / 1000 Ang^3
#
#
#
# Elastic Constant Matrix: (Units=GPa)
#
#
# Indices 1 2 3 4 5 6 
#
# 1 102.6998 61.8375 23.0040 -0.1655 -4.9843 8.6891
# 2 61.8375 192.2901 56.4876 5.8664 1.1311 21.0740
# 3 23.0040 56.4876 77.3309 12.5238 3.2188 10.7115
# 4 -0.1655 5.8664 12.5238 34.7393 -2.9052 -3.9423
# 5 -4.9843 1.1311 3.2188 -2.9052 19.7816 -1.4834
# 6 8.6891 21.0740 10.7115 -3.9423 -1.4834 37.7391
#
#
#
# Elastic Compliance Matrix: (Units=1/GPa)
#
#
# Indices 1 2 3 4 5 6 
#
# 1 0.012443 -0.003636 -0.001427 0.001490 0.003785 -0.000125
# 2 -0.003636 0.007906 -0.004300 -0.000148 -0.000871 -0.002407
# 3 -0.001427 -0.004300 0.018195 -0.006572 -0.004286 -0.003290
# 4 0.001490 -0.000148 -0.006572 0.032334 0.006595 0.005242
# 5 0.003785 -0.000871 -0.004286 0.006595 0.053493 0.003623
# 6 -0.000125 -0.002407 -0.003290 0.005242 0.003623 0.029494
#
#
# Mechanical properties :
#
#
# Convention : Reuss Voigt Hill
#
# Bulk Modulus (GPa) = 50.45811 72.77545 61.61678
# Shear Modulus (GPa) = 27.90209 33.85147 30.87678
#
# Velocity S-wave (km/s) = 3.59654 3.96146 3.78340
# Velocity P-wave (km/s) = 6.37484 7.39338 6.90292
#
# Compressibility (1/GPa) = 0.01981842
#
# Stress axis : x y z
#
# Youngs Moduli (GPa) = 80.36739 126.47822 54.95922
#
# Poissons Ratio (x) = 0.45992 0.07841
# Poissons Ratio (y) = 0.29224 0.23633
# Poissons Ratio (z) = 0.11467 0.54386
#
# Static dielectric constant tensor:
#      x y z
#    x 1.826120 0.004560 -0.012270 
#    y 0.004560 1.802230 -0.014860 
#    z -0.012270 -0.014860 1.812210 
# 
# From -- ./inp_files/158114.got.cif
#   From: 2010.05.17/outbox.cif.g08.bks.cpg/sg2_80_cif.got.tgz:158114.got - 2010.06.03 11:33:40.
