data_PCOD9082658
_publ_section_title
;
Structure prediction by ZEFSAII (Michael W. Deem and Ramdas Pophale) SiO2 
 PCOD9082658
Probable space group: P -1
;
_chemical_formula_sum "Si O2"
_cell_formula_units_Z 14
_cell_length_a 24.730671
_cell_length_b 5.809598
_cell_length_c 12.899433
_cell_angle_alpha 127.209204
_cell_angle_beta 154.457476
_cell_angle_gamma 52.619646
_cell_volume 626.163178
_symmetry_space_group_name_H-M "P -1"
_symmetry_group_IT_number 2
_symmetry_cell_setting 'triclinic'
loop_
_space_group_symop_operation_xyz
x,y,z
-x,-y,-z
loop_
_atom_site_type_symbol
_atom_site_label
_atom_site_fract_x
_atom_site_fract_y
_atom_site_fract_z
Si Si1 0.112801 0.613316 0.790924
Si Si2 0.373122 0.221240 0.651947
Si Si3 0.246199 0.067596 0.580886
Si Si4 0.857809 0.527802 0.804983
Si Si5 0.845908 0.016090 0.223959
Si Si6 0.652845 0.160402 0.106125
Si Si7 0.984309 0.257325 0.128336
O O1 0.179963 0.805533 0.880277
O O2 0.057909 0.812549 0.848797
O O3 0.000000 0.500000 0.500000
O O4 0.178634 0.313688 0.880865
O O5 0.354215 0.038804 0.672803
O O6 0.252916 0.228888 0.369321
O O7 0.366772 0.544383 0.778377
O O8 0.511935 0.125974 0.817012
O O9 0.127118 0.316155 0.408039
O O10 0.188716 0.770968 0.391001
O O11 0.291170 0.091224 0.782084
O O12 0.884487 0.512539 0.969933
O O13 0.000000 0.500000 0.000000
O O14 0.752000 0.184813 0.194289
O O15 0.000000 0.000000 0.500000
O O16 0.000000 0.000000 0.000000
#
# Coordination Sequence:
#
# PCOD9082658 Si02
#       7
#     2   2   2   2   2   2   2
#     4  10  22  38  60  93 126 169 213 266 333 392
#     4  10  21  36  57  89 127 164 213 271 328 387
#     4  10  19  33  56  89 123 161 204 267 331 383
#     4  10  20  34  54  88 124 157 205 260 326 384
#     4  10  22  38  60  88 125 170 213 265 326 396
#     4  10  22  36  58  89 125 168 214 269 328 390
#     4  10  21  36  61  95 125 159 211 275 324 383
#
# _framework density 22.35839
#
# number of rings (size 3 to 8) (size 9 to 14) (size 15 to 20)
#    0.000    2.000    1.429    2.143    6.000    2.286 
#    0.000    0.000    0.000    1.714    0.000    0.000 
#    0.000    0.000    0.000    0.000    0.000    0.000 
#
# Total GULP energy -77970.222899 kJ/mol
# GULP energy per Si atom -5569.301636 kJ/mol
# Density = 2.230750 g / cm^3
# Si number density = 22.358390 Si / 1000 Ang^3
#
#
#
# Elastic Constant Matrix: (Units=GPa)
#
#
# Indices 1 2 3 4 5 6 
#
# 1 186.3409 42.0158 63.4135 -24.5123 -2.1217 16.9687
# 2 42.0158 73.1909 27.3076 1.6813 -3.0912 19.3035
# 3 63.4135 27.3076 94.9277 -12.6765 21.4163 -1.0563
# 4 -24.5123 1.6813 -12.6765 15.8574 -2.1798 4.4707
# 5 -2.1217 -3.0912 21.4163 -2.1798 30.3675 0.3291
# 6 16.9687 19.3035 -1.0563 4.4707 0.3291 33.4550
#
#
#
# Elastic Compliance Matrix: (Units=1/GPa)
#
#
# Indices 1 2 3 4 5 6 
#
# 1 0.010255 -0.002299 -0.005626 0.014044 0.005523 -0.005984
# 2 -0.002299 0.020688 -0.006999 -0.007627 0.006443 -0.010036
# 3 -0.005626 -0.006999 0.020395 0.004244 -0.015262 0.007119
# 4 0.014044 -0.007627 0.004244 0.093813 0.004110 -0.015165
# 5 0.005523 0.006443 -0.015262 0.004110 0.045117 -0.007994
# 6 -0.005984 -0.010036 0.007119 -0.015165 -0.007994 0.041047
#
#
# Mechanical properties :
#
#
# Convention : Reuss Voigt Hill
#
# Bulk Modulus (GPa) = 46.53476 68.88149 57.70812
# Shear Modulus (GPa) = 18.63397 30.71748 24.67572
#
# Velocity S-wave (km/s) = 2.89004 3.71059 3.32572
# Velocity P-wave (km/s) = 5.65639 7.01661 6.37289
#
# Compressibility (1/GPa) = 0.02148931
#
# Stress axis : x y z
#
# Youngs Moduli (GPa) = 97.51626 48.33634 49.03054
#
# Poissons Ratio (x) = 0.11112 0.27586
# Poissons Ratio (y) = 0.22417 0.34319
# Poissons Ratio (z) = 0.54866 0.33833
#
# Static dielectric constant tensor:
#      x y z
#    x 1.881110 0.072260 -0.015380 
#    y 0.072260 2.010310 -0.041190 
#    z -0.015380 -0.041190 1.858860 
# 
# From -- ./inp_files/468486.got.cif
#   From: 2010.05.17/outbox.cif.g08.bks.cpg/sg2_235_cif.got.tgz:468486.got - 2010.06.03 11:33:40.
