data_PCOD9082037
_publ_section_title
;
Structure prediction by ZEFSAII (Michael W. Deem and Ramdas Pophale) SiO2 
 PCOD9082037
Probable space group: P -1
;
_chemical_formula_sum "Si O2"
_cell_formula_units_Z 16
_cell_length_a 12.417166
_cell_length_b 8.589376
_cell_length_c 11.623274
_cell_angle_alpha 63.139690
_cell_angle_beta 38.974815
_cell_angle_gamma 53.750866
_cell_volume 628.746520
_symmetry_space_group_name_H-M "P -1"
_symmetry_group_IT_number 2
_symmetry_cell_setting 'triclinic'
loop_
_space_group_symop_operation_xyz
x,y,z
-x,-y,-z
loop_
_atom_site_type_symbol
_atom_site_label
_atom_site_fract_x
_atom_site_fract_y
_atom_site_fract_z
Si Si1 0.894841 0.726479 0.972270
Si Si2 0.220050 0.622489 0.479518
Si Si3 0.543190 0.741223 0.484673
Si Si4 0.812981 0.461642 0.697336
Si Si5 0.995396 0.946235 0.256221
Si Si6 0.643894 0.075870 0.656622
Si Si7 0.768172 0.739040 0.829298
Si Si8 0.782276 0.957623 0.224113
O O1 0.755213 0.738673 0.978511
O O2 0.812365 0.875185 0.098247
O O3 0.014178 0.842495 0.787212
O O4 0.000000 0.500000 0.000000
O O5 0.326625 0.483963 0.542524
O O6 0.298470 0.487402 0.346547
O O7 0.285052 0.791605 0.373042
O O8 0.992195 0.697069 0.641851
O O9 0.497577 0.804678 0.368056
O O10 0.672312 0.835322 0.403145
O O11 0.352227 0.826690 0.691749
O O12 0.741795 0.570663 0.839522
O O13 0.000000 0.500000 0.500000
O O14 0.838503 0.242661 0.768591
O O15 0.972278 0.903172 0.156533
O O16 0.819259 0.944565 0.472833
O O17 0.631714 0.927030 0.808880
#
# Coordination Sequence:
#
# PCOD9082037 Si02
#       8
#     2   2   2   2   2   2   2   2
#     4  12  24  40  63  95 133 165 212 268 321 372
#     4  11  19  35  60  94 124 159 210 259 316 368
#     4  10  23  39  65  88 131 167 216 260 308 390
#     4  10  19  32  61  93 129 156 207 258 316 367
#     4  11  20  38  64  97 128 161 209 273 312 374
#     4  11  21  37  63 102 124 161 209 269 327 363
#     4  11  22  37  64  97 127 157 212 273 316 364
#     4  10  23  40  61  88 125 172 210 251 324 372
#
# _framework density 25.447455999999999
#
# number of rings (size 3 to 8) (size 9 to 14) (size 15 to 20)
#    0.000    1.250    3.750    4.875    3.500    0.000 
#    0.000    0.625    0.000    1.500    0.000    0.000 
#    0.000    0.000    0.000    0.000    0.000    0.000 
#
# Total GULP energy -89142.301300 kJ/mol
# GULP energy per Si atom -5571.393831 kJ/mol
# Density = 2.538954 g / cm^3
# Si number density = 25.447456 Si / 1000 Ang^3
#
#
#
# Elastic Constant Matrix: (Units=GPa)
#
#
# Indices 1 2 3 4 5 6 
#
# 1 159.8470 57.0453 29.4295 7.6366 53.7008 10.5564
# 2 57.0453 127.1781 22.1742 -25.1188 15.1854 -10.0841
# 3 29.4295 22.1742 52.9949 3.8792 35.9458 2.2916
# 4 7.6366 -25.1188 3.8792 25.2460 5.4933 11.7770
# 5 53.7008 15.1854 35.9458 5.4933 51.3257 -1.2032
# 6 10.5564 -10.0841 2.2916 11.7770 -1.2032 50.8553
#
#
#
# Elastic Compliance Matrix: (Units=1/GPa)
#
#
# Indices 1 2 3 4 5 6 
#
# 1 0.013507 -0.007015 0.007258 -0.007072 -0.016459 -0.003273
# 2 -0.007015 0.014907 -0.008402 0.016125 0.007116 0.001225
# 3 0.007258 -0.008402 0.042031 -0.007758 -0.033809 -0.004070
# 4 -0.007072 0.016125 -0.007758 0.063232 0.001069 -0.009603
# 5 -0.016459 0.007116 -0.033809 0.001069 0.058338 0.007484
# 6 -0.003273 0.001225 -0.004070 -0.009603 0.007484 0.023170
#
#
# Mechanical properties :
#
#
# Convention : Reuss Voigt Hill
#
# Bulk Modulus (GPa) = 18.47539 61.92423 40.19981
# Shear Modulus (GPa) = 20.03655 40.91013 30.47334
#
# Velocity S-wave (km/s) = 2.80905 4.01388 3.46425
# Velocity P-wave (km/s) = 4.21865 6.77264 5.64206
#
# Compressibility (1/GPa) = 0.05412604
#
# Stress axis : x y z
#
# Youngs Moduli (GPa) = 74.03780 67.08457 23.79197
#
# Poissons Ratio (x) = 0.47059 -0.17267
# Poissons Ratio (y) = 0.51936 0.19990
# Poissons Ratio (z) = -0.53734 0.56363
#
# Static dielectric constant tensor:
#      x y z
#    x 1.981620 -0.003160 0.001850 
#    y -0.003160 2.065840 0.062780 
#    z 0.001850 0.062780 2.363780 
# 
# From -- ./inp_files/419102.got.cif
#   From: 2010.05.17/outbox.cif.g08.bks.cpg/sg2_210_cif.got.tgz:419102.got - 2010.06.03 11:33:40.
