data_PCOD9082391
_publ_section_title
;
Structure prediction by ZEFSAII (Michael W. Deem and Ramdas Pophale) SiO2 
 PCOD9082391
Probable space group: P -1
;
_chemical_formula_sum "Si O2"
_cell_formula_units_Z 14
_cell_length_a 6.825847
_cell_length_b 23.812321
_cell_length_c 10.430633
_cell_angle_alpha 141.142468
_cell_angle_beta 135.814002
_cell_angle_gamma 42.779608
_cell_volume 678.978491
_symmetry_space_group_name_H-M "P -1"
_symmetry_group_IT_number 2
_symmetry_cell_setting 'triclinic'
loop_
_space_group_symop_operation_xyz
x,y,z
-x,-y,-z
loop_
_atom_site_type_symbol
_atom_site_label
_atom_site_fract_x
_atom_site_fract_y
_atom_site_fract_z
Si Si1 0.228886 0.465691 0.334101
Si Si2 0.116926 0.582796 0.105949
Si Si3 0.391633 0.387107 0.791002
Si Si4 0.438045 0.810141 0.577639
Si Si5 0.175823 0.034121 0.337300
Si Si6 0.606239 0.307691 0.405553
Si Si7 0.945570 0.875196 0.842378
O O1 0.500000 0.500000 0.500000
O O2 0.312490 0.397766 0.376293
O O3 0.906979 0.559623 0.345266
O O4 0.193007 0.400509 0.083579
O O5 0.321473 0.604084 0.128816
O O6 0.154166 0.646420 0.351644
O O7 0.712635 0.535076 0.003246
O O8 0.479068 0.272865 0.641064
O O9 0.474791 0.749076 0.618204
O O10 0.671390 0.861880 0.764997
O O11 0.089170 0.888000 0.560443
O O12 0.169654 0.082947 0.281050
O O13 0.500000 0.000000 0.500000
O O14 0.071571 0.946379 0.099784
O O15 0.777767 0.229563 0.238356
#
# Coordination Sequence:
#
# PCOD9082391 Si02
#       7
#     2   2   2   2   2   2   2
#     4  10  19  33  54  83 118 156 204 238 268 342
#     4   8  18  35  52  77 119 160 196 233 277 331
#     4   8  17  36  53  80 122 154 193 238 272 339
#     4  10  20  39  63  87 120 154 193 245 300 345
#     4  10  23  43  67  86 115 152 190 246 310 355
#     4  10  21  36  62  86 123 164 191 241 296 331
#     4  10  22  41  62  92 118 147 197 246 291 363
#
# _framework density 20.619209000000001
#
# number of rings (size 3 to 8) (size 9 to 14) (size 15 to 20)
#    0.857    1.714    0.000    1.286    0.000    6.857 
#    0.000    2.857    0.000    0.000    0.000    0.000 
#    0.000    0.000    0.000    0.000    0.000    0.000 
#
# Total GULP energy -78004.882005 kJ/mol
# GULP energy per Si atom -5571.777286 kJ/mol
# Density = 2.057228 g / cm^3
# Si number density = 20.619209 Si / 1000 Ang^3
#
#
#
# Elastic Constant Matrix: (Units=GPa)
#
#
# Indices 1 2 3 4 5 6 
#
# 1 96.2883 45.8929 42.3894 -7.0392 18.3577 -4.7228
# 2 45.8929 96.5786 59.2729 16.0738 12.6879 -14.5823
# 3 42.3894 59.2729 106.0437 8.1023 24.7424 3.4641
# 4 -7.0392 16.0738 8.1023 30.6981 -7.5260 -2.0532
# 5 18.3577 12.6879 24.7424 -7.5260 31.5639 5.1077
# 6 -4.7228 -14.5823 3.4641 -2.0532 5.1077 20.8775
#
#
#
# Elastic Compliance Matrix: (Units=1/GPa)
#
#
# Indices 1 2 3 4 5 6 
#
# 1 0.015759 -0.006655 -0.002439 0.007052 -0.003019 0.000753
# 2 -0.006655 0.024578 -0.009863 -0.011582 -0.003804 0.017089
# 3 -0.002439 -0.009863 0.018350 -0.002849 -0.008266 -0.008743
# 4 0.007052 -0.011582 -0.002849 0.044132 0.014142 -0.005141
# 5 -0.003019 -0.003804 -0.008266 0.014142 0.046763 -0.012018
# 6 0.000753 0.017089 -0.008743 -0.005141 -0.012018 0.063891
#
#
# Mechanical properties :
#
#
# Convention : Reuss Voigt Hill
#
# Bulk Modulus (GPa) = 48.13997 66.00233 57.07115
# Shear Modulus (GPa) = 19.35663 26.71827 23.03745
#
# Velocity S-wave (km/s) = 3.06725 3.60362 3.34620
# Velocity P-wave (km/s) = 5.99516 7.02811 6.53209
#
# Compressibility (1/GPa) = 0.02077276
#
# Stress axis : x y z
#
# Youngs Moduli (GPa) = 63.45516 40.68755 54.49724
#
# Poissons Ratio (x) = 0.27079 0.13289
# Poissons Ratio (y) = 0.42231 0.53750
# Poissons Ratio (z) = 0.15474 0.40130
#
# Static dielectric constant tensor:
#      x y z
#    x 1.803370 0.013330 -0.043930 
#    y 0.013330 1.738510 0.043920 
#    z -0.043930 0.043920 1.777270 
# 
# From -- ./inp_files/142373.got.cif
#   From: 2010.05.17/outbox.cif.g08.bks.cpg/sg2_72_cif.got.tgz:142373.got - 2010.06.03 11:33:40.
