data_PCOD9082180
_publ_section_title
;
Structure prediction by ZEFSAII (Michael W. Deem and Ramdas Pophale) SiO2 
 PCOD9082180
Probable space group: P -1
;
_chemical_formula_sum "Si O2"
_cell_formula_units_Z 12
_cell_length_a 24.654090
_cell_length_b 5.159750
_cell_length_c 11.861689
_cell_angle_alpha 65.132857
_cell_angle_beta 30.178300
_cell_angle_gamma 75.679677
_cell_volume 665.491568
_symmetry_space_group_name_H-M "P -1"
_symmetry_group_IT_number 2
_symmetry_cell_setting 'triclinic'
loop_
_space_group_symop_operation_xyz
x,y,z
-x,-y,-z
loop_
_atom_site_type_symbol
_atom_site_label
_atom_site_fract_x
_atom_site_fract_y
_atom_site_fract_z
Si Si1 0.640751 0.268627 0.783944
Si Si2 0.605110 0.904205 0.684731
Si Si3 0.808405 0.327498 0.149424
Si Si4 0.111819 0.632754 0.612422
Si Si5 0.978718 0.655126 0.623661
Si Si6 0.925887 0.797302 0.039082
O O1 0.641353 0.596518 0.677446
O O2 0.755238 0.272282 0.639872
O O3 0.629019 0.047498 0.739929
O O4 0.527912 0.169798 0.078169
O O5 0.680348 0.147359 0.423011
O O6 0.848224 0.542395 0.145495
O O7 0.874872 0.073944 0.078543
O O8 0.854761 0.519948 0.921359
O O9 0.061197 0.605639 0.584119
O O10 0.077383 0.339260 0.805795
O O11 0.048044 0.845415 0.755011
O O12 0.000000 0.500000 0.500000
O O13 0.000000 0.000000 0.500000
#
# Coordination Sequence:
#
# PCOD9082180 Si02
#       6
#     2   2   2   2   2   2
#     4  10  20  32  52  82 114 138 167 210 270 332
#     4  10  19  33  52  82 113 138 167 210 271 330
#     4  11  19  37  56  78 114 137 176 219 270 328
#     4  10  20  36  55  79 115 137 176 224 266 331
#     4  11  25  38  52  76 106 149 186 221 260 307
#     4  10  21  30  56  88 103 139 168 219 289 321
#
# _framework density 18.031782
#
# number of rings (size 3 to 8) (size 9 to 14) (size 15 to 20)
#    0.000    1.667    3.333    2.000    0.000   11.333 
#    0.000    0.000    0.000    2.000    0.000    0.000 
#    0.000    0.000    0.000    0.000    0.000    0.000 
#
# Total GULP energy -66989.910449 kJ/mol
# GULP energy per Si atom -5582.492537 kJ/mol
# Density = 1.799074 g / cm^3
# Si number density = 18.031782 Si / 1000 Ang^3
#
#
#
# Elastic Constant Matrix: (Units=GPa)
#
#
# Indices 1 2 3 4 5 6 
#
# 1 91.3253 28.6388 51.3068 5.5333 6.9385 5.0839
# 2 28.6388 104.5782 25.4640 -6.2638 6.9330 19.3372
# 3 51.3068 25.4640 170.1330 -5.1537 -13.4051 -8.0209
# 4 5.5333 -6.2638 -5.1537 30.8112 -6.9521 -0.8580
# 5 6.9385 6.9330 -13.4051 -6.9521 36.3774 1.9288
# 6 5.0839 19.3372 -8.0209 -0.8580 1.9288 21.4496
#
#
#
# Elastic Compliance Matrix: (Units=1/GPa)
#
#
# Indices 1 2 3 4 5 6 
#
# 1 0.015404 -0.002404 -0.005002 -0.005347 -0.005181 -0.003103
# 2 -0.002404 0.013065 -0.001852 0.002070 -0.001700 -0.011666
# 3 -0.005002 -0.001852 0.008398 0.003146 0.004701 0.005698
# 4 -0.005347 0.002070 0.003146 0.036353 0.008666 0.001253
# 5 -0.005181 -0.001700 0.004701 0.008666 0.032085 0.001980
# 6 -0.003103 -0.011666 0.005698 0.001253 0.001980 0.059876
#
#
# Mechanical properties :
#
#
# Convention : Reuss Voigt Hill
#
# Bulk Modulus (GPa) = 54.49038 64.09506 59.29272
# Shear Modulus (GPa) = 26.34168 35.10277 30.72223
#
# Velocity S-wave (km/s) = 3.82625 4.41695 4.13217
# Velocity P-wave (km/s) = 7.05726 7.85082 7.46459
#
# Compressibility (1/GPa) = 0.01835186
#
# Stress axis : x y z
#
# Youngs Moduli (GPa) = 64.91780 76.54020 119.07998
#
# Poissons Ratio (x) = 0.18397 0.59565
# Poissons Ratio (y) = 0.15603 0.22052
# Poissons Ratio (z) = 0.32473 0.14174
#
# Static dielectric constant tensor:
#      x y z
#    x 1.597470 0.029450 -0.025800 
#    y 0.029450 1.637200 -0.009550 
#    z -0.025800 -0.009550 1.688240 
# 
# From -- ./inp_files/28301.got.cif
#   From: 2010.05.17/outbox.cif.g08.bks.cpg/sg2_15_cif.got.tgz:28301.got - 2010.06.03 11:33:40.
