data_PCOD9082083
_publ_section_title
;
Structure prediction by ZEFSAII (Michael W. Deem and Ramdas Pophale) SiO2 
 PCOD9082083
Probable space group: P -1
;
_chemical_formula_sum "Si O2"
_cell_formula_units_Z 14
_cell_length_a 12.457744
_cell_length_b 10.874183
_cell_length_c 5.773066
_cell_angle_alpha 103.931914
_cell_angle_beta 108.265399
_cell_angle_gamma 41.815696
_cell_volume 495.126885
_symmetry_space_group_name_H-M "P -1"
_symmetry_group_IT_number 2
_symmetry_cell_setting 'triclinic'
loop_
_space_group_symop_operation_xyz
x,y,z
-x,-y,-z
loop_
_atom_site_type_symbol
_atom_site_label
_atom_site_fract_x
_atom_site_fract_y
_atom_site_fract_z
Si Si1 0.829588 0.216920 0.476948
Si Si2 0.745307 0.937958 0.677859
Si Si3 0.568666 0.632278 0.251528
Si Si4 0.177463 0.342141 0.663828
Si Si5 0.500731 0.641441 0.692105
Si Si6 0.634955 0.811125 0.864626
Si Si7 0.073787 0.798652 0.965531
O O1 0.694437 0.216011 0.382794
O O2 0.835212 0.286524 0.263346
O O3 0.834728 0.286006 0.762263
O O4 0.000000 0.000000 0.500000
O O5 0.781231 0.843655 0.412123
O O6 0.917547 0.835061 0.860629
O O7 0.612203 0.153245 0.742340
O O8 0.675664 0.865755 0.705610
O O9 0.699215 0.643293 0.331839
O O10 0.568149 0.537850 0.435067
O O11 0.556819 0.575900 0.965886
O O12 0.198168 0.347947 0.953313
O O13 0.000000 0.500000 0.500000
O O14 0.554792 0.742461 0.735963
O O15 0.500000 0.000000 0.000000
O O16 0.000000 0.000000 0.000000
#
# Coordination Sequence:
#
# PCOD9082083 Si02
#       7
#     2   2   2   2   2   2   2
#     4  10  19  33  49  83 121 157 200 253 312 363
#     4  12  22  38  63  90 130 166 210 266 312 389
#     4  11  21  37  61  93 121 165 209 255 321 375
#     4  11  25  40  59  94 135 170 209 260 329 392
#     4  11  20  35  58  88 126 160 206 259 312 381
#     4  11  22  36  64  94 125 164 213 265 329 377
#     4  10  22  33  54  88 126 163 202 259 320 362
#
# _framework density 28.275582
#
# number of rings (size 3 to 8) (size 9 to 14) (size 15 to 20)
#    0.000    1.143    4.286    5.571    2.000    0.571 
#    0.000    0.000    0.000    0.000    0.000   21.000 
#    0.000    0.000    0.000    0.000    0.000    0.000 
#
# Total GULP energy -78311.816554 kJ/mol
# GULP energy per Si atom -5593.701182 kJ/mol
# Density = 2.821123 g / cm^3
# Si number density = 28.275582 Si / 1000 Ang^3
#
#
#
# Elastic Constant Matrix: (Units=GPa)
#
#
# Indices 1 2 3 4 5 6 
#
# 1 109.9879 32.1891 57.0887 -10.0614 1.1218 -24.6777
# 2 32.1891 74.2372 67.5368 6.5242 9.0517 -15.0663
# 3 57.0887 67.5368 242.7937 -21.9147 9.0507 -32.9569
# 4 -10.0614 6.5242 -21.9147 60.6934 -5.0508 7.0009
# 5 1.1218 9.0517 9.0507 -5.0508 57.4285 -11.3984
# 6 -24.6777 -15.0663 -32.9569 7.0009 -11.3984 46.6236
#
#
#
# Elastic Compliance Matrix: (Units=1/GPa)
#
#
# Indices 1 2 3 4 5 6 
#
# 1 0.011833 -0.003537 -0.001107 0.001553 0.001526 0.004477
# 2 -0.003537 0.020658 -0.005091 -0.005012 -0.002561 0.001331
# 3 -0.001107 -0.005091 0.006262 0.002438 0.000436 0.001935
# 4 0.001553 -0.005012 0.002438 0.018460 0.001716 -0.001427
# 5 0.001526 -0.002561 0.000436 0.001716 0.018787 0.004623
# 6 0.004477 0.001331 0.001935 -0.001427 0.004623 0.026961
#
#
# Mechanical properties :
#
#
# Convention : Reuss Voigt Hill
#
# Bulk Modulus (GPa) = 51.86162 82.29423 67.07792
# Shear Modulus (GPa) = 38.80204 50.96270 44.88237
#
# Velocity S-wave (km/s) = 3.70845 4.25002 3.98844
# Velocity P-wave (km/s) = 6.05955 7.29734 6.70706
#
# Compressibility (1/GPa) = 0.01928208
#
# Stress axis : x y z
#
# Youngs Moduli (GPa) = 84.51023 48.40635 159.70005
#
# Poissons Ratio (x) = 0.17122 0.17685
# Poissons Ratio (y) = 0.29892 0.81303
# Poissons Ratio (z) = 0.09359 0.24644
#
# Static dielectric constant tensor:
#      x y z
#    x 2.143200 0.008140 -0.021680 
#    y 0.008140 1.904000 -0.270670 
#    z -0.021680 -0.270670 2.180830 
# 
# From -- ./inp_files/78199.got.cif
#   From: 2010.05.17/outbox.cif.g08.bks.cpg/sg2_40_cif.got.tgz:78199.got - 2010.06.03 11:33:40.
