data_PCOD9082393
_publ_section_title
;
Structure prediction by ZEFSAII (Michael W. Deem and Ramdas Pophale) SiO2 
 PCOD9082393
Probable space group: P -1
;
_chemical_formula_sum "Si O2"
_cell_formula_units_Z 16
_cell_length_a 9.262709
_cell_length_b 15.113672
_cell_length_c 16.360248
_cell_angle_alpha 34.276400
_cell_angle_beta 34.537162
_cell_angle_gamma 47.891605
_cell_volume 730.915366
_symmetry_space_group_name_H-M "P -1"
_symmetry_group_IT_number 2
_symmetry_cell_setting 'triclinic'
loop_
_space_group_symop_operation_xyz
x,y,z
-x,-y,-z
loop_
_atom_site_type_symbol
_atom_site_label
_atom_site_fract_x
_atom_site_fract_y
_atom_site_fract_z
Si Si1 0.295371 0.443378 0.071751
Si Si2 0.533152 0.668678 0.094819
Si Si3 0.019564 0.846178 0.207149
Si Si4 0.684199 0.819155 0.231148
Si Si5 0.195182 0.346674 0.857471
Si Si6 0.868651 0.045622 0.267388
Si Si7 0.267589 0.015399 0.316596
Si Si8 0.375810 0.114987 0.351386
O O1 0.414031 0.436119 0.930352
O O2 0.242171 0.268078 0.264485
O O3 0.045058 0.542926 0.112871
O O4 0.500000 0.500000 0.000000
O O5 0.694792 0.829289 0.873357
O O6 0.245125 0.723733 0.195355
O O7 0.622359 0.604069 0.189916
O O8 0.813174 0.783889 0.284929
O O9 0.901879 0.889052 0.317272
O O10 0.155285 0.017853 0.991435
O O11 0.713185 0.681136 0.256667
O O12 0.388334 0.865828 0.332751
O O13 0.099996 0.168420 0.059486
O O14 0.811451 0.994473 0.424893
O O15 0.624680 0.134298 0.276861
O O16 0.464595 0.039668 0.283042
O O17 0.000000 0.000000 0.500000
#
# Coordination Sequence:
#
# PCOD9082393 Si02
#       8
#     2   2   2   2   2   2   2   2
#     4  11  21  38  58  79 112 153 190 225 278 338
#     4  10  22  34  55  85 113 146 189 235 276 328
#     4   9  17  33  55  81 113 144 186 235 275 326
#     4   9  18  31  55  82 111 147 188 228 278 330
#     4  11  21  35  57  84 113 147 189 233 275 329
#     4  10  19  33  59  83 113 140 188 233 279 326
#     4  10  19  33  54  83 120 146 182 229 291 329
#     4  10  20  34  54  85 112 147 183 232 277 333
#
# _framework density 21.890357999999999
#
# number of rings (size 3 to 8) (size 9 to 14) (size 15 to 20)
#    0.000    2.000    2.500    1.875    3.500    5.500 
#    0.000    0.000    0.000   12.750    0.000    0.000 
#    0.000    0.000    0.000    0.000    0.000    0.000 
#
# Total GULP energy -89188.054220 kJ/mol
# GULP energy per Si atom -5574.253389 kJ/mol
# Density = 2.184053 g / cm^3
# Si number density = 21.890358 Si / 1000 Ang^3
#
#
#
# Elastic Constant Matrix: (Units=GPa)
#
#
# Indices 1 2 3 4 5 6 
#
# 1 121.3799 62.1257 1.1528 8.3183 19.1405 7.1083
# 2 62.1257 153.4977 -6.3356 26.7315 13.6858 1.2158
# 3 1.1528 -6.3356 13.2715 7.8106 2.5586 3.4178
# 4 8.3183 26.7315 7.8106 18.4013 1.5405 -2.2946
# 5 19.1405 13.6858 2.5586 1.5405 29.7531 8.1041
# 6 7.1083 1.2158 3.4178 -2.2946 8.1041 27.2090
#
#
#
# Elastic Compliance Matrix: (Units=1/GPa)
#
#
# Indices 1 2 3 4 5 6 
#
# 1 0.011428 -0.005451 -0.006012 0.005671 -0.004582 -0.000144
# 2 -0.005451 0.016381 0.030686 -0.034695 -0.003496 -0.005047
# 3 -0.006012 0.030686 0.167676 -0.115486 -0.011266 -0.027246
# 4 0.005671 -0.034695 -0.115486 0.153743 0.007379 0.025343
# 5 -0.004582 -0.003496 -0.011266 0.007379 0.041169 -0.008871
# 6 -0.000144 -0.005047 -0.027246 0.025343 -0.008871 0.045218
#
#
# Mechanical properties :
#
#
# Convention : Reuss Voigt Hill
#
# Bulk Modulus (GPa) = 4.27477 44.67054 24.47265
# Shear Modulus (GPa) = 10.52308 30.48644 20.50476
#
# Velocity S-wave (km/s) = 2.19491 3.73592 3.06388
# Velocity P-wave (km/s) = 2.89491 6.24982 4.87036
#
# Compressibility (1/GPa) = 0.23393090
#
# Stress axis : x y z
#
# Youngs Moduli (GPa) = 87.50287 61.04473 5.96389
#
# Poissons Ratio (x) = 0.33278 0.03585
# Poissons Ratio (y) = 0.47701 -0.18301
# Poissons Ratio (z) = 0.52607 -1.87323
#
# Static dielectric constant tensor:
#      x y z
#    x 1.859900 0.054830 -0.051260 
#    y 0.054830 1.840170 -0.015630 
#    z -0.051260 -0.015630 1.839880 
# 
# From -- ./inp_files/239558.got.cif
#   From: 2010.05.17/outbox.cif.g08.bks.cpg/sg2_120_cif.got.tgz:239558.got - 2010.06.03 11:33:40.
