data_PCOD9082980
_publ_section_title
;
Structure prediction by ZEFSAII (Michael W. Deem and Ramdas Pophale) SiO2 
 PCOD9082980
Probable space group: P -1
;
_chemical_formula_sum "Si O2"
_cell_formula_units_Z 14
_cell_length_a 9.378062
_cell_length_b 7.725066
_cell_length_c 10.343129
_cell_angle_alpha 72.205165
_cell_angle_beta 117.477557
_cell_angle_gamma 106.679959
_cell_volume 623.456777
_symmetry_space_group_name_H-M "P -1"
_symmetry_group_IT_number 2
_symmetry_cell_setting 'triclinic'
loop_
_space_group_symop_operation_xyz
x,y,z
-x,-y,-z
loop_
_atom_site_type_symbol
_atom_site_label
_atom_site_fract_x
_atom_site_fract_y
_atom_site_fract_z
Si Si1 0.739490 0.486000 0.963416
Si Si2 0.192725 0.154922 0.633211
Si Si3 0.022584 0.770760 0.996306
Si Si4 0.324321 0.950135 0.237226
Si Si5 0.490215 0.591601 0.336555
Si Si6 0.583229 0.128821 0.123998
Si Si7 0.116912 0.031688 0.343468
O O1 0.860594 0.370013 0.967638
O O2 0.619764 0.527874 0.789592
O O3 0.642047 0.337458 0.054782
O O4 0.862999 0.662135 0.027621
O O5 0.333070 0.330862 0.668357
O O6 0.154955 0.137661 0.469149
O O7 0.269303 0.973260 0.745776
O O8 0.024641 0.141582 0.643165
O O9 0.148576 0.914690 0.099082
O O10 0.957385 0.846502 0.820437
O O11 0.409015 0.772583 0.289958
O O12 0.448400 0.110587 0.183519
O O13 0.278080 0.979243 0.358646
O O14 0.500000 0.500000 0.500000
O O15 0.500000 0.000000 0.000000
#
# Coordination Sequence:
#
# PCOD9082980 Si02
#       7
#     2   2   2   2   2   2   2
#     4  10  19  33  60  84 114 145 199 223 285 337
#     4  10  21  35  61  81 112 152 194 231 285 347
#     4  10  19  34  58  87 112 150 182 243 274 344
#     4  10  22  36  62  82 116 150 195 238 280 331
#     4  10  20  37  58  83 112 155 188 235 283 343
#     4  11  17  37  58  86 109 153 193 232 275 344
#     4  11  21  37  56  89 113 149 193 240 284 335
#
# _framework density 22.455444
#
# number of rings (size 3 to 8) (size 9 to 14) (size 15 to 20)
#    0.000    1.714    5.714    1.286    0.000    2.286 
#    0.000    1.429    3.143    0.000    0.000    0.000 
#    0.000    0.000    0.000    0.000    0.000    0.000 
#
# Total GULP energy -78212.902537 kJ/mol
# GULP energy per Si atom -5586.635895 kJ/mol
# Density = 2.240433 g / cm^3
# Si number density = 22.455444 Si / 1000 Ang^3
#
#
#
# Elastic Constant Matrix: (Units=GPa)
#
#
# Indices 1 2 3 4 5 6 
#
# 1 122.0100 38.5974 15.7611 -2.8937 -27.8189 38.9004
# 2 38.5974 70.7065 24.5239 -9.7834 -10.2129 31.8688
# 3 15.7611 24.5239 94.7092 -16.6748 1.0850 14.0166
# 4 -2.8937 -9.7834 -16.6748 20.7221 5.2801 -8.3229
# 5 -27.8189 -10.2129 1.0850 5.2801 36.1308 -8.4508
# 6 38.9004 31.8688 14.0166 -8.3229 -8.4508 40.5536
#
#
#
# Elastic Compliance Matrix: (Units=1/GPa)
#
#
# Indices 1 2 3 4 5 6 
#
# 1 0.014564 -0.001885 -0.001580 -0.007058 0.009069 -0.011502
# 2 -0.001885 0.023448 -0.003261 0.001849 0.001545 -0.014790
# 3 -0.001580 -0.003261 0.013417 0.010326 -0.003874 0.000753
# 4 -0.007058 0.001849 0.010326 0.064474 -0.011711 0.012540
# 5 0.009069 0.001545 -0.003874 -0.011711 0.036117 -0.003452
# 6 -0.011502 -0.014790 0.000753 0.012540 -0.003452 0.048908
#
#
# Mechanical properties :
#
#
# Convention : Reuss Voigt Hill
#
# Bulk Modulus (GPa) = 26.33179 49.46557 37.89868
# Shear Modulus (GPa) = 22.02256 33.38419 27.70338
#
# Velocity S-wave (km/s) = 3.13505 3.85994 3.51622
# Velocity P-wave (km/s) = 4.98562 6.47624 5.77919
#
# Compressibility (1/GPa) = 0.03797691
#
# Stress axis : x y z
#
# Youngs Moduli (GPa) = 68.66293 42.64728 74.53258
#
# Poissons Ratio (x) = 0.08038 0.11776
# Poissons Ratio (y) = 0.12942 0.24307
# Poissons Ratio (z) = 0.10849 0.13908
#
# Static dielectric constant tensor:
#      x y z
#    x 1.869920 0.014940 0.014690 
#    y 0.014940 1.922920 -0.007900 
#    z 0.014690 -0.007900 1.812650 
# 
# From -- ./inp_files/157707.got.cif
#   From: 2010.05.17/outbox.cif.g08.bks.cpg/sg2_79_cif.got.tgz:157707.got - 2010.06.03 11:33:40.
