data_PCOD9082769
_publ_section_title
;
Structure prediction by ZEFSAII (Michael W. Deem and Ramdas Pophale) SiO2 
 PCOD9082769
Probable space group: P -1
;
_chemical_formula_sum "Si O2"
_cell_formula_units_Z 14
_cell_length_a 9.352196
_cell_length_b 11.856128
_cell_length_c 15.717400
_cell_angle_alpha 34.875159
_cell_angle_beta 66.922380
_cell_angle_gamma 46.838970
_cell_volume 664.363279
_symmetry_space_group_name_H-M "P -1"
_symmetry_group_IT_number 2
_symmetry_cell_setting 'triclinic'
loop_
_space_group_symop_operation_xyz
x,y,z
-x,-y,-z
loop_
_atom_site_type_symbol
_atom_site_label
_atom_site_fract_x
_atom_site_fract_y
_atom_site_fract_z
Si Si1 0.353084 0.138397 0.530505
Si Si2 0.244297 0.865964 0.013352
Si Si3 0.304771 0.779498 0.242357
Si Si4 0.666570 0.269446 0.251081
Si Si5 0.659977 0.170161 0.512262
Si Si6 0.998459 0.315824 0.676737
Si Si7 0.043789 0.230185 0.163712
O O1 0.295642 0.962062 0.668966
O O2 0.500000 0.000000 0.500000
O O3 0.490715 0.136388 0.568810
O O4 0.156943 0.452780 0.358905
O O5 0.214147 0.061377 0.829500
O O6 0.317065 0.861165 0.094154
O O7 0.420256 0.557266 0.130276
O O8 0.000000 0.000000 0.000000
O O9 0.530164 0.469916 0.396197
O O10 0.127414 0.758693 0.288089
O O11 0.216460 0.006133 0.192119
O O12 0.712995 0.177952 0.396826
O O13 0.822682 0.302942 0.161233
O O14 0.857100 0.925790 0.672929
O O15 0.000000 0.500000 0.500000
O O16 0.000000 0.500000 0.000000
#
# Coordination Sequence:
#
# PCOD9082769 Si02
#       7
#     2   2   2   2   2   2   2
#     4   9  18  35  62  90 110 143 194 243 291 343
#     4   9  19  38  60  83 116 154 190 235 293 353
#     4   9  20  39  58  77 113 161 195 231 288 350
#     4  10  21  39  62  89 118 155 197 244 295 345
#     4   9  20  40  62  82 116 159 197 238 295 356
#     4  10  19  33  57  89 115 141 185 239 292 346
#     4  12  25  38  55  88 124 157 198 246 290 341
#
# _framework density 21.072808999999999
#
# number of rings (size 3 to 8) (size 9 to 14) (size 15 to 20)
#    0.000    2.286    0.000    4.286    0.000    6.857 
#    0.000   10.000    0.000    0.000    0.000    0.000 
#    0.000    0.000    0.000    0.000    0.000    0.000 
#
# Total GULP energy -78056.453742 kJ/mol
# GULP energy per Si atom -5575.460982 kJ/mol
# Density = 2.102485 g / cm^3
# Si number density = 21.072809 Si / 1000 Ang^3
#
#
#
# Elastic Constant Matrix: (Units=GPa)
#
#
# Indices 1 2 3 4 5 6 
#
# 1 50.7188 3.6732 39.2587 -10.6954 -18.2913 -6.4474
# 2 3.6732 52.2122 32.4477 -13.7475 -12.6367 8.4607
# 3 39.2587 32.4477 152.8999 -9.4259 -3.1144 7.2216
# 4 -10.6954 -13.7475 -9.4259 39.3536 0.9057 -8.8760
# 5 -18.2913 -12.6367 -3.1144 0.9057 37.4379 -2.9960
# 6 -6.4474 8.4607 7.2216 -8.8760 -2.9960 24.6944
#
#
#
# Elastic Compliance Matrix: (Units=1/GPa)
#
#
# Indices 1 2 3 4 5 6 
#
# 1 0.045606 0.013168 -0.013856 0.017819 0.026832 0.021108
# 2 0.013168 0.030462 -0.008863 0.012158 0.015835 0.001884
# 3 -0.013856 -0.008863 0.011792 -0.005426 -0.009217 -0.007098
# 4 0.017819 0.012158 -0.005426 0.036700 0.012817 0.016820
# 5 0.026832 0.015835 -0.009217 0.012817 0.045239 0.014371
# 6 0.021108 0.001884 -0.007098 0.016820 0.014371 0.055225
#
#
# Mechanical properties :
#
#
# Convention : Reuss Voigt Hill
#
# Bulk Modulus (GPa) = 14.54356 45.17666 29.86011
# Shear Modulus (GPa) = 18.72346 32.32728 25.52537
#
# Velocity S-wave (km/s) = 2.98403 3.92098 3.48414
# Velocity P-wave (km/s) = 4.33464 6.47948 5.51238
#
# Compressibility (1/GPa) = 0.06875893
#
# Stress axis : x y z
#
# Youngs Moduli (GPa) = 21.92696 32.82730 84.80530
#
# Poissons Ratio (x) = -0.43228 1.17508
# Poissons Ratio (y) = -0.28874 0.75159
# Poissons Ratio (z) = 0.30382 0.29093
#
# Static dielectric constant tensor:
#      x y z
#    x 1.797940 -0.062040 -0.010520 
#    y -0.062040 1.913560 0.011120 
#    z -0.010520 0.011120 1.800700 
# 
# From -- ./inp_files/158445.got.cif
#   From: 2010.05.17/outbox.cif.g08.bks.cpg/sg2_80_cif.got.tgz:158445.got - 2010.06.03 11:33:40.
