data_PCOD9082994
_publ_section_title
;
Structure prediction by ZEFSAII (Michael W. Deem and Ramdas Pophale) SiO2 
 PCOD9082994
Probable space group: P -1
;
_chemical_formula_sum "Si O2"
_cell_formula_units_Z 16
_cell_length_a 31.711479
_cell_length_b 5.656233
_cell_length_c 20.080502
_cell_angle_alpha 128.429805
_cell_angle_beta 160.374485
_cell_angle_gamma 63.079085
_cell_volume 818.340292
_symmetry_space_group_name_H-M "P -1"
_symmetry_group_IT_number 2
_symmetry_cell_setting 'triclinic'
loop_
_space_group_symop_operation_xyz
x,y,z
-x,-y,-z
loop_
_atom_site_type_symbol
_atom_site_label
_atom_site_fract_x
_atom_site_fract_y
_atom_site_fract_z
Si Si1 0.862359 0.797283 0.486039
Si Si2 0.678879 0.922705 0.154240
Si Si3 0.333810 0.385365 0.717503
Si Si4 0.685064 0.086063 0.665744
Si Si5 0.404632 0.098939 0.265891
Si Si6 0.399934 0.212237 0.652441
Si Si7 0.364980 0.990690 0.034333
Si Si8 0.803864 0.904546 0.942879
O O1 0.837544 0.008638 0.428085
O O2 0.781190 0.844890 0.437392
O O3 0.762800 0.403151 0.241427
O O4 0.022982 0.894759 0.758424
O O5 0.669264 0.258337 0.218411
O O6 0.656634 0.812518 0.024576
O O7 0.541008 0.599660 0.927278
O O8 0.303784 0.205155 0.569569
O O9 0.500000 0.500000 0.000000
O O10 0.518135 0.961281 0.416389
O O11 0.752598 0.498864 0.817092
O O12 0.678965 0.893228 0.554083
O O13 0.755699 0.978264 0.811869
O O14 0.500000 0.500000 0.500000
O O15 0.267982 0.951413 0.085600
O O16 0.360535 0.078690 0.119468
O O17 0.478535 0.982868 0.739126
#
# Coordination Sequence:
#
# PCOD9082994 Si02
#       8
#     2   2   2   2   2   2   2   2
#     4  10  23  37  58  86 124 162 197 247 306 367
#     4  10  19  33  60  86 125 149 199 252 307 353
#     4  11  19  35  57  92 118 153 203 249 306 358
#     4  10  24  41  66  89 120 161 210 249 301 355
#     4   9  20  40  65  92 118 157 207 252 297 361
#     4  10  20  34  59  91 116 155 200 260 298 353
#     4   9  19  36  58  91 122 148 201 252 305 354
#     4  11  24  44  62  87 125 167 200 250 306 358
#
# _framework density 19.551770999999999
#
# number of rings (size 3 to 8) (size 9 to 14) (size 15 to 20)
#    0.000    2.000    3.750    0.750    8.750    0.500 
#    6.750    1.875    0.000    0.000    0.000    0.000 
#    0.000    0.000    0.000    0.000    0.000    0.000 
#
# Total GULP energy -89101.594192 kJ/mol
# GULP energy per Si atom -5568.849637 kJ/mol
# Density = 1.950727 g / cm^3
# Si number density = 19.551771 Si / 1000 Ang^3
#
#
#
# Elastic Constant Matrix: (Units=GPa)
#
#
# Indices 1 2 3 4 5 6 
#
# 1 160.7680 23.4318 90.3102 -18.2827 -38.0096 -1.8686
# 2 23.4318 57.2061 38.5120 -15.2878 -14.1430 7.6289
# 3 90.3102 38.5120 119.8575 -33.1909 -9.5459 0.8974
# 4 -18.2827 -15.2878 -33.1909 29.9380 4.6578 -9.5380
# 5 -38.0096 -14.1430 -9.5459 4.6578 31.2093 -0.2911
# 6 -1.8686 7.6289 0.8974 -9.5380 -0.2911 24.6438
#
#
#
# Elastic Compliance Matrix: (Units=1/GPa)
#
#
# Indices 1 2 3 4 5 6 
#
# 1 0.019401 0.007773 -0.017539 -0.008226 0.022983 -0.003209
# 2 0.007773 0.029031 -0.014079 -0.001545 0.018469 -0.008265
# 3 -0.017539 -0.014079 0.030556 0.022674 -0.021681 0.010435
# 4 -0.008226 -0.001545 0.022674 0.062012 -0.012824 0.022878
# 5 0.022983 0.018469 -0.021681 -0.012824 0.063616 -0.007397
# 6 -0.003209 -0.008265 0.010435 0.022878 -0.007397 0.051281
#
#
# Mechanical properties :
#
#
# Convention : Reuss Voigt Hill
#
# Bulk Modulus (GPa) = 31.95247 71.37107 51.66177
# Shear Modulus (GPa) = 15.92256 29.53006 22.72631
#
# Velocity S-wave (km/s) = 2.85683 3.89054 3.41305
# Velocity P-wave (km/s) = 5.22110 7.53423 6.48169
#
# Compressibility (1/GPa) = 0.03129648
#
# Stress axis : x y z
#
# Youngs Moduli (GPa) = 51.54439 34.44603 32.72650
#
# Poissons Ratio (x) = -0.26774 0.57399
# Poissons Ratio (y) = -0.40064 0.46077
# Poissons Ratio (z) = 0.90403 0.48498
#
# Static dielectric constant tensor:
#      x y z
#    x 1.736510 0.072160 -0.017410 
#    y 0.072160 1.823920 -0.005090 
#    z -0.017410 -0.005090 1.677370 
# 
# From -- ./inp_files/73925.got.cif
#   From: 2010.05.17/outbox.cif.g08.bks.cpg/sg2_37_cif.got.tgz:73925.got - 2010.06.03 11:33:40.
