data_PCOD9082497
_publ_section_title
;
Structure prediction by ZEFSAII (Michael W. Deem and Ramdas Pophale) SiO2 
 PCOD9082497
Probable space group: P -1
;
_chemical_formula_sum "Si O2"
_cell_formula_units_Z 16
_cell_length_a 5.200209
_cell_length_b 8.750583
_cell_length_c 16.968008
_cell_angle_alpha 81.850922
_cell_angle_beta 123.523175
_cell_angle_gamma 102.287717
_cell_volume 628.669029
_symmetry_space_group_name_H-M "P -1"
_symmetry_group_IT_number 2
_symmetry_cell_setting 'triclinic'
loop_
_space_group_symop_operation_xyz
x,y,z
-x,-y,-z
loop_
_atom_site_type_symbol
_atom_site_label
_atom_site_fract_x
_atom_site_fract_y
_atom_site_fract_z
Si Si1 0.302308 0.620575 0.280436
Si Si2 0.846932 0.084004 0.846487
Si Si3 0.721295 0.096752 0.464140
Si Si4 0.380779 0.776308 0.823327
Si Si5 0.611048 0.526630 0.107876
Si Si6 0.476059 0.180834 0.989266
Si Si7 0.001169 0.309255 0.616971
Si Si8 0.084931 0.031146 0.295252
O O1 0.654666 0.588502 0.334106
O O2 0.982202 0.540830 0.189281
O O3 0.210990 0.627922 0.356967
O O4 0.333537 0.793385 0.235058
O O5 0.634248 0.931328 0.852103
O O6 0.024399 0.024249 0.806127
O O7 0.102125 0.169669 0.943633
O O8 0.458101 0.090657 0.352648
O O9 0.853365 0.268081 0.508552
O O10 0.500000 0.000000 0.500000
O O11 0.000000 0.000000 0.500000
O O12 0.518410 0.616644 0.845381
O O13 0.088834 0.823569 0.723619
O O14 0.307790 0.755479 0.905916
O O15 0.495807 0.695309 0.087732
O O16 0.500000 0.500000 0.000000
O O17 0.500000 0.000000 0.000000
O O18 0.003931 0.127979 0.658730
#
# Coordination Sequence:
#
# PCOD9082497 Si02
#       8
#     2   2   2   2   2   2   2   2
#     4  10  20  38  61  86 120 161 205 253 297 366
#     4  10  19  33  55  85 111 155 204 244 297 361
#     4  10  20  33  56  93 128 155 197 264 319 362
#     4  11  20  37  56  82 121 156 201 251 312 365
#     4   9  22  40  58  88 125 161 206 253 312 367
#     4  10  19  36  58  81 118 157 201 253 301 367
#     4  10  19  36  59  89 119 157 206 251 308 363
#     4  10  20  32  57  86 120 152 195 258 307 363
#
# _framework density 25.450593000000001
#
# number of rings (size 3 to 8) (size 9 to 14) (size 15 to 20)
#    0.000    2.000    2.500    2.625    1.750    0.000 
#    2.250    1.250    0.000    1.500    0.000    0.000 
#    0.000    0.000    0.000    0.000    0.000    0.000 
#
# Total GULP energy -89077.923030 kJ/mol
# GULP energy per Si atom -5567.370189 kJ/mol
# Density = 2.539267 g / cm^3
# Si number density = 25.450593 Si / 1000 Ang^3
#
#
#
# Elastic Constant Matrix: (Units=GPa)
#
#
# Indices 1 2 3 4 5 6 
#
# 1 94.6446 3.5238 19.8187 9.7150 8.4703 6.4033
# 2 3.5238 68.6108 2.4394 -0.9873 3.2593 5.2930
# 3 19.8187 2.4394 95.9461 38.2856 12.6661 0.7976
# 4 9.7150 -0.9873 38.2856 46.3662 -0.6677 6.1769
# 5 8.4703 3.2593 12.6661 -0.6677 29.1838 6.5826
# 6 6.4033 5.2930 0.7976 6.1769 6.5826 18.0723
#
#
#
# Elastic Compliance Matrix: (Units=1/GPa)
#
#
# Indices 1 2 3 4 5 6 
#
# 1 0.011386 -0.000199 -0.001926 -0.000411 -0.001754 -0.003112
# 2 -0.000199 0.015030 -0.001051 0.001886 -0.000010 -0.004926
# 3 -0.001926 -0.001051 0.018608 -0.016374 -0.009887 0.009367
# 4 -0.000411 0.001886 -0.016374 0.037619 0.011663 -0.016790
# 5 -0.001754 -0.000010 -0.009887 0.011663 0.043574 -0.018796
# 6 -0.003112 -0.004926 0.009367 -0.016790 -0.018796 0.070050
#
#
# Mechanical properties :
#
#
# Convention : Reuss Voigt Hill
#
# Bulk Modulus (GPa) = 25.85757 34.52949 30.19353
# Shear Modulus (GPa) = 23.20084 34.28578 28.74331
#
# Velocity S-wave (km/s) = 3.02255 3.67434 3.36427
# Velocity P-wave (km/s) = 4.72896 5.62118 5.19427
#
# Compressibility (1/GPa) = 0.03867340
#
# Stress axis : x y z
#
# Youngs Moduli (GPa) = 87.82605 66.53275 53.73952
#
# Poissons Ratio (x) = 0.01323 0.10348
# Poissons Ratio (y) = 0.01746 0.05649
# Poissons Ratio (z) = 0.16911 0.06994
#
# Static dielectric constant tensor:
#      x y z
#    x 2.094610 -0.050280 -0.139660 
#    y -0.050280 2.243600 -0.166810 
#    z -0.139660 -0.166810 2.890490 
# 
# From -- ./inp_files/143117.got.cif
#   From: 2010.05.17/outbox.cif.g08.bks.cpg/sg2_72_cif.got.tgz:143117.got - 2010.06.03 11:33:40.
