data_PCOD9082337
_publ_section_title
;
Structure prediction by ZEFSAII (Michael W. Deem and Ramdas Pophale) SiO2 
 PCOD9082337
Probable space group: P -1
;
_chemical_formula_sum "Si O2"
_cell_formula_units_Z 16
_cell_length_a 20.046359
_cell_length_b 5.232952
_cell_length_c 9.066398
_cell_angle_alpha 77.081747
_cell_angle_beta 59.906586
_cell_angle_gamma 97.324715
_cell_volume 769.005817
_symmetry_space_group_name_H-M "P -1"
_symmetry_group_IT_number 2
_symmetry_cell_setting 'triclinic'
loop_
_space_group_symop_operation_xyz
x,y,z
-x,-y,-z
loop_
_atom_site_type_symbol
_atom_site_label
_atom_site_fract_x
_atom_site_fract_y
_atom_site_fract_z
Si Si1 0.559876 0.724779 0.749361
Si Si2 0.543023 0.318444 0.382576
Si Si3 0.815332 0.741428 0.973263
Si Si4 0.736312 0.185179 0.953114
Si Si5 0.359616 0.728094 0.237638
Si Si6 0.777023 0.482113 0.339514
Si Si7 0.329402 0.936673 0.662474
Si Si8 0.053154 0.293107 0.956021
O O1 0.583837 0.991577 0.790901
O O2 0.619277 0.828081 0.528906
O O3 0.472842 0.639192 0.777622
O O4 0.585287 0.473553 0.821211
O O5 0.500000 0.500000 0.500000
O O6 0.629090 0.316040 0.348352
O O7 0.500000 0.000000 0.500000
O O8 0.800011 0.010676 0.885508
O O9 0.777342 0.480118 0.944799
O O10 0.774061 0.702790 0.188001
O O11 0.903766 0.740321 0.931051
O O12 0.686154 0.211863 0.862492
O O13 0.674464 0.014423 0.166846
O O14 0.287173 0.581774 0.450623
O O15 0.755207 0.199391 0.305968
O O16 0.871754 0.578696 0.255417
O O17 0.000000 0.500000 0.000000
O O18 0.000000 0.000000 0.000000
#
# Coordination Sequence:
#
# PCOD9082337 Si02
#       8
#     2   2   2   2   2   2   2   2
#     4  10  20  35  53  78 110 142 185 226 274 315
#     4  10  19  33  54  80 107 141 182 232 275 312
#     4   9  20  35  56  79 108 138 182 218 263 316
#     4  11  20  35  54  82 109 143 183 223 267 313
#     4  11  21  35  55  79 112 145 180 226 269 318
#     4   8  19  34  57  81 105 137 185 218 266 316
#     4   9  19  35  58  81 105 141 190 228 263 321
#     4  10  20  34  59  85 109 134 175 224 270 314
#
# _framework density 20.806082
#
# number of rings (size 3 to 8) (size 9 to 14) (size 15 to 20)
#    0.750    1.500    0.000    4.500    0.000    4.000 
#    0.000    1.250    0.000    4.500    0.000    0.000 
#    0.000    0.000    0.000    0.000    0.000    0.000 
#
# Total GULP energy -89096.829989 kJ/mol
# GULP energy per Si atom -5568.551874 kJ/mol
# Density = 2.075873 g / cm^3
# Si number density = 20.806082 Si / 1000 Ang^3
#
#
#
# Elastic Constant Matrix: (Units=GPa)
#
#
# Indices 1 2 3 4 5 6 
#
# 1 100.5677 48.4076 20.1441 -2.8426 28.8221 -7.2650
# 2 48.4076 133.2422 15.6612 -0.2635 15.1476 -15.0712
# 3 20.1441 15.6612 59.0811 2.6952 22.7775 -0.7481
# 4 -2.8426 -0.2635 2.6952 15.3346 2.8125 5.5107
# 5 28.8221 15.1476 22.7775 2.8125 39.8552 -7.1960
# 6 -7.2650 -15.0712 -0.7481 5.5107 -7.1960 45.1136
#
#
#
# Elastic Compliance Matrix: (Units=1/GPa)
#
#
# Indices 1 2 3 4 5 6 
#
# 1 0.014912 -0.004413 -0.000548 0.004923 -0.009353 -0.001175
# 2 -0.004413 0.009461 -0.001251 -0.001601 0.000924 0.002772
# 3 -0.000548 -0.001251 0.022110 -0.001111 -0.012033 -0.001923
# 4 0.004923 -0.001601 -0.001111 0.071554 -0.009165 -0.009963
# 5 -0.009353 0.000924 -0.012033 -0.009165 0.040133 0.006124
# 6 -0.001175 0.002772 -0.001923 -0.009963 0.006124 0.025065
#
#
# Mechanical properties :
#
#
# Convention : Reuss Voigt Hill
#
# Bulk Modulus (GPa) = 29.36209 51.25741 40.30975
# Shear Modulus (GPa) = 24.15314 33.97256 29.06285
#
# Velocity S-wave (km/s) = 3.41085 4.04520 3.74149
# Velocity P-wave (km/s) = 5.44562 6.81964 6.17099
#
# Compressibility (1/GPa) = 0.03405752
#
# Stress axis : x y z
#
# Youngs Moduli (GPa) = 67.05806 105.69845 45.22887
#
# Poissons Ratio (x) = 0.46647 0.02479
# Poissons Ratio (y) = 0.29594 0.05660
# Poissons Ratio (z) = 0.03676 0.13227
#
# Static dielectric constant tensor:
#      x y z
#    x 1.836410 -0.023510 -0.056680 
#    y -0.023510 1.792830 0.009260 
#    z -0.056680 0.009260 1.801140 
# 
# From -- ./inp_files/323444.got.cif
#   From: 2010.05.17/outbox.cif.g08.bks.cpg/sg2_162_cif.got.tgz:323444.got - 2010.06.03 11:33:40.
