data_PCOD9082816
_publ_section_title
;
Structure prediction by ZEFSAII (Michael W. Deem and Ramdas Pophale) SiO2 
 PCOD9082816
Probable space group: P -1
;
_chemical_formula_sum "Si O2"
_cell_formula_units_Z 16
_cell_length_a 14.882726
_cell_length_b 8.889852
_cell_length_c 14.641021
_cell_angle_alpha 73.418942
_cell_angle_beta 140.222838
_cell_angle_gamma 129.798002
_cell_volume 864.056802
_symmetry_space_group_name_H-M "P -1"
_symmetry_group_IT_number 2
_symmetry_cell_setting 'triclinic'
loop_
_space_group_symop_operation_xyz
x,y,z
-x,-y,-z
loop_
_atom_site_type_symbol
_atom_site_label
_atom_site_fract_x
_atom_site_fract_y
_atom_site_fract_z
Si Si1 0.536097 0.129843 0.743247
Si Si2 0.941466 0.146359 0.743181
Si Si3 0.130511 0.656883 0.492426
Si Si4 0.858725 0.941400 0.981615
Si Si5 0.066316 0.663580 0.939827
Si Si6 0.631016 0.975123 0.680763
Si Si7 0.623170 0.678342 0.486448
Si Si8 0.764144 0.463456 0.575140
O O1 0.501980 0.287629 0.670953
O O2 0.329500 0.890400 0.642785
O O3 0.601450 0.094484 0.706516
O O4 0.715715 0.226808 0.931956
O O5 0.972627 0.295043 0.662446
O O6 0.126809 0.195711 0.916557
O O7 0.813949 0.122887 0.730522
O O8 0.794661 0.905122 0.629605
O O9 0.180347 0.556758 0.477650
O O10 0.000000 0.500000 0.500000
O O11 0.928305 0.153855 0.049297
O O12 0.667298 0.851268 0.796602
O O13 0.000000 0.000000 0.000000
O O14 0.925996 0.556012 0.762121
O O15 0.000000 0.500000 0.000000
O O16 0.431211 0.781734 0.509411
O O17 0.500000 0.500000 0.500000
O O18 0.713352 0.607877 0.510530
#
# Coordination Sequence:
#
# PCOD9082816 Si02
#       8
#     2   2   2   2   2   2   2   2
#     4   9  22  37  56  83 122 151 187 235 296 353
#     4  10  19  33  58  81 119 156 191 234 296 345
#     4  10  24  43  62  78 108 164 221 243 272 335
#     4   9  19  33  49  84 123 158 178 226 288 363
#     4  11  22  33  55  92 127 148 180 229 304 369
#     4   9  19  34  55  85 122 155 183 225 296 375
#     4  11  19  30  53  89 122 144 176 229 302 367
#     4  11  22  36  59  89 117 152 192 241 294 352
#
# _framework density 18.517302000000001
#
# number of rings (size 3 to 8) (size 9 to 14) (size 15 to 20)
#    0.000    2.000    2.500    0.750    8.750    1.500 
#    0.000    3.125    0.000    6.750    0.000    0.000 
#    0.000    0.000    0.000    0.000    0.000    0.000 
#
# Total GULP energy -89272.952923 kJ/mol
# GULP energy per Si atom -5579.559558 kJ/mol
# Density = 1.847516 g / cm^3
# Si number density = 18.517302 Si / 1000 Ang^3
#
#
#
# Elastic Constant Matrix: (Units=GPa)
#
#
# Indices 1 2 3 4 5 6 
#
# 1 75.0181 58.4438 31.9209 -18.0033 7.8320 -0.7823
# 2 58.4438 95.0469 40.6923 -20.3709 9.0112 1.7098
# 3 31.9209 40.6923 138.9993 -15.5918 15.2698 0.0596
# 4 -18.0033 -20.3709 -15.5918 31.8393 -10.1832 1.0628
# 5 7.8320 9.0112 15.2698 -10.1832 19.0528 -6.1557
# 6 -0.7823 1.7098 0.0596 1.0628 -6.1557 38.2489
#
#
#
# Elastic Compliance Matrix: (Units=1/GPa)
#
#
# Indices 1 2 3 4 5 6 
#
# 1 0.026545 -0.014762 -0.001225 0.004942 0.000040 0.001074
# 2 -0.014762 0.021599 -0.002413 0.004199 -0.000438 -0.001451
# 3 -0.001225 -0.002413 0.008827 0.000352 -0.005509 -0.000827
# 4 0.004942 0.004199 0.000352 0.043198 0.019381 0.001832
# 5 0.000040 -0.000438 -0.005509 0.019381 0.070975 0.010913
# 6 0.001074 -0.001451 -0.000827 0.001832 0.010913 0.027938
#
#
# Mechanical properties :
#
#
# Convention : Reuss Voigt Hill
#
# Bulk Modulus (GPa) = 49.57743 63.46426 56.52084
# Shear Modulus (GPa) = 20.60961 29.69536 25.15248
#
# Velocity S-wave (km/s) = 3.33977 4.00891 3.68954
# Velocity P-wave (km/s) = 6.45785 7.46832 6.98139
#
# Compressibility (1/GPa) = 0.02017047
#
# Stress axis : x y z
#
# Youngs Moduli (GPa) = 37.67247 46.29915 113.28782
#
# Poissons Ratio (x) = 0.68345 0.13877
# Poissons Ratio (y) = 0.55611 0.27341
# Poissons Ratio (z) = 0.04615 0.11174
#
# Static dielectric constant tensor:
#      x y z
#    x 1.621210 -0.044350 0.015440 
#    y -0.044350 1.682320 -0.022500 
#    z 0.015440 -0.022500 1.755760 
# 
# From -- ./inp_files/528417.got.cif
#   From: 2010.05.17/outbox.cif.g08.bks.cpg/sg2_265_cif.got.tgz:528417.got - 2010.06.03 11:33:40.
