data_PCOD9082401
_publ_section_title
;
Structure prediction by ZEFSAII (Michael W. Deem and Ramdas Pophale) SiO2 
 PCOD9082401
Probable space group: P -1
;
_chemical_formula_sum "Si O2"
_cell_formula_units_Z 16
_cell_length_a 15.910005
_cell_length_b 16.887328
_cell_length_c 9.630717
_cell_angle_alpha 36.034463
_cell_angle_beta 130.987818
_cell_angle_gamma 154.667680
_cell_volume 621.705666
_symmetry_space_group_name_H-M "P -1"
_symmetry_group_IT_number 2
_symmetry_cell_setting 'triclinic'
loop_
_space_group_symop_operation_xyz
x,y,z
-x,-y,-z
loop_
_atom_site_type_symbol
_atom_site_label
_atom_site_fract_x
_atom_site_fract_y
_atom_site_fract_z
Si Si1 0.057866 0.827664 0.979673
Si Si2 0.567296 0.677849 0.486036
Si Si3 0.120665 0.311493 0.760217
Si Si4 0.718708 0.252740 0.051604
Si Si5 0.749524 0.256221 0.748119
Si Si6 0.860769 0.682601 0.556451
Si Si7 0.384989 0.517242 0.980784
Si Si8 0.711639 0.951240 0.513138
O O1 0.224647 0.080094 0.715508
O O2 0.079601 0.899518 0.061241
O O3 0.104856 0.718784 0.167798
O O4 0.816331 0.609944 0.995360
O O5 0.364478 0.479289 0.451425
O O6 0.564932 0.794044 0.439457
O O7 0.564756 0.541985 0.767767
O O8 0.193046 0.539794 0.537675
O O9 0.104931 0.278433 0.628611
O O10 0.277257 0.368634 0.925519
O O11 0.743278 0.263444 0.897241
O O12 0.820759 0.497801 0.847823
O O13 0.478087 0.014967 0.162808
O O14 0.792443 0.185885 0.287654
O O15 0.098899 0.951662 0.469974
O O16 0.586387 0.791192 0.744034
#
# Coordination Sequence:
#
# PCOD9082401 Si02
#       8
#     2   2   2   2   2   2   2   2
#     4  10  19  35  64  84 114 155 190 237 292 344
#     4  12  21  41  59  87 115 152 204 235 282 336
#     4   9  20  35  56  89 114 151 190 228 294 340
#     4  10  17  34  57  92 116 139 189 246 286 339
#     4  10  15  31  64  86 113 151 187 234 292 347
#     4  11  23  37  62  89 115 152 192 240 291 339
#     4  10  23  37  59  84 118 158 193 236 282 342
#     4  12  22  39  62  86 118 151 194 243 285 340
#
# _framework density 25.735652999999999
#
# number of rings (size 3 to 8) (size 9 to 14) (size 15 to 20)
#    0.750    0.750    5.000    2.250    0.000    0.500 
#    0.000    1.250    0.000    4.500    0.000    0.000 
#    0.000    0.000    0.000    0.000    0.000    0.000 
#
# Total GULP energy -89281.394699 kJ/mol
# GULP energy per Si atom -5580.087169 kJ/mol
# Density = 2.567708 g / cm^3
# Si number density = 25.735653 Si / 1000 Ang^3
#
#
#
# Elastic Constant Matrix: (Units=GPa)
#
#
# Indices 1 2 3 4 5 6 
#
# 1 55.2591 32.3309 28.9421 -2.3907 -18.9913 25.6570
# 2 32.3309 120.8134 48.4643 -10.4004 4.7973 39.4111
# 3 28.9421 48.4643 194.7240 -13.5769 -10.7324 21.2353
# 4 -2.3907 -10.4004 -13.5769 29.6705 15.4870 -5.4228
# 5 -18.9913 4.7973 -10.7324 15.4870 44.7215 -2.3077
# 6 25.6570 39.4111 21.2353 -5.4228 -2.3077 51.2462
#
#
#
# Elastic Compliance Matrix: (Units=1/GPa)
#
#
# Indices 1 2 3 4 5 6 
#
# 1 0.034023 -0.006149 -0.002065 -0.012012 0.018157 -0.011903
# 2 -0.006149 0.013409 -0.001714 0.005836 -0.006802 -0.006213
# 3 -0.002065 -0.001714 0.006001 0.001954 0.000074 0.000076
# 4 -0.012012 0.005836 0.001954 0.047811 -0.021567 0.004804
# 5 0.018157 -0.006802 0.000074 -0.021567 0.038057 -0.004459
# 6 -0.011903 -0.006213 0.000076 0.004804 -0.004459 0.030527
#
#
# Mechanical properties :
#
#
# Convention : Reuss Voigt Hill
#
# Bulk Modulus (GPa) = 29.78169 65.58568 47.68369
# Shear Modulus (GPa) = 24.89086 42.53158 33.71122
#
# Velocity S-wave (km/s) = 3.11332 4.06967 3.62319
# Velocity P-wave (km/s) = 4.95186 6.90092 6.00598
#
# Compressibility (1/GPa) = 0.03357767
#
# Stress axis : x y z
#
# Youngs Moduli (GPa) = 29.39202 74.57446 166.63528
#
# Poissons Ratio (x) = 0.45852 0.34415
# Poissons Ratio (y) = 0.18072 0.28562
# Poissons Ratio (z) = 0.06070 0.12783
#
# Static dielectric constant tensor:
#      x y z
#    x 2.118090 0.048890 0.041780 
#    y 0.048890 2.110090 -0.001320 
#    z 0.041780 -0.001320 2.010650 
# 
# From -- ./inp_files/472919.got.cif
#   From: 2010.05.17/outbox.cif.g08.bks.cpg/sg2_237_cif.got.tgz:472919.got - 2010.06.03 11:33:40.
