data_PCOD9082490
_publ_section_title
;
Structure prediction by ZEFSAII (Michael W. Deem and Ramdas Pophale) SiO2 
 PCOD9082490
Probable space group: P -1
;
_chemical_formula_sum "Si O2"
_cell_formula_units_Z 16
_cell_length_a 11.737021
_cell_length_b 7.214701
_cell_length_c 19.060963
_cell_angle_alpha 119.325783
_cell_angle_beta 35.297440
_cell_angle_gamma 129.203015
_cell_volume 721.485354
_symmetry_space_group_name_H-M "P -1"
_symmetry_group_IT_number 2
_symmetry_cell_setting 'triclinic'
loop_
_space_group_symop_operation_xyz
x,y,z
-x,-y,-z
loop_
_atom_site_type_symbol
_atom_site_label
_atom_site_fract_x
_atom_site_fract_y
_atom_site_fract_z
Si Si1 0.340536 0.213458 0.201450
Si Si2 0.667293 0.183382 0.391494
Si Si3 0.252165 0.196963 0.784103
Si Si4 0.267261 0.178509 0.529679
Si Si5 0.270811 0.340722 0.400938
Si Si6 0.018257 0.633316 0.608623
Si Si7 0.862457 0.530460 0.008812
Si Si8 0.024116 0.759020 0.198627
O O1 0.252955 0.154283 0.314890
O O2 0.604529 0.333258 0.096258
O O3 0.230576 0.390881 0.270162
O O4 0.247070 0.992134 0.153935
O O5 0.515872 0.286871 0.453855
O O6 0.886848 0.336642 0.354173
O O7 0.500000 0.000000 0.500000
O O8 0.710793 0.032821 0.282096
O O9 0.488559 0.427836 0.690174
O O10 0.160111 0.237984 0.911590
O O11 0.086765 0.174683 0.799407
O O12 0.263906 0.234362 0.460667
O O13 0.126435 0.269421 0.664304
O O14 0.159617 0.892720 0.548315
O O15 0.087885 0.438571 0.506539
O O16 0.960629 0.475631 0.878917
O O17 0.000000 0.500000 0.000000
#
# Coordination Sequence:
#
# PCOD9082490 Si02
#       8
#     2   2   2   2   2   2   2   2
#     4  10  20  34  55  81 115 150 188 232 287 336
#     4  10  15  32  52  80 115 147 180 227 279 331
#     4  10  17  33  55  82 114 146 190 232 275 328
#     4  10  20  32  57  87 117 155 180 231 282 335
#     4  11  21  33  54  91 118 149 190 224 281 344
#     4  10  19  34  52  80 126 146 181 229 284 341
#     4   9  20  33  56  83 106 148 198 236 271 337
#     4  10  18  34  52  82 113 148 190 231 278 329
#
# _framework density 22.176470999999999
#
# number of rings (size 3 to 8) (size 9 to 14) (size 15 to 20)
#    0.000    2.000    6.250    0.750    0.000    4.000 
#    0.000    0.000    0.000    0.750   13.000    8.750 
#    0.000    0.000    0.000    0.000    0.000    0.000 
#
# Total GULP energy -89221.476389 kJ/mol
# GULP energy per Si atom -5576.342274 kJ/mol
# Density = 2.212600 g / cm^3
# Si number density = 22.176471 Si / 1000 Ang^3
#
#
#
# Elastic Constant Matrix: (Units=GPa)
#
#
# Indices 1 2 3 4 5 6 
#
# 1 139.5921 34.1336 44.7709 -1.9766 -6.5098 14.6078
# 2 34.1336 72.9349 43.3010 16.3066 1.6348 11.6894
# 3 44.7709 43.3010 107.9537 49.7361 -0.9201 2.0147
# 4 -1.9766 16.3066 49.7361 44.3518 14.6891 -0.1189
# 5 -6.5098 1.6348 -0.9201 14.6891 36.6926 -0.6675
# 6 14.6078 11.6894 2.0147 -0.1189 -0.6675 44.4986
#
#
#
# Elastic Compliance Matrix: (Units=1/GPa)
#
#
# Indices 1 2 3 4 5 6 
#
# 1 0.011262 -0.001653 -0.010548 0.014237 -0.003943 -0.002806
# 2 -0.001653 0.019633 -0.008685 0.003367 -0.002811 -0.004255
# 3 -0.010548 -0.008685 0.038752 -0.046780 0.018290 0.004139
# 4 0.014237 0.003367 -0.046780 0.085331 -0.033025 -0.003707
# 5 -0.003943 -0.002811 0.018290 -0.033025 0.040390 0.001722
# 6 -0.002806 -0.004255 0.004139 -0.003707 0.001722 0.024340
#
#
# Mechanical properties :
#
#
# Convention : Reuss Voigt Hill
#
# Bulk Modulus (GPa) = 35.87390 62.76576 49.31983
# Shear Modulus (GPa) = 18.46568 38.32695 28.39631
#
# Velocity S-wave (km/s) = 2.88873 4.16176 3.58225
# Velocity P-wave (km/s) = 5.22858 7.17342 6.27678
#
# Compressibility (1/GPa) = 0.02787542
#
# Stress axis : x y z
#
# Youngs Moduli (GPa) = 88.79125 50.93463 25.80490
#
# Poissons Ratio (x) = 0.08422 0.27218
# Poissons Ratio (y) = 0.14681 0.22411
# Poissons Ratio (z) = 0.93655 0.44236
#
# Static dielectric constant tensor:
#      x y z
#    x 1.890750 0.121170 0.033520 
#    y 0.121170 2.099630 0.122010 
#    z 0.033520 0.122010 1.907350 
# 
# From -- ./inp_files/565448.got.cif
#   From: 2010.05.17/outbox.cif.g08.bks.cpg/sg2_283_cif.got.tgz:565448.got - 2010.06.03 11:33:40.
