data_PCOD9082660
_publ_section_title
;
Structure prediction by ZEFSAII (Michael W. Deem and Ramdas Pophale) SiO2 
 PCOD9082660
Probable space group: P -1
;
_chemical_formula_sum "Si O2"
_cell_formula_units_Z 16
_cell_length_a 11.551345
_cell_length_b 9.454922
_cell_length_c 12.549847
_cell_angle_alpha 131.472714
_cell_angle_beta 83.971880
_cell_angle_gamma 128.418121
_cell_volume 686.261165
_symmetry_space_group_name_H-M "P -1"
_symmetry_group_IT_number 2
_symmetry_cell_setting 'triclinic'
loop_
_space_group_symop_operation_xyz
x,y,z
-x,-y,-z
loop_
_atom_site_type_symbol
_atom_site_label
_atom_site_fract_x
_atom_site_fract_y
_atom_site_fract_z
Si Si1 0.753560 0.208785 0.996465
Si Si2 0.658702 0.400860 0.687887
Si Si3 0.721030 0.920389 0.435339
Si Si4 0.852422 0.979750 0.997980
Si Si5 0.753434 0.219680 0.757835
Si Si6 0.331989 0.158851 0.835884
Si Si7 0.362705 0.759195 0.608983
Si Si8 0.649059 0.411956 0.259047
O O1 0.810991 0.305831 0.917176
O O2 0.871577 0.192595 0.034590
O O3 0.555388 0.889754 0.866787
O O4 0.739449 0.387474 0.150558
O O5 0.451597 0.155157 0.598444
O O6 0.701451 0.671437 0.807909
O O7 0.734919 0.393489 0.781829
O O8 0.728659 0.382824 0.566194
O O9 0.766987 0.942987 0.318316
O O10 0.678073 0.663487 0.355893
O O11 0.829254 0.161921 0.635659
O O12 0.792162 0.955332 0.110067
O O13 0.000000 0.000000 0.000000
O O14 0.554696 0.909807 0.643377
O O15 0.387126 0.006003 0.762233
O O16 0.500000 0.500000 0.000000
O O17 0.279845 0.554054 0.613824
#
# Coordination Sequence:
#
# PCOD9082660 Si02
#       8
#     2   2   2   2   2   2   2   2
#     4  10  21  36  55  84 124 155 194 246 304 351
#     4  11  20  37  56  88 122 158 196 243 298 355
#     4  11  20  32  59  94 120 149 194 247 307 347
#     4  12  26  42  61  86 121 163 203 243 298 360
#     4  10  20  32  57  92 123 148 191 253 305 347
#     4  12  20  37  64  89 118 154 206 247 285 352
#     4  10  19  33  56  89 127 151 191 248 304 348
#     4  10  20  31  56  93 120 151 191 252 300 347
#
# _framework density 23.314737999999998
#
# number of rings (size 3 to 8) (size 9 to 14) (size 15 to 20)
#    0.000    1.250    6.250    0.750    7.000    1.500 
#    0.000    1.250    0.000    0.750    0.000    0.000 
#    0.000    0.000    0.000    0.000    0.000    0.000 
#
# Total GULP energy -89317.071046 kJ/mol
# GULP energy per Si atom -5582.316940 kJ/mol
# Density = 2.326167 g / cm^3
# Si number density = 23.314738 Si / 1000 Ang^3
#
#
#
# Elastic Constant Matrix: (Units=GPa)
#
#
# Indices 1 2 3 4 5 6 
#
# 1 93.5863 52.9816 50.2521 -24.4969 -13.3536 -21.6678
# 2 52.9816 102.8809 76.6791 -28.0340 -4.4271 -49.7810
# 3 50.2521 76.6791 125.1423 -37.8423 -35.5921 -14.3151
# 4 -24.4969 -28.0340 -37.8423 42.5318 -3.6495 -0.3576
# 5 -13.3536 -4.4271 -35.5921 -3.6495 25.7061 10.0246
# 6 -21.6678 -49.7810 -14.3151 -0.3576 10.0246 36.9367
#
#
#
# Elastic Compliance Matrix: (Units=1/GPa)
#
#
# Indices 1 2 3 4 5 6 
#
# 1 0.016141 0.001291 -0.004283 0.006402 -0.000182 0.009660
# 2 0.001291 -0.024332 0.031843 0.017608 0.056682 -0.034908
# 3 -0.004283 0.031843 -0.010061 0.007650 -0.026673 0.043817
# 4 0.006402 0.017608 0.007650 0.046952 0.012932 0.027396
# 5 -0.000182 0.056682 -0.026673 0.012932 -0.013748 0.069805
# 6 0.009660 -0.034908 0.043817 0.027396 0.069805 -0.016004
#
#
# Mechanical properties :
#
#
# Convention : Reuss Voigt Hill
#
# Bulk Modulus (GPa) = 25.34867 75.71503 50.53185
# Shear Modulus (GPa) = -109.63793 30.48138 -39.57828
#
# Velocity S-wave (km/s) = -6.86493 3.61970 -4.12462
# Velocity P-wave (km/s) = 7.20697 7.07215 0.98107
#
# Compressibility (1/GPa) = 0.03944979
#
# Stress axis : x y z
#
# Youngs Moduli (GPa) = 61.95504 -41.09846 -99.39386
#
# Poissons Ratio (x) = 0.05307 -0.42575
# Poissons Ratio (y) = -0.08000 3.16501
# Poissons Ratio (z) = 0.26538 1.30870
#
# Static dielectric constant tensor:
#      x y z
#    x 1.991740 0.079430 0.191880 
#    y 0.079430 1.904430 0.038470 
#    z 0.191880 0.038470 2.136300 
# 
# From -- ./inp_files/182514.got.cif
#   From: 2010.05.17/outbox.cif.g08.bks.cpg/sg2_92_cif.got.tgz:182514.got - 2010.06.03 11:33:40.
