data_PCOD9082624
_publ_section_title
;
Structure prediction by ZEFSAII (Michael W. Deem and Ramdas Pophale) SiO2 
 PCOD9082624
Probable space group: P -1
;
_chemical_formula_sum "Si O2"
_cell_formula_units_Z 16
_cell_length_a 11.392002
_cell_length_b 9.592314
_cell_length_c 11.988751
_cell_angle_alpha 124.503666
_cell_angle_beta 144.221276
_cell_angle_gamma 65.294158
_cell_volume 628.851462
_symmetry_space_group_name_H-M "P -1"
_symmetry_group_IT_number 2
_symmetry_cell_setting 'triclinic'
loop_
_space_group_symop_operation_xyz
x,y,z
-x,-y,-z
loop_
_atom_site_type_symbol
_atom_site_label
_atom_site_fract_x
_atom_site_fract_y
_atom_site_fract_z
Si Si1 0.259032 0.358157 0.652554
Si Si2 0.088146 0.322160 0.951427
Si Si3 0.744147 0.154054 0.322150
Si Si4 0.803964 0.943048 0.895401
Si Si5 0.786695 0.770027 0.217278
Si Si6 0.708619 0.351611 0.572594
Si Si7 0.192607 0.734644 0.813741
Si Si8 0.394301 0.360871 0.515604
O O1 0.333083 0.264413 0.775670
O O2 0.219162 0.537396 0.760562
O O3 0.395715 0.379740 0.657453
O O4 0.049635 0.268254 0.399408
O O5 0.876077 0.238982 0.700667
O O6 0.225118 0.342338 0.954940
O O7 0.000000 0.500000 0.000000
O O8 0.154152 0.194839 0.038200
O O9 0.605966 0.222956 0.343501
O O10 0.693458 0.220815 0.193472
O O11 0.977843 0.224921 0.558350
O O12 0.745896 0.955318 0.229923
O O13 0.655716 0.833808 0.647796
O O14 0.748239 0.118535 0.986116
O O15 0.000000 0.000000 0.000000
O O16 0.589684 0.414624 0.615452
O O17 0.761734 0.516155 0.607315
#
# Coordination Sequence:
#
# PCOD9082624 Si02
#       8
#     2   2   2   2   2   2   2   2
#     4  10  20  34  59  87 115 159 200 245 293 353
#     4  11  22  38  61  92 118 159 201 249 302 351
#     4   9  16  33  54  83 109 152 195 241 284 345
#     4  12  24  37  61  96 127 148 198 261 305 344
#     4   9  19  31  57  86 115 143 201 251 286 340
#     4  10  22  38  63  85 123 164 204 236 295 379
#     4  10  19  33  56  86 117 149 198 250 290 345
#     4  11  22  40  59  93 123 163 197 242 307 361
#
# _framework density 25.443210000000001
#
# number of rings (size 3 to 8) (size 9 to 14) (size 15 to 20)
#    0.000    1.750    5.000    0.000    5.250    0.000 
#    0.000    3.125    2.750    0.750    0.000    0.000 
#    0.000    0.000    0.000    0.000    0.000    0.000 
#
# Total GULP energy -89280.201545 kJ/mol
# GULP energy per Si atom -5580.012597 kJ/mol
# Density = 2.538530 g / cm^3
# Si number density = 25.443210 Si / 1000 Ang^3
#
#
#
# Elastic Constant Matrix: (Units=GPa)
#
#
# Indices 1 2 3 4 5 6 
#
# 1 144.8876 30.0533 30.8469 4.5990 -35.4204 12.6392
# 2 30.0533 66.9655 24.1540 11.6096 -8.6737 4.7630
# 3 30.8469 24.1540 75.3055 21.8610 -19.4107 -8.2115
# 4 4.5990 11.6096 21.8610 37.6537 -16.3207 -12.2065
# 5 -35.4204 -8.6737 -19.4107 -16.3207 44.6251 5.1697
# 6 12.6392 4.7630 -8.2115 -12.2065 5.1697 40.1560
#
#
#
# Elastic Compliance Matrix: (Units=1/GPa)
#
#
# Indices 1 2 3 4 5 6 
#
# 1 0.010232 -0.003009 -0.002537 0.003595 0.008134 -0.003337
# 2 -0.003009 0.018626 -0.004203 -0.004886 -0.001995 -0.003350
# 3 -0.002537 -0.004203 0.018691 -0.007421 0.002288 0.002569
# 4 0.003595 -0.004886 -0.007421 0.040040 0.012333 0.008514
# 5 0.008134 -0.001995 0.002288 0.012333 0.034275 -0.002519
# 6 -0.003337 -0.003350 0.002569 0.008514 -0.002519 0.029788
#
#
# Mechanical properties :
#
#
# Convention : Reuss Voigt Hill
#
# Bulk Modulus (GPa) = 35.64912 50.80743 43.22827
# Shear Modulus (GPa) = 27.70088 37.96057 32.83072
#
# Velocity S-wave (km/s) = 3.30318 3.86680 3.59605
# Velocity P-wave (km/s) = 5.34693 6.32048 5.85398
#
# Compressibility (1/GPa) = 0.02805118
#
# Stress axis : x y z
#
# Youngs Moduli (GPa) = 97.73560 53.68705 53.50282
#
# Poissons Ratio (x) = 0.16156 0.13572
# Poissons Ratio (y) = 0.29411 0.22487
# Poissons Ratio (z) = 0.24793 0.22564
#
# Static dielectric constant tensor:
#      x y z
#    x 2.117490 -0.035650 0.082790 
#    y -0.035650 1.948310 -0.015710 
#    z 0.082790 -0.015710 2.223220 
# 
# From -- ./inp_files/271623.got.cif
#   From: 2010.05.17/outbox.cif.g08.bks.cpg/sg2_136_cif.got.tgz:271623.got - 2010.06.03 11:33:40.
