data_PCOD9082853
_publ_section_title
;
Structure prediction by ZEFSAII (Michael W. Deem and Ramdas Pophale) SiO2 
 PCOD9082853
Probable space group: P -1
;
_chemical_formula_sum "Si O2"
_cell_formula_units_Z 16
_cell_length_a 18.766856
_cell_length_b 7.198998
_cell_length_c 13.320957
_cell_angle_alpha 132.991641
_cell_angle_beta 149.827714
_cell_angle_gamma 43.180771
_cell_volume 611.997297
_symmetry_space_group_name_H-M "P -1"
_symmetry_group_IT_number 2
_symmetry_cell_setting 'triclinic'
loop_
_space_group_symop_operation_xyz
x,y,z
-x,-y,-z
loop_
_atom_site_type_symbol
_atom_site_label
_atom_site_fract_x
_atom_site_fract_y
_atom_site_fract_z
Si Si1 0.161832 0.800608 0.039442
Si Si2 0.396838 0.878893 0.965737
Si Si3 0.128735 0.654836 0.566492
Si Si4 0.270969 0.269381 0.129649
Si Si5 0.334464 0.594617 0.491308
Si Si6 0.996605 0.119302 0.707632
Si Si7 0.608788 0.595899 0.963308
Si Si8 0.805559 0.932000 0.643605
O O1 0.212268 0.541654 0.085365
O O2 0.250811 0.667960 0.998673
O O3 0.210964 0.023646 0.240065
O O4 0.980483 0.920966 0.841395
O O5 0.263444 0.764611 0.752432
O O6 0.554359 0.652899 0.032551
O O7 0.383602 0.013551 0.108378
O O8 0.364086 0.136782 0.945190
O O9 0.009582 0.758056 0.367208
O O10 0.191969 0.333483 0.508055
O O11 0.045527 0.798206 0.620429
O O12 0.344739 0.333280 0.342607
O O13 0.120839 0.204937 0.946888
O O14 0.170154 0.730775 0.394910
O O15 0.467115 0.570300 0.720397
O O16 0.324542 0.817195 0.476083
#
# Coordination Sequence:
#
# PCOD9082853 Si02
#       8
#     2   2   2   2   2   2   2   2
#     4   9  19  36  57  81 116 159 185 222 285 353
#     4   9  19  35  58  82 109 153 198 225 269 344
#     4  10  19  35  59  81 113 156 194 225 277 348
#     4   9  18  34  57  84 113 144 193 237 277 324
#     4  11  22  35  59  93 115 141 188 249 286 318
#     4  10  19  33  58  87 112 148 195 235 274 334
#     4  10  20  36  60  86 112 148 199 231 271 346
#     4  10  21  36  57  85 119 146 185 239 291 326
#
# _framework density 26.143908
#
# number of rings (size 3 to 8) (size 9 to 14) (size 15 to 20)
#    0.000    2.250    2.500    0.375    1.750    5.000 
#    0.000    1.250    0.000    3.000    0.000    0.000 
#    0.000    0.000    0.000    0.000    0.000    0.000 
#
# Total GULP energy -89583.337910 kJ/mol
# GULP energy per Si atom -5598.958619 kJ/mol
# Density = 2.608440 g / cm^3
# Si number density = 26.143908 Si / 1000 Ang^3
#
#
#
# Elastic Constant Matrix: (Units=GPa)
#
#
# Indices 1 2 3 4 5 6 
#
# 1 73.0591 28.4297 36.3144 -1.1463 -3.1991 -30.8379
# 2 28.4297 76.2061 41.0820 17.9462 -17.5915 -23.8324
# 3 36.3144 41.0820 152.0284 23.4342 -19.0936 -3.2615
# 4 -1.1463 17.9462 23.4342 38.5626 -4.9934 -14.8215
# 5 -3.1991 -17.5915 -19.0936 -4.9934 35.3054 2.3295
# 6 -30.8379 -23.8324 -3.2615 -14.8215 2.3295 45.6662
#
#
#
# Elastic Compliance Matrix: (Units=1/GPa)
#
#
# Indices 1 2 3 4 5 6 
#
# 1 0.028563 -0.003766 -0.008102 0.015585 -0.002914 0.021951
# 2 -0.003766 0.020885 -0.002962 -0.004672 0.007390 0.006252
# 3 -0.008102 -0.002962 0.010819 -0.008573 0.003034 -0.009182
# 4 0.015585 -0.004672 -0.008573 0.041745 -0.001039 0.021076
# 5 -0.002914 0.007390 0.003034 -0.001039 0.033232 0.000073
# 6 0.021951 0.006252 -0.009182 0.021076 0.000073 0.046165
#
#
# Mechanical properties :
#
#
# Convention : Reuss Voigt Hill
#
# Bulk Modulus (GPa) = 32.67239 56.99398 44.83318
# Shear Modulus (GPa) = 22.59675 36.93802 29.76739
#
# Velocity S-wave (km/s) = 2.94312 3.76290 3.37797
# Velocity P-wave (km/s) = 4.90648 6.38174 5.69211
#
# Compressibility (1/GPa) = 0.03060688
#
# Stress axis : x y z
#
# Youngs Moduli (GPa) = 35.01084 47.88097 92.42908
#
# Poissons Ratio (x) = 0.18031 0.74890
# Poissons Ratio (y) = 0.13184 0.27376
# Poissons Ratio (z) = 0.28367 0.14181
#
# Static dielectric constant tensor:
#      x y z
#    x 2.122270 0.019900 -0.017520 
#    y 0.019900 2.138310 0.032930 
#    z -0.017520 0.032930 1.980410 
# 
# From -- ./inp_files/434329.got.cif
#   From: 2010.05.17/outbox.cif.g08.bks.cpg/sg2_218_cif.got.tgz:434329.got - 2010.06.03 11:33:40.
