data_PCOD9082283
_publ_section_title
;
Structure prediction by ZEFSAII (Michael W. Deem and Ramdas Pophale) SiO2 
 PCOD9082283
Probable space group: P -1
;
_chemical_formula_sum "Si O2"
_cell_formula_units_Z 14
_cell_length_a 7.552250
_cell_length_b 12.144560
_cell_length_c 11.306190
_cell_angle_alpha 139.844314
_cell_angle_beta 55.845155
_cell_angle_gamma 127.416588
_cell_volume 521.503175
_symmetry_space_group_name_H-M "P -1"
_symmetry_group_IT_number 2
_symmetry_cell_setting 'triclinic'
loop_
_space_group_symop_operation_xyz
x,y,z
-x,-y,-z
loop_
_atom_site_type_symbol
_atom_site_label
_atom_site_fract_x
_atom_site_fract_y
_atom_site_fract_z
Si Si1 0.808367 0.014804 0.407940
Si Si2 0.448965 0.819044 0.944438
Si Si3 0.264747 0.363987 0.761343
Si Si4 0.724154 0.711516 0.555553
Si Si5 0.939869 0.405142 0.235120
Si Si6 0.201250 0.934696 0.822928
Si Si7 0.236057 0.662795 0.175421
O O1 0.794104 0.062039 0.315668
O O2 0.695275 0.138593 0.627309
O O3 0.083115 0.097096 0.389934
O O4 0.732200 0.804464 0.298013
O O5 0.583312 0.722477 0.732051
O O6 0.187822 0.708070 0.925579
O O7 0.500000 0.000000 0.000000
O O8 0.566007 0.911608 0.096224
O O9 0.390891 0.348709 0.578713
O O10 0.006887 0.341107 0.795013
O O11 0.345717 0.560853 0.955272
O O12 0.842510 0.566374 0.426008
O O13 0.867271 0.262289 0.251032
O O14 0.187296 0.518432 0.185680
O O15 0.000000 0.000000 0.000000
#
# Coordination Sequence:
#
# PCOD9082283 Si02
#       7
#     2   2   2   2   2   2   2
#     4  10  19  33  53  85 115 138 179 231 283 323
#     4  10  21  36  55  82 110 149 186 223 276 336
#     4   9  18  33  54  85 109 140 185 238 269 319
#     4  10  19  35  58  83 108 145 192 229 274 321
#     4   9  20  35  55  80 114 144 184 227 270 338
#     4  11  20  34  54  83 117 146 181 225 285 330
#     4   9  18  32  55  85 108 141 188 229 278 316
#
# _framework density 26.845472999999998
#
# number of rings (size 3 to 8) (size 9 to 14) (size 15 to 20)
#    0.000    2.571    1.429    3.000    2.000    2.286 
#    7.714    0.000    0.000    6.857    0.000    0.000 
#    0.000    0.000    0.000    0.000    0.000    0.000 
#
# Total GULP energy -78177.042218 kJ/mol
# GULP energy per Si atom -5584.074444 kJ/mol
# Density = 2.678437 g / cm^3
# Si number density = 26.845473 Si / 1000 Ang^3
#
#
#
# Elastic Constant Matrix: (Units=GPa)
#
#
# Indices 1 2 3 4 5 6 
#
# 1 38.9484 20.8818 27.8503 2.6618 5.7955 -17.3532
# 2 20.8818 140.4472 45.4308 22.7944 10.2940 -34.8753
# 3 27.8503 45.4308 155.8305 -7.7801 30.4689 -26.2194
# 4 2.6618 22.7944 -7.7801 68.2009 -9.1577 4.6727
# 5 5.7955 10.2940 30.4689 -9.1577 28.4461 -1.6674
# 6 -17.3532 -34.8753 -26.2194 4.6727 -1.6674 42.9235
#
#
#
# Elastic Compliance Matrix: (Units=1/GPa)
#
#
# Indices 1 2 3 4 5 6 
#
# 1 0.034255 -0.000367 -0.003578 -0.002851 -0.003255 0.011549
# 2 -0.000367 0.010593 -0.001212 -0.004688 -0.003496 0.008093
# 3 -0.003578 -0.001212 0.009699 0.000234 -0.008963 0.003120
# 4 -0.002851 -0.004688 0.000234 0.017802 0.007379 -0.006470
# 5 -0.003255 -0.003496 -0.008963 0.007379 0.048557 -0.008548
# 6 0.011549 0.008093 0.003120 -0.006470 -0.008548 0.036820
#
#
# Mechanical properties :
#
#
# Convention : Reuss Voigt Hill
#
# Bulk Modulus (GPa) = 22.60660 58.17244 40.38952
# Shear Modulus (GPa) = 27.35470 43.98499 35.66984
#
# Velocity S-wave (km/s) = 3.19559 4.05217 3.64910
# Velocity P-wave (km/s) = 4.69628 6.60378 5.72996
#
# Compressibility (1/GPa) = 0.04423488
#
# Stress axis : x y z
#
# Youngs Moduli (GPa) = 29.19306 94.39795 103.10238
#
# Poissons Ratio (x) = 0.03461 0.36889
# Poissons Ratio (y) = 0.01070 0.12492
# Poissons Ratio (z) = 0.10445 0.11438
#
# Static dielectric constant tensor:
#      x y z
#    x 2.264040 0.052040 0.075150 
#    y 0.052040 2.219150 -0.080400 
#    z 0.075150 -0.080400 1.971240 
# 
# From -- ./inp_files/391524.got.cif
#   From: 2010.05.17/outbox.cif.g08.bks.cpg/sg2_196_cif.got.tgz:391524.got - 2010.06.03 11:33:40.
