data_PCOD9082136
_publ_section_title
;
Structure prediction by ZEFSAII (Michael W. Deem and Ramdas Pophale) SiO2 
 PCOD9082136
Probable space group: P -1
;
_chemical_formula_sum "Si O2"
_cell_formula_units_Z 16
_cell_length_a 15.334884
_cell_length_b 13.767096
_cell_length_c 7.500004
_cell_angle_alpha 98.775209
_cell_angle_beta 105.818358
_cell_angle_gamma 143.162139
_cell_volume 699.773626
_symmetry_space_group_name_H-M "P -1"
_symmetry_group_IT_number 2
_symmetry_cell_setting 'triclinic'
loop_
_space_group_symop_operation_xyz
x,y,z
-x,-y,-z
loop_
_atom_site_type_symbol
_atom_site_label
_atom_site_fract_x
_atom_site_fract_y
_atom_site_fract_z
Si Si1 0.422251 0.816233 0.956755
Si Si2 0.328213 0.376890 0.144265
Si Si3 0.250494 0.182126 0.414866
Si Si4 0.004276 0.205397 0.026610
Si Si5 0.083657 0.996734 0.709352
Si Si6 0.991442 0.550992 0.191276
Si Si7 0.127393 0.490590 0.419984
Si Si8 0.186733 0.895673 0.585050
O O1 0.231178 0.645082 0.926943
O O2 0.333586 0.677954 0.690760
O O3 0.500000 0.000000 0.000000
O O4 0.595164 0.921712 0.178452
O O5 0.288130 0.284274 0.285421
O O6 0.543465 0.623238 0.321685
O O7 0.177288 0.321006 0.044534
O O8 0.270979 0.242005 0.928828
O O9 0.095425 0.097328 0.419297
O O10 0.182209 0.012322 0.248840
O O11 0.083579 0.386587 0.187522
O O12 0.970058 0.117002 0.172717
O O13 0.133157 0.959132 0.585466
O O14 0.097789 0.576525 0.390186
O O15 0.116036 0.770550 0.333795
O O16 0.000000 0.500000 0.000000
O O17 0.958730 0.293522 0.404406
#
# Coordination Sequence:
#
# PCOD9082136 Si02
#       8
#     2   2   2   2   2   2   2   2
#     4  11  19  36  57  75 100 137 176 215 255 302
#     4   8  13  22  36  61  95 127 161 198 249 294
#     4   8  13  23  37  60  99 129 156 199 250 296
#     4   8  15  24  38  65  96 131 163 201 247 297
#     4   8  15  24  40  65  96 129 162 205 246 295
#     4  11  23  37  53  76 107 137 169 217 265 307
#     4  10  19  33  52  75 104 135 176 215 253 305
#     4  10  19  34  53  76 102 135 179 211 253 309
#
# _framework density 22.864538
#
# number of rings (size 3 to 8) (size 9 to 14) (size 15 to 20)
#    0.000    2.750    2.500    2.250    0.000    7.500 
#    0.000    0.000    0.000    0.000    0.000    3.500 
#    0.000    6.000    0.000    0.125    0.000    0.000 
#
# Total GULP energy -89267.249873 kJ/mol
# GULP energy per Si atom -5579.203117 kJ/mol
# Density = 2.281250 g / cm^3
# Si number density = 22.864538 Si / 1000 Ang^3
#
#
#
# Elastic Constant Matrix: (Units=GPa)
#
#
# Indices 1 2 3 4 5 6 
#
# 1 145.0697 37.3463 83.6857 20.8682 -38.9897 -17.5668
# 2 37.3463 51.2133 36.0083 12.9952 -3.5352 -3.8633
# 3 83.6857 36.0083 175.2771 36.1354 -26.5677 12.3379
# 4 20.8682 12.9952 36.1354 38.8613 4.7981 -7.5296
# 5 -38.9897 -3.5352 -26.5677 4.7981 46.7501 -1.5440
# 6 -17.5668 -3.8633 12.3379 -7.5296 -1.5440 30.2786
#
#
#
# Elastic Compliance Matrix: (Units=1/GPa)
#
#
# Indices 1 2 3 4 5 6 
#
# 1 0.015564 -0.005947 -0.005372 -0.000494 0.009887 0.010842
# 2 -0.005947 0.026081 -0.002648 -0.002522 -0.004230 0.000113
# 3 -0.005372 -0.002648 0.012009 -0.009804 0.002798 -0.010643
# 4 -0.000494 -0.002522 -0.009804 0.039639 -0.009821 0.012743
# 5 0.009887 -0.004230 0.002798 -0.009821 0.032022 0.003247
# 6 0.010842 0.000113 -0.010643 0.012743 0.003247 0.047002
#
#
# Mechanical properties :
#
#
# Convention : Reuss Voigt Hill
#
# Bulk Modulus (GPa) = 38.88040 76.18230 57.53135
# Shear Modulus (GPa) = 23.94353 37.47932 30.71143
#
# Velocity S-wave (km/s) = 3.23954 4.05308 3.66893
# Velocity P-wave (km/s) = 5.57086 7.43604 6.56997
#
# Compressibility (1/GPa) = 0.02571990
#
# Stress axis : x y z
#
# Youngs Moduli (GPa) = 64.24919 38.34185 83.27328
#
# Poissons Ratio (x) = 0.22803 0.44735
# Poissons Ratio (y) = 0.38210 0.22049
# Poissons Ratio (z) = 0.34515 0.10152
#
# Static dielectric constant tensor:
#      x y z
#    x 1.863010 -0.074410 0.000350 
#    y -0.074410 1.989360 -0.114620 
#    z 0.000350 -0.114620 1.908390 
# 
# From -- ./inp_files/220924.got.cif
#   From: 2010.05.17/outbox.cif.g08.bks.cpg/sg2_111_cif.got.tgz:220924.got - 2010.06.03 11:33:40.
