data_PCOD9082800
_publ_section_title
;
Structure prediction by ZEFSAII (Michael W. Deem and Ramdas Pophale) SiO2 
 PCOD9082800
Probable space group: P -1
;
_chemical_formula_sum "Si O2"
_cell_formula_units_Z 16
_cell_length_a 7.734786
_cell_length_b 13.502022
_cell_length_c 11.340520
_cell_angle_alpha 96.873303
_cell_angle_beta 38.966606
_cell_angle_gamma 116.318678
_cell_volume 612.080371
_symmetry_space_group_name_H-M "P -1"
_symmetry_group_IT_number 2
_symmetry_cell_setting 'triclinic'
loop_
_space_group_symop_operation_xyz
x,y,z
-x,-y,-z
loop_
_atom_site_type_symbol
_atom_site_label
_atom_site_fract_x
_atom_site_fract_y
_atom_site_fract_z
Si Si1 0.959210 0.565991 0.384505
Si Si2 0.380690 0.214682 0.359871
Si Si3 0.820699 0.627568 0.245770
Si Si4 0.868103 0.158739 0.304185
Si Si5 0.813836 0.132856 0.051905
Si Si6 0.230983 0.374007 0.294783
Si Si7 0.105801 0.052392 0.699550
Si Si8 0.944884 0.542881 0.882787
O O1 0.982370 0.665350 0.296722
O O2 0.572377 0.459430 0.557257
O O3 0.020755 0.611147 0.490943
O O4 0.124498 0.506570 0.223456
O O5 0.279461 0.285393 0.341088
O O6 0.132909 0.129806 0.582826
O O7 0.730589 0.323656 0.250919
O O8 0.481531 0.132883 0.226867
O O9 0.922832 0.737167 0.124864
O O10 0.965459 0.548852 0.124828
O O11 0.500075 0.119052 0.534522
O O12 0.109421 0.297843 0.229032
O O13 0.974473 0.079197 0.301741
O O14 0.869356 0.129456 0.161325
O O15 0.870582 0.049361 0.926023
O O16 0.588371 0.498993 0.114805
#
# Coordination Sequence:
#
# PCOD9082800 Si02
#       8
#     2   2   2   2   2   2   2   2
#     4   9  17  30  52  87 122 152 182 227 282 341
#     4  11  20  35  67  93 113 150 195 241 290 346
#     4   9  16  33  57  88 116 154 191 222 282 348
#     4  10  26  42  59  83 114 160 200 242 292 342
#     4  11  20  38  63  85 110 156 198 238 289 352
#     4  12  20  35  60  91 124 146 188 246 298 340
#     4  10  23  46  62  77 111 160 210 240 281 348
#     4  10  19  33  57  96 122 149 183 234 292 352
#
# _framework density 26.140357000000002
#
# number of rings (size 3 to 8) (size 9 to 14) (size 15 to 20)
#    0.750    1.000    2.500    3.000    0.000    1.500 
#    0.000    6.250    0.000    7.500    0.000    0.000 
#    0.000    0.000    0.000    0.000    0.000    0.000 
#
# Total GULP energy -89369.277441 kJ/mol
# GULP energy per Si atom -5585.579840 kJ/mol
# Density = 2.608086 g / cm^3
# Si number density = 26.140357 Si / 1000 Ang^3
#
#
#
# Elastic Constant Matrix: (Units=GPa)
#
#
# Indices 1 2 3 4 5 6 
#
# 1 69.0038 -1.3299 8.8444 -5.1806 -4.4885 -7.3679
# 2 -1.3299 101.9834 28.4221 8.8547 -15.1309 -10.3457
# 3 8.8444 28.4221 97.7168 31.0963 16.7403 8.1246
# 4 -5.1806 8.8547 31.0963 47.9578 -11.9519 1.8174
# 5 -4.4885 -15.1309 16.7403 -11.9519 24.7867 2.4840
# 6 -7.3679 -10.3457 8.1246 1.8174 2.4840 38.9722
#
#
#
# Elastic Compliance Matrix: (Units=1/GPa)
#
#
# Indices 1 2 3 4 5 6 
#
# 1 0.019298 0.006293 -0.012309 0.014136 0.021881 0.005831
# 2 0.006293 0.018312 -0.016458 0.015206 0.030078 0.006856
# 3 -0.012309 -0.016458 0.037493 -0.035665 -0.053851 -0.009417
# 4 0.014136 0.015206 -0.035665 0.058177 0.063240 0.007401
# 5 0.021881 0.030078 -0.053851 0.063240 0.128306 0.012221
# 6 0.005831 0.006856 -0.009417 0.007401 0.012221 0.029421
#
#
# Mechanical properties :
#
#
# Convention : Reuss Voigt Hill
#
# Bulk Modulus (GPa) = 33.16205 37.84192 35.50199
# Shear Modulus (GPa) = 14.45062 37.86116 26.15589
#
# Velocity S-wave (km/s) = 2.35374 3.80989 3.16665
# Velocity P-wave (km/s) = 4.48336 5.81906 5.19432
#
# Compressibility (1/GPa) = 0.03015495
#
# Stress axis : x y z
#
# Youngs Moduli (GPa) = 51.81873 54.60894 26.67184
#
# Poissons Ratio (x) = -0.34363 0.32830
# Poissons Ratio (y) = -0.32607 0.43896
# Poissons Ratio (z) = 0.63782 0.89874
#
# Static dielectric constant tensor:
#      x y z
#    x 2.224140 -0.010960 0.145750 
#    y -0.010960 2.041540 0.058530 
#    z 0.145750 0.058530 2.115150 
# 
# From -- ./inp_files/397444.got.cif
#   From: 2010.05.17/outbox.cif.g08.bks.cpg/sg2_199_cif.got.tgz:397444.got - 2010.06.03 11:33:40.
