data_PCOD9082346
_publ_section_title
;
Structure prediction by ZEFSAII (Michael W. Deem and Ramdas Pophale) SiO2 
 PCOD9082346
Probable space group: P -1
;
_chemical_formula_sum "Si O2"
_cell_formula_units_Z 16
_cell_length_a 15.296334
_cell_length_b 9.375053
_cell_length_c 10.869548
_cell_angle_alpha 52.376169
_cell_angle_beta 142.843239
_cell_angle_gamma 133.183845
_cell_volume 678.953330
_symmetry_space_group_name_H-M "P -1"
_symmetry_group_IT_number 2
_symmetry_cell_setting 'triclinic'
loop_
_space_group_symop_operation_xyz
x,y,z
-x,-y,-z
loop_
_atom_site_type_symbol
_atom_site_label
_atom_site_fract_x
_atom_site_fract_y
_atom_site_fract_z
Si Si1 0.349742 0.862392 0.633296
Si Si2 0.651061 0.957228 0.223301
Si Si3 0.995384 0.273565 0.767722
Si Si4 0.285073 0.421170 0.573969
Si Si5 0.056278 0.844676 0.713257
Si Si6 0.300497 0.472377 0.855487
Si Si7 0.091444 0.924925 0.996016
Si Si8 0.439961 0.189803 0.291237
O O1 0.336641 0.019700 0.627443
O O2 0.172903 0.732399 0.454909
O O3 0.397716 0.706794 0.843015
O O4 0.479440 0.927431 0.637552
O O5 0.796775 0.128422 0.223671
O O6 0.655639 0.747705 0.307990
O O7 0.500000 0.000000 0.000000
O O8 0.005698 0.267321 0.930126
O O9 0.144816 0.432236 0.782764
O O10 0.004364 0.071434 0.835885
O O11 0.268003 0.413393 0.707411
O O12 0.411058 0.640763 0.559701
O O13 0.105158 0.354408 0.359334
O O14 0.111494 0.899439 0.887513
O O15 0.000000 0.000000 0.500000
O O16 0.388441 0.345084 0.075738
O O17 0.261016 0.032062 0.201752
#
# Coordination Sequence:
#
# PCOD9082346 Si02
#       8
#     2   2   2   2   2   2   2   2
#     4  11  20  32  57  87 112 142 192 243 279 328
#     4  11  19  30  52  85 116 143 179 235 288 330
#     4  10  20  34  57  81 110 149 197 237 271 334
#     4  10  19  33  56  83 113 144 181 229 286 337
#     4  10  19  33  54  80 111 145 183 226 281 340
#     4  10  19  36  57  84 114 148 187 234 287 335
#     4  10  21  38  56  80 115 156 190 226 284 346
#     4  10  20  36  56  83 116 149 186 230 283 339
#
# _framework density 23.565684000000001
#
# number of rings (size 3 to 8) (size 9 to 14) (size 15 to 20)
#    0.000    1.750    0.000    9.375    0.000    1.500 
#    0.000    0.000    0.000   20.250    0.000    3.500 
#    0.000    2.000    0.000    0.000    0.000    0.000 
#
# Total GULP energy -89258.788925 kJ/mol
# GULP energy per Si atom -5578.674308 kJ/mol
# Density = 2.351205 g / cm^3
# Si number density = 23.565684 Si / 1000 Ang^3
#
#
#
# Elastic Constant Matrix: (Units=GPa)
#
#
# Indices 1 2 3 4 5 6 
#
# 1 146.8344 44.1294 23.0265 2.7752 21.5296 1.1009
# 2 44.1294 95.8832 8.8962 8.3296 2.2666 -9.3934
# 3 23.0265 8.8962 63.1645 9.9221 30.8944 3.5623
# 4 2.7752 8.3296 9.9221 26.9727 6.6621 7.2364
# 5 21.5296 2.2666 30.8944 6.6621 47.3917 1.6797
# 6 1.1009 -9.3934 3.5623 7.2364 1.6797 41.2891
#
#
#
# Elastic Compliance Matrix: (Units=1/GPa)
#
#
# Indices 1 2 3 4 5 6 
#
# 1 0.008675 -0.004093 -0.001289 0.001960 -0.003136 -0.001267
# 2 -0.004093 0.013165 -0.001001 -0.004940 0.002437 0.003957
# 3 -0.001289 -0.001001 0.024342 -0.004684 -0.014546 -0.000881
# 4 0.001960 -0.004940 -0.004684 0.043155 -0.003377 -0.008198
# 5 -0.003136 0.002437 -0.014546 -0.003377 0.032324 0.001170
# 6 -0.001267 0.003957 -0.000881 -0.008198 0.001170 0.026619
#
#
# Mechanical properties :
#
#
# Convention : Reuss Voigt Hill
#
# Bulk Modulus (GPa) = 29.92511 50.88737 40.40624
# Shear Modulus (GPa) = 29.03853 38.45271 33.74562
#
# Velocity S-wave (km/s) = 3.51413 4.04384 3.78826
# Velocity P-wave (km/s) = 5.40293 6.59123 6.02644
#
# Compressibility (1/GPa) = 0.03341675
#
# Stress axis : x y z
#
# Youngs Moduli (GPa) = 115.27512 75.95697 41.08075
#
# Poissons Ratio (x) = 0.31091 0.05294
# Poissons Ratio (y) = 0.47185 0.04112
# Poissons Ratio (z) = 0.14855 0.07603
#
# Static dielectric constant tensor:
#      x y z
#    x 1.997390 0.031260 -0.108030 
#    y 0.031260 1.973410 0.017950 
#    z -0.108030 0.017950 1.988330 
# 
# From -- ./inp_files/446998.got.cif
#   From: 2010.05.17/outbox.cif.g08.bks.cpg/sg2_224_cif.got.tgz:446998.got - 2010.06.03 11:33:40.
