data_PCOD9082094
_publ_section_title
;
Structure prediction by ZEFSAII (Michael W. Deem and Ramdas Pophale) SiO2 
 PCOD9082094
Probable space group: P -1
;
_chemical_formula_sum "Si O2"
_cell_formula_units_Z 16
_cell_length_a 15.141700
_cell_length_b 12.122848
_cell_length_c 14.962758
_cell_angle_alpha 113.840486
_cell_angle_beta 19.038521
_cell_angle_gamma 112.313764
_cell_volume 819.468571
_symmetry_space_group_name_H-M "P -1"
_symmetry_group_IT_number 2
_symmetry_cell_setting 'triclinic'
loop_
_space_group_symop_operation_xyz
x,y,z
-x,-y,-z
loop_
_atom_site_type_symbol
_atom_site_label
_atom_site_fract_x
_atom_site_fract_y
_atom_site_fract_z
Si Si1 0.637501 0.424041 0.765973
Si Si2 0.505369 0.297688 0.320954
Si Si3 0.752356 0.906315 0.622555
Si Si4 0.880340 0.671954 0.967000
Si Si5 0.133897 0.261026 0.191219
Si Si6 0.757011 0.931866 0.828186
Si Si7 0.956359 0.646957 0.086906
Si Si8 0.367550 0.519903 0.402932
O O1 0.620727 0.507120 0.721538
O O2 0.935413 0.363619 0.457832
O O3 0.500000 0.500000 0.000000
O O4 0.436477 0.311513 0.913466
O O5 0.374573 0.190626 0.354127
O O6 0.815909 0.290010 0.050212
O O7 0.474210 0.415311 0.328274
O O8 0.331930 0.323493 0.584232
O O9 0.766978 0.867319 0.700207
O O10 0.048520 0.952386 0.328243
O O11 0.548862 0.021321 0.851593
O O12 0.936066 0.754159 0.852881
O O13 0.970941 0.699267 0.989748
O O14 0.060925 0.553831 0.731601
O O15 0.566931 0.633813 0.261292
O O16 0.140002 0.148550 0.214669
O O17 0.000000 0.500000 0.000000
#
# Coordination Sequence:
#
# PCOD9082094 Si02
#       8
#     2   2   2   2   2   2   2   2
#     4  10  21  34  50  84 117 148 181 228 272 349
#     4  12  22  35  57  86 115 152 184 240 285 329
#     4  10  23  39  61  87 110 142 199 244 283 340
#     4  10  20  35  53  81 113 148 191 215 265 347
#     4  10  21  37  59  79 108 154 190 225 285 339
#     4  10  21  43  62  81 110 150 192 243 293 332
#     4  12  21  35  57  82 120 158 184 224 283 341
#     4  10  19  33  50  78 117 148 183 219 269 336
#
# _framework density 19.524849
#
# number of rings (size 3 to 8) (size 9 to 14) (size 15 to 20)
#    0.000    1.500    2.500    3.000    1.750    0.000 
#    2.250    0.000    0.000    4.500    0.000    0.000 
#    0.000    0.000    0.000    0.000    0.000    0.000 
#
# Total GULP energy -89193.669053 kJ/mol
# GULP energy per Si atom -5574.604316 kJ/mol
# Density = 1.948041 g / cm^3
# Si number density = 19.524849 Si / 1000 Ang^3
#
#
#
# Elastic Constant Matrix: (Units=GPa)
#
#
# Indices 1 2 3 4 5 6 
#
# 1 123.0757 35.9354 0.8058 0.8572 18.1621 -24.5646
# 2 35.9354 28.9542 -0.8947 -7.1903 7.4096 -7.1496
# 3 0.8058 -0.8947 66.1424 -2.7881 1.8468 -6.7583
# 4 0.8572 -7.1903 -2.7881 14.2918 1.5790 -5.6462
# 5 18.1621 7.4096 1.8468 1.5790 35.7837 -6.6157
# 6 -24.5646 -7.1496 -6.7583 -5.6462 -6.6157 38.6425
#
#
#
# Elastic Compliance Matrix: (Units=1/GPa)
#
#
# Indices 1 2 3 4 5 6 
#
# 1 0.014952 -0.019006 -0.000295 -0.008559 -0.002472 0.004262
# 2 -0.019006 0.071736 0.003814 0.041351 -0.005957 0.006880
# 3 -0.000295 0.003814 0.015909 0.006778 -0.000998 0.004120
# 4 -0.008559 0.041351 0.006778 0.099972 -0.005836 0.017003
# 5 -0.002472 -0.005957 -0.000998 -0.005836 0.031041 0.001613
# 6 0.004262 0.006880 0.004120 0.017003 0.001613 0.033342
#
#
# Mechanical properties :
#
#
# Convention : Reuss Voigt Hill
#
# Bulk Modulus (GPa) = 13.96234 32.20726 23.08480
# Shear Modulus (GPa) = 15.53763 29.89865 22.71814
#
# Velocity S-wave (km/s) = 2.82403 3.91744 3.41479
# Velocity P-wave (km/s) = 4.21902 6.08220 5.23418
#
# Compressibility (1/GPa) = 0.07162126
#
# Stress axis : x y z
#
# Youngs Moduli (GPa) = 66.88279 13.94005 62.85905
#
# Poissons Ratio (x) = 0.26495 0.01857
# Poissons Ratio (y) = 1.27118 -0.23976
# Poissons Ratio (z) = 0.01976 -0.05317
#
# Static dielectric constant tensor:
#      x y z
#    x 1.744800 0.002620 0.008780 
#    y 0.002620 1.665270 -0.010810 
#    z 0.008780 -0.010810 1.663580 
# 
# From -- ./inp_files/97612.got.cif
#   From: 2010.05.17/outbox.cif.g08.bks.cpg/sg2_49_cif.got.tgz:97612.got - 2010.06.03 11:33:40.
