data_PCOD9082118
_publ_section_title
;
Structure prediction by ZEFSAII (Michael W. Deem and Ramdas Pophale) SiO2 
 PCOD9082118
Probable space group: P -1
;
_chemical_formula_sum "Si O2"
_cell_formula_units_Z 16
_cell_length_a 12.459647
_cell_length_b 12.376205
_cell_length_c 12.948493
_cell_angle_alpha 48.796272
_cell_angle_beta 147.628247
_cell_angle_gamma 123.795206
_cell_volume 804.325706
_symmetry_space_group_name_H-M "P -1"
_symmetry_group_IT_number 2
_symmetry_cell_setting 'triclinic'
loop_
_space_group_symop_operation_xyz
x,y,z
-x,-y,-z
loop_
_atom_site_type_symbol
_atom_site_label
_atom_site_fract_x
_atom_site_fract_y
_atom_site_fract_z
Si Si1 0.832431 0.836279 0.978223
Si Si2 0.571544 0.308570 0.262650
Si Si3 0.978374 0.178520 0.646386
Si Si4 0.844746 0.873024 0.726996
Si Si5 0.646056 0.438703 0.525223
Si Si6 0.208810 0.421223 0.235586
Si Si7 0.193918 0.447783 0.624648
Si Si8 0.610008 0.136546 0.619574
O O1 0.649756 0.731401 0.926766
O O2 0.883847 0.817017 0.911453
O O3 0.753412 0.999838 0.821599
O O4 0.998352 0.812443 0.215184
O O5 0.616955 0.475824 0.214819
O O6 0.585400 0.220935 0.438094
O O7 0.764281 0.246486 0.397740
O O8 0.158128 0.278434 0.690244
O O9 0.979856 0.010879 0.727086
O O10 0.844173 0.743578 0.727847
O O11 0.613041 0.924724 0.505392
O O12 0.404593 0.458780 0.300022
O O13 0.713150 0.532375 0.617931
O O14 0.785019 0.485783 0.513824
O O15 0.662207 0.265318 0.659987
O O16 0.000000 0.500000 0.000000
O O17 0.000000 0.500000 0.500000
#
# Coordination Sequence:
#
# PCOD9082118 Si02
#       8
#     2   2   2   2   2   2   2   2
#     4  11  19  29  53  82 111 141 170 232 291 318
#     4   9  17  33  46  72 111 141 174 212 267 333
#     4  11  20  30  49  80 110 145 178 211 274 339
#     4  10  19  33  51  81 111 136 186 232 273 325
#     4   9  20  40  58  82 112 144 189 229 276 327
#     4  10  22  37  61  84 104 148 192 241 273 307
#     4   9  20  36  57  80 117 155 176 218 278 344
#     4   9  16  31  55  76 107 140 167 234 288 317
#
# _framework density 19.892440000000001
#
# number of rings (size 3 to 8) (size 9 to 14) (size 15 to 20)
#    0.000    2.250    2.500    1.875    1.750    2.500 
#    0.000    3.125    0.000    0.750    0.000    0.000 
#    0.000    0.000    0.000    0.000    0.000    0.000 
#
# Total GULP energy -89144.153085 kJ/mol
# GULP energy per Si atom -5571.509568 kJ/mol
# Density = 1.984716 g / cm^3
# Si number density = 19.892440 Si / 1000 Ang^3
#
#
#
# Elastic Constant Matrix: (Units=GPa)
#
#
# Indices 1 2 3 4 5 6 
#
# 1 65.4565 39.1221 14.9273 2.1797 7.3373 6.2023
# 2 39.1221 185.0146 22.7730 22.0341 -3.3986 19.5069
# 3 14.9273 22.7730 51.4580 14.6764 19.6439 2.6969
# 4 2.1797 22.0341 14.6764 27.4976 2.4778 -1.5140
# 5 7.3373 -3.3986 19.6439 2.4778 26.4372 5.1586
# 6 6.2023 19.5069 2.6969 -1.5140 5.1586 40.3074
#
#
#
# Elastic Compliance Matrix: (Units=1/GPa)
#
#
# Indices 1 2 3 4 5 6 
#
# 1 0.018761 -0.004070 -0.003389 0.003899 -0.003560 -0.000088
# 2 -0.004070 0.007690 -0.002552 -0.005157 0.005237 -0.003788
# 3 -0.003389 -0.002552 0.034648 -0.013885 -0.024225 0.002017
# 4 0.003899 -0.005157 -0.013885 0.047535 0.003300 0.004188
# 5 -0.003560 0.005237 -0.024225 0.003300 0.058690 -0.007753
# 6 -0.000088 -0.003788 0.002017 0.004188 -0.007753 0.027671
#
#
# Mechanical properties :
#
#
# Convention : Reuss Voigt Hill
#
# Bulk Modulus (GPa) = 24.34589 50.61931 37.48260
# Shear Modulus (GPa) = 21.86183 33.85557 27.85870
#
# Velocity S-wave (km/s) = 3.31872 4.12992 3.74634
# Velocity P-wave (km/s) = 5.19139 6.94575 6.13164
#
# Compressibility (1/GPa) = 0.04107469
#
# Stress axis : x y z
#
# Youngs Moduli (GPa) = 53.30338 130.04538 28.86160
#
# Poissons Ratio (x) = 0.52932 0.09783
# Poissons Ratio (y) = 0.21696 0.07366
# Poissons Ratio (z) = 0.18067 0.33188
#
# Static dielectric constant tensor:
#      x y z
#    x 1.736920 0.011940 0.014060 
#    y 0.011940 1.771700 0.013240 
#    z 0.014060 0.013240 1.740020 
# 
# From -- ./inp_files/358546.got.cif
#   From: 2010.05.17/outbox.cif.g08.bks.cpg/sg2_180_cif.got.tgz:358546.got - 2010.06.03 11:33:40.
