data_PCOD9082617
_publ_section_title
;
Structure prediction by ZEFSAII (Michael W. Deem and Ramdas Pophale) SiO2 
 PCOD9082617
Probable space group: P -1
;
_chemical_formula_sum "Si O2"
_cell_formula_units_Z 16
_cell_length_a 21.072332
_cell_length_b 5.165137
_cell_length_c 8.705113
_cell_angle_alpha 87.947247
_cell_angle_beta 100.109646
_cell_angle_gamma 62.867327
_cell_volume 822.826475
_symmetry_space_group_name_H-M "P -1"
_symmetry_group_IT_number 2
_symmetry_cell_setting 'triclinic'
loop_
_space_group_symop_operation_xyz
x,y,z
-x,-y,-z
loop_
_atom_site_type_symbol
_atom_site_label
_atom_site_fract_x
_atom_site_fract_y
_atom_site_fract_z
Si Si1 0.937099 0.915194 0.928681
Si Si2 0.453525 0.834296 0.026759
Si Si3 0.092228 0.549278 0.491507
Si Si4 0.458105 0.502742 0.327407
Si Si5 0.393208 0.002596 0.698310
Si Si6 0.662734 0.384588 0.504957
Si Si7 0.964486 0.625098 0.238262
Si Si8 0.834729 0.100011 0.607895
O O1 0.979303 0.633319 0.842456
O O2 0.869870 0.115613 0.786953
O O3 0.912792 0.854310 0.085654
O O4 0.000000 0.000000 0.000000
O O5 0.384752 0.981750 0.878749
O O6 0.500000 0.500000 0.000000
O O7 0.442186 0.774633 0.200790
O O8 0.500000 0.000000 0.000000
O O9 0.074195 0.490708 0.656329
O O10 0.135326 0.734243 0.496050
O O11 0.015036 0.716563 0.362707
O O12 0.136064 0.232709 0.433477
O O13 0.500000 0.500000 0.500000
O O14 0.519526 0.197153 0.289778
O O15 0.382957 0.526883 0.357358
O O16 0.353856 0.851424 0.587792
O O17 0.367319 0.326904 0.619873
O O18 0.748025 0.256509 0.572378
#
# Coordination Sequence:
#
# PCOD9082617 Si02
#       8
#     2   2   2   2   2   2   2   2
#     4  10  19  35  59  87 117 145 187 242 293 337
#     4  10  19  33  56  86 112 138 181 241 286 324
#     4  10  21  37  59  83 111 149 196 238 280 345
#     4   9  19  35  60  86 110 144 194 234 277 336
#     4  10  20  37  59  82 113 147 195 237 283 336
#     4  11  22  38  56  81 114 157 188 237 288 341
#     4   9  20  34  59  88 110 145 193 241 286 336
#     4  11  23  38  56  82 120 155 194 235 295 347
#
# _framework density 19.445170000000001
#
# number of rings (size 3 to 8) (size 9 to 14) (size 15 to 20)
#    0.000    2.000    1.250    3.375    1.750    4.500 
#    0.000    2.500    0.000    0.000    0.000    0.000 
#    0.000    0.000    0.000    0.000    0.000    0.000 
#
# Total GULP energy -89139.965561 kJ/mol
# GULP energy per Si atom -5571.247848 kJ/mol
# Density = 1.940091 g / cm^3
# Si number density = 19.445170 Si / 1000 Ang^3
#
#
#
# Elastic Constant Matrix: (Units=GPa)
#
#
# Indices 1 2 3 4 5 6 
#
# 1 103.5187 7.5393 44.6627 -14.4576 3.1862 -1.5263
# 2 7.5393 47.5897 5.6274 -9.2782 -4.1954 11.8302
# 3 44.6627 5.6274 147.5587 -14.8259 -17.3716 -4.3429
# 4 -14.4576 -9.2782 -14.8259 27.6462 8.6718 1.6909
# 5 3.1862 -4.1954 -17.3716 8.6718 17.0427 -0.8873
# 6 -1.5263 11.8302 -4.3429 1.6909 -0.8873 24.9246
#
#
#
# Elastic Compliance Matrix: (Units=1/GPa)
#
#
# Indices 1 2 3 4 5 6 
#
# 1 0.013062 -0.000917 -0.004476 0.007647 -0.011145 -0.000460
# 2 -0.000917 0.026220 -0.000064 0.008613 0.001499 -0.013043
# 3 -0.004476 -0.000064 0.009388 -0.000868 0.010927 0.001840
# 4 0.007647 0.008613 -0.000868 0.051515 -0.026835 -0.008221
# 5 -0.011145 0.001499 0.010927 -0.026835 0.086202 0.005399
# 6 -0.000460 -0.013043 0.001840 -0.008221 0.005399 0.047354
#
#
# Mechanical properties :
#
#
# Convention : Reuss Voigt Hill
#
# Bulk Modulus (GPa) = 26.48722 46.03621 36.26172
# Shear Modulus (GPa) = 19.43701 29.97853 24.70777
#
# Velocity S-wave (km/s) = 3.16504 3.93070 3.56847
# Velocity P-wave (km/s) = 5.19690 6.65784 5.97221
#
# Compressibility (1/GPa) = 0.03775405
#
# Stress axis : x y z
#
# Youngs Moduli (GPa) = 76.55650 38.13936 106.52405
#
# Poissons Ratio (x) = 0.03499 0.47680
# Poissons Ratio (y) = 0.07023 0.00685
# Poissons Ratio (z) = 0.34266 0.00245
#
# Static dielectric constant tensor:
#      x y z
#    x 1.691750 0.007830 -0.016670 
#    y 0.007830 1.719700 0.008670 
#    z -0.016670 0.008670 1.791290 
# 
# From -- ./inp_files/41952.got.cif
#   From: 2010.05.17/outbox.cif.g08.bks.cpg/sg2_21_cif.got.tgz:41952.got - 2010.06.03 11:33:40.
