data_PCOD9082694
_publ_section_title
;
Structure prediction by ZEFSAII (Michael W. Deem and Ramdas Pophale) SiO2 
 PCOD9082694
Probable space group: P -1
;
_chemical_formula_sum "Si O2"
_cell_formula_units_Z 16
_cell_length_a 9.597954
_cell_length_b 17.550323
_cell_length_c 8.696530
_cell_angle_alpha 42.723377
_cell_angle_beta 102.485415
_cell_angle_gamma 115.653955
_cell_volume 883.394700
_symmetry_space_group_name_H-M "P -1"
_symmetry_group_IT_number 2
_symmetry_cell_setting 'triclinic'
loop_
_space_group_symop_operation_xyz
x,y,z
-x,-y,-z
loop_
_atom_site_type_symbol
_atom_site_label
_atom_site_fract_x
_atom_site_fract_y
_atom_site_fract_z
Si Si1 0.981746 0.370301 0.620872
Si Si2 0.666196 0.911740 0.927287
Si Si3 0.018086 0.630086 0.745219
Si Si4 0.175783 0.006901 0.846720
Si Si5 0.887681 0.793406 0.636421
Si Si6 0.327067 0.846240 0.993385
Si Si7 0.761018 0.133247 0.402773
Si Si8 0.848487 0.785341 0.993533
O O1 0.990859 0.373078 0.435103
O O2 0.000000 0.500000 0.500000
O O3 0.815281 0.267630 0.793405
O O4 0.115933 0.329532 0.774223
O O5 0.497800 0.852516 0.055481
O O6 0.713162 0.811460 0.005420
O O7 0.661412 0.012373 0.654756
O O8 0.799447 0.983737 0.978382
O O9 0.181954 0.742159 0.667860
O O10 0.892721 0.674351 0.729435
O O11 0.000000 0.500000 0.000000
O O12 0.185785 0.134968 0.592661
O O13 0.306709 0.966524 0.870042
O O14 0.009765 0.902237 0.906895
O O15 0.823135 0.774971 0.820137
O O16 0.074681 0.878096 0.575082
O O17 0.302398 0.843875 0.807397
#
# Coordination Sequence:
#
# PCOD9082694 Si02
#       8
#     2   2   2   2   2   2   2   2
#     4  11  21  38  62  83 108 145 187 235 275 328
#     4  12  23  33  54  86 118 153 180 227 286 334
#     4  10  19  34  57  86 107 135 188 239 273 315
#     4  11  19  34  53  79 115 149 187 230 268 331
#     4  10  19  33  57  82 110 145 196 235 267 320
#     4  11  23  37  53  84 119 147 185 226 284 337
#     4  10  19  35  54  80 115 147 187 225 276 322
#     4  11  19  35  56  82 110 148 192 231 270 325
#
# _framework density 18.111951000000001
#
# number of rings (size 3 to 8) (size 9 to 14) (size 15 to 20)
#    0.750    0.500    3.750    6.000    0.000    0.000 
#    0.000    0.625    0.000    0.000    0.000    6.125 
#    0.000    0.000    0.000    0.000    0.000    0.000 
#
# Total GULP energy -89228.742993 kJ/mol
# GULP energy per Si atom -5576.796437 kJ/mol
# Density = 1.807073 g / cm^3
# Si number density = 18.111951 Si / 1000 Ang^3
#
#
#
# Elastic Constant Matrix: (Units=GPa)
#
#
# Indices 1 2 3 4 5 6 
#
# 1 89.4984 25.1038 25.5600 -16.6841 11.1397 -18.2591
# 2 25.1038 90.8163 37.7368 7.3039 11.1735 -31.5637
# 3 25.5600 37.7368 106.1957 -2.5021 17.1877 -13.1435
# 4 -16.6841 7.3039 -2.5021 36.7224 -8.3211 5.7339
# 5 11.1397 11.1735 17.1877 -8.3211 16.9252 -8.6642
# 6 -18.2591 -31.5637 -13.1435 5.7339 -8.6642 23.3192
#
#
#
# Elastic Compliance Matrix: (Units=1/GPa)
#
#
# Indices 1 2 3 4 5 6 
#
# 1 0.014625 -0.000975 -0.002056 0.005441 -0.000383 0.007493
# 2 -0.000975 0.026555 -0.005245 -0.011391 0.000946 0.035377
# 3 -0.002056 -0.005245 0.012940 -0.000759 -0.011518 -0.005509
# 4 0.005441 -0.011391 -0.000759 0.037802 0.015566 -0.015097
# 5 -0.000383 0.000946 -0.011518 0.015566 0.090491 0.024283
# 6 0.007493 0.035377 -0.005509 -0.015097 0.024283 0.106264
#
#
# Mechanical properties :
#
#
# Convention : Reuss Voigt Hill
#
# Bulk Modulus (GPa) = 26.61798 51.47904 39.04851
# Shear Modulus (GPa) = 15.73562 28.60070 22.16816
#
# Velocity S-wave (km/s) = 2.95073 3.97811 3.50230
# Velocity P-wave (km/s) = 5.13200 7.04165 6.16126
#
# Compressibility (1/GPa) = 0.03756859
#
# Stress axis : x y z
#
# Youngs Moduli (GPa) = 68.37755 37.65735 77.28159
#
# Poissons Ratio (x) = 0.03670 0.15889
# Poissons Ratio (y) = 0.06664 0.40534
# Poissons Ratio (z) = 0.14059 0.19751
#
# Static dielectric constant tensor:
#      x y z
#    x 1.640610 -0.000100 0.000200 
#    y -0.000100 1.630530 0.009450 
#    z 0.000200 0.009450 1.618320 
# 
# From -- ./inp_files/216485.got.cif
#   From: 2010.05.17/outbox.cif.g08.bks.cpg/sg2_109_cif.got.tgz:216485.got - 2010.06.03 11:33:40.
