data_PCOD9082557
_publ_section_title
;
Structure prediction by ZEFSAII (Michael W. Deem and Ramdas Pophale) SiO2 
 PCOD9082557
Probable space group: P -1
;
_chemical_formula_sum "Si O2"
_cell_formula_units_Z 16
_cell_length_a 14.056437
_cell_length_b 11.485067
_cell_length_c 7.787444
_cell_angle_alpha 58.062444
_cell_angle_beta 115.775581
_cell_angle_gamma 68.578324
_cell_volume 602.474073
_symmetry_space_group_name_H-M "P -1"
_symmetry_group_IT_number 2
_symmetry_cell_setting 'triclinic'
loop_
_space_group_symop_operation_xyz
x,y,z
-x,-y,-z
loop_
_atom_site_type_symbol
_atom_site_label
_atom_site_fract_x
_atom_site_fract_y
_atom_site_fract_z
Si Si1 0.329521 0.519303 0.158884
Si Si2 0.875565 0.559400 0.656800
Si Si3 0.997489 0.712854 0.681995
Si Si4 0.805672 0.095690 0.675283
Si Si5 0.440859 0.998416 0.729616
Si Si6 0.364473 0.983338 0.301267
Si Si7 0.648946 0.195701 0.113560
Si Si8 0.185342 0.653744 0.313118
O O1 0.153775 0.656473 0.820389
O O2 0.391880 0.611624 0.128306
O O3 0.465337 0.278117 0.380417
O O4 0.292740 0.536555 0.316701
O O5 0.702304 0.784598 0.436891
O O6 0.848339 0.468698 0.566886
O O7 0.976537 0.592712 0.654674
O O8 0.976471 0.377417 0.033122
O O9 0.823445 0.971174 0.337111
O O10 0.776703 0.990702 0.854098
O O11 0.695229 0.172218 0.365850
O O12 0.747941 0.300504 0.540684
O O13 0.001113 0.904285 0.928269
O O14 0.602530 0.930453 0.878049
O O15 0.361902 0.054489 0.432648
O O16 0.469060 0.818503 0.969691
#
# Coordination Sequence:
#
# PCOD9082557 Si02
#       8
#     2   2   2   2   2   2   2   2
#     4  11  20  33  55  85 105 135 177 217 264 313
#     4   9  15  29  51  76 100 135 177 215 250 302
#     4   9  16  26  51  80 101 127 174 220 253 296
#     4  10  21  34  51  77 110 142 170 216 259 314
#     4   9  18  32  50  81 107 133 172 225 259 305
#     4  10  20  33  53  81 108 135 175 220 264 302
#     4  10  19  33  56  82 106 136 172 221 267 301
#     4  10  20  35  53  78 105 141 179 210 256 316
#
# _framework density 26.557157
#
# number of rings (size 3 to 8) (size 9 to 14) (size 15 to 20)
#    0.000    2.250    5.000    0.375    1.750    2.500 
#    0.000    0.000    0.000    1.500   19.500    0.000 
#    0.000    0.000    0.000    0.000    0.000    0.000 
#
# Total GULP energy -89529.817737 kJ/mol
# GULP energy per Si atom -5595.613609 kJ/mol
# Density = 2.649671 g / cm^3
# Si number density = 26.557157 Si / 1000 Ang^3
#
#
#
# Elastic Constant Matrix: (Units=GPa)
#
#
# Indices 1 2 3 4 5 6 
#
# 1 118.1368 35.0649 41.0396 -9.7377 -3.7065 23.8789
# 2 35.0649 133.6516 39.1787 -29.2296 -7.0082 24.6930
# 3 41.0396 39.1787 61.4538 -13.9272 -0.0243 6.5004
# 4 -9.7377 -29.2296 -13.9272 32.9140 8.8039 -6.2835
# 5 -3.7065 -7.0082 -0.0243 8.8039 34.5375 -13.3384
# 6 23.8789 24.6930 6.5004 -6.2835 -13.3384 47.4283
#
#
#
# Elastic Compliance Matrix: (Units=1/GPa)
#
#
# Indices 1 2 3 4 5 6 
#
# 1 0.012138 -0.000154 -0.007588 -0.000595 -0.000606 -0.005240
# 2 -0.000154 0.011385 -0.004984 0.007451 -0.001372 -0.004566
# 3 -0.007588 -0.004984 0.025362 0.005166 -0.001935 0.003080
# 4 -0.000595 0.007451 0.005166 0.041303 -0.009670 -0.001535
# 5 -0.000606 -0.001372 -0.001935 -0.009670 0.034862 0.009808
# 6 -0.005240 -0.004566 0.003080 -0.001535 0.009808 0.028233
#
#
# Mechanical properties :
#
#
# Convention : Reuss Voigt Hill
#
# Bulk Modulus (GPa) = 42.67805 60.42319 51.55062
# Shear Modulus (GPa) = 26.80315 36.17322 31.48818
#
# Velocity S-wave (km/s) = 3.18034 3.69465 3.44710
# Velocity P-wave (km/s) = 5.43978 6.40329 5.94110
#
# Compressibility (1/GPa) = 0.02343125
#
# Stress axis : x y z
#
# Youngs Moduli (GPa) = 82.38806 87.83680 39.42911
#
# Poissons Ratio (x) = 0.01350 0.29921
# Poissons Ratio (y) = 0.01266 0.19653
# Poissons Ratio (z) = 0.62520 0.43782
#
# Static dielectric constant tensor:
#      x y z
#    x 2.178930 0.051780 0.010940 
#    y 0.051780 2.107190 0.079750 
#    z 0.010940 0.079750 2.099660 
# 
# From -- ./inp_files/451109.got.cif
#   From: 2010.05.17/outbox.cif.g08.bks.cpg/sg2_226_cif.got.tgz:451109.got - 2010.06.03 11:33:40.
