data_PCOD9082868
_publ_section_title
;
Structure prediction by ZEFSAII (Michael W. Deem and Ramdas Pophale) SiO2 
 PCOD9082868
Probable space group: P -1
;
_chemical_formula_sum "Si O2"
_cell_formula_units_Z 16
_cell_length_a 13.770618
_cell_length_b 12.643641
_cell_length_c 10.304987
_cell_angle_alpha 68.373737
_cell_angle_beta 147.674619
_cell_angle_gamma 92.493518
_cell_volume 751.233895
_symmetry_space_group_name_H-M "P -1"
_symmetry_group_IT_number 2
_symmetry_cell_setting 'triclinic'
loop_
_space_group_symop_operation_xyz
x,y,z
-x,-y,-z
loop_
_atom_site_type_symbol
_atom_site_label
_atom_site_fract_x
_atom_site_fract_y
_atom_site_fract_z
Si Si1 0.040075 0.288941 0.249239
Si Si2 0.670298 0.640057 0.096320
Si Si3 0.163393 0.856909 0.410541
Si Si4 0.579459 0.713189 0.249411
Si Si5 0.171499 0.714894 0.257486
Si Si6 0.589721 0.470686 0.760576
Si Si7 0.829242 0.999342 0.402787
Si Si8 0.048577 0.655027 0.405492
O O1 0.231539 0.312990 0.428257
O O2 0.144150 0.144806 0.503592
O O3 0.936279 0.277467 0.003788
O O4 0.844114 0.403203 0.063515
O O5 0.699832 0.657397 0.273894
O O6 0.825538 0.669761 0.177785
O O7 0.759841 0.482103 0.250812
O O8 0.419094 0.746062 0.747283
O O9 0.105790 0.853250 0.195688
O O10 0.128496 0.974112 0.412365
O O11 0.056546 0.784245 0.395889
O O12 0.461291 0.636246 0.188824
O O13 0.400412 0.871539 0.957406
O O14 0.430352 0.614982 0.581901
O O15 0.096773 0.647121 0.310026
O O16 0.500000 0.500000 0.500000
O O17 0.000000 0.000000 0.500000
#
# Coordination Sequence:
#
# PCOD9082868 Si02
#       8
#     2   2   2   2   2   2   2   2
#     4  11  24  40  61  87 124 162 201 247 293 351
#     4  10  19  33  58  88 117 150 195 240 308 349
#     4   9  21  38  59  80 120 151 198 247 289 350
#     4  11  22  39  63  89 121 155 201 250 296 354
#     4   9  21  41  58  88 123 153 199 240 301 359
#     4  10  21  40  60  92 124 159 196 238 306 363
#     4  11  23  41  64  88 116 160 208 247 298 345
#     4   9  19  35  55  89 117 154 191 247 299 356
#
# _framework density 21.298293000000001
#
# number of rings (size 3 to 8) (size 9 to 14) (size 15 to 20)
#    0.750    1.250    2.500    0.750    1.750    4.500 
#    4.500    0.000    0.000    3.750    0.000    0.000 
#    0.000    0.000    0.000    0.000    0.000    0.000 
#
# Total GULP energy -89195.612442 kJ/mol
# GULP energy per Si atom -5574.725778 kJ/mol
# Density = 2.124982 g / cm^3
# Si number density = 21.298293 Si / 1000 Ang^3
#
#
#
# Elastic Constant Matrix: (Units=GPa)
#
#
# Indices 1 2 3 4 5 6 
#
# 1 102.0397 -9.3343 17.8063 4.3803 38.1177 -24.8577
# 2 -9.3343 50.3705 19.2244 -10.9582 -7.6426 -3.2901
# 3 17.8063 19.2244 63.8498 7.2717 5.3641 -6.8233
# 4 4.3803 -10.9582 7.2717 30.3398 8.6725 -6.9394
# 5 38.1177 -7.6426 5.3641 8.6725 51.1834 -10.9393
# 6 -24.8577 -3.2901 -6.8233 -6.9394 -10.9393 42.0597
#
#
#
# Elastic Compliance Matrix: (Units=1/GPa)
#
#
# Indices 1 2 3 4 5 6 
#
# 1 0.016670 0.005136 -0.005122 0.005388 -0.010398 0.007607
# 2 0.005136 0.028309 -0.010891 0.013269 0.000538 0.005812
# 3 -0.005122 -0.010891 0.021119 -0.008956 0.001144 -0.001633
# 4 0.005388 0.013269 -0.008956 0.042871 -0.006621 0.008121
# 5 -0.010398 0.000538 0.001144 -0.006621 0.028447 0.000389
# 6 0.007607 0.005812 -0.001633 0.008121 0.000389 0.029902
#
#
# Mechanical properties :
#
#
# Convention : Reuss Voigt Hill
#
# Bulk Modulus (GPa) = 22.55178 30.18364 26.36771
# Shear Modulus (GPa) = 24.52731 37.28749 30.90740
#
# Velocity S-wave (km/s) = 3.39722 4.18871 3.81355
# Velocity P-wave (km/s) = 5.09898 6.13158 5.63897
#
# Compressibility (1/GPa) = 0.04434240
#
# Stress axis : x y z
#
# Youngs Moduli (GPa) = 59.98834 35.32420 47.35127
#
# Poissons Ratio (x) = -0.18141 0.24254
# Poissons Ratio (y) = -0.30807 0.51570
# Poissons Ratio (z) = 0.30728 0.38472
#
# Static dielectric constant tensor:
#      x y z
#    x 1.749670 -0.026090 -0.057680 
#    y -0.026090 1.791550 0.055450 
#    z -0.057680 0.055450 1.733010 
# 
# From -- ./inp_files/454783.got.cif
#   From: 2010.05.17/outbox.cif.g08.bks.cpg/sg2_228_cif.got.tgz:454783.got - 2010.06.03 11:33:40.
