data_PCOD9082465
_publ_section_title
;
Structure prediction by ZEFSAII (Michael W. Deem and Ramdas Pophale) SiO2 
 PCOD9082465
Probable space group: P -1
;
_chemical_formula_sum "Si O2"
_cell_formula_units_Z 14
_cell_length_a 5.350336
_cell_length_b 23.888867
_cell_length_c 21.630966
_cell_angle_alpha 11.169448
_cell_angle_beta 107.095976
_cell_angle_gamma 103.926127
_cell_volume 494.590184
_symmetry_space_group_name_H-M "P -1"
_symmetry_group_IT_number 2
_symmetry_cell_setting 'triclinic'
loop_
_space_group_symop_operation_xyz
x,y,z
-x,-y,-z
loop_
_atom_site_type_symbol
_atom_site_label
_atom_site_fract_x
_atom_site_fract_y
_atom_site_fract_z
Si Si1 0.244827 0.645729 0.869197
Si Si2 0.709369 0.633830 0.453906
Si Si3 0.288878 0.732192 0.041227
Si Si4 0.356231 0.858432 0.337237
Si Si5 0.684751 0.763220 0.181708
Si Si6 0.099999 0.188932 0.185753
Si Si7 0.653779 0.294958 0.359764
O O1 0.145062 0.986714 0.469295
O O2 0.500000 0.500000 0.000000
O O3 0.372480 0.541126 0.059020
O O4 0.000000 0.500000 0.000000
O O5 0.857311 0.423834 0.748136
O O6 0.844524 0.668389 0.360151
O O7 0.458905 0.489445 0.576332
O O8 0.570926 0.961445 0.114810
O O9 0.554323 0.467049 0.333290
O O10 0.142868 0.799510 0.891991
O O11 0.381969 0.010133 0.774023
O O12 0.266360 0.816019 0.445562
O O13 0.187801 0.084861 0.029136
O O14 0.336902 0.991735 0.371296
O O15 0.135156 0.514406 0.849183
#
# Coordination Sequence:
#
# PCOD9082465 Si02
#       7
#     2   2   2   2   2   2   2
#     4  10  23  44  68  96 128 166 210 258 312 372
#     4   8  14  25  44  72 104 138 185 244 301 358
#     4  10  19  33  55  82 110 149 199 252 308 367
#     4  10  19  33  55  82 110 149 199 252 308 367
#     4   8  14  25  44  72 104 138 185 244 301 358
#     4  11  23  40  59  86 121 160 201 250 310 369
#     4  11  23  40  59  86 121 160 201 250 310 369
#
# _framework density 28.306260999999999
#
# number of rings (size 3 to 8) (size 9 to 14) (size 15 to 20)
#    0.000    2.286    0.000    3.000    0.000    2.286 
#    0.000    6.429    0.000    1.714    0.000    0.000 
#    0.000    0.000    0.000    0.000    0.000    0.000 
#
# Total GULP energy -78393.765965 kJ/mol
# GULP energy per Si atom -5599.554712 kJ/mol
# Density = 2.824183 g / cm^3
# Si number density = 28.306261 Si / 1000 Ang^3
#
#
#
# Elastic Constant Matrix: (Units=GPa)
#
#
# Indices 1 2 3 4 5 6 
#
# 1 76.9068 38.5121 47.4918 16.4364 -16.5537 4.6467
# 2 38.5121 154.8688 49.6812 22.7495 -9.3664 -18.4777
# 3 47.4918 49.6812 159.0684 32.9637 -0.3566 4.3571
# 4 16.4364 22.7495 32.9637 76.4787 -1.7295 -16.2239
# 5 -16.5537 -9.3664 -0.3566 -1.7295 39.3130 12.0408
# 6 4.6467 -18.4777 4.3571 -16.2239 12.0408 44.1189
#
#
#
# Elastic Compliance Matrix: (Units=1/GPa)
#
#
# Indices 1 2 3 4 5 6 
#
# 1 0.020506 -0.003575 -0.004220 -0.002772 0.009742 -0.006918
# 2 -0.003575 0.008340 -0.001626 -0.000139 -0.000827 0.004204
# 3 -0.004220 -0.001626 0.008660 -0.002726 -0.001707 -0.001628
# 4 -0.002772 -0.000139 -0.002726 0.016367 -0.002731 0.007267
# 5 0.009742 -0.000827 -0.001707 -0.002731 0.032608 -0.011107
# 6 -0.006918 0.004204 -0.001628 0.007267 -0.011107 0.031020
#
#
# Mechanical properties :
#
#
# Convention : Reuss Voigt Hill
#
# Bulk Modulus (GPa) = 53.57699 73.57935 63.57817
# Shear Modulus (GPa) = 35.07210 48.99272 42.03241
#
# Velocity S-wave (km/s) = 3.52379 4.16481 3.85764
# Velocity P-wave (km/s) = 5.96027 7.01270 6.50780
#
# Compressibility (1/GPa) = 0.01866473
#
# Stress axis : x y z
#
# Youngs Moduli (GPa) = 48.76619 119.91119 115.47330
#
# Poissons Ratio (x) = 0.42863 0.48731
# Poissons Ratio (y) = 0.17432 0.18773
# Poissons Ratio (z) = 0.20580 0.19494
#
# Static dielectric constant tensor:
#      x y z
#    x 2.307630 -0.110110 0.076420 
#    y -0.110110 2.236450 0.121990 
#    z 0.076420 0.121990 2.165300 
# 
# From -- ./inp_files/7790.got.cif
#   From: 2010.05.17/outbox.cif.g08.bks.cpg/sg2_4_cif.got.tgz:7790.got - 2010.06.03 11:33:40.
