data_PCOD9082860
_publ_section_title
;
Structure prediction by ZEFSAII (Michael W. Deem and Ramdas Pophale) SiO2 
 PCOD9082860
Probable space group: P -1
;
_chemical_formula_sum "Si O2"
_cell_formula_units_Z 16
_cell_length_a 17.670753
_cell_length_b 7.456638
_cell_length_c 8.964463
_cell_angle_alpha 94.519118
_cell_angle_beta 134.325114
_cell_angle_gamma 61.947278
_cell_volume 684.875339
_symmetry_space_group_name_H-M "P -1"
_symmetry_group_IT_number 2
_symmetry_cell_setting 'triclinic'
loop_
_space_group_symop_operation_xyz
x,y,z
-x,-y,-z
loop_
_atom_site_type_symbol
_atom_site_label
_atom_site_fract_x
_atom_site_fract_y
_atom_site_fract_z
Si Si1 0.573516 0.670236 0.636733
Si Si2 0.231061 0.244300 0.128939
Si Si3 0.816616 0.048175 0.737947
Si Si4 0.369836 0.311969 0.781636
Si Si5 0.405048 0.921485 0.678991
Si Si6 0.075564 0.744174 0.893147
Si Si7 0.406190 0.816393 0.150700
Si Si8 0.239223 0.658846 0.857580
O O1 0.669044 0.700825 0.674120
O O2 0.477515 0.668487 0.387699
O O3 0.667664 0.503086 0.886330
O O4 0.469087 0.884605 0.603971
O O5 0.189511 0.121991 0.172038
O O6 0.113000 0.495090 0.939349
O O7 0.314109 0.070966 0.097260
O O8 0.681482 0.169835 0.469035
O O9 0.840006 0.202208 0.879922
O O10 0.932545 0.914136 0.771940
O O11 0.321272 0.167764 0.645787
O O12 0.471468 0.276193 0.794262
O O13 0.255218 0.536448 0.717117
O O14 0.472879 0.201859 0.052137
O O15 0.102555 0.781182 0.763008
O O16 0.303376 0.787858 0.929141
#
# Coordination Sequence:
#
# PCOD9082860 Si02
#       8
#     2   2   2   2   2   2   2   2
#     4  10  19  33  58  87 117 145 195 244 295 352
#     4  11  20  33  60  89 118 143 190 242 301 342
#     4  11  21  40  62  85 119 151 197 250 289 335
#     4  10  22  33  57  85 124 152 192 230 293 365
#     4  10  19  37  56  86 115 160 187 236 296 346
#     4  10  23  38  59  91 113 153 200 248 286 334
#     4  12  19  34  58  89 117 155 186 244 303 341
#     4  10  21  37  54  85 120 154 195 237 289 350
#
# _framework density 23.361916000000001
#
# number of rings (size 3 to 8) (size 9 to 14) (size 15 to 20)
#    0.000    1.500    3.750    2.250    1.750    3.000 
#    0.000    1.875    0.000    0.750    0.000    0.000 
#    0.000    0.000    0.000    0.000    0.000    0.000 
#
# Total GULP energy -89072.016857 kJ/mol
# GULP energy per Si atom -5567.001054 kJ/mol
# Density = 2.330874 g / cm^3
# Si number density = 23.361916 Si / 1000 Ang^3
#
#
#
# Elastic Constant Matrix: (Units=GPa)
#
#
# Indices 1 2 3 4 5 6 
#
# 1 83.2466 51.1145 3.7635 18.4448 0.9405 -28.4906
# 2 51.1145 104.1613 0.5312 16.2820 0.3357 -36.5523
# 3 3.7635 0.5312 22.3603 15.3049 -1.5428 -0.7167
# 4 18.4448 16.2820 15.3049 24.8475 -1.6046 -8.9562
# 5 0.9405 0.3357 -1.5428 -1.6046 31.4270 7.8384
# 6 -28.4906 -36.5523 -0.7167 -8.9562 7.8384 44.1634
#
#
#
# Elastic Compliance Matrix: (Units=1/GPa)
#
#
# Indices 1 2 3 4 5 6 
#
# 1 0.020264 -0.005838 0.005184 -0.012310 -0.002482 0.006268
# 2 -0.005838 0.016740 0.005336 -0.006749 -0.002389 0.009231
# 3 0.005184 0.005336 0.085694 -0.061310 0.001761 -0.003595
# 4 -0.012310 -0.006749 -0.061310 0.093145 0.001148 0.004163
# 5 -0.002482 -0.002389 0.001761 0.001148 0.034415 -0.009425
# 6 0.006268 0.009231 -0.003595 0.004163 -0.009425 0.036786
#
#
# Mechanical properties :
#
#
# Convention : Reuss Voigt Hill
#
# Bulk Modulus (GPa) = 7.57233 35.62073 21.59653
# Shear Modulus (GPa) = 15.54228 30.37817 22.96023
#
# Velocity S-wave (km/s) = 2.58211 3.60992 3.13837
# Velocity P-wave (km/s) = 3.48397 5.71453 4.73254
#
# Compressibility (1/GPa) = 0.13205980
#
# Stress axis : x y z
#
# Youngs Moduli (GPa) = 49.34865 59.73626 11.66943
#
# Poissons Ratio (x) = 0.34877 -0.06049
# Poissons Ratio (y) = 0.28812 -0.06226
# Poissons Ratio (z) = -0.25581 -0.31873
#
# Static dielectric constant tensor:
#      x y z
#    x 1.963130 0.037490 -0.019000 
#    y 0.037490 1.984910 -0.056340 
#    z -0.019000 -0.056340 1.898170 
# 
# From -- ./inp_files/310791.got.cif
#   From: 2010.05.17/outbox.cif.g08.bks.cpg/sg2_156_cif.got.tgz:310791.got - 2010.06.03 11:33:40.
