data_PCOD9082785
_publ_section_title
;
Structure prediction by ZEFSAII (Michael W. Deem and Ramdas Pophale) SiO2 
 PCOD9082785
Probable space group: P -1
;
_chemical_formula_sum "Si O2"
_cell_formula_units_Z 14
_cell_length_a 6.127177
_cell_length_b 14.229137
_cell_length_c 8.540877
_cell_angle_alpha 125.872760
_cell_angle_beta 124.428943
_cell_angle_gamma 65.375536
_cell_volume 493.617417
_symmetry_space_group_name_H-M "P -1"
_symmetry_group_IT_number 2
_symmetry_cell_setting 'triclinic'
loop_
_space_group_symop_operation_xyz
x,y,z
-x,-y,-z
loop_
_atom_site_type_symbol
_atom_site_label
_atom_site_fract_x
_atom_site_fract_y
_atom_site_fract_z
Si Si1 0.085797 0.294895 0.035838
Si Si2 0.241458 0.527652 0.737487
Si Si3 0.556997 0.348756 0.508788
Si Si4 0.573678 0.842384 0.489386
Si Si5 0.865328 0.092831 0.157238
Si Si6 0.149919 0.340334 0.764059
Si Si7 0.699734 0.944856 0.230198
O O1 0.840864 0.344652 0.098568
O O2 0.343816 0.315841 0.263987
O O3 0.081333 0.165054 0.837229
O O4 0.095744 0.365296 0.947638
O O5 0.260596 0.441304 0.809923
O O6 0.000000 0.500000 0.500000
O O7 0.482364 0.478700 0.674716
O O8 0.544489 0.255107 0.551056
O O9 0.859130 0.334694 0.564690
O O10 0.881181 0.836527 0.667529
O O11 0.649750 0.781837 0.292726
O O12 0.405841 0.969072 0.582268
O O13 0.807115 0.042509 0.255471
O O14 0.563864 0.110274 0.987444
O O15 0.000000 0.000000 0.000000
#
# Coordination Sequence:
#
# PCOD9082785 Si02
#       7
#     2   2   2   2   2   2   2
#     4  11  22  39  63  92 123 159 206 252 304 370
#     4   9  22  43  65  92 122 156 204 255 308 370
#     4  10  22  43  65  88 123 163 204 256 310 357
#     4  10  20  38  60  88 126 165 207 251 300 362
#     4   9  17  33  59  87 121 165 208 248 296 360
#     4  11  23  41  65  90 122 162 204 254 305 363
#     4  10  19  33  57  91 127 163 202 249 306 361
#
# _framework density 28.362048999999999
#
# number of rings (size 3 to 8) (size 9 to 14) (size 15 to 20)
#    0.000    2.000    0.000    4.714    0.000    3.429 
#    0.000   24.286    0.000    0.000    0.000    0.000 
#    0.000    0.000    0.000    0.000    0.000    0.000 
#
# Total GULP energy -78146.633922 kJ/mol
# GULP energy per Si atom -5581.902423 kJ/mol
# Density = 2.829750 g / cm^3
# Si number density = 28.362049 Si / 1000 Ang^3
#
#
#
# Elastic Constant Matrix: (Units=GPa)
#
#
# Indices 1 2 3 4 5 6 
#
# 1 125.4059 39.3229 75.7767 34.3016 -9.7737 -26.2756
# 2 39.3229 98.7006 50.0036 26.1376 -15.8008 -38.4403
# 3 75.7767 50.0036 126.9683 25.4425 -29.1425 -35.7372
# 4 34.3016 26.1376 25.4425 49.6879 -19.3273 -19.0300
# 5 -9.7737 -15.8008 -29.1425 -19.3273 90.5421 17.4345
# 6 -26.2756 -38.4403 -35.7372 -19.0300 17.4345 41.7757
#
#
#
# Elastic Compliance Matrix: (Units=1/GPa)
#
#
# Indices 1 2 3 4 5 6 
#
# 1 0.014358 -0.000464 -0.007576 -0.006697 -0.002414 0.000080
# 2 -0.000464 0.017019 -0.002614 -0.002992 -0.000899 0.012144
# 3 -0.007576 -0.002614 0.015272 0.002099 0.003013 0.005593
# 4 -0.006697 -0.002992 0.002099 0.029431 0.004487 0.006364
# 5 -0.002414 -0.000899 0.003013 0.004487 0.013175 -0.003223
# 6 0.000080 0.012144 0.005593 0.006364 -0.003223 0.044190
#
#
# Mechanical properties :
#
#
# Convention : Reuss Voigt Hill
#
# Bulk Modulus (GPa) = 39.46243 75.69791 57.58017
# Shear Modulus (GPa) = 30.63716 48.79925 39.71820
#
# Velocity S-wave (km/s) = 3.29023 4.15249 3.74625
# Velocity P-wave (km/s) = 5.32712 7.05257 6.24968
#
# Compressibility (1/GPa) = 0.02534056
#
# Stress axis : x y z
#
# Youngs Moduli (GPa) = 69.64903 58.75723 65.47918
#
# Poissons Ratio (x) = 0.02727 0.49607
# Poissons Ratio (y) = 0.03233 0.17117
# Poissons Ratio (z) = 0.52766 0.15360
#
# Static dielectric constant tensor:
#      x y z
#    x 2.250220 -0.044060 0.115260 
#    y -0.044060 2.312230 0.002810 
#    z 0.115260 0.002810 2.237350 
# 
# From -- ./inp_files/138261.got.cif
#   From: 2010.05.17/outbox.cif.g08.bks.cpg/sg2_70_cif.got.tgz:138261.got - 2010.06.03 11:33:40.
