data_PCOD9082292
_publ_section_title
;
Structure prediction by ZEFSAII (Michael W. Deem and Ramdas Pophale) SiO2 
 PCOD9082292
Probable space group: P -1
;
_chemical_formula_sum "Si O2"
_cell_formula_units_Z 16
_cell_length_a 11.980042
_cell_length_b 21.192753
_cell_length_c 21.665913
_cell_angle_alpha 16.014248
_cell_angle_beta 151.303867
_cell_angle_gamma 151.510891
_cell_volume 701.595201
_symmetry_space_group_name_H-M "P -1"
_symmetry_group_IT_number 2
_symmetry_cell_setting 'triclinic'
loop_
_space_group_symop_operation_xyz
x,y,z
-x,-y,-z
loop_
_atom_site_type_symbol
_atom_site_label
_atom_site_fract_x
_atom_site_fract_y
_atom_site_fract_z
Si Si1 0.633162 0.105239 0.048868
Si Si2 0.509596 0.734207 0.440646
Si Si3 0.820144 0.687142 0.371349
Si Si4 0.095645 0.561608 0.233683
Si Si5 0.047953 0.491071 0.103803
Si Si6 0.246980 0.981374 0.603425
Si Si7 0.241275 0.899335 0.549515
Si Si8 0.769786 0.883854 0.794247
O O1 0.387225 0.182301 0.863875
O O2 0.858918 0.256611 0.056674
O O3 0.726529 0.207425 0.930133
O O4 0.573273 0.854892 0.290754
O O5 0.252581 0.540292 0.495176
O O6 0.717723 0.606631 0.678025
O O7 0.545293 0.925164 0.333845
O O8 0.791268 0.566216 0.538658
O O9 0.072448 0.886612 0.307410
O O10 0.975778 0.346707 0.330727
O O11 0.886698 0.665270 0.063928
O O12 0.801955 0.290840 0.187003
O O13 0.000000 0.500000 0.000000
O O14 0.269994 0.078575 0.453744
O O15 0.000000 0.000000 0.500000
O O16 0.493005 0.832971 0.725675
O O17 0.208165 0.040940 0.337956
#
# Coordination Sequence:
#
# PCOD9082292 Si02
#       8
#     2   2   2   2   2   2   2   2
#     4  11  21  34  58  91 123 156 195 254 311 359
#     4  10  22  34  57  87 125 160 195 239 309 372
#     4  10  23  40  55  87 127 162 208 248 296 369
#     4  11  22  36  65  88 122 159 206 256 310 359
#     4  10  19  33  53  86 125 151 187 240 305 364
#     4  10  20  36  61  89 125 153 191 252 309 357
#     4  10  22  42  61  95 120 156 207 257 302 364
#     4  10  23  40  65  84 124 167 205 250 300 356
#
# _framework density 22.805174000000001
#
# number of rings (size 3 to 8) (size 9 to 14) (size 15 to 20)
#    0.000    1.750    2.500    1.500    3.500    3.000 
#    0.000    0.625    0.000    3.000    0.000    0.000 
#    0.000    0.000    0.000    0.000    0.000    0.000 
#
# Total GULP energy -89120.263965 kJ/mol
# GULP energy per Si atom -5570.016498 kJ/mol
# Density = 2.275327 g / cm^3
# Si number density = 22.805174 Si / 1000 Ang^3
#
#
#
# Elastic Constant Matrix: (Units=GPa)
#
#
# Indices 1 2 3 4 5 6 
#
# 1 39.2687 15.3719 4.9356 -0.3516 -2.0672 -12.3229
# 2 15.3719 141.0424 2.3965 -7.4466 -6.9800 -23.0002
# 3 4.9356 2.3965 87.8008 23.3344 -13.5471 5.8502
# 4 -0.3516 -7.4466 23.3344 27.1881 -4.0244 2.5141
# 5 -2.0672 -6.9800 -13.5471 -4.0244 17.2700 5.7907
# 6 -12.3229 -23.0002 5.8502 2.5141 5.7907 32.7170
#
#
#
# Elastic Compliance Matrix: (Units=1/GPa)
#
#
# Indices 1 2 3 4 5 6 
#
# 1 0.029802 -0.001449 -0.003168 0.001231 -0.002974 0.011204
# 2 -0.001449 0.008303 -0.001035 0.002881 0.001361 0.005014
# 3 -0.003168 -0.001035 0.017220 -0.012797 0.011774 -0.006101
# 4 0.001231 0.002881 -0.012797 0.048880 0.002468 0.000585
# 5 -0.002974 0.001361 0.011774 0.002468 0.073069 -0.015391
# 6 0.011204 0.005014 -0.006101 0.000585 -0.015391 0.042080
#
#
# Mechanical properties :
#
#
# Convention : Reuss Voigt Hill
#
# Bulk Modulus (GPa) = 22.71759 34.83553 28.77656
# Shear Modulus (GPa) = 20.38061 31.79555 26.08808
#
# Velocity S-wave (km/s) = 2.99270 3.73798 3.38591
# Velocity P-wave (km/s) = 4.68240 5.82567 5.28504
#
# Compressibility (1/GPa) = 0.04401875
#
# Stress axis : x y z
#
# Youngs Moduli (GPa) = 33.55533 120.44302 58.07306
#
# Poissons Ratio (x) = 0.17455 0.18399
# Poissons Ratio (y) = 0.04863 0.06011
# Poissons Ratio (z) = 0.10631 0.12467
#
# Static dielectric constant tensor:
#      x y z
#    x 3.197590 -0.094420 -1.064550 
#    y -0.094420 1.908870 -0.066380 
#    z -1.064550 -0.066380 2.785530 
# 
# From -- ./inp_files/596236.got.cif
#   From: 2010.05.17/outbox.cif.g08.bks.cpg/sg2_299_cif.got.tgz:596236.got - 2010.06.03 11:33:40.
