data_PCOD9082722
_publ_section_title
;
Structure prediction by ZEFSAII (Michael W. Deem and Ramdas Pophale) SiO2 
 PCOD9082722
Probable space group: P -1
;
_chemical_formula_sum "Si O2"
_cell_formula_units_Z 16
_cell_length_a 7.468065
_cell_length_b 14.263650
_cell_length_c 11.488289
_cell_angle_alpha 133.330830
_cell_angle_beta 85.677274
_cell_angle_gamma 126.332763
_cell_volume 591.590979
_symmetry_space_group_name_H-M "P -1"
_symmetry_group_IT_number 2
_symmetry_cell_setting 'triclinic'
loop_
_space_group_symop_operation_xyz
x,y,z
-x,-y,-z
loop_
_atom_site_type_symbol
_atom_site_label
_atom_site_fract_x
_atom_site_fract_y
_atom_site_fract_z
Si Si1 0.238704 0.740693 0.544843
Si Si2 0.350718 0.446593 0.581871
Si Si3 0.906091 0.830202 0.937281
Si Si4 0.768830 0.233230 0.682821
Si Si5 0.287789 0.328181 0.715676
Si Si6 0.755041 0.778116 0.129480
Si Si7 0.243916 0.769348 0.818231
Si Si8 0.389509 0.811665 0.099779
O O1 0.260820 0.696405 0.373933
O O2 0.265639 0.695625 0.636099
O O3 0.942795 0.648135 0.490617
O O4 0.463359 0.972338 0.730434
O O5 0.500000 0.500000 0.500000
O O6 0.582661 0.660720 0.807399
O O7 0.321822 0.314709 0.565738
O O8 0.003710 0.745307 0.811772
O O9 0.992407 0.882223 0.113250
O O10 0.000000 0.000000 0.000000
O O11 0.791502 0.295394 0.867006
O O12 0.037484 0.293548 0.702081
O O13 0.500000 0.000000 0.500000
O O14 0.219540 0.195646 0.710879
O O15 0.560174 0.550031 0.926721
O O16 0.625366 0.839750 0.144085
O O17 0.250930 0.711737 0.897176
O O18 0.500000 0.000000 0.000000
#
# Coordination Sequence:
#
# PCOD9082722 Si02
#       8
#     2   2   2   2   2   2   2   2
#     4   9  18  35  57  85 120 154 197 238 303 357
#     4  10  19  35  62  83 117 161 188 245 305 354
#     4  11  21  35  61  91 120 155 203 246 300 357
#     4   9  18  35  58  79 114 155 186 240 299 356
#     4   9  20  38  59  84 118 151 199 244 303 352
#     4  10  21  37  59  86 117 151 199 255 289 352
#     4  10  19  33  57  85 114 155 194 244 291 355
#     4  10  20  35  62  87 116 156 205 243 297 355
#
# _framework density 27.045712999999999
#
# number of rings (size 3 to 8) (size 9 to 14) (size 15 to 20)
#    0.000    2.250    1.250    2.250    0.000    0.500 
#    0.000    5.625   16.500   12.750    0.000    0.000 
#    0.000    0.000    0.000    0.000    0.000    0.000 
#
# Total GULP energy -89257.653415 kJ/mol
# GULP energy per Si atom -5578.603338 kJ/mol
# Density = 2.698416 g / cm^3
# Si number density = 27.045713 Si / 1000 Ang^3
#
#
#
# Elastic Constant Matrix: (Units=GPa)
#
#
# Indices 1 2 3 4 5 6 
#
# 1 63.9414 9.4810 11.0137 -12.1880 9.0885 6.4475
# 2 9.4810 200.1448 97.4142 -65.2740 -5.2012 10.0968
# 3 11.0137 97.4142 78.9196 -40.3750 10.7260 -12.2414
# 4 -12.1880 -65.2740 -40.3750 82.3454 5.6180 2.0459
# 5 9.0885 -5.2012 10.7260 5.6180 28.6611 -3.2121
# 6 6.4475 10.0968 -12.2414 2.0459 -3.2121 39.9361
#
#
#
# Elastic Compliance Matrix: (Units=1/GPa)
#
#
# Indices 1 2 3 4 5 6 
#
# 1 0.017725 0.001829 -0.003282 0.002939 -0.005185 -0.004898
# 2 0.001829 0.019619 -0.026817 0.002228 0.011157 -0.012692
# 3 -0.003282 -0.026817 0.056556 0.007059 -0.023868 0.022364
# 4 0.002939 0.002228 0.007059 0.018278 -0.006792 -0.000357
# 5 -0.005185 0.011157 -0.023868 -0.006792 0.048255 -0.005071
# 6 -0.004898 -0.012692 0.022364 -0.000357 -0.005071 0.035505
#
#
# Mechanical properties :
#
#
# Convention : Reuss Voigt Hill
#
# Bulk Modulus (GPa) = 26.76830 64.31373 45.54101
# Shear Modulus (GPa) = 18.87278 45.19498 32.03388
#
# Velocity S-wave (km/s) = 2.64448 4.09229 3.44530
# Velocity P-wave (km/s) = 4.38671 6.79415 5.71855
#
# Compressibility (1/GPa) = 0.03735762
#
# Stress axis : x y z
#
# Youngs Moduli (GPa) = 56.41857 50.97092 17.68175
#
# Poissons Ratio (x) = -0.09321 0.05803
# Poissons Ratio (y) = -0.10318 0.47418
# Poissons Ratio (z) = 0.18517 1.36691
#
# Static dielectric constant tensor:
#      x y z
#    x 1.816250 -0.032020 0.036380 
#    y -0.032020 2.201670 -0.204150 
#    z 0.036380 -0.204150 2.326870 
# 
# From -- ./inp_files/302545.got.cif
#   From: 2010.05.17/outbox.cif.g08.bks.cpg/sg2_152_cif.got.tgz:302545.got - 2010.06.03 11:33:40.
