data_PCOD9082676
_publ_section_title
;
Structure prediction by ZEFSAII (Michael W. Deem and Ramdas Pophale) SiO2 
 PCOD9082676
Probable space group: P -1
;
_chemical_formula_sum "Si O2"
_cell_formula_units_Z 16
_cell_length_a 16.455470
_cell_length_b 14.196852
_cell_length_c 14.959684
_cell_angle_alpha 20.071113
_cell_angle_beta 143.261686
_cell_angle_gamma 140.386847
_cell_volume 714.758917
_symmetry_space_group_name_H-M "P -1"
_symmetry_group_IT_number 2
_symmetry_cell_setting 'triclinic'
loop_
_space_group_symop_operation_xyz
x,y,z
-x,-y,-z
loop_
_atom_site_type_symbol
_atom_site_label
_atom_site_fract_x
_atom_site_fract_y
_atom_site_fract_z
Si Si1 0.058158 0.108683 0.249580
Si Si2 0.310839 0.836201 0.230724
Si Si3 0.478434 0.774444 0.603588
Si Si4 0.780342 0.332796 0.877788
Si Si5 0.198030 0.648351 0.550506
Si Si6 0.216933 0.279655 0.063695
Si Si7 0.133730 0.340067 0.605347
Si Si8 0.162785 0.044886 0.583378
O O1 0.126555 0.263051 0.087452
O O2 0.165624 0.060265 0.465206
O O3 0.989517 0.814393 0.419188
O O4 0.931523 0.266745 0.034632
O O5 0.431588 0.871717 0.377808
O O6 0.327361 0.804418 0.166949
O O7 0.224600 0.550232 0.435862
O O8 0.217405 0.087356 0.936772
O O9 0.347231 0.595487 0.687045
O O10 0.623796 0.657952 0.826831
O O11 0.500000 0.000000 0.500000
O O12 0.779954 0.658579 0.593829
O O13 0.769556 0.190363 0.092491
O O14 0.100713 0.517899 0.503620
O O15 0.193568 0.974081 0.270508
O O16 0.187588 0.498122 0.768821
O O17 0.000000 0.000000 0.500000
#
# Coordination Sequence:
#
# PCOD9082676 Si02
#       8
#     2   2   2   2   2   2   2   2
#     4  10  22  35  54  83 112 135 173 218 271 322
#     4  10  19  33  57  80 101 136 183 224 252 301
#     4   9  19  37  57  77 105 140 185 218 251 304
#     4  10  20  35  55  78 103 137 174 215 264 315
#     4  10  21  37  53  75 107 147 184 213 252 307
#     4  11  23  35  54  79 109 144 174 219 266 307
#     4  10  20  34  53  77 108 140 175 219 260 308
#     4  10  19  34  55  77 105 137 171 214 264 319
#
# _framework density 22.385172000000001
#
# number of rings (size 3 to 8) (size 9 to 14) (size 15 to 20)
#    0.000    2.000    0.000    6.375    0.000   10.000 
#    0.000    0.000    0.000    1.500    0.000    0.000 
#    0.000    4.000    0.000    0.000    0.000    0.000 
#
# Total GULP energy -89394.956763 kJ/mol
# GULP energy per Si atom -5587.184798 kJ/mol
# Density = 2.233422 g / cm^3
# Si number density = 22.385172 Si / 1000 Ang^3
#
#
#
# Elastic Constant Matrix: (Units=GPa)
#
#
# Indices 1 2 3 4 5 6 
#
# 1 22.5453 7.4153 -10.4472 -0.5016 -2.7741 -2.3598
# 2 7.4153 106.1204 16.8673 18.3132 3.7928 -19.8405
# 3 -10.4472 16.8673 63.8493 1.4567 -5.3557 9.6153
# 4 -0.5016 18.3132 1.4567 37.4442 -5.8361 -8.4225
# 5 -2.7741 3.7928 -5.3557 -5.8361 24.4879 9.0804
# 6 -2.3598 -19.8405 9.6153 -8.4225 9.0804 21.9646
#
#
#
# Elastic Compliance Matrix: (Units=1/GPa)
#
#
# Indices 1 2 3 4 5 6 
#
# 1 0.056301 -0.011310 0.016348 0.004725 0.019321 -0.017500
# 2 -0.011310 0.018630 -0.012066 -0.005707 -0.017837 0.026080
# 3 0.016348 -0.012066 0.027660 0.001737 0.021043 -0.029284
# 4 0.004725 -0.005707 0.001737 0.031501 0.008070 0.003336
# 5 0.019321 -0.017837 0.021043 0.008070 0.070611 -0.049344
# 6 -0.017500 0.026080 -0.029284 0.003336 -0.049344 0.101704
#
#
# Mechanical properties :
#
#
# Convention : Reuss Voigt Hill
#
# Bulk Modulus (GPa) = 11.29488 24.46507 17.87998
# Shear Modulus (GPa) = 14.28679 28.69132 21.48905
#
# Velocity S-wave (km/s) = 2.52905 3.58398 3.10170
# Velocity P-wave (km/s) = 3.68576 5.29900 4.56422
#
# Compressibility (1/GPa) = 0.08853571
#
# Stress axis : x y z
#
# Youngs Moduli (GPa) = 17.76155 53.67774 36.15367
#
# Poissons Ratio (x) = 0.60711 -0.59105
# Poissons Ratio (y) = 0.20089 0.43621
# Poissons Ratio (z) = -0.29037 0.64765
#
# Static dielectric constant tensor:
#      x y z
#    x 1.871130 0.002260 -0.000680 
#    y 0.002260 1.904730 0.034600 
#    z -0.000680 0.034600 1.825610 
# 
# From -- ./inp_files/538863.got.cif
#   From: 2010.05.17/outbox.cif.g08.bks.cpg/sg2_270_cif.got.tgz:538863.got - 2010.06.03 11:33:40.
