data_PCOD9082417
_publ_section_title
;
Structure prediction by ZEFSAII (Michael W. Deem and Ramdas Pophale) SiO2 
 PCOD9082417
Probable space group: P -1
;
_chemical_formula_sum "Si O2"
_cell_formula_units_Z 16
_cell_length_a 13.118664
_cell_length_b 9.342012
_cell_length_c 14.283560
_cell_angle_alpha 97.189409
_cell_angle_beta 48.254515
_cell_angle_gamma 56.335727
_cell_volume 658.155843
_symmetry_space_group_name_H-M "P -1"
_symmetry_group_IT_number 2
_symmetry_cell_setting 'triclinic'
loop_
_space_group_symop_operation_xyz
x,y,z
-x,-y,-z
loop_
_atom_site_type_symbol
_atom_site_label
_atom_site_fract_x
_atom_site_fract_y
_atom_site_fract_z
Si Si1 0.652693 0.360246 0.797237
Si Si2 0.218937 0.209088 0.739898
Si Si3 0.918285 0.340466 0.151162
Si Si4 0.713081 0.509937 0.092027
Si Si5 0.032576 0.186503 0.378054
Si Si6 0.319085 0.126474 0.342441
Si Si7 0.592714 0.132225 0.061264
Si Si8 0.636192 0.671182 0.538905
O O1 0.459323 0.450216 0.852709
O O2 0.636656 0.540982 0.791881
O O3 0.908289 0.027288 0.637706
O O4 0.500000 0.500000 0.000000
O O5 0.072185 0.495611 0.864726
O O6 0.500000 0.000000 0.500000
O O7 0.339848 0.004204 0.734549
O O8 0.983896 0.316603 0.855978
O O9 0.796173 0.386134 0.135387
O O10 0.716576 0.530586 0.379253
O O11 0.182570 0.032015 0.011294
O O12 0.520331 0.825897 0.238994
O O13 0.113246 0.226583 0.412152
O O14 0.738335 0.465549 0.535470
O O15 0.236970 0.034550 0.153203
O O16 0.472247 0.094786 0.174387
O O17 0.213582 0.321877 0.509112
#
# Coordination Sequence:
#
# PCOD9082417 Si02
#       8
#     2   2   2   2   2   2   2   2
#     4   9  21  40  59  82 116 155 200 240 280 347
#     4  10  19  33  54  90 123 141 179 245 296 340
#     4  10  19  33  56  88 119 147 191 242 290 346
#     4  11  20  35  62  89 113 156 197 233 293 354
#     4   9  20  36  56  82 114 155 198 239 288 345
#     4  11  19  32  59  88 113 151 201 241 290 343
#     4  10  19  35  57  83 114 150 195 247 287 334
#     4  10  20  33  54  86 124 150 181 248 299 331
#
# _framework density 24.310351000000001
#
# number of rings (size 3 to 8) (size 9 to 14) (size 15 to 20)
#    0.000    2.000    2.500    1.875    0.000    0.500 
#    0.000    0.625    0.000   21.750    0.000    0.000 
#    0.000    0.000    0.000    0.000    0.000    0.000 
#
# Total GULP energy -89207.796304 kJ/mol
# GULP energy per Si atom -5575.487269 kJ/mol
# Density = 2.425502 g / cm^3
# Si number density = 24.310351 Si / 1000 Ang^3
#
#
#
# Elastic Constant Matrix: (Units=GPa)
#
#
# Indices 1 2 3 4 5 6 
#
# 1 86.6612 34.4253 24.6979 2.4538 3.3719 -28.7474
# 2 34.4253 139.1629 45.0396 20.0479 -5.3645 -28.3213
# 3 24.6979 45.0396 92.1066 8.6646 -3.2924 -5.1597
# 4 2.4538 20.0479 8.6646 62.0437 -13.2316 0.6622
# 5 3.3719 -5.3645 -3.2924 -13.2316 28.7854 4.6367
# 6 -28.7474 -28.3213 -5.1597 0.6622 4.6367 35.4814
#
#
#
# Elastic Compliance Matrix: (Units=1/GPa)
#
#
# Indices 1 2 3 4 5 6 
#
# 1 0.017779 -0.000200 -0.003926 -0.001428 -0.005549 0.014426
# 2 -0.000200 0.010718 -0.004487 -0.003177 -0.001235 0.007961
# 3 -0.003926 -0.004487 0.013881 0.000167 0.002097 -0.005020
# 4 -0.001428 -0.003177 0.000167 0.019210 0.009268 -0.005238
# 5 -0.005549 -0.001235 0.002097 0.009268 0.041393 -0.010759
# 6 0.014426 0.007961 -0.005020 -0.005238 -0.010759 0.047000
#
#
# Mechanical properties :
#
#
# Convention : Reuss Voigt Hill
#
# Bulk Modulus (GPa) = 39.75471 58.47291 49.11381
# Shear Modulus (GPa) = 28.47545 39.51328 33.99436
#
# Velocity S-wave (km/s) = 3.42618 4.03596 3.74351
# Velocity P-wave (km/s) = 5.66040 6.76931 6.23954
#
# Compressibility (1/GPa) = 0.02515425
#
# Stress axis : x y z
#
# Youngs Moduli (GPa) = 56.24562 93.30457 72.03840
#
# Poissons Ratio (x) = 0.01866 0.28279
# Poissons Ratio (y) = 0.01125 0.32320
# Poissons Ratio (z) = 0.22079 0.41861
#
# Static dielectric constant tensor:
#      x y z
#    x 1.930880 -0.018760 -0.005440 
#    y -0.018760 1.992610 -0.033090 
#    z -0.005440 -0.033090 2.121140 
# 
# From -- ./inp_files/344674.got.cif
#   From: 2010.05.17/outbox.cif.g08.bks.cpg/sg2_173_cif.got.tgz:344674.got - 2010.06.03 11:33:40.
