data_PCOD9082632
_publ_section_title
;
Structure prediction by ZEFSAII (Michael W. Deem and Ramdas Pophale) SiO2 
 PCOD9082632
Probable space group: P -1
;
_chemical_formula_sum "Si O2"
_cell_formula_units_Z 16
_cell_length_a 23.934219
_cell_length_b 17.206765
_cell_length_c 10.236612
_cell_angle_alpha 151.088750
_cell_angle_beta 149.006656
_cell_angle_gamma 20.886331
_cell_volume 707.403154
_symmetry_space_group_name_H-M "P -1"
_symmetry_group_IT_number 2
_symmetry_cell_setting 'triclinic'
loop_
_space_group_symop_operation_xyz
x,y,z
-x,-y,-z
loop_
_atom_site_type_symbol
_atom_site_label
_atom_site_fract_x
_atom_site_fract_y
_atom_site_fract_z
Si Si1 0.230985 0.208980 0.594469
Si Si2 0.701171 0.508675 0.263449
Si Si3 0.926168 0.368890 0.292552
Si Si4 0.587048 0.770849 0.682315
Si Si5 0.992302 0.026100 0.272303
Si Si6 0.967897 0.395767 0.884230
Si Si7 0.156045 0.063536 0.993465
Si Si8 0.540545 0.465932 0.188714
O O1 0.148338 0.452050 0.716147
O O2 0.103216 0.255580 0.501494
O O3 0.414700 0.048412 0.767578
O O4 0.233907 0.071241 0.282935
O O5 0.809689 0.498161 0.373068
O O6 0.601885 0.722649 0.483654
O O7 0.590221 0.503149 0.958952
O O8 0.815425 0.266949 0.221075
O O9 0.934933 0.168553 0.979522
O O10 0.552182 0.640771 0.493737
O O11 0.776006 0.606479 0.846121
O O12 0.978984 0.914234 0.198189
O O13 0.036144 0.154540 0.599982
O O14 0.075838 0.280120 0.058713
O O15 0.000000 0.500000 0.000000
O O16 0.294818 0.797898 0.829422
O O17 0.500000 0.500000 0.000000
#
# Coordination Sequence:
#
# PCOD9082632 Si02
#       8
#     2   2   2   2   2   2   2   2
#     4  10  21  38  62  93 125 154 204 252 313 360
#     4  10  18  32  60  95 118 147 201 260 300 347
#     4  10  22  35  58  95 125 162 194 250 309 376
#     4  10  20  37  61  89 123 150 208 259 299 351
#     4  10  20  38  57  84 122 162 199 236 303 374
#     4  11  25  38  59  94 123 157 208 263 298 349
#     4  11  19  36  64  90 121 159 198 249 307 360
#     4  10  15  32  58  94 121 147 199 256 303 354
#
# _framework density 22.617939
#
# number of rings (size 3 to 8) (size 9 to 14) (size 15 to 20)
#    0.000    1.750    6.250    1.500    3.500    1.500 
#    0.000    0.000    0.000    9.750   13.000    0.000 
#    0.000    0.000    0.000    0.000    0.000    0.000 
#
# Total GULP energy -89092.470432 kJ/mol
# GULP energy per Si atom -5568.279402 kJ/mol
# Density = 2.256646 g / cm^3
# Si number density = 22.617939 Si / 1000 Ang^3
#
#
#
# Elastic Constant Matrix: (Units=GPa)
#
#
# Indices 1 2 3 4 5 6 
#
# 1 93.5813 34.5905 17.0102 -10.2899 34.6972 -7.2931
# 2 34.5905 112.3722 22.4702 -6.5512 15.3179 -2.2770
# 3 17.0102 22.4702 68.0867 6.2422 14.6872 0.3641
# 4 -10.2899 -6.5512 6.2422 38.3167 -2.2578 3.1225
# 5 34.6972 15.3179 14.6872 -2.2578 26.8505 -0.2983
# 6 -7.2931 -2.2770 0.3641 3.1225 -0.2983 32.0432
#
#
#
# Elastic Compliance Matrix: (Units=1/GPa)
#
#
# Indices 1 2 3 4 5 6 
#
# 1 0.022626 -0.003107 0.001010 0.003396 -0.027685 0.004329
# 2 -0.003107 0.010536 -0.002748 0.001398 -0.000376 -0.000067
# 3 0.001010 -0.002748 0.017787 -0.003680 -0.009776 0.000100
# 4 0.003396 0.001398 -0.003680 0.027947 -0.000843 -0.001817
# 5 -0.027685 -0.000376 -0.009776 -0.000843 0.078449 -0.005404
# 6 0.004329 -0.000067 0.000100 -0.001817 -0.005404 0.032314
#
#
# Mechanical properties :
#
#
# Convention : Reuss Voigt Hill
#
# Bulk Modulus (GPa) = 24.23639 46.90909 35.57274
# Shear Modulus (GPa) = 23.46275 32.77336 28.11806
#
# Velocity S-wave (km/s) = 3.22429 3.81070 3.52969
# Velocity P-wave (km/s) = 4.95986 6.33614 5.68977
#
# Compressibility (1/GPa) = 0.04126027
#
# Stress axis : x y z
#
# Youngs Moduli (GPa) = 44.19624 94.91027 56.21994
#
# Poissons Ratio (x) = 0.29492 -0.05679
# Poissons Ratio (y) = 0.13733 0.15448
# Poissons Ratio (z) = -0.04465 0.26078
#
# Static dielectric constant tensor:
#      x y z
#    x 1.894570 -0.041530 -0.074540 
#    y -0.041530 1.851620 -0.043860 
#    z -0.074540 -0.043860 2.005880 
# 
# From -- ./inp_files/437065.got.cif
#   From: 2010.05.17/outbox.cif.g08.bks.cpg/sg2_219_cif.got.tgz:437065.got - 2010.06.03 11:33:40.
