data_PCOD9082188
_publ_section_title
;
Structure prediction by ZEFSAII (Michael W. Deem and Ramdas Pophale) SiO2 
 PCOD9082188
Probable space group: P -1
;
_chemical_formula_sum "Si O2"
_cell_formula_units_Z 16
_cell_length_a 7.846681
_cell_length_b 8.420103
_cell_length_c 17.706309
_cell_angle_alpha 139.446352
_cell_angle_beta 105.401657
_cell_angle_gamma 78.288199
_cell_volume 733.275684
_symmetry_space_group_name_H-M "P -1"
_symmetry_group_IT_number 2
_symmetry_cell_setting 'triclinic'
loop_
_space_group_symop_operation_xyz
x,y,z
-x,-y,-z
loop_
_atom_site_type_symbol
_atom_site_label
_atom_site_fract_x
_atom_site_fract_y
_atom_site_fract_z
Si Si1 0.890748 0.000685 0.564933
Si Si2 0.841424 0.680706 0.020331
Si Si3 0.742020 0.430812 0.051726
Si Si4 0.047859 0.472862 0.223373
Si Si5 0.136248 0.045439 0.173182
Si Si6 0.479865 0.296913 0.104716
Si Si7 0.263362 0.498191 0.674373
Si Si8 0.031522 0.761041 0.635146
O O1 0.837642 0.280957 0.672563
O O2 0.751113 0.777369 0.461089
O O3 0.000000 0.000000 0.500000
O O4 0.020582 0.945982 0.631336
O O5 0.727486 0.660476 0.076755
O O6 0.716688 0.627513 0.916158
O O7 0.938401 0.931775 0.105260
O O8 0.000000 0.500000 0.000000
O O9 0.739676 0.185603 0.911247
O O10 0.928219 0.438755 0.122661
O O11 0.598610 0.402680 0.088850
O O12 0.897957 0.494886 0.280717
O O13 0.156537 0.237835 0.178270
O O14 0.124980 0.166639 0.298177
O O15 0.560659 0.419792 0.232952
O O16 0.500000 0.000000 0.000000
O O17 0.210325 0.702830 0.680504
O O18 0.000000 0.500000 0.500000
#
# Coordination Sequence:
#
# PCOD9082188 Si02
#       8
#     2   2   2   2   2   2   2   2
#     4   9  16  28  48  77 111 150 196 243 287 344
#     4  10  21  36  56  84 115 152 195 238 289 349
#     4  10  20  33  53  83 115 150 191 238 291 347
#     4   9  16  27  47  76 113 149 187 233 281 342
#     4  10  19  33  52  83 116 148 193 240 290 347
#     4  11  21  36  57  86 123 157 192 242 296 345
#     4   8  17  30  47  75 110 150 192 237 288 339
#     4   9  16  29  49  76 110 148 191 237 283 343
#
# _framework density 21.819897000000001
#
# number of rings (size 3 to 8) (size 9 to 14) (size 15 to 20)
#    0.000    2.500    0.000    4.500    0.000    1.000 
#    0.000    1.250    0.000    0.000    0.000   57.750 
#    0.000    0.000    0.000    1.000    0.000    0.000 
#
# Total GULP energy -89140.488006 kJ/mol
# GULP energy per Si atom -5571.280500 kJ/mol
# Density = 2.177023 g / cm^3
# Si number density = 21.819897 Si / 1000 Ang^3
#
#
#
# Elastic Constant Matrix: (Units=GPa)
#
#
# Indices 1 2 3 4 5 6 
#
# 1 53.1602 19.5234 22.1692 -5.6405 15.1377 -9.2673
# 2 19.5234 146.6260 46.9394 -10.0730 16.2212 9.4266
# 3 22.1692 46.9394 119.7350 1.9566 8.4987 -9.8297
# 4 -5.6405 -10.0730 1.9566 47.4702 3.5340 1.0255
# 5 15.1377 16.2212 8.4987 3.5340 31.9257 -8.1781
# 6 -9.2673 9.4266 -9.8297 1.0255 -8.1781 27.5372
#
#
#
# Elastic Compliance Matrix: (Units=1/GPa)
#
#
# Indices 1 2 3 4 5 6 
#
# 1 0.024355 -0.001338 -0.002996 0.003319 -0.009229 0.004721
# 2 -0.001338 0.009309 -0.003618 0.002485 -0.005080 -0.006529
# 3 -0.002996 -0.003618 0.010605 -0.001796 0.001819 0.004622
# 4 0.003319 0.002485 -0.001796 0.022540 -0.005589 -0.002874
# 5 -0.009229 -0.005080 0.001819 -0.005589 0.041436 0.011796
# 6 0.004721 -0.006529 0.004622 -0.002874 0.011796 0.045399
#
#
# Mechanical properties :
#
#
# Convention : Reuss Voigt Hill
#
# Bulk Modulus (GPa) = 35.25611 55.19835 45.22723
# Shear Modulus (GPa) = 27.93269 36.77922 32.35596
#
# Velocity S-wave (km/s) = 3.58180 4.11004 3.85498
# Velocity P-wave (km/s) = 5.77049 6.91920 6.37079
#
# Compressibility (1/GPa) = 0.02836388
#
# Stress axis : x y z
#
# Youngs Moduli (GPa) = 41.05924 107.42503 94.29942
#
# Poissons Ratio (x) = 0.14376 0.28256
# Poissons Ratio (y) = 0.05495 0.34114
# Poissons Ratio (z) = 0.12303 0.38862
#
# Static dielectric constant tensor:
#      x y z
#    x 1.899610 0.026220 -0.050300 
#    y 0.026220 1.912610 -0.018340 
#    z -0.050300 -0.018340 1.858100 
# 
# From -- ./inp_files/557689.got.cif
#   From: 2010.05.17/outbox.cif.g08.bks.cpg/sg2_279_cif.got.tgz:557689.got - 2010.06.03 11:33:40.
