data_PCOD9082036
_publ_section_title
;
Structure prediction by ZEFSAII (Michael W. Deem and Ramdas Pophale) SiO2 
 PCOD9082036
Probable space group: P -1
;
_chemical_formula_sum "Si O2"
_cell_formula_units_Z 16
_cell_length_a 20.442321
_cell_length_b 11.727649
_cell_length_c 7.130062
_cell_angle_alpha 124.536787
_cell_angle_beta 129.468065
_cell_angle_gamma 30.416562
_cell_volume 667.316374
_symmetry_space_group_name_H-M "P -1"
_symmetry_group_IT_number 2
_symmetry_cell_setting 'triclinic'
loop_
_space_group_symop_operation_xyz
x,y,z
-x,-y,-z
loop_
_atom_site_type_symbol
_atom_site_label
_atom_site_fract_x
_atom_site_fract_y
_atom_site_fract_z
Si Si1 0.197711 0.606835 0.404890
Si Si2 0.616140 0.084826 0.484764
Si Si3 0.338864 0.915623 0.990820
Si Si4 0.027987 0.300442 0.876615
Si Si5 0.087109 0.967257 0.280743
Si Si6 0.430011 0.094229 0.251085
Si Si7 0.616227 0.419633 0.418342
Si Si8 0.924774 0.737662 0.636329
O O1 0.087858 0.858395 0.353107
O O2 0.292978 0.368171 0.249728
O O3 0.322203 0.557857 0.615996
O O4 0.098286 0.632218 0.362169
O O5 0.637646 0.083540 0.746339
O O6 0.546120 0.024980 0.279802
O O7 0.505908 0.345140 0.480810
O O8 0.762603 0.914399 0.499742
O O9 0.176025 0.086835 0.851139
O O10 0.383218 0.997889 0.041728
O O11 0.415204 0.685069 0.831039
O O12 0.040598 0.259132 0.085395
O O13 0.000000 0.500000 0.000000
O O14 0.253987 0.758896 0.369809
O O15 0.038367 0.186270 0.364521
O O16 0.000000 0.000000 0.000000
O O17 0.500000 0.000000 0.500000
O O18 0.000000 0.500000 0.500000
#
# Coordination Sequence:
#
# PCOD9082036 Si02
#       8
#     2   2   2   2   2   2   2   2
#     4   9  19  36  58  86 123 169 207 252 319 375
#     4   9  20  39  60  89 122 168 203 261 325 376
#     4  10  19  32  61  93 126 158 208 263 313 376
#     4  11  21  35  62  91 124 164 206 267 328 360
#     4  10  21  41  62  84 127 176 206 261 314 372
#     4   9  17  34  57  87 127 164 205 258 320 374
#     4   9  20  36  60  89 122 165 210 255 316 374
#     4  11  24  41  64  90 125 163 218 264 314 388
#
# _framework density 23.976631999999999
#
# number of rings (size 3 to 8) (size 9 to 14) (size 15 to 20)
#    0.750    1.500    2.500    0.375    1.750    1.000 
#    0.000    1.250    0.000    7.500    0.000    0.000 
#    0.000    0.000    0.000    0.000    0.000    0.000 
#
# Total GULP energy -89137.862738 kJ/mol
# GULP energy per Si atom -5571.116421 kJ/mol
# Density = 2.392206 g / cm^3
# Si number density = 23.976632 Si / 1000 Ang^3
#
#
#
# Elastic Constant Matrix: (Units=GPa)
#
#
# Indices 1 2 3 4 5 6 
#
# 1 143.1817 51.3953 54.3929 22.2955 41.1036 -3.9052
# 2 51.3953 108.8954 33.0074 19.5160 21.7627 3.6933
# 3 54.3929 33.0074 106.2982 8.8387 28.3069 0.5829
# 4 22.2955 19.5160 8.8387 38.5604 18.6002 13.4608
# 5 41.1036 21.7627 28.3069 18.6002 48.8506 4.6554
# 6 -3.9052 3.6933 0.5829 13.4608 4.6554 40.1414
#
#
#
# Elastic Compliance Matrix: (Units=1/GPa)
#
#
# Indices 1 2 3 4 5 6 
#
# 1 0.011364 -0.002878 -0.003200 -0.002673 -0.005691 0.002973
# 2 -0.002878 0.011828 -0.001786 -0.003702 -0.000398 -0.000055
# 3 -0.003200 -0.001786 0.012654 0.002300 -0.004667 -0.000561
# 4 -0.002673 -0.003702 0.002300 0.038048 -0.010830 -0.011456
# 5 -0.005691 -0.000398 -0.004667 -0.010830 0.032318 -0.000566
# 6 0.002973 -0.000055 -0.000561 -0.011456 -0.000566 0.029122
#
#
# Mechanical properties :
#
#
# Convention : Reuss Voigt Hill
#
# Bulk Modulus (GPa) = 49.70637 70.66294 60.18465
# Shear Modulus (GPa) = 31.69244 40.14913 35.92079
#
# Velocity S-wave (km/s) = 3.63961 4.09652 3.87480
# Velocity P-wave (km/s) = 6.19988 7.20492 6.72121
#
# Compressibility (1/GPa) = 0.02011815
#
# Stress axis : x y z
#
# Youngs Moduli (GPa) = 87.99890 84.54843 79.02646
#
# Poissons Ratio (x) = 0.24332 0.25287
# Poissons Ratio (y) = 0.25325 0.14114
# Poissons Ratio (z) = 0.28158 0.15100
#
# Static dielectric constant tensor:
#      x y z
#    x 1.817870 -0.516130 -0.307720 
#    y -0.516130 0.381810 -0.759530 
#    z -0.307720 -0.759530 1.627030 
# 
# From -- ./inp_files/345636.got.cif
#   From: 2010.05.17/outbox.cif.g08.bks.cpg/sg2_173_cif.got.tgz:345636.got - 2010.06.03 11:33:40.
