data_PCOD9082285
_publ_section_title
;
Structure prediction by ZEFSAII (Michael W. Deem and Ramdas Pophale) SiO2 
 PCOD9082285
Probable space group: P -1
;
_chemical_formula_sum "Si O2"
_cell_formula_units_Z 16
_cell_length_a 9.716258
_cell_length_b 11.586871
_cell_length_c 11.268200
_cell_angle_alpha 69.415325
_cell_angle_beta 127.212359
_cell_angle_gamma 80.372575
_cell_volume 813.819897
_symmetry_space_group_name_H-M "P -1"
_symmetry_group_IT_number 2
_symmetry_cell_setting 'triclinic'
loop_
_space_group_symop_operation_xyz
x,y,z
-x,-y,-z
loop_
_atom_site_type_symbol
_atom_site_label
_atom_site_fract_x
_atom_site_fract_y
_atom_site_fract_z
Si Si1 0.596514 0.648499 0.044567
Si Si2 0.145292 0.040132 0.490313
Si Si3 0.290382 0.387417 0.616338
Si Si4 0.808938 0.334082 0.236177
Si Si5 0.954911 0.049897 0.764388
Si Si6 0.016256 0.697971 0.413503
Si Si7 0.303203 0.856861 0.169220
Si Si8 0.473830 0.048264 0.109276
O O1 0.372016 0.691316 0.879468
O O2 0.633839 0.779610 0.001603
O O3 0.617610 0.616084 0.206396
O O4 0.744041 0.497228 0.113377
O O5 0.016804 0.210299 0.337438
O O6 0.169665 0.966998 0.401516
O O7 0.325419 0.003119 0.688137
O O8 0.000000 0.000000 0.500000
O O9 0.133524 0.554193 0.446367
O O10 0.484804 0.291524 0.673195
O O11 0.158674 0.313445 0.604623
O O12 0.837309 0.316599 0.398491
O O13 0.036100 0.154988 0.728800
O O14 0.814259 0.121866 0.778544
O O15 0.144249 0.898242 0.962386
O O16 0.361124 0.978914 0.140545
O O17 0.500000 0.000000 0.000000
#
# Coordination Sequence:
#
# PCOD9082285 Si02
#       8
#     2   2   2   2   2   2   2   2
#     4  10  19  33  53  85 118 144 191 240 293 349
#     4  12  21  36  60  87 115 156 199 247 296 352
#     4  10  20  34  59  87 116 151 199 245 294 350
#     4  10  20  32  54  86 115 148 188 242 293 348
#     4  11  24  40  57  85 125 159 202 245 302 359
#     4  10  20  36  57  87 116 152 198 246 292 354
#     4  11  24  38  58  88 120 162 198 248 302 355
#     4  12  22  36  61  87 116 154 200 247 298 354
#
# _framework density 19.660371000000001
#
# number of rings (size 3 to 8) (size 9 to 14) (size 15 to 20)
#    0.000    1.250    3.750    3.000    0.000    1.000 
#    0.000    0.000    0.000    0.750    0.000    0.000 
#    0.000    0.000    0.000    0.000    0.000    0.000 
#
# Total GULP energy -89190.952249 kJ/mol
# GULP energy per Si atom -5574.434516 kJ/mol
# Density = 1.961562 g / cm^3
# Si number density = 19.660371 Si / 1000 Ang^3
#
#
#
# Elastic Constant Matrix: (Units=GPa)
#
#
# Indices 1 2 3 4 5 6 
#
# 1 48.1863 17.2782 10.2293 3.5073 0.7340 -4.6237
# 2 17.2782 94.5527 27.7788 -3.6649 -1.0081 -3.7161
# 3 10.2293 27.7788 88.2400 11.8544 6.8766 -7.8452
# 4 3.5073 -3.6649 11.8544 46.7739 -4.1473 11.0806
# 5 0.7340 -1.0081 6.8766 -4.1473 22.2877 -1.7324
# 6 -4.6237 -3.7161 -7.8452 11.0806 -1.7324 18.3405
#
#
#
# Elastic Compliance Matrix: (Units=1/GPa)
#
#
# Indices 1 2 3 4 5 6 
#
# 1 0.023229 -0.004068 -0.000185 -0.003800 -0.001043 0.007150
# 2 -0.004068 0.012646 -0.004279 0.003048 0.002445 -0.001904
# 3 -0.000185 -0.004279 0.014804 -0.006662 -0.005300 0.008943
# 4 -0.003800 0.003048 -0.006662 0.028889 0.006135 -0.020064
# 5 -0.001043 0.002445 -0.005300 0.006135 0.047693 -0.001236
# 6 0.007150 -0.001904 0.008943 -0.020064 -0.001236 0.071772
#
#
# Mechanical properties :
#
#
# Convention : Reuss Voigt Hill
#
# Bulk Modulus (GPa) = 29.74730 37.95017 33.84874
# Shear Modulus (GPa) = 21.99717 29.19325 25.59521
#
# Velocity S-wave (km/s) = 3.34856 3.85759 3.61206
# Velocity P-wave (km/s) = 5.48762 6.25988 5.88643
#
# Compressibility (1/GPa) = 0.03361649
#
# Stress axis : x y z
#
# Youngs Moduli (GPa) = 43.04916 79.07667 67.54796
#
# Poissons Ratio (x) = 0.32168 0.01247
# Poissons Ratio (y) = 0.17512 0.28903
# Poissons Ratio (z) = 0.00795 0.33836
#
# Static dielectric constant tensor:
#      x y z
#    x 1.650050 -0.014630 0.046030 
#    y -0.014630 1.781890 -0.041860 
#    z 0.046030 -0.041860 1.788380 
# 
# From -- ./inp_files/392381.got.cif
#   From: 2010.05.17/outbox.cif.g08.bks.cpg/sg2_197_cif.got.tgz:392381.got - 2010.06.03 11:33:40.
