data_PCOD9082480
_publ_section_title
;
Structure prediction by ZEFSAII (Michael W. Deem and Ramdas Pophale) SiO2 
 PCOD9082480
Probable space group: P -1
;
_chemical_formula_sum "Si O2"
_cell_formula_units_Z 15
_cell_length_a 13.983038
_cell_length_b 17.547212
_cell_length_c 9.522057
_cell_angle_alpha 52.557351
_cell_angle_beta 121.418466
_cell_angle_gamma 160.105114
_cell_volume 620.163967
_symmetry_space_group_name_H-M "P -1"
_symmetry_group_IT_number 2
_symmetry_cell_setting 'triclinic'
loop_
_space_group_symop_operation_xyz
x,y,z
-x,-y,-z
loop_
_atom_site_type_symbol
_atom_site_label
_atom_site_fract_x
_atom_site_fract_y
_atom_site_fract_z
Si Si1 0.417521 0.640622 0.145635
Si Si2 0.810480 0.230008 0.793688
Si Si3 0.702475 0.532865 0.031537
Si Si4 0.996943 0.403907 0.426603
Si Si5 0.500000 0.500000 0.500000
Si Si6 0.195499 0.794492 0.794844
Si Si7 0.612472 0.665803 0.699294
Si Si8 0.355729 0.129233 0.652451
O O1 0.369732 0.497333 0.336116
O O2 0.629297 0.848748 0.192352
O O3 0.133045 0.482634 0.103689
O O4 0.490259 0.674890 0.000729
O O5 0.848572 0.267589 0.613211
O O6 0.016775 0.309473 0.913449
O O7 0.933880 0.428364 0.722510
O O8 0.473964 0.955641 0.877051
O O9 0.554663 0.428893 0.185410
O O10 0.762072 0.686916 0.846623
O O11 0.814533 0.221421 0.362587
O O12 0.309968 0.602905 0.437602
O O13 0.443155 0.496402 0.622152
O O14 0.247805 0.943318 0.722334
O O15 0.787566 0.895047 0.514513
#
# Coordination Sequence:
#
# PCOD9082480 Si02
#       8
#     2   2   2   2   1   2   2   2
#     4   9  19  35  55  83 111 150 186 225 276 331
#     4  10  19  33  55  83 115 148 181 234 275 330
#     4  10  19  33  56  83 116 147 179 228 288 327
#     4   9  18  34  55  83 109 145 195 226 276 324
#     4   8  16  34  58  80 104 142 188 224 262 326
#     4  10  20  34  57  83 111 147 193 230 268 325
#     4   9  17  33  59  85 107 145 188 226 277 336
#     4   9  17  35  60  81 109 147 192 230 266 327
#
# _framework density 24.187152000000001
#
# number of rings (size 3 to 8) (size 9 to 14) (size 15 to 20)
#    0.000    2.667    1.333    0.400    0.000    0.533 
#    0.000   13.333    0.000    5.600    0.000    0.000 
#    0.000    0.000    0.000    0.000    0.000    0.000 
#
# Total GULP energy -83508.694936 kJ/mol
# GULP energy per Si atom -5567.246329 kJ/mol
# Density = 2.413210 g / cm^3
# Si number density = 24.187152 Si / 1000 Ang^3
#
#
#
# Elastic Constant Matrix: (Units=GPa)
#
#
# Indices 1 2 3 4 5 6 
#
# 1 174.4296 53.8690 79.9999 24.7718 -10.1786 -16.4789
# 2 53.8690 73.2485 48.8312 13.5881 -18.6564 -16.8272
# 3 79.9999 48.8312 144.2143 31.3646 -22.5491 -13.8838
# 4 24.7718 13.5881 31.3646 25.4908 -9.3273 -3.9295
# 5 -10.1786 -18.6564 -22.5491 -9.3273 60.6319 18.6520
# 6 -16.4789 -16.8272 -13.8838 -3.9295 18.6520 38.4132
#
#
#
# Elastic Compliance Matrix: (Units=1/GPa)
#
#
# Indices 1 2 3 4 5 6 
#
# 1 0.008837 -0.004038 -0.002978 -0.003206 -0.001822 0.001502
# 2 -0.004038 0.021134 -0.003835 -0.000868 0.002826 0.004679
# 3 -0.002978 -0.003835 0.012161 -0.009532 0.001451 -0.000241
# 4 -0.003206 -0.000868 -0.009532 0.056023 0.004826 -0.001813
# 5 -0.001822 0.002826 0.001451 0.004826 0.021026 -0.008735
# 6 0.001502 0.004679 -0.000241 -0.001813 -0.008735 0.032695
#
#
# Mechanical properties :
#
#
# Convention : Reuss Voigt Hill
#
# Bulk Modulus (GPa) = 48.94624 84.14361 66.54492
# Shear Modulus (GPa) = 27.71828 38.85332 33.28580
#
# Velocity S-wave (km/s) = 3.38892 4.01229 3.71371
# Velocity P-wave (km/s) = 5.96603 7.50525 6.77946
#
# Compressibility (1/GPa) = 0.02043058
#
# Stress axis : x y z
#
# Youngs Moduli (GPa) = 113.16639 47.31748 82.22942
#
# Poissons Ratio (x) = 0.19105 0.24485
# Poissons Ratio (y) = 0.45693 0.31536
# Poissons Ratio (z) = 0.33697 0.18147
#
# Static dielectric constant tensor:
#      x y z
#    x 1.932870 -0.012410 0.008790 
#    y -0.012410 1.952990 -0.037190 
#    z 0.008790 -0.037190 1.903730 
# 
# From -- ./inp_files/317601.got.cif
#   From: 2010.05.17/outbox.cif.g08.bks.cpg/sg2_159_cif.got.tgz:317601.got - 2010.06.03 11:33:40.
