data_PCOD9082996
_publ_section_title
;
Structure prediction by ZEFSAII (Michael W. Deem and Ramdas Pophale) SiO2 
 PCOD9082996
Probable space group: P -1
;
_chemical_formula_sum "Si O2"
_cell_formula_units_Z 16
_cell_length_a 5.440593
_cell_length_b 26.988207
_cell_length_c 8.405681
_cell_angle_alpha 139.952271
_cell_angle_beta 62.371175
_cell_angle_gamma 95.364904
_cell_volume 625.181209
_symmetry_space_group_name_H-M "P -1"
_symmetry_group_IT_number 2
_symmetry_cell_setting 'triclinic'
loop_
_space_group_symop_operation_xyz
x,y,z
-x,-y,-z
loop_
_atom_site_type_symbol
_atom_site_label
_atom_site_fract_x
_atom_site_fract_y
_atom_site_fract_z
Si Si1 0.595109 0.211152 0.099438
Si Si2 0.335352 0.438990 0.905989
Si Si3 0.596010 0.091148 0.536048
Si Si4 0.461069 0.368101 0.367411
Si Si5 0.033798 0.062416 0.776797
Si Si6 0.862972 0.300293 0.605193
Si Si7 0.902684 0.404365 0.133652
Si Si8 0.569665 0.744490 0.192213
O O1 0.699924 0.281136 0.176660
O O2 0.219170 0.254448 0.329905
O O3 0.698286 0.143460 0.758123
O O4 0.736064 0.155746 0.079673
O O5 0.249908 0.420938 0.709095
O O6 0.606285 0.346791 0.661634
O O7 0.500000 0.500000 0.000000
O O8 0.066833 0.463684 0.182561
O O9 0.309703 0.082347 0.681111
O O10 0.469271 0.160492 0.602519
O O11 0.869630 0.991720 0.220473
O O12 0.617044 0.424342 0.385612
O O13 0.357994 0.322802 0.146169
O O14 0.000000 0.000000 0.500000
O O15 0.759061 0.242480 0.603877
O O16 0.817361 0.378383 0.927552
O O17 0.167637 0.314295 0.906308
#
# Coordination Sequence:
#
# PCOD9082996 Si02
#       8
#     2   2   2   2   2   2   2   2
#     4  10  19  33  60  87 112 156 205 248 292 359
#     4  11  25  42  62  89 123 157 198 253 307 362
#     4   9  18  33  56  85 118 156 199 248 295 350
#     4  10  21  37  64  89 113 160 206 244 302 357
#     4   9  18  31  52  87 121 152 199 243 298 351
#     4  10  22  39  60  90 117 156 203 248 306 357
#     4  10  21  40  60  89 123 154 202 252 292 366
#     4   9  20  37  60  88 119 156 206 248 295 353
#
# _framework density 25.592580999999999
#
# number of rings (size 3 to 8) (size 9 to 14) (size 15 to 20)
#    0.000    2.250    1.250    0.750    5.250    2.000 
#    0.000    6.250    0.000    7.500    0.000    0.000 
#    0.000    0.000    0.000    0.000    0.000    0.000 
#
# Total GULP energy -89274.252542 kJ/mol
# GULP energy per Si atom -5579.640784 kJ/mol
# Density = 2.553433 g / cm^3
# Si number density = 25.592581 Si / 1000 Ang^3
#
#
#
# Elastic Constant Matrix: (Units=GPa)
#
#
# Indices 1 2 3 4 5 6 
#
# 1 51.3816 36.9601 11.6595 -7.6261 -0.9446 -4.4819
# 2 36.9601 194.9925 42.4420 14.8690 -8.7616 20.2327
# 3 11.6595 42.4420 62.6493 6.1103 -8.9951 -2.3392
# 4 -7.6261 14.8690 6.1103 41.3090 -0.8533 -0.2171
# 5 -0.9446 -8.7616 -8.9951 -0.8533 48.9037 2.3482
# 6 -4.4819 20.2327 -2.3392 -0.2171 2.3482 48.7461
#
#
#
# Elastic Compliance Matrix: (Units=1/GPa)
#
#
# Indices 1 2 3 4 5 6 
#
# 1 0.025149 -0.005453 -0.001611 0.006850 -0.000887 0.004571
# 2 -0.005453 0.007703 -0.003940 -0.003203 0.000683 -0.003935
# 3 -0.001611 -0.003940 0.019574 -0.001706 0.002724 0.002288
# 4 0.006850 -0.003203 -0.001706 0.026880 -0.000383 0.002015
# 5 -0.000887 0.000683 0.002724 -0.000383 0.021108 -0.001253
# 6 0.004571 -0.003935 0.002288 0.002015 -0.001253 0.022747
#
#
# Mechanical properties :
#
#
# Convention : Reuss Voigt Hill
#
# Bulk Modulus (GPa) = 32.87542 54.57184 43.72363
# Shear Modulus (GPa) = 32.19410 42.32256 37.25833
#
# Velocity S-wave (km/s) = 3.55060 4.07099 3.81967
# Velocity P-wave (km/s) = 5.44817 6.59294 6.04770
#
# Compressibility (1/GPa) = 0.03041787
#
# Stress axis : x y z
#
# Youngs Moduli (GPa) = 39.76265 129.82465 51.08894
#
# Poissons Ratio (x) = 0.70790 0.08232
# Poissons Ratio (y) = 0.21682 0.20128
# Poissons Ratio (z) = 0.06407 0.51149
#
# Static dielectric constant tensor:
#      x y z
#    x 2.071350 -0.022670 -0.050700 
#    y -0.022670 2.085950 0.063250 
#    z -0.050700 0.063250 2.052840 
# 
# From -- ./inp_files/42165.got.cif
#   From: 2010.05.17/outbox.cif.g08.bks.cpg/sg2_22_cif.got.tgz:42165.got - 2010.06.03 11:33:40.
