data_PCOD9082631
_publ_section_title
;
Structure prediction by ZEFSAII (Michael W. Deem and Ramdas Pophale) SiO2 
 PCOD9082631
Probable space group: P -1
;
_chemical_formula_sum "Si O2"
_cell_formula_units_Z 16
_cell_length_a 11.669818
_cell_length_b 10.784668
_cell_length_c 10.950287
_cell_angle_alpha 46.468478
_cell_angle_beta 61.075914
_cell_angle_gamma 38.681419
_cell_volume 620.007151
_symmetry_space_group_name_H-M "P -1"
_symmetry_group_IT_number 2
_symmetry_cell_setting 'triclinic'
loop_
_space_group_symop_operation_xyz
x,y,z
-x,-y,-z
loop_
_atom_site_type_symbol
_atom_site_label
_atom_site_fract_x
_atom_site_fract_y
_atom_site_fract_z
Si Si1 0.582120 0.864920 0.680240
Si Si2 0.289941 0.242922 0.972663
Si Si3 0.081985 0.240931 0.485087
Si Si4 0.743173 0.445549 0.416703
Si Si5 0.485574 0.495684 0.324810
Si Si6 0.709828 0.457721 0.035179
Si Si7 0.874405 0.940214 0.894985
Si Si8 0.184694 0.185172 0.738386
O O1 0.399758 0.032136 0.741878
O O2 0.500000 0.000000 0.500000
O O3 0.748772 0.845876 0.624059
O O4 0.661206 0.595828 0.837280
O O5 0.231982 0.408549 0.774924
O O6 0.289829 0.369962 0.999642
O O7 0.160144 0.197730 0.075247
O O8 0.500000 0.000000 0.000000
O O9 0.152420 0.132646 0.657589
O O10 0.950807 0.220022 0.507630
O O11 0.949303 0.528271 0.379479
O O12 0.644355 0.409415 0.396348
O O13 0.605419 0.586780 0.509134
O O14 0.301731 0.782167 0.233259
O O15 0.569411 0.454976 0.175269
O O16 0.914500 0.197363 0.123140
O O17 0.854248 0.904481 0.070589
#
# Coordination Sequence:
#
# PCOD9082631 Si02
#       8
#     2   2   2   2   2   2   2   2
#     4  10  19  33  56  87 116 143 186 245 290 332
#     4  11  19  35  59  86 112 144 187 242 289 334
#     4  10  20  34  56  89 115 145 195 242 289 337
#     4  10  20  40  59  82 120 154 193 236 288 349
#     4  10  23  39  58  80 121 160 188 237 291 343
#     4  11  21  34  58  86 115 151 195 236 290 347
#     4  12  20  37  59  84 115 150 195 242 289 342
#     4  10  19  33  58  88 114 148 183 245 294 336
#
# _framework density 25.806153999999999
#
# number of rings (size 3 to 8) (size 9 to 14) (size 15 to 20)
#    0.000    1.500    6.250    0.375    0.000    1.000 
#    0.000    7.500    0.000    0.750    0.000    0.000 
#    0.000    0.000    0.000    0.000    0.000    0.000 
#
# Total GULP energy -89382.162563 kJ/mol
# GULP energy per Si atom -5586.385160 kJ/mol
# Density = 2.574742 g / cm^3
# Si number density = 25.806154 Si / 1000 Ang^3
#
#
#
# Elastic Constant Matrix: (Units=GPa)
#
#
# Indices 1 2 3 4 5 6 
#
# 1 94.6775 39.7214 40.9291 -8.1338 5.6747 -35.0627
# 2 39.7214 126.2826 21.5817 -4.6528 -6.9907 -41.9543
# 3 40.9291 21.5817 113.2551 -5.7420 20.5980 -12.0502
# 4 -8.1338 -4.6528 -5.7420 38.3407 -10.0279 -3.4132
# 5 5.6747 -6.9907 20.5980 -10.0279 33.2733 1.5902
# 6 -35.0627 -41.9543 -12.0502 -3.4132 1.5902 40.3028
#
#
#
# Elastic Compliance Matrix: (Units=1/GPa)
#
#
# Indices 1 2 3 4 5 6 
#
# 1 0.018726 0.000352 -0.005071 0.004829 0.000733 0.015521
# 2 0.000352 0.012918 -0.001743 0.003671 0.004200 0.013377
# 3 -0.005071 -0.001743 0.011971 -0.001621 -0.007281 -0.002497
# 4 0.004829 0.003671 -0.001621 0.030726 0.009745 0.009755
# 5 0.000733 0.004200 -0.007281 0.009745 0.038153 0.002153
# 6 0.015521 0.013377 -0.002497 0.009755 0.002153 0.052235
#
#
# Mechanical properties :
#
#
# Convention : Reuss Voigt Hill
#
# Bulk Modulus (GPa) = 32.58515 59.85327 46.21921
# Shear Modulus (GPa) = 26.61200 37.84891 32.23045
#
# Velocity S-wave (km/s) = 3.21476 3.83386 3.53787
# Velocity P-wave (km/s) = 5.14139 6.54536 5.88539
#
# Compressibility (1/GPa) = 0.03068883
#
# Stress axis : x y z
#
# Youngs Moduli (GPa) = 53.40168 77.41096 83.53607
#
# Poissons Ratio (x) = -0.02721 0.42365
# Poissons Ratio (y) = -0.01877 0.14562
# Poissons Ratio (z) = 0.27082 0.13494
#
# Static dielectric constant tensor:
#      x y z
#    x 2.098070 0.037670 0.031190 
#    y 0.037670 2.008030 -0.028070 
#    z 0.031190 -0.028070 2.166470 
# 
# From -- ./inp_files/455446.got.cif
#   From: 2010.05.17/outbox.cif.g08.bks.cpg/sg2_228_cif.got.tgz:455446.got - 2010.06.03 11:33:40.
