data_PCOD9082556
_publ_section_title
;
Structure prediction by ZEFSAII (Michael W. Deem and Ramdas Pophale) SiO2 
 PCOD9082556
Probable space group: P -1
;
_chemical_formula_sum "Si O2"
_cell_formula_units_Z 16
_cell_length_a 17.693694
_cell_length_b 10.768156
_cell_length_c 11.559653
_cell_angle_alpha 106.730052
_cell_angle_beta 50.253237
_cell_angle_gamma 146.284858
_cell_volume 771.190530
_symmetry_space_group_name_H-M "P -1"
_symmetry_group_IT_number 2
_symmetry_cell_setting 'triclinic'
loop_
_space_group_symop_operation_xyz
x,y,z
-x,-y,-z
loop_
_atom_site_type_symbol
_atom_site_label
_atom_site_fract_x
_atom_site_fract_y
_atom_site_fract_z
Si Si1 0.226202 0.808984 0.903944
Si Si2 0.841335 0.934764 0.118144
Si Si3 0.238268 0.528110 0.838357
Si Si4 0.566149 0.901515 0.002170
Si Si5 0.823983 0.384962 0.707173
Si Si6 0.474642 0.620188 0.809957
Si Si7 0.457043 0.098014 0.534517
Si Si8 0.801315 0.043670 0.412631
O O1 0.303893 0.753242 0.846175
O O2 0.353894 0.023773 0.733574
O O3 0.000000 0.500000 0.000000
O O4 0.275535 0.944069 0.007503
O O5 0.651520 0.659141 0.156895
O O6 0.770166 0.902342 0.304595
O O7 0.000000 0.000000 0.000000
O O8 0.995231 0.220749 0.991880
O O9 0.339960 0.568663 0.854744
O O10 0.337303 0.599958 0.638099
O O11 0.502498 0.704268 0.934194
O O12 0.695764 0.141726 0.850864
O O13 0.358758 0.738579 0.203601
O O14 0.000000 0.500000 0.500000
O O15 0.962778 0.648527 0.712741
O O16 0.686254 0.867984 0.594836
O O17 0.500000 0.000000 0.500000
O O18 0.298091 0.941727 0.543626
#
# Coordination Sequence:
#
# PCOD9082556 Si02
#       8
#     2   2   2   2   2   2   2   2
#     4  11  21  36  57  81 113 154 196 234 292 345
#     4  10  19  33  56  81 116 153 192 240 291 346
#     4   9  18  34  54  80 113 145 189 241 287 343
#     4  11  22  36  54  83 122 151 193 243 291 360
#     4  11  21  33  56  85 118 156 184 235 312 353
#     4  10  20  35  55  87 114 150 190 241 297 343
#     4   9  20  33  55  82 113 150 193 240 283 341
#     4  11  20  36  57  86 118 151 197 236 293 358
#
# _framework density 20.747143000000001
#
# number of rings (size 3 to 8) (size 9 to 14) (size 15 to 20)
#    0.000    1.750    1.250    5.625    3.500    0.000 
#    0.000    0.000    0.000    3.750    0.000    0.000 
#    0.000    0.000    0.000    0.000    0.000    0.000 
#
# Total GULP energy -89110.838283 kJ/mol
# GULP energy per Si atom -5569.427393 kJ/mol
# Density = 2.069992 g / cm^3
# Si number density = 20.747143 Si / 1000 Ang^3
#
#
#
# Elastic Constant Matrix: (Units=GPa)
#
#
# Indices 1 2 3 4 5 6 
#
# 1 38.7737 11.5537 13.7840 5.6657 -5.3975 10.9455
# 2 11.5537 138.1401 39.4046 4.8408 3.0587 23.1108
# 3 13.7840 39.4046 105.4184 9.8429 -5.4249 5.3455
# 4 5.6657 4.8408 9.8429 29.3906 1.8006 4.5228
# 5 -5.3975 3.0587 -5.4249 1.8006 30.4325 -0.4337
# 6 10.9455 23.1108 5.3455 4.5228 -0.4337 24.2720
#
#
#
# Elastic Compliance Matrix: (Units=1/GPa)
#
#
# Indices 1 2 3 4 5 6 
#
# 1 0.031709 0.000461 -0.003063 -0.003419 0.005044 -0.013336
# 2 0.000461 0.009654 -0.003392 0.000922 -0.001674 -0.008855
# 3 -0.003063 -0.003392 0.011423 -0.003223 0.002064 0.002733
# 4 -0.003419 0.000922 -0.003223 0.036677 -0.003522 -0.005523
# 5 0.005044 -0.001674 0.002064 -0.003522 0.034501 0.000138
# 6 -0.013336 -0.008855 0.002733 -0.005523 0.000138 0.056075
#
#
# Mechanical properties :
#
#
# Convention : Reuss Voigt Hill
#
# Bulk Modulus (GPa) = 24.51150 45.75743 35.13446
# Shear Modulus (GPa) = 24.31588 31.32500 27.82044
#
# Velocity S-wave (km/s) = 3.42718 3.88989 3.66584
# Velocity P-wave (km/s) = 5.24412 6.50213 5.90671
#
# Compressibility (1/GPa) = 0.04079718
#
# Stress axis : x y z
#
# Youngs Moduli (GPa) = 31.53701 103.58089 87.54181
#
# Poissons Ratio (x) = -0.04776 0.26817
# Poissons Ratio (y) = -0.01454 0.29696
# Poissons Ratio (z) = 0.09661 0.35137
#
# Static dielectric constant tensor:
#      x y z
#    x 1.837810 -0.021560 -0.056660 
#    y -0.021560 1.798220 0.044670 
#    z -0.056660 0.044670 1.855450 
# 
# From -- ./inp_files/471017.got.cif
#   From: 2010.05.17/outbox.cif.g08.bks.cpg/sg2_236_cif.got.tgz:471017.got - 2010.06.03 11:33:40.
