data_PCOD9082644
_publ_section_title
;
Structure prediction by ZEFSAII (Michael W. Deem and Ramdas Pophale) SiO2 
 PCOD9082644
Probable space group: P -1
;
_chemical_formula_sum "Si O2"
_cell_formula_units_Z 16
_cell_length_a 17.510598
_cell_length_b 16.141022
_cell_length_c 5.134903
_cell_angle_alpha 69.448678
_cell_angle_beta 113.314935
_cell_angle_gamma 146.001068
_cell_volume 744.536267
_symmetry_space_group_name_H-M "P -1"
_symmetry_group_IT_number 2
_symmetry_cell_setting 'triclinic'
loop_
_space_group_symop_operation_xyz
x,y,z
-x,-y,-z
loop_
_atom_site_type_symbol
_atom_site_label
_atom_site_fract_x
_atom_site_fract_y
_atom_site_fract_z
Si Si1 0.870159 0.895335 0.741336
Si Si2 0.887451 0.465897 0.523943
Si Si3 0.718263 0.626811 0.063884
Si Si4 0.871470 0.560171 0.890665
Si Si5 0.455442 0.747140 0.247940
Si Si6 0.445296 0.550152 0.446200
Si Si7 0.435054 0.846956 0.592692
Si Si8 0.034917 0.176052 0.450489
O O1 0.894449 0.841667 0.609895
O O2 0.736943 0.746906 0.883803
O O3 0.887880 0.006988 0.518259
O O4 0.000000 0.000000 0.000000
O O5 0.930584 0.539352 0.784200
O O6 0.733175 0.291009 0.519842
O O7 0.000000 0.500000 0.500000
O O8 0.874280 0.533987 0.222376
O O9 0.611954 0.513039 0.272354
O O10 0.867344 0.728072 0.270707
O O11 0.672094 0.538901 0.839243
O O12 0.707867 0.419350 0.742498
O O13 0.955738 0.722707 0.787883
O O14 0.528180 0.713148 0.360830
O O15 0.495755 0.838953 0.450274
O O16 0.461969 0.815589 0.929806
O O17 0.500000 0.500000 0.500000
O O18 0.500000 0.000000 0.500000
#
# Coordination Sequence:
#
# PCOD9082644 Si02
#       8
#     2   2   2   2   2   2   2   2
#     4   9  19  31  55  80 116 149 181 245 282 345
#     4  10  22  38  59  89 120 147 189 244 313 360
#     4  11  20  36  55  78 117 149 198 244 294 336
#     4  10  20  33  62  85 110 148 191 247 286 356
#     4  10  20  36  60  90 112 143 207 244 290 364
#     4  12  24  37  59  84 118 163 199 253 303 342
#     4  10  21  38  66  89 114 157 196 250 305 361
#     4  10  19  33  56  88 110 150 198 240 289 338
#
# _framework density 21.489885000000001
#
# number of rings (size 3 to 8) (size 9 to 14) (size 15 to 20)
#    0.000    1.750    2.500    1.875    7.000    0.000 
#    0.000    0.000    8.250    0.000    0.000    0.000 
#    0.000    0.000    0.000    0.000    0.000    0.000 
#
# Total GULP energy -89210.823250 kJ/mol
# GULP energy per Si atom -5575.676453 kJ/mol
# Density = 2.144097 g / cm^3
# Si number density = 21.489885 Si / 1000 Ang^3
#
#
#
# Elastic Constant Matrix: (Units=GPa)
#
#
# Indices 1 2 3 4 5 6 
#
# 1 67.3966 40.7673 25.3201 -5.7275 -5.0893 -28.3872
# 2 40.7673 134.2931 61.1913 -38.7769 -4.8305 -33.3953
# 3 25.3201 61.1913 90.4661 -26.6941 -20.6404 -15.7275
# 4 -5.7275 -38.7769 -26.6941 48.8668 -9.2691 1.2281
# 5 -5.0893 -4.8305 -20.6404 -9.2691 34.1036 1.5624
# 6 -28.3872 -33.3953 -15.7275 1.2281 1.5624 32.7811
#
#
#
# Elastic Compliance Matrix: (Units=1/GPa)
#
#
# Indices 1 2 3 4 5 6 
#
# 1 0.024576 -0.001910 -0.002128 -0.000016 0.001268 0.018255
# 2 -0.001910 0.016223 -0.005349 0.009586 0.000835 0.011907
# 3 -0.002128 -0.005349 0.022169 0.010419 0.015071 0.002235
# 4 -0.000016 0.009586 0.010419 0.036680 0.017055 0.012564
# 5 0.001268 0.000835 0.015071 0.017055 0.043090 0.006487
# 6 0.018255 0.011907 0.002235 0.012564 0.006487 0.058736
#
#
# Mechanical properties :
#
#
# Convention : Reuss Voigt Hill
#
# Bulk Modulus (GPa) = 22.62814 60.74594 41.68704
# Shear Modulus (GPa) = 21.27848 34.14212 27.71030
#
# Velocity S-wave (km/s) = 3.15010 3.99024 3.59480
# Velocity P-wave (km/s) = 4.87682 7.03974 6.05563
#
# Compressibility (1/GPa) = 0.04419277
#
# Stress axis : x y z
#
# Youngs Moduli (GPa) = 40.69037 61.64157 45.10773
#
# Poissons Ratio (x) = 0.11776 0.09599
# Poissons Ratio (y) = 0.07773 0.24129
# Poissons Ratio (z) = 0.08659 0.32973
#
# Static dielectric constant tensor:
#      x y z
#    x 1.900270 0.037870 0.052040 
#    y 0.037870 1.814020 -0.011510 
#    z 0.052040 -0.011510 1.852050 
# 
# From -- ./inp_files/110686.got.cif
#   From: 2010.05.17/outbox.cif.g08.bks.cpg/sg2_56_cif.got.tgz:110686.got - 2010.06.03 11:33:40.
