data_PCOD9082181
_publ_section_title
;
Structure prediction by ZEFSAII (Michael W. Deem and Ramdas Pophale) SiO2 
 PCOD9082181
Probable space group: P -1
;
_chemical_formula_sum "Si O2"
_cell_formula_units_Z 16
_cell_length_a 11.581472
_cell_length_b 14.043150
_cell_length_c 14.966430
_cell_angle_alpha 49.884508
_cell_angle_beta 111.157526
_cell_angle_gamma 149.747652
_cell_volume 807.928935
_symmetry_space_group_name_H-M "P -1"
_symmetry_group_IT_number 2
_symmetry_cell_setting 'triclinic'
loop_
_space_group_symop_operation_xyz
x,y,z
-x,-y,-z
loop_
_atom_site_type_symbol
_atom_site_label
_atom_site_fract_x
_atom_site_fract_y
_atom_site_fract_z
Si Si1 0.362377 0.698464 0.181106
Si Si2 0.392993 0.869240 0.803642
Si Si3 0.331511 0.402396 0.430033
Si Si4 0.395653 0.816267 0.505279
Si Si5 0.248032 0.103610 0.480480
Si Si6 0.976443 0.285668 0.991798
Si Si7 0.015463 0.755986 0.794932
Si Si8 0.899720 0.309500 0.781331
O O1 0.398266 0.604605 0.305644
O O2 0.219908 0.523660 0.156076
O O3 0.170328 0.624747 0.223417
O O4 0.655993 0.014892 0.058892
O O5 0.162097 0.566375 0.901786
O O6 0.244116 0.855563 0.811255
O O7 0.541631 0.054865 0.645933
O O8 0.619760 0.016956 0.840675
O O9 0.500000 0.500000 0.500000
O O10 0.379602 0.353210 0.388483
O O11 0.009458 0.114793 0.522699
O O12 0.559558 0.833532 0.535749
O O13 0.096391 0.517846 0.629742
O O14 0.500000 0.000000 0.500000
O O15 0.130725 0.954728 0.634621
O O16 0.034608 0.331213 0.874093
O O17 0.036160 0.246710 0.115918
#
# Coordination Sequence:
#
# PCOD9082181 Si02
#       8
#     2   2   2   2   2   2   2   2
#     4  11  22  34  57  87 119 149 192 238 287 345
#     4  11  22  33  52  79 117 158 185 226 285 340
#     4  10  20  37  60  87 111 150 195 241 296 326
#     4  11  21  42  57  83 123 155 191 231 289 353
#     4   9  21  39  59  85 120 147 189 246 286 338
#     4  12  21  34  53  81 125 152 191 228 287 347
#     4  10  19  33  52  82 114 152 182 235 284 337
#     4  12  23  35  55  87 120 158 184 229 289 353
#
# _framework density 19.803722
#
# number of rings (size 3 to 8) (size 9 to 14) (size 15 to 20)
#    0.000    1.250    3.750    4.125    1.750    0.000 
#    2.250    0.000    0.000    0.750    0.000   13.125 
#    0.000    0.000    0.000    0.000    0.000    0.000 
#
# Total GULP energy -89154.809814 kJ/mol
# GULP energy per Si atom -5572.175613 kJ/mol
# Density = 1.975865 g / cm^3
# Si number density = 19.803722 Si / 1000 Ang^3
#
#
#
# Elastic Constant Matrix: (Units=GPa)
#
#
# Indices 1 2 3 4 5 6 
#
# 1 71.9348 21.1864 22.1970 -6.3174 6.3531 1.2641
# 2 21.1864 122.1036 36.3907 7.1819 2.2121 4.4835
# 3 22.1970 36.3907 96.0895 -2.3959 -8.8598 6.1471
# 4 -6.3174 7.1819 -2.3959 36.4985 -3.7556 4.1917
# 5 6.3531 2.2121 -8.8598 -3.7556 11.4783 4.4496
# 6 1.2641 4.4835 6.1471 4.1917 4.4496 18.0189
#
#
#
# Elastic Compliance Matrix: (Units=1/GPa)
#
#
# Indices 1 2 3 4 5 6 
#
# 1 0.017142 -0.001440 -0.004982 0.000966 -0.014358 0.004176
# 2 -0.001440 0.009916 -0.004117 -0.003209 -0.005815 0.001221
# 3 -0.004982 -0.004117 0.015835 0.004345 0.021175 -0.010268
# 4 0.000966 -0.003209 0.004345 0.031894 0.018845 -0.012825
# 5 -0.014358 -0.005815 0.021175 0.018845 0.135190 -0.042538
# 6 0.004176 0.001221 -0.010268 -0.012825 -0.042538 0.071891
#
#
# Mechanical properties :
#
#
# Convention : Reuss Voigt Hill
#
# Bulk Modulus (GPa) = 45.83807 49.96402 47.90104
# Shear Modulus (GPa) = 16.11774 27.22272 21.67023
#
# Velocity S-wave (km/s) = 2.85594 3.71162 3.31153
# Velocity P-wave (km/s) = 5.83709 6.60701 6.23395
#
# Compressibility (1/GPa) = 0.02181593
#
# Stress axis : x y z
#
# Youngs Moduli (GPa) = 58.33533 100.84849 63.15285
#
# Poissons Ratio (x) = 0.14520 0.31460
# Poissons Ratio (y) = 0.08399 0.26000
# Poissons Ratio (z) = 0.29060 0.41520
#
# Static dielectric constant tensor:
#      x y z
#    x 1.683130 -0.012520 0.001800 
#    y -0.012520 1.743610 0.038500 
#    z 0.001800 0.038500 1.812050 
# 
# From -- ./inp_files/433091.got.cif
#   From: 2010.05.17/outbox.cif.g08.bks.cpg/sg2_217_cif.got.tgz:433091.got - 2010.06.03 11:33:40.
