data_PCOD9082174
_publ_section_title
;
Structure prediction by ZEFSAII (Michael W. Deem and Ramdas Pophale) SiO2 
 PCOD9082174
Probable space group: P -1
;
_chemical_formula_sum "Si O2"
_cell_formula_units_Z 16
_cell_length_a 8.500393
_cell_length_b 14.885206
_cell_length_c 6.715068
_cell_angle_alpha 96.697074
_cell_angle_beta 101.049298
_cell_angle_gamma 57.024474
_cell_volume 699.489730
_symmetry_space_group_name_H-M "P -1"
_symmetry_group_IT_number 2
_symmetry_cell_setting 'triclinic'
loop_
_space_group_symop_operation_xyz
x,y,z
-x,-y,-z
loop_
_atom_site_type_symbol
_atom_site_label
_atom_site_fract_x
_atom_site_fract_y
_atom_site_fract_z
Si Si1 0.466567 0.218257 0.302390
Si Si2 0.886986 0.197686 0.878448
Si Si3 0.983345 0.740520 0.462661
Si Si4 0.481722 0.581860 0.223214
Si Si5 0.375862 0.883174 0.280545
Si Si6 0.746888 0.885376 0.788428
Si Si7 0.735466 0.661502 0.339046
Si Si8 0.385980 0.640866 0.686855
O O1 0.610085 0.132325 0.479327
O O2 0.371952 0.161407 0.159781
O O3 0.304115 0.316139 0.425898
O O4 0.569488 0.268599 0.228531
O O5 0.966955 0.206333 0.687509
O O6 0.703371 0.318157 0.897343
O O7 0.802692 0.122505 0.831340
O O8 0.060059 0.154844 0.058306
O O9 0.165035 0.682823 0.635082
O O10 0.807746 0.831929 0.570036
O O11 0.929254 0.656616 0.348105
O O12 0.676999 0.579127 0.234908
O O13 0.443228 0.612995 0.459056
O O14 0.501342 0.468298 0.189986
O O15 0.567375 0.773860 0.235377
O O16 0.364349 0.988182 0.232090
#
# Coordination Sequence:
#
# PCOD9082174 Si02
#       8
#     2   2   2   2   2   2   2   2
#     4   8  16  32  51  75 105 139 176 204 258 323
#     4  10  20  37  52  82 106 132 183 217 249 322
#     4  10  19  33  52  81 109 128 183 221 245 310
#     4   8  15  31  55  73 104 144 168 207 277 304
#     4   9  17  36  54  73 109 146 169 208 268 314
#     4  11  21  33  58  75 107 146 167 217 270 292
#     4   7  15  29  51  74 102 136 172 215 246 315
#     4   9  15  31  54  76 103 141 172 214 260 316
#
# _framework density 22.873818
#
# number of rings (size 3 to 8) (size 9 to 14) (size 15 to 20)
#    0.750    2.250    2.500    0.750    0.000    1.000 
#    0.000    5.625    0.000    0.000    0.000    0.000 
#    0.000    0.000    0.000    0.000    0.000    0.000 
#
# Total GULP energy -89222.218238 kJ/mol
# GULP energy per Si atom -5576.388640 kJ/mol
# Density = 2.282176 g / cm^3
# Si number density = 22.873818 Si / 1000 Ang^3
#
#
#
# Elastic Constant Matrix: (Units=GPa)
#
#
# Indices 1 2 3 4 5 6 
#
# 1 123.9671 48.9634 17.7618 -2.9417 26.3420 48.1416
# 2 48.9634 76.0454 1.6188 -15.6872 2.5389 32.3865
# 3 17.7618 1.6188 48.7403 -5.7563 3.6675 7.0797
# 4 -2.9417 -15.6872 -5.7563 22.8999 4.7332 -3.0466
# 5 26.3420 2.5389 3.6675 4.7332 33.9483 12.4111
# 6 48.1416 32.3865 7.0797 -3.0466 12.4111 35.4341
#
#
#
# Elastic Compliance Matrix: (Units=1/GPa)
#
#
# Indices 1 2 3 4 5 6 
#
# 1 0.019150 -0.004492 -0.003881 -0.002718 -0.006781 -0.018995
# 2 -0.004492 0.028186 0.005220 0.015821 0.006513 -0.021623
# 3 -0.003881 0.005220 0.023243 0.008410 0.000215 -0.003494
# 4 -0.002718 0.015821 0.008410 0.056754 -0.005882 -0.005507
# 5 -0.006781 0.006513 0.000215 -0.005882 0.039035 -0.010962
# 6 -0.018995 -0.021623 -0.003494 -0.005507 -0.010962 0.077855
#
#
# Mechanical properties :
#
#
# Convention : Reuss Voigt Hill
#
# Bulk Modulus (GPa) = 15.55883 42.82676 29.19280
# Shear Modulus (GPa) = 18.38548 30.48373 24.43461
#
# Velocity S-wave (km/s) = 2.83817 3.65456 3.27193
# Velocity P-wave (km/s) = 4.19012 6.04744 5.20234
#
# Compressibility (1/GPa) = 0.06427218
#
# Stress axis : x y z
#
# Youngs Moduli (GPa) = 52.21970 35.47826 43.02459
#
# Poissons Ratio (x) = 0.15937 0.16698
# Poissons Ratio (y) = 0.23458 -0.22459
# Poissons Ratio (z) = 0.20267 -0.18520
#
# Static dielectric constant tensor:
#      x y z
#    x 1.871100 0.004890 -0.028400 
#    y 0.004890 1.857110 0.072210 
#    z -0.028400 0.072210 1.951710 
# 
# From -- ./inp_files/196605.got.cif
#   From: 2010.05.17/outbox.cif.g08.bks.cpg/sg2_99_cif.got.tgz:196605.got - 2010.06.03 11:33:40.
