data_PCOD9082059
_publ_section_title
;
Structure prediction by ZEFSAII (Michael W. Deem and Ramdas Pophale) SiO2 
 PCOD9082059
Probable space group: P -1
;
_chemical_formula_sum "Si O2"
_cell_formula_units_Z 14
_cell_length_a 12.590300
_cell_length_b 5.653314
_cell_length_c 14.167783
_cell_angle_alpha 65.845095
_cell_angle_beta 122.051011
_cell_angle_gamma 131.826330
_cell_volume 634.458217
_symmetry_space_group_name_H-M "P -1"
_symmetry_group_IT_number 2
_symmetry_cell_setting 'triclinic'
loop_
_space_group_symop_operation_xyz
x,y,z
-x,-y,-z
loop_
_atom_site_type_symbol
_atom_site_label
_atom_site_fract_x
_atom_site_fract_y
_atom_site_fract_z
Si Si1 0.128220 0.445254 0.549785
Si Si2 0.381098 0.180655 0.263043
Si Si3 0.637432 0.484631 0.474039
Si Si4 0.244431 0.459309 0.278220
Si Si5 0.419310 0.545481 0.868861
Si Si6 0.097221 0.947009 0.743436
Si Si7 0.692932 0.082910 0.283954
O O1 0.216416 0.523026 0.481492
O O2 0.262583 0.682156 0.646255
O O3 0.000000 0.500000 0.500000
O O4 0.063811 0.101922 0.615535
O O5 0.482107 0.201282 0.396967
O O6 0.283358 0.305652 0.237200
O O7 0.490582 0.411135 0.192510
O O8 0.297923 0.824039 0.241154
O O9 0.659257 0.543923 0.585891
O O10 0.659422 0.776055 0.374245
O O11 0.061169 0.253307 0.242790
O O12 0.425519 0.867031 0.831221
O O13 0.242778 0.229935 0.825850
O O14 0.500000 0.500000 0.000000
O O15 0.167366 0.789330 0.744568
#
# Coordination Sequence:
#
# PCOD9082059 Si02
#       7
#     2   2   2   2   2   2   2
#     4  10  19  32  64  94 139 174 238 269 320 401
#     4  12  26  47  64 106 145 180 235 285 336 426
#     4  11  22  40  63 102 140 197 217 269 337 422
#     4  12  28  41  71 103 154 186 215 275 362 411
#     4  11  25  48  77  96 125 182 240 300 348 394
#     4  10  23  43  65 101 131 184 233 283 333 420
#     4  10  19  39  69  95 137 165 251 276 325 403
#
# _framework density 22.066071999999998
#
# number of rings (size 3 to 8) (size 9 to 14) (size 15 to 20)
#    0.000    1.143    4.286    3.429    8.000    2.857 
#    0.000    1.429    0.000    0.000    0.000    0.000 
#    0.000    0.000    0.000    0.000    0.000    0.000 
#
# Total GULP energy -78057.427731 kJ/mol
# GULP energy per Si atom -5575.530552 kJ/mol
# Density = 2.201585 g / cm^3
# Si number density = 22.066072 Si / 1000 Ang^3
#
#
#
# Elastic Constant Matrix: (Units=GPa)
#
#
# Indices 1 2 3 4 5 6 
#
# 1 177.0140 49.1656 27.6770 -5.7083 1.3037 -9.2484
# 2 49.1656 98.1327 17.7680 7.9548 2.9633 9.8583
# 3 27.6770 17.7680 88.6874 -1.6913 6.0348 0.0622
# 4 -5.7083 7.9548 -1.6913 21.1600 -2.2381 8.7570
# 5 1.3037 2.9633 6.0348 -2.2381 19.7950 0.2748
# 6 -9.2484 9.8583 0.0622 8.7570 0.2748 37.8918
#
#
#
# Elastic Compliance Matrix: (Units=1/GPa)
#
#
# Indices 1 2 3 4 5 6 
#
# 1 0.007097 -0.003721 -0.001478 0.002390 0.000781 0.002145
# 2 -0.003721 0.013084 -0.001430 -0.004918 -0.001790 -0.003160
# 3 -0.001478 -0.001430 0.012266 0.000841 -0.003331 -0.000179
# 4 0.002390 -0.004918 0.000841 0.055043 0.006697 -0.010908
# 5 0.000781 -0.001790 -0.003331 0.006697 0.052525 -0.001267
# 6 0.002145 -0.003160 -0.000179 -0.010908 -0.001267 0.030267
#
#
# Mechanical properties :
#
#
# Convention : Reuss Voigt Hill
#
# Bulk Modulus (GPa) = 52.11399 61.45057 56.78228
# Shear Modulus (GPa) = 26.32470 33.71759 30.02115
#
# Velocity S-wave (km/s) = 3.45772 3.91324 3.69251
# Velocity P-wave (km/s) = 6.29362 6.95175 6.63086
#
# Compressibility (1/GPa) = 0.01918871
#
# Stress axis : x y z
#
# Youngs Moduli (GPa) = 140.89843 76.43168 81.52483
#
# Poissons Ratio (x) = 0.28440 0.12053
# Poissons Ratio (y) = 0.52427 0.11656
# Poissons Ratio (z) = 0.20831 0.10928
#
# Static dielectric constant tensor:
#      x y z
#    x 1.864560 -0.017650 0.031330 
#    y -0.017650 1.949810 0.000390 
#    z 0.031330 0.000390 1.876190 
# 
# From -- ./inp_files/78251.got.cif
#   From: 2010.05.17/outbox.cif.g08.bks.cpg/sg2_40_cif.got.tgz:78251.got - 2010.06.03 11:33:40.
