data_PCOD9082455
_publ_section_title
;
Structure prediction by ZEFSAII (Michael W. Deem and Ramdas Pophale) SiO2 
 PCOD9082455
Probable space group: P -1
;
_chemical_formula_sum "Si O2"
_cell_formula_units_Z 16
_cell_length_a 12.170310
_cell_length_b 9.334716
_cell_length_c 14.637104
_cell_angle_alpha 117.853973
_cell_angle_beta 49.152451
_cell_angle_gamma 79.375119
_cell_volume 757.006467
_symmetry_space_group_name_H-M "P -1"
_symmetry_group_IT_number 2
_symmetry_cell_setting 'triclinic'
loop_
_space_group_symop_operation_xyz
x,y,z
-x,-y,-z
loop_
_atom_site_type_symbol
_atom_site_label
_atom_site_fract_x
_atom_site_fract_y
_atom_site_fract_z
Si Si1 0.650211 0.992659 0.546930
Si Si2 0.327714 0.584203 0.692103
Si Si3 0.119320 0.094518 0.980942
Si Si4 0.952611 0.797089 0.673410
Si Si5 0.171450 0.288030 0.445674
Si Si6 0.197315 0.217623 0.798275
Si Si7 0.354337 0.667517 0.405807
Si Si8 0.440695 0.855215 0.887099
O O1 0.413959 0.121487 0.689748
O O2 0.658559 0.179635 0.614882
O O3 0.742449 0.829439 0.537210
O O4 0.778972 0.852685 0.340995
O O5 0.500000 0.500000 0.500000
O O6 0.479767 0.388747 0.628227
O O7 0.123195 0.654853 0.787975
O O8 0.194621 0.846735 0.880334
O O9 0.154538 0.107121 0.859653
O O10 0.290597 0.032982 0.936724
O O11 0.031792 0.565144 0.607423
O O12 0.118538 0.806163 0.607983
O O13 0.949004 0.757672 0.555720
O O14 0.719028 0.022822 0.905425
O O15 0.362273 0.184436 0.241655
O O16 0.000000 0.500000 0.000000
O O17 0.457963 0.407689 0.253016
#
# Coordination Sequence:
#
# PCOD9082455 Si02
#       8
#     2   2   2   2   2   2   2   2
#     4  11  24  41  61  87 130 159 202 255 305 356
#     4  10  19  33  55  80 117 154 192 241 292 347
#     4  10  20  33  54  85 112 154 201 232 291 360
#     4  10  22  40  65  89 119 158 210 254 304 354
#     4  10  22  41  64  91 117 161 205 256 305 359
#     4  11  24  39  58  88 124 167 202 241 303 374
#     4  10  22  38  57  90 122 159 199 251 306 358
#     4  10  20  39  63  87 122 155 207 255 298 359
#
# _framework density 21.135881999999999
#
# number of rings (size 3 to 8) (size 9 to 14) (size 15 to 20)
#    0.000    1.750    1.250    2.625    1.750    4.500 
#    0.000    0.625    0.000    0.000    0.000    0.000 
#    0.000    0.000    0.000    0.000    0.000    0.000 
#
# Total GULP energy -89177.811905 kJ/mol
# GULP energy per Si atom -5573.613244 kJ/mol
# Density = 2.108778 g / cm^3
# Si number density = 21.135882 Si / 1000 Ang^3
#
#
#
# Elastic Constant Matrix: (Units=GPa)
#
#
# Indices 1 2 3 4 5 6 
#
# 1 64.8411 30.0479 21.2058 2.7454 -8.3423 -14.2157
# 2 30.0479 100.7507 19.1097 -6.1359 0.4892 -7.9541
# 3 21.2058 19.1097 99.8652 -0.8405 -9.8689 0.0158
# 4 2.7454 -6.1359 -0.8405 22.5937 -3.2236 -4.0120
# 5 -8.3423 0.4892 -9.8689 -3.2236 19.0619 -5.7366
# 6 -14.2157 -7.9541 0.0158 -4.0120 -5.7366 23.2532
#
#
#
# Elastic Compliance Matrix: (Units=1/GPa)
#
#
# Indices 1 2 3 4 5 6 
#
# 1 0.024336 -0.005474 -0.002686 0.000485 0.014498 0.016668
# 2 -0.005474 0.012120 -0.001378 0.003684 -0.002555 0.000806
# 3 -0.002686 -0.001378 0.011311 0.000884 0.004616 -0.000830
# 4 0.000485 0.003684 0.000884 0.049437 0.012931 0.013275
# 5 0.014498 -0.002555 0.004616 0.012931 0.071858 0.027945
# 6 0.016668 0.000806 -0.000830 0.013275 0.027945 0.062655
#
#
# Mechanical properties :
#
#
# Convention : Reuss Voigt Hill
#
# Bulk Modulus (GPa) = 34.85390 45.13153 39.99271
# Shear Modulus (GPa) = 19.20440 25.98801 22.59621
#
# Velocity S-wave (km/s) = 3.01760 3.51032 3.27324
# Velocity P-wave (km/s) = 5.35419 6.15055 5.76613
#
# Compressibility (1/GPa) = 0.02869119
#
# Stress axis : x y z
#
# Youngs Moduli (GPa) = 41.09093 82.50994 88.40678
#
# Poissons Ratio (x) = 0.45162 0.23746
# Poissons Ratio (y) = 0.22491 0.12187
# Poissons Ratio (z) = 0.11037 0.11374
#
# Static dielectric constant tensor:
#      x y z
#    x 1.891570 0.011530 -0.017710 
#    y 0.011530 1.763860 0.002610 
#    z -0.017710 0.002610 1.792500 
# 
# From -- ./inp_files/529876.got.cif
#   From: 2010.05.17/outbox.cif.g08.bks.cpg/sg2_265_cif.got.tgz:529876.got - 2010.06.03 11:33:40.
