data_PCOD9082771
_publ_section_title
;
Structure prediction by ZEFSAII (Michael W. Deem and Ramdas Pophale) SiO2 
 PCOD9082771
Probable space group: P -1
;
_chemical_formula_sum "Si O2"
_cell_formula_units_Z 16
_cell_length_a 21.577872
_cell_length_b 9.908441
_cell_length_c 11.859339
_cell_angle_alpha 140.089791
_cell_angle_beta 150.469967
_cell_angle_gamma 51.688240
_cell_volume 792.722940
_symmetry_space_group_name_H-M "P -1"
_symmetry_group_IT_number 2
_symmetry_cell_setting 'triclinic'
loop_
_space_group_symop_operation_xyz
x,y,z
-x,-y,-z
loop_
_atom_site_type_symbol
_atom_site_label
_atom_site_fract_x
_atom_site_fract_y
_atom_site_fract_z
Si Si1 0.867351 0.250221 0.081495
Si Si2 0.618096 0.052327 0.887467
Si Si3 0.492750 0.628582 0.954054
Si Si4 0.943014 0.574011 0.695397
Si Si5 0.056799 0.966587 0.287638
Si Si6 0.883211 0.114647 0.419393
Si Si7 0.404330 0.718962 0.241988
Si Si8 0.238315 0.142601 0.498448
O O1 0.741115 0.340226 0.981503
O O2 0.812774 0.054651 0.788047
O O3 0.963758 0.406448 0.254240
O O4 0.949848 0.127659 0.221930
O O5 0.615363 0.230183 0.095618
O O6 0.615551 0.158110 0.827545
O O7 0.494676 0.871630 0.568562
O O8 0.754173 0.983892 0.080506
O O9 0.612869 0.807615 0.239009
O O10 0.500000 0.500000 0.000000
O O11 0.511525 0.462729 0.778555
O O12 0.910923 0.348499 0.558830
O O13 0.813254 0.650087 0.498084
O O14 0.001654 0.758311 0.993642
O O15 0.109698 0.889320 0.437286
O O16 0.173698 0.092108 0.483329
O O17 0.000000 0.000000 0.500000
#
# Coordination Sequence:
#
# PCOD9082771 Si02
#       8
#     2   2   2   2   2   2   2   2
#     4   9  17  35  64  92 116 148 196 255 290 341
#     4  10  22  38  54  85 121 151 195 245 289 351
#     4  10  19  33  57  89 116 151 194 243 297 345
#     4   9  19  36  61  89 115 154 202 240 292 352
#     4   9  20  36  60  87 118 162 187 239 306 347
#     4  12  24  40  55  84 125 156 193 243 295 358
#     4  10  19  35  61  88 115 151 195 250 295 331
#     4   9  17  35  61  89 121 147 200 250 290 347
#
# _framework density 20.183596000000001
#
# number of rings (size 3 to 8) (size 9 to 14) (size 15 to 20)
#    0.000    2.250    1.250    4.125    0.000    1.000 
#    4.500    3.750    0.000    1.500    0.000    0.000 
#    0.000    0.000    0.000    0.000    0.000    0.000 
#
# Total GULP energy -89142.840039 kJ/mol
# GULP energy per Si atom -5571.427502 kJ/mol
# Density = 2.013766 g / cm^3
# Si number density = 20.183596 Si / 1000 Ang^3
#
#
#
# Elastic Constant Matrix: (Units=GPa)
#
#
# Indices 1 2 3 4 5 6 
#
# 1 76.8348 39.2061 26.5053 -3.1503 -2.6675 -6.8496
# 2 39.2061 72.9982 21.5782 1.9388 -5.7323 2.4028
# 3 26.5053 21.5782 62.5847 -7.1535 -1.4827 -2.0561
# 4 -3.1503 1.9388 -7.1535 28.0401 -6.1935 4.1576
# 5 -2.6675 -5.7323 -1.4827 -6.1935 30.7906 1.0350
# 6 -6.8496 2.4028 -2.0561 4.1576 1.0350 39.2078
#
#
#
# Elastic Compliance Matrix: (Units=1/GPa)
#
#
# Indices 1 2 3 4 5 6 
#
# 1 0.019868 -0.009370 -0.004949 0.001033 -0.000178 0.003681
# 2 -0.009370 0.020032 -0.003240 -0.002313 0.002392 -0.002852
# 3 -0.004949 -0.003240 0.019772 0.004942 0.000920 -0.000177
# 4 0.001033 -0.002313 0.004942 0.039528 0.007976 -0.003821
# 5 -0.000178 0.002392 0.000920 0.007976 0.034620 -0.001889
# 6 0.003681 -0.002852 -0.000177 -0.003821 -0.001889 0.026769
#
#
# Mechanical properties :
#
#
# Convention : Reuss Voigt Hill
#
# Bulk Modulus (GPa) = 40.72582 42.99966 41.86274
# Shear Modulus (GPa) = 24.52285 27.94956 26.23620
#
# Velocity S-wave (km/s) = 3.48945 3.72528 3.60929
# Velocity P-wave (km/s) = 6.03792 6.31301 6.17700
#
# Compressibility (1/GPa) = 0.02455445
#
# Stress axis : x y z
#
# Youngs Moduli (GPa) = 50.33302 49.91899 50.57638
#
# Poissons Ratio (x) = 0.46775 0.25029
# Poissons Ratio (y) = 0.47163 0.16386
# Poissons Ratio (z) = 0.24908 0.16173
#
# Static dielectric constant tensor:
#      x y z
#    x 1.772700 -0.050910 -0.021750 
#    y -0.050910 1.719030 0.027800 
#    z -0.021750 0.027800 1.714390 
# 
# From -- ./inp_files/262795.got.cif
#   From: 2010.05.17/outbox.cif.g08.bks.cpg/sg2_132_cif.got.tgz:262795.got - 2010.06.03 11:33:40.
