data_PCOD9082151
_publ_section_title
;
Structure prediction by ZEFSAII (Michael W. Deem and Ramdas Pophale) SiO2 
 PCOD9082151
Probable space group: P -1
;
_chemical_formula_sum "Si O2"
_cell_formula_units_Z 16
_cell_length_a 14.587355
_cell_length_b 13.065123
_cell_length_c 15.600660
_cell_angle_alpha 151.044010
_cell_angle_beta 38.660288
_cell_angle_gamma 132.176372
_cell_volume 898.549036
_symmetry_space_group_name_H-M "P -1"
_symmetry_group_IT_number 2
_symmetry_cell_setting 'triclinic'
loop_
_space_group_symop_operation_xyz
x,y,z
-x,-y,-z
loop_
_atom_site_type_symbol
_atom_site_label
_atom_site_fract_x
_atom_site_fract_y
_atom_site_fract_z
Si Si1 0.274555 0.590243 0.193674
Si Si2 0.382755 0.158676 0.245597
Si Si3 0.181892 0.044848 0.601244
Si Si4 0.779455 0.499601 0.023289
Si Si5 0.396569 0.346215 0.071660
Si Si6 0.556397 0.478574 0.660466
Si Si7 0.476312 0.105886 0.326431
Si Si8 0.913080 0.098028 0.715272
O O1 0.282967 0.403520 0.120553
O O2 0.212615 0.808636 0.441081
O O3 0.194787 0.555495 0.135755
O O4 0.442691 0.614618 0.057309
O O5 0.375055 0.363808 0.341897
O O6 0.444882 0.205857 0.329625
O O7 0.232952 0.034095 0.267048
O O8 0.500000 0.000000 0.000000
O O9 0.201160 0.251094 0.796109
O O10 0.312749 0.056072 0.443141
O O11 0.021912 0.070096 0.695040
O O12 0.612931 0.455707 0.142959
O O13 0.876233 0.343157 0.898275
O O14 0.367556 0.498756 0.286140
O O15 0.419740 0.105588 0.910802
O O16 0.545015 0.256558 0.457717
O O17 0.000000 0.000000 0.500000
#
# Coordination Sequence:
#
# PCOD9082151 Si02
#       8
#     2   2   2   2   2   2   2   2
#     4   9  17  31  51  76 106 138 173 217 262 305
#     4  12  20  35  56  77 108 142 172 212 264 312
#     4  10  20  33  52  78 107 138 174 216 261 310
#     4  10  19  33  52  78 108 137 173 217 261 309
#     4   9  17  31  51  76 106 138 173 217 262 305
#     4  10  20  33  52  78 107 138 174 216 261 310
#     4  10  19  33  52  78 108 137 173 217 261 309
#     4  12  20  35  56  77 108 142 172 212 264 312
#
# _framework density 17.806484999999999
#
# number of rings (size 3 to 8) (size 9 to 14) (size 15 to 20)
#    0.000    1.750    5.000    1.500    0.000    1.000 
#    0.000    5.000    0.000    0.750    0.000    1.750 
#    0.000    0.000    0.000    0.000    0.000    0.000 
#
# Total GULP energy -89089.808449 kJ/mol
# GULP energy per Si atom -5568.113028 kJ/mol
# Density = 1.776596 g / cm^3
# Si number density = 17.806485 Si / 1000 Ang^3
#
#
#
# Elastic Constant Matrix: (Units=GPa)
#
#
# Indices 1 2 3 4 5 6 
#
# 1 72.9562 36.0154 26.9829 11.6327 1.9396 -12.4299
# 2 36.0154 52.1309 23.4689 5.8105 -1.5960 0.4244
# 3 26.9829 23.4689 62.6484 8.6914 8.1651 1.3142
# 4 11.6327 5.8105 8.6914 19.5917 -0.3051 -4.3260
# 5 1.9396 -1.5960 8.1651 -0.3051 19.8100 4.5439
# 6 -12.4299 0.4244 1.3142 -4.3260 4.5439 23.8939
#
#
#
# Elastic Compliance Matrix: (Units=1/GPa)
#
#
# Indices 1 2 3 4 5 6 
#
# 1 0.026905 -0.016302 -0.004194 -0.006172 -0.005633 0.014470
# 2 -0.016302 0.033793 -0.006723 0.000485 0.009489 -0.010427
# 3 -0.004194 -0.006723 0.022349 -0.006171 -0.008811 -0.002733
# 4 -0.006172 0.000485 -0.006171 0.058958 0.002412 0.007336
# 5 -0.005633 0.009489 -0.008811 0.002412 0.058516 -0.013305
# 6 0.014470 -0.010427 -0.002733 0.007336 -0.013305 0.053573
#
#
# Mechanical properties :
#
#
# Convention : Reuss Voigt Hill
#
# Bulk Modulus (GPa) = 34.95512 40.07443 37.51478
# Shear Modulus (GPa) = 15.71990 19.41036 17.56513
#
# Velocity S-wave (km/s) = 2.97445 3.30521 3.14418
# Velocity P-wave (km/s) = 5.60978 6.09264 5.85619
#
# Compressibility (1/GPa) = 0.02860811
#
# Stress axis : x y z
#
# Youngs Moduli (GPa) = 37.16810 29.59209 44.74472
#
# Poissons Ratio (x) = 0.48240 0.18767
# Poissons Ratio (y) = 0.60590 0.30083
# Poissons Ratio (z) = 0.15589 0.19896
#
# Static dielectric constant tensor:
#      x y z
#    x 1.626920 -0.018770 0.002990 
#    y -0.018770 1.601560 0.019750 
#    z 0.002990 0.019750 1.608320 
# 
# From -- ./inp_files/273928.got.cif
#   From: 2010.05.17/outbox.cif.g08.bks.cpg/sg2_137_cif.got.tgz:273928.got - 2010.06.03 11:33:40.
