data_PCOD9082145
_publ_section_title
;
Structure prediction by ZEFSAII (Michael W. Deem and Ramdas Pophale) SiO2 
 PCOD9082145
Probable space group: P -1
;
_chemical_formula_sum "Si O2"
_cell_formula_units_Z 14
_cell_length_a 10.817172
_cell_length_b 12.429210
_cell_length_c 7.140284
_cell_angle_alpha 79.096111
_cell_angle_beta 56.621088
_cell_angle_gamma 121.519898
_cell_volume 507.437948
_symmetry_space_group_name_H-M "P -1"
_symmetry_group_IT_number 2
_symmetry_cell_setting 'triclinic'
loop_
_space_group_symop_operation_xyz
x,y,z
-x,-y,-z
loop_
_atom_site_type_symbol
_atom_site_label
_atom_site_fract_x
_atom_site_fract_y
_atom_site_fract_z
Si Si1 0.858034 0.772528 0.648543
Si Si2 0.785834 0.135299 0.489232
Si Si3 0.364133 0.570584 0.120168
Si Si4 0.710110 0.537639 0.354565
Si Si5 0.661963 0.218053 0.865751
Si Si6 0.932263 0.085244 0.983705
Si Si7 0.412600 0.771570 0.492361
O O1 0.721421 0.581508 0.876168
O O2 0.991511 0.858697 0.313973
O O3 0.054115 0.880355 0.607607
O O4 0.641641 0.731817 0.830186
O O5 0.764071 0.227896 0.337806
O O6 0.523219 0.947577 0.800001
O O7 0.829897 0.226887 0.624187
O O8 0.295111 0.496618 0.411206
O O9 0.255647 0.627429 0.147243
O O10 0.500000 0.500000 0.500000
O O11 0.931030 0.739875 0.085006
O O12 0.674567 0.399626 0.329952
O O13 0.547972 0.203076 0.775860
O O14 0.000000 0.000000 0.000000
O O15 0.663521 0.940751 0.304189
#
# Coordination Sequence:
#
# PCOD9082145 Si02
#       7
#     2   2   2   2   2   2   2
#     4  10  19  34  49  80 106 133 170 211 272 297
#     4   9  16  30  50  71 109 128 166 218 251 313
#     4   9  20  32  50  77 107 132 172 217 252 312
#     4  10  19  33  52  77 105 135 175 212 254 307
#     4   8  15  30  46  72 100 130 164 212 250 303
#     4  11  19  31  54  76 105 139 167 222 252 299
#     4   9  17  33  47  78 103 127 179 204 256 307
#
# _framework density 27.589580000000002
#
# number of rings (size 3 to 8) (size 9 to 14) (size 15 to 20)
#    0.857    1.714    2.857    0.000    0.000    1.143 
#    2.571    0.000    0.000    0.857    0.000    5.000 
#    0.000    0.000    0.000    0.000    0.000    0.000 
#
# Total GULP energy -78153.294235 kJ/mol
# GULP energy per Si atom -5582.378160 kJ/mol
# Density = 2.752678 g / cm^3
# Si number density = 27.589580 Si / 1000 Ang^3
#
#
#
# Elastic Constant Matrix: (Units=GPa)
#
#
# Indices 1 2 3 4 5 6 
#
# 1 109.4986 33.0741 45.0100 -18.7222 1.4286 -32.6654
# 2 33.0741 125.8398 58.1358 -34.7880 2.0197 -38.3769
# 3 45.0100 58.1358 98.2101 -21.3517 -12.7862 -9.7463
# 4 -18.7222 -34.7880 -21.3517 57.8175 -2.3817 8.2932
# 5 1.4286 2.0197 -12.7862 -2.3817 49.6394 -2.5620
# 6 -32.6654 -38.3769 -9.7463 8.2932 -2.5620 43.3420
#
#
#
# Elastic Compliance Matrix: (Units=1/GPa)
#
#
# Indices 1 2 3 4 5 6 
#
# 1 0.015564 0.004499 -0.008129 0.002767 -0.001909 0.013243
# 2 0.004499 0.017970 -0.010102 0.006188 -0.002355 0.015707
# 3 -0.008129 -0.010102 0.019575 0.000224 0.005161 -0.010407
# 4 0.002767 0.006188 0.000224 0.021527 0.000942 0.003552
# 5 -0.001909 -0.002355 0.005161 0.000942 0.021605 -0.001266
# 6 0.013243 0.015707 -0.010407 0.003552 -0.001266 0.043866
#
#
# Mechanical properties :
#
#
# Convention : Reuss Voigt Hill
#
# Bulk Modulus (GPa) = 38.99266 67.33202 53.16234
# Shear Modulus (GPa) = 28.38997 43.31504 35.85250
#
# Velocity S-wave (km/s) = 3.21130 3.96659 3.60876
# Velocity P-wave (km/s) = 5.28334 6.74065 6.05599
#
# Compressibility (1/GPa) = 0.02564585
#
# Stress axis : x y z
#
# Youngs Moduli (GPa) = 64.25218 55.64980 51.08496
#
# Poissons Ratio (x) = -0.25037 0.41526
# Poissons Ratio (y) = -0.28908 0.51603
# Poissons Ratio (z) = 0.52230 0.56215
#
# Static dielectric constant tensor:
#      x y z
#    x 2.102050 0.096490 0.063350 
#    y 0.096490 2.483990 0.195260 
#    z 0.063350 0.195260 2.409750 
# 
# From -- ./inp_files/431173.got.cif
#   From: 2010.05.17/outbox.cif.g08.bks.cpg/sg2_216_cif.got.tgz:431173.got - 2010.06.03 11:33:40.
