data_PCOD9082767
_publ_section_title
;
Structure prediction by ZEFSAII (Michael W. Deem and Ramdas Pophale) SiO2 
 PCOD9082767
Probable space group: P -1
;
_chemical_formula_sum "Si O2"
_cell_formula_units_Z 16
_cell_length_a 25.812376
_cell_length_b 8.452372
_cell_length_c 26.158800
_cell_angle_alpha 142.384044
_cell_angle_beta 11.221376
_cell_angle_gamma 143.675501
_cell_volume 657.803595
_symmetry_space_group_name_H-M "P -1"
_symmetry_group_IT_number 2
_symmetry_cell_setting 'triclinic'
loop_
_space_group_symop_operation_xyz
x,y,z
-x,-y,-z
loop_
_atom_site_type_symbol
_atom_site_label
_atom_site_fract_x
_atom_site_fract_y
_atom_site_fract_z
Si Si1 0.802583 0.192948 0.255666
Si Si2 0.902020 0.094497 0.238499
Si Si3 0.533314 0.192735 0.822310
Si Si4 0.549271 0.548339 0.405329
Si Si5 0.992844 0.237652 0.608912
Si Si6 0.557764 0.965705 0.245483
Si Si7 0.884607 0.481178 0.677246
Si Si8 0.518288 0.893594 0.852939
O O1 0.892465 0.297160 0.252748
O O2 0.723910 0.408455 0.348039
O O3 0.500000 0.000000 0.500000
O O4 0.000000 0.000000 0.000000
O O5 0.693126 0.092751 0.486542
O O6 0.794518 0.812981 0.240558
O O7 0.194825 0.110558 0.983368
O O8 0.503463 0.167283 0.784108
O O9 0.511034 0.919105 0.805229
O O10 0.818678 0.417634 0.609452
O O11 0.284473 0.300664 0.112656
O O12 0.500000 0.500000 0.500000
O O13 0.628782 0.281088 0.242526
O O14 0.929000 0.458239 0.689544
O O15 0.000000 0.000000 0.500000
O O16 0.290241 0.295757 0.361885
O O17 0.757732 0.159866 0.859759
O O18 0.696556 0.194421 0.770338
#
# Coordination Sequence:
#
# PCOD9082767 Si02
#       8
#     2   2   2   2   2   2   2   2
#     4  10  19  33  57  89 112 138 186 242 285 335
#     4  10  20  38  60  83 112 150 194 240 288 346
#     4  12  24  38  58  88 124 159 198 247 297 355
#     4   9  19  36  61  85 112 148 191 237 288 341
#     4  10  20  37  62  90 117 149 198 252 298 352
#     4  11  23  39  56  82 118 156 192 236 292 351
#     4  11  21  39  61  86 117 159 200 243 299 358
#     4  11  21  38  63  91 117 151 201 253 297 350
#
# _framework density 24.323367999999999
#
# number of rings (size 3 to 8) (size 9 to 14) (size 15 to 20)
#    0.000    1.500    0.000    8.625    0.000    3.000 
#    0.000    3.750    0.000    1.500    0.000    0.000 
#    0.000    0.000    0.000    0.000    0.000    0.000 
#
# Total GULP energy -89329.040416 kJ/mol
# GULP energy per Si atom -5583.065026 kJ/mol
# Density = 2.426801 g / cm^3
# Si number density = 24.323368 Si / 1000 Ang^3
#
#
#
# Elastic Constant Matrix: (Units=GPa)
#
#
# Indices 1 2 3 4 5 6 
#
# 1 173.1116 17.9229 62.2125 5.9668 -14.2197 -29.5786
# 2 17.9229 35.1524 11.4830 -1.0272 -1.7101 0.4400
# 3 62.2125 11.4830 162.3526 -10.5708 -5.5328 -10.1960
# 4 5.9668 -1.0272 -10.5708 17.7460 -13.4256 3.6519
# 5 -14.2197 -1.7101 -5.5328 -13.4256 46.2826 -0.0085
# 6 -29.5786 0.4400 -10.1960 3.6519 -0.0085 44.8103
#
#
#
# Elastic Compliance Matrix: (Units=1/GPa)
#
#
# Indices 1 2 3 4 5 6 
#
# 1 0.008337 -0.003488 -0.002955 -0.005489 0.000488 0.005312
# 2 -0.003488 0.030675 -0.000727 0.004014 0.001138 -0.003096
# 3 -0.002955 -0.000727 0.007852 0.007415 0.002155 -0.000761
# 4 -0.005489 0.004014 0.007415 0.082167 0.023181 -0.008668
# 5 0.000488 0.001138 0.002155 0.023181 0.028780 -0.001083
# 6 0.005312 -0.003096 -0.000761 -0.008668 -0.001083 0.026386
#
#
# Mechanical properties :
#
#
# Convention : Reuss Voigt Hill
#
# Bulk Modulus (GPa) = 30.74815 61.53926 46.14371
# Shear Modulus (GPa) = 23.88014 40.36767 32.12391
#
# Velocity S-wave (km/s) = 3.13673 4.07827 3.63809
# Velocity P-wave (km/s) = 5.07815 6.89433 6.05473
#
# Compressibility (1/GPa) = 0.03252228
#
# Stress axis : x y z
#
# Youngs Moduli (GPa) = 119.95131 32.59965 127.36160
#
# Poissons Ratio (x) = 0.11372 0.37636
# Poissons Ratio (y) = 0.41844 0.09262
# Poissons Ratio (z) = 0.35446 0.02371
#
# Static dielectric constant tensor:
#      x y z
#    x 2.085800 -0.057560 -0.009990 
#    y -0.057560 2.089620 -0.014920 
#    z -0.009990 -0.014920 1.886110 
# 
# From -- ./inp_files/621168.got.cif
#   From: 2010.05.17/outbox.cif.g08.bks.cpg/sg2_311_cif.got.tgz:621168.got - 2010.06.03 11:33:40.
