data_PCOD9082670
_publ_section_title
;
Structure prediction by ZEFSAII (Michael W. Deem and Ramdas Pophale) SiO2 
 PCOD9082670
Probable space group: P -1
;
_chemical_formula_sum "Si O2"
_cell_formula_units_Z 14
_cell_length_a 7.566320
_cell_length_b 18.215659
_cell_length_c 8.664847
_cell_angle_alpha 141.198440
_cell_angle_beta 53.022654
_cell_angle_gamma 106.385804
_cell_volume 554.714408
_symmetry_space_group_name_H-M "P -1"
_symmetry_group_IT_number 2
_symmetry_cell_setting 'triclinic'
loop_
_space_group_symop_operation_xyz
x,y,z
-x,-y,-z
loop_
_atom_site_type_symbol
_atom_site_label
_atom_site_fract_x
_atom_site_fract_y
_atom_site_fract_z
Si Si1 0.160731 0.166217 0.206746
Si Si2 0.116634 0.590114 0.403984
Si Si3 0.857546 0.290773 0.106790
Si Si4 0.573287 0.150164 0.173861
Si Si5 0.445511 0.327783 0.798609
Si Si6 0.276354 0.769412 0.226907
Si Si7 0.887793 0.960142 0.289396
O O1 0.386525 0.117789 0.118713
O O2 0.105111 0.307641 0.399727
O O3 0.928893 0.180622 0.453563
O O4 0.177519 0.080363 0.908269
O O5 0.105818 0.614167 0.633094
O O6 0.337842 0.629431 0.297112
O O7 0.201939 0.443482 0.079863
O O8 0.627320 0.264461 0.249093
O O9 0.802904 0.310993 0.988416
O O10 0.075942 0.155545 0.802050
O O11 0.476252 0.204999 0.482005
O O12 0.839165 0.047957 0.875925
O O13 0.487904 0.300998 0.914237
O O14 0.276442 0.897022 0.354490
#
# Coordination Sequence:
#
# PCOD9082670 Si02
#       7
#     2   2   2   2   2   2   2
#     4  10  19  33  57  75  96 138 169 209 244 296
#     4   8  16  34  52  70 104 132 170 199 256 297
#     4   8  18  34  52  74 103 135 161 210 250 302
#     4   9  19  35  51  78 101 132 171 199 257 294
#     4   9  17  31  52  76  98 135 167 211 238 304
#     4  11  18  32  55  75 104 133 168 204 258 286
#     4   9  19  36  51  73 106 136 163 206 246 308
#
# _framework density 25.238212000000001
#
# number of rings (size 3 to 8) (size 9 to 14) (size 15 to 20)
#    0.857    2.000    2.857    0.857    0.000    1.714 
#    0.000    3.571    0.000    1.714    0.000    0.000 
#    0.000    0.000    0.000    0.000    0.000    0.000 
#
# Total GULP energy -78188.031697 kJ/mol
# GULP energy per Si atom -5584.859407 kJ/mol
# Density = 2.518077 g / cm^3
# Si number density = 25.238212 Si / 1000 Ang^3
#
#
#
# Elastic Constant Matrix: (Units=GPa)
#
#
# Indices 1 2 3 4 5 6 
#
# 1 110.3208 24.1433 2.3100 0.6431 2.5159 -28.4981
# 2 24.1433 37.1723 19.9166 -22.6671 -14.0082 -11.2593
# 3 2.3100 19.9166 60.5834 6.5444 -1.9474 -26.7651
# 4 0.6431 -22.6671 6.5444 22.0097 -19.4554 -9.7059
# 5 2.5159 -14.0082 -1.9474 -19.4554 15.8115 -15.0040
# 6 -28.4981 -11.2593 -26.7651 -9.7059 -15.0040 48.0698
#
#
#
# Elastic Compliance Matrix: (Units=1/GPa)
#
#
# Indices 1 2 3 4 5 6 
#
# 1 0.013321 -0.006513 0.007030 0.000589 0.005079 0.011990
# 2 -0.006513 0.012082 -0.011089 -0.015509 -0.026313 -0.018551
# 3 0.007030 -0.011089 0.029748 -0.001680 0.010713 0.021139
# 4 0.000589 -0.015509 -0.001680 -0.001641 -0.028953 -0.013587
# 5 0.005079 -0.026313 0.010713 -0.028953 0.002757 -0.002173
# 6 0.011990 -0.018551 0.021139 -0.013587 -0.002173 0.031915
#
#
# Mechanical properties :
#
#
# Convention : Reuss Voigt Hill
#
# Bulk Modulus (GPa) = 29.40709 33.42405 31.41557
# Shear Modulus (GPa) = 41.43779 27.95863 34.69821
#
# Velocity S-wave (km/s) = 4.05639 3.33196 3.71189
# Velocity P-wave (km/s) = 5.79795 5.29856 5.55387
#
# Compressibility (1/GPa) = 0.03400541
#
# Stress axis : x y z
#
# Youngs Moduli (GPa) = 75.07105 82.77051 33.61527
#
# Poissons Ratio (x) = 0.53911 -0.23632
# Poissons Ratio (y) = 0.48896 0.37277
# Poissons Ratio (z) = -0.52775 0.91787
#
# Static dielectric constant tensor:
#      x y z
#    x 1.952910 0.046620 -0.010600 
#    y 0.046620 2.112040 -0.005130 
#    z -0.010600 -0.005130 1.964390 
# 
# From -- ./inp_files/219971.got.cif
#   From: 2010.05.17/outbox.cif.g08.bks.cpg/sg2_110_cif.got.tgz:219971.got - 2010.06.03 11:33:40.
