data_PCOD9082291
_publ_section_title
;
Structure prediction by ZEFSAII (Michael W. Deem and Ramdas Pophale) SiO2 
 PCOD9082291
Probable space group: P -1
;
_chemical_formula_sum "Si O2"
_cell_formula_units_Z 16
_cell_length_a 11.880959
_cell_length_b 11.700760
_cell_length_c 11.492110
_cell_angle_alpha 109.564756
_cell_angle_beta 47.531473
_cell_angle_gamma 143.038275
_cell_volume 628.668934
_symmetry_space_group_name_H-M "P -1"
_symmetry_group_IT_number 2
_symmetry_cell_setting 'triclinic'
loop_
_space_group_symop_operation_xyz
x,y,z
-x,-y,-z
loop_
_atom_site_type_symbol
_atom_site_label
_atom_site_fract_x
_atom_site_fract_y
_atom_site_fract_z
Si Si1 0.008790 0.712395 0.245710
Si Si2 0.486886 0.042564 0.881543
Si Si3 0.849175 0.983707 0.326780
Si Si4 0.336124 0.723338 0.745374
Si Si5 0.548681 0.634448 0.913640
Si Si6 0.816277 0.218068 0.334774
Si Si7 0.550917 0.460465 0.659904
Si Si8 0.727808 0.391116 0.715354
O O1 0.830749 0.509518 0.217640
O O2 0.787073 0.629709 0.456370
O O3 0.220001 0.775876 0.200992
O O4 0.229368 0.927529 0.089089
O O5 0.400777 0.846414 0.852926
O O6 0.548074 0.152858 0.757634
O O7 0.625407 0.883069 0.539932
O O8 0.705536 0.777334 0.293991
O O9 0.910562 0.140512 0.254560
O O10 0.131875 0.136070 0.237268
O O11 0.164866 0.698126 0.770133
O O12 0.471193 0.529629 0.807195
O O13 0.500000 0.500000 0.000000
O O14 0.385630 0.634597 0.087492
O O15 0.957724 0.392088 0.397073
O O16 0.500000 0.000000 0.500000
O O17 0.666167 0.442843 0.671937
#
# Coordination Sequence:
#
# PCOD9082291 Si02
#       8
#     2   2   2   2   2   2   2   2
#     4  10  22  38  58  84 114 147 192 229 281 350
#     4  11  22  37  57  85 116 149 183 235 290 331
#     4  10  19  35  54  86 115 146 191 227 284 339
#     4  10  20  36  58  81 115 150 183 234 282 339
#     4  10  20  36  55  82 118 148 188 236 276 331
#     4  10  19  33  53  86 121 144 183 234 279 340
#     4  10  21  37  61  82 111 155 187 235 278 333
#     4  11  22  38  57  87 120 146 191 235 281 334
#
# _framework density 25.450595
#
# number of rings (size 3 to 8) (size 9 to 14) (size 15 to 20)
#    0.000    1.750    3.750    1.875    1.750    3.500 
#    2.250    0.625    0.000    3.000    0.000    0.000 
#    0.000    0.000    0.000    0.000    0.000    0.000 
#
# Total GULP energy -89371.746212 kJ/mol
# GULP energy per Si atom -5585.734138 kJ/mol
# Density = 2.539267 g / cm^3
# Si number density = 25.450595 Si / 1000 Ang^3
#
#
#
# Elastic Constant Matrix: (Units=GPa)
#
#
# Indices 1 2 3 4 5 6 
#
# 1 16.6648 -17.1365 -4.9288 -4.8039 0.0363 3.9242
# 2 -17.1365 59.8547 14.1126 -4.1632 20.6010 19.1117
# 3 -4.9288 14.1126 122.3366 -20.3684 15.5337 -11.2322
# 4 -4.8039 -4.1632 -20.3684 39.3045 0.5251 -1.8190
# 5 0.0363 20.6010 15.5337 0.5251 16.1658 -1.4087
# 6 3.9242 19.1117 -11.2322 -1.8190 -1.4087 27.6437
#
#
#
# Elastic Compliance Matrix: (Units=1/GPa)
#
#
# Indices 1 2 3 4 5 6 
#
# 1 -0.109350 -0.129250 -0.007320 -0.028225 0.182436 0.109346
# 2 -0.129250 -0.095331 -0.008595 -0.028220 0.138443 0.085961
# 3 -0.007320 -0.008595 0.010373 0.004080 0.001877 0.011560
# 4 -0.028225 -0.028220 0.004080 0.021978 0.033861 0.028347
# 5 0.182436 0.138443 0.001877 0.033861 -0.128788 -0.125184
# 6 0.109346 0.085961 0.011560 0.028347 -0.125184 -0.038595
#
#
# Mechanical properties :
#
#
# Convention : Reuss Voigt Hill
#
# Bulk Modulus (GPa) = -2.06340 20.32784 9.13222
# Shear Modulus (GPa) = -23.70477 30.41005 3.35264
#
# Velocity S-wave (km/s) = -3.05520 3.46043 1.14899
# Velocity P-wave (km/s) = 3.64118 4.89598 2.31435
#
# Compressibility (1/GPa) = -0.48463795
#
# Stress axis : x y z
#
# Youngs Moduli (GPa) = -9.14496 -10.48979 96.40203
#
# Poissons Ratio (x) = -1.35581 0.70569
# Poissons Ratio (y) = -1.18199 0.82857
# Poissons Ratio (z) = -0.06694 -0.09016
#
# Static dielectric constant tensor:
#      x y z
#    x 2.026020 -0.042780 -0.046510 
#    y -0.042780 2.086460 0.052610 
#    z -0.046510 0.052610 2.071680 
# 
# From -- ./inp_files/433105.got.cif
#   From: 2010.05.17/outbox.cif.g08.bks.cpg/sg2_217_cif.got.tgz:433105.got - 2010.06.03 11:33:40.
