data_PCOD9082095
_publ_section_title
;
Structure prediction by ZEFSAII (Michael W. Deem and Ramdas Pophale) SiO2 
 PCOD9082095
Probable space group: P -1
;
_chemical_formula_sum "Si O2"
_cell_formula_units_Z 16
_cell_length_a 23.400782
_cell_length_b 8.950528
_cell_length_c 5.618725
_cell_angle_alpha 129.101830
_cell_angle_beta 115.877706
_cell_angle_gamma 37.828136
_cell_volume 555.368158
_symmetry_space_group_name_H-M "P -1"
_symmetry_group_IT_number 2
_symmetry_cell_setting 'triclinic'
loop_
_space_group_symop_operation_xyz
x,y,z
-x,-y,-z
loop_
_atom_site_type_symbol
_atom_site_label
_atom_site_fract_x
_atom_site_fract_y
_atom_site_fract_z
Si Si1 0.693193 0.737879 0.065040
Si Si2 0.594270 0.913981 0.561703
Si Si3 0.175017 0.847168 0.133874
Si Si4 0.962555 0.303373 0.215242
Si Si5 0.026229 0.712058 0.277522
Si Si6 0.360351 0.746024 0.002336
Si Si7 0.604940 0.345576 0.522167
Si Si8 0.182307 0.989488 0.791123
O O1 0.635711 0.792601 0.247705
O O2 0.798262 0.427533 0.003384
O O3 0.675355 0.005139 0.305037
O O4 0.656698 0.747656 0.751043
O O5 0.500000 0.000000 0.500000
O O6 0.588042 0.163656 0.809261
O O7 0.206183 0.794233 0.863791
O O8 0.067522 0.159578 0.246292
O O9 0.213970 0.875849 0.462005
O O10 0.921063 0.441435 0.534163
O O11 0.919208 0.450176 0.030340
O O12 0.000000 0.000000 0.000000
O O13 0.929622 0.806204 0.212263
O O14 0.000000 0.000000 0.500000
O O15 0.391196 0.567338 0.641003
O O16 0.248083 0.017076 0.029213
O O17 0.377922 0.601037 0.136787
O O18 0.500000 0.500000 0.500000
#
# Coordination Sequence:
#
# PCOD9082095 Si02
#       8
#     2   2   2   2   2   2   2   2
#     4  10  21  38  55  76  99 137 181 219 269 318
#     4  10  21  40  57  71  98 133 187 230 270 321
#     4  10  19  33  50  79 114 138 170 219 266 317
#     4   8  14  25  44  69 104 139 167 199 251 308
#     4   8  14  25  44  69 104 139 167 199 251 308
#     4  10  21  38  55  76  99 137 181 219 269 318
#     4  10  21  40  57  71  98 133 187 230 270 321
#     4  10  19  33  50  79 114 138 170 219 266 317
#
# _framework density 28.809722000000001
#
# number of rings (size 3 to 8) (size 9 to 14) (size 15 to 20)
#    0.000    2.500    0.000    2.250    0.000    0.000 
#   27.000    0.000    0.000    0.000    0.000    0.000 
#    0.000  384.000    0.000    0.000    0.000    0.000 
#
# Total GULP energy -89274.266408 kJ/mol
# GULP energy per Si atom -5579.641651 kJ/mol
# Density = 2.874415 g / cm^3
# Si number density = 28.809722 Si / 1000 Ang^3
#
#
#
# Elastic Constant Matrix: (Units=GPa)
#
#
# Indices 1 2 3 4 5 6 
#
# 1 128.0713 35.8927 80.7358 -18.4145 -24.0225 29.6540
# 2 35.8927 113.7819 57.3484 -15.5365 -21.8161 19.4584
# 3 80.7358 57.3484 147.2565 -62.2778 -50.9692 35.3304
# 4 -18.4145 -15.5365 -62.2778 74.6231 36.0887 -8.8894
# 5 -24.0225 -21.8161 -50.9692 36.0887 81.8972 -17.0682
# 6 29.6540 19.4584 35.3304 -8.8894 -17.0682 47.7312
#
#
#
# Elastic Compliance Matrix: (Units=1/GPa)
#
#
# Indices 1 2 3 4 5 6 
#
# 1 0.013008 -0.000096 -0.008084 -0.003823 -0.000145 -0.002822
# 2 -0.000096 0.011227 -0.004654 -0.002064 0.000726 -0.001197
# 3 -0.008084 -0.004654 0.020209 0.012044 0.002649 -0.004849
# 4 -0.003823 -0.002064 0.012044 0.024405 -0.005587 -0.003151
# 5 -0.000145 0.000726 0.002649 -0.005587 0.017076 0.002899
# 6 -0.002822 -0.001197 -0.004849 -0.003151 0.002899 0.027231
#
#
# Mechanical properties :
#
#
# Convention : Reuss Voigt Hill
#
# Bulk Modulus (GPa) = 53.26113 81.89597 67.57855
# Shear Modulus (GPa) = 34.46286 55.19250 44.82768
#
# Velocity S-wave (km/s) = 3.46240 4.38169 3.94889
# Velocity P-wave (km/s) = 5.87466 7.35440 6.65578
#
# Compressibility (1/GPa) = 0.01877542
#
# Stress axis : x y z
#
# Youngs Moduli (GPa) = 76.87580 89.07222 49.48185
#
# Poissons Ratio (x) = 0.00854 0.40003
# Poissons Ratio (y) = 0.00737 0.23030
# Poissons Ratio (z) = 0.62150 0.41456
#
# Static dielectric constant tensor:
#      x y z
#    x 2.217500 -0.043080 0.086870 
#    y -0.043080 2.229710 0.017130 
#    z 0.086870 0.017130 2.215170 
# 
# From -- ./inp_files/105205.got.cif
#   From: 2010.05.17/outbox.cif.g08.bks.cpg/sg2_53_cif.got.tgz:105205.got - 2010.06.03 11:33:40.
