data_PCOD9082655
_publ_section_title
;
Structure prediction by ZEFSAII (Michael W. Deem and Ramdas Pophale) SiO2 
 PCOD9082655
Probable space group: P -1
;
_chemical_formula_sum "Si O2"
_cell_formula_units_Z 14
_cell_length_a 8.591410
_cell_length_b 16.240287
_cell_length_c 17.191301
_cell_angle_alpha 152.500286
_cell_angle_beta 134.872761
_cell_angle_gamma 34.289200
_cell_volume 620.517399
_symmetry_space_group_name_H-M "P -1"
_symmetry_group_IT_number 2
_symmetry_cell_setting 'triclinic'
loop_
_space_group_symop_operation_xyz
x,y,z
-x,-y,-z
loop_
_atom_site_type_symbol
_atom_site_label
_atom_site_fract_x
_atom_site_fract_y
_atom_site_fract_z
Si Si1 0.286077 0.689975 0.389113
Si Si2 0.661598 0.883966 0.062071
Si Si3 0.943118 0.760459 0.910242
Si Si4 0.226105 0.145377 0.745438
Si Si5 0.913049 0.366502 0.312616
Si Si6 0.771564 0.022637 0.787073
Si Si7 0.223479 0.746672 0.589222
O O1 0.600060 0.467211 0.306860
O O2 0.158291 0.733623 0.466266
O O3 0.087411 0.696502 0.262496
O O4 0.303774 0.895915 0.556956
O O5 0.738652 0.807122 0.113524
O O6 0.345554 0.006645 0.027364
O O7 0.701019 0.080268 0.234854
O O8 0.855785 0.707432 0.914682
O O9 0.051742 0.609016 0.745351
O O10 0.166742 0.799431 0.041445
O O11 0.449564 0.136660 0.764640
O O12 0.000000 0.500000 0.500000
O O13 0.116858 0.114445 0.206953
O O14 0.969922 0.843218 0.639708
O O15 0.500000 0.500000 0.500000
#
# Coordination Sequence:
#
# PCOD9082655 Si02
#       7
#     2   2   2   2   2   2   2
#     4  10  21  36  56  84 119 150 181 233 289 328
#     4   9  19  36  56  82 112 154 184 228 284 340
#     4  10  21  35  58  84 113 147 190 234 282 327
#     4  10  20  37  58  82 115 154 186 224 286 344
#     4  12  20  35  60  89 109 142 195 239 274 329
#     4  11  21  34  60  85 114 147 191 236 274 333
#     4  10  19  33  56  89 116 139 191 243 272 321
#
# _framework density 22.561817000000001
#
# number of rings (size 3 to 8) (size 9 to 14) (size 15 to 20)
#    0.000    1.714    4.286    1.286    0.000    0.571 
#    0.000    1.429    0.000    0.000    0.000    0.000 
#    0.000    0.000    0.000    0.000    0.000    0.000 
#
# Total GULP energy -78261.993188 kJ/mol
# GULP energy per Si atom -5590.142371 kJ/mol
# Density = 2.251047 g / cm^3
# Si number density = 22.561817 Si / 1000 Ang^3
#
#
#
# Elastic Constant Matrix: (Units=GPa)
#
#
# Indices 1 2 3 4 5 6 
#
# 1 116.1847 17.0756 43.6172 -19.4584 -31.7679 -24.2597
# 2 17.0756 62.4650 12.5681 -30.5202 -3.6206 -20.2973
# 3 43.6172 12.5681 68.8802 -10.2299 -19.3559 -7.5263
# 4 -19.4584 -30.5202 -10.2299 31.6590 7.4361 5.3841
# 5 -31.7679 -3.6206 -19.3559 7.4361 48.1859 -2.0378
# 6 -24.2597 -20.2973 -7.5263 5.3841 -2.0378 27.3878
#
#
#
# Elastic Compliance Matrix: (Units=1/GPa)
#
#
# Indices 1 2 3 4 5 6 
#
# 1 0.018534 0.009569 -0.006871 0.012918 0.009020 0.019752
# 2 0.009569 0.045989 -0.003578 0.042632 0.003162 0.033430
# 3 -0.006871 -0.003578 0.019932 -0.001554 0.003333 -0.002707
# 4 0.012918 0.042632 -0.001554 0.075226 0.000665 0.027871
# 5 0.009020 0.003162 0.003333 0.000665 0.028734 0.013256
# 6 0.019752 0.033430 -0.002707 0.027871 0.013256 0.073547
#
#
# Mechanical properties :
#
#
# Convention : Reuss Voigt Hill
#
# Bulk Modulus (GPa) = 12.09268 43.78352 27.93810
# Shear Modulus (GPa) = 17.16522 33.06447 25.11485
#
# Velocity S-wave (km/s) = 2.76127 3.83235 3.34002
# Velocity P-wave (km/s) = 3.94177 6.24745 5.22342
#
# Compressibility (1/GPa) = 0.08269465
#
# Stress axis : x y z
#
# Youngs Moduli (GPa) = 53.95424 21.74453 50.17127
#
# Poissons Ratio (x) = -0.20807 0.34472
# Poissons Ratio (y) = -0.51628 0.17950
# Poissons Ratio (z) = 0.37072 0.07780
#
# Static dielectric constant tensor:
#      x y z
#    x 1.884580 0.028860 0.002160 
#    y 0.028860 1.806130 0.021820 
#    z 0.002160 0.021820 1.865760 
# 
# From -- ./inp_files/153863.got.cif
#   From: 2010.05.17/outbox.cif.g08.bks.cpg/sg2_77_cif.got.tgz:153863.got - 2010.06.03 11:33:40.
