data_PCOD9082217
_publ_section_title
;
Structure prediction by ZEFSAII (Michael W. Deem and Ramdas Pophale) SiO2 
 PCOD9082217
Probable space group: P -1
;
_chemical_formula_sum "Si O2"
_cell_formula_units_Z 16
_cell_length_a 11.452312
_cell_length_b 5.152758
_cell_length_c 15.096180
_cell_angle_alpha 91.426663
_cell_angle_beta 90.441072
_cell_angle_gamma 65.227759
_cell_volume 808.611532
_symmetry_space_group_name_H-M "P -1"
_symmetry_group_IT_number 2
_symmetry_cell_setting 'triclinic'
loop_
_space_group_symop_operation_xyz
x,y,z
-x,-y,-z
loop_
_atom_site_type_symbol
_atom_site_label
_atom_site_fract_x
_atom_site_fract_y
_atom_site_fract_z
Si Si1 0.824908 0.410548 0.666504
Si Si2 0.507143 0.230244 0.896468
Si Si3 0.298408 0.066968 0.956871
Si Si4 0.002003 0.748808 0.704429
Si Si5 0.105704 0.919416 0.876565
Si Si6 0.373040 0.407921 0.183258
Si Si7 0.912877 0.330667 0.481355
Si Si8 0.135785 0.585242 0.057199
O O1 0.917104 0.565005 0.698414
O O2 0.692800 0.537304 0.720991
O O3 0.808324 0.436919 0.559885
O O4 0.901604 0.075708 0.687093
O O5 0.568411 0.923553 0.844921
O O6 0.366251 0.265888 0.924313
O O7 0.526429 0.459710 0.837058
O O8 0.591355 0.175813 0.987029
O O9 0.237510 0.958657 0.877155
O O10 0.182657 0.255347 0.024991
O O11 0.106385 0.650473 0.624065
O O12 0.071187 0.758418 0.796017
O O13 0.991578 0.238585 0.886705
O O14 0.114853 0.752697 0.966589
O O15 0.253643 0.573537 0.117277
O O16 0.000000 0.500000 0.500000
O O17 0.000000 0.000000 0.500000
#
# Coordination Sequence:
#
# PCOD9082217 Si02
#       8
#     2   2   2   2   2   2   2   2
#     4  10  19  33  53  76 109 134 167 212 260 309
#     4  10  23  36  57  70 101 139 191 219 256 289
#     4  10  22  37  52  70 104 144 182 224 253 297
#     4  10  20  32  51  78 108 138 169 201 261 321
#     4  11  21  33  51  77 107 144 168 212 259 320
#     4  11  20  36  54  79 100 138 176 223 255 303
#     4   8  16  31  49  73 103 137 164 202 252 316
#     4  10  22  32  51  73 111 135 177 205 269 308
#
# _framework density 19.787005000000001
#
# number of rings (size 3 to 8) (size 9 to 14) (size 15 to 20)
#    0.000    2.000    2.500    1.125    3.500    2.500 
#    0.000    0.000    0.000    0.000    0.000    1.750 
#    0.000    0.000    0.000    0.000    0.000    0.000 
#
# Total GULP energy -89289.467114 kJ/mol
# GULP energy per Si atom -5580.591695 kJ/mol
# Density = 1.974197 g / cm^3
# Si number density = 19.787005 Si / 1000 Ang^3
#
#
#
# Elastic Constant Matrix: (Units=GPa)
#
#
# Indices 1 2 3 4 5 6 
#
# 1 74.1512 25.9999 32.7771 10.8139 -8.2585 11.4236
# 2 25.9999 82.6737 16.0284 10.6447 -4.4569 10.1597
# 3 32.7771 16.0284 110.4865 17.8724 -25.0002 -2.8839
# 4 10.8139 10.6447 17.8724 22.1479 0.6848 -4.7722
# 5 -8.2585 -4.4569 -25.0002 0.6848 28.8569 1.1948
# 6 11.4236 10.1597 -2.8839 -4.7722 1.1948 30.3183
#
#
#
# Elastic Compliance Matrix: (Units=1/GPa)
#
#
# Indices 1 2 3 4 5 6 
#
# 1 0.018541 -0.003324 -0.003793 -0.006019 0.001950 -0.007257
# 2 -0.003324 0.014642 0.000246 -0.006696 0.001879 -0.004759
# 3 -0.003793 0.000246 0.014439 -0.010136 0.011675 0.000664
# 4 -0.006019 -0.006696 -0.010136 0.062922 -0.013610 0.013988
# 5 0.001950 0.001879 0.011675 -0.013610 0.046114 -0.004214
# 6 -0.007257 -0.004759 0.000664 0.013988 -0.004214 0.039744
#
#
# Mechanical properties :
#
#
# Convention : Reuss Voigt Hill
#
# Bulk Modulus (GPa) = 29.51502 46.32467 37.91985
# Shear Modulus (GPa) = 22.57997 29.09835 25.83916
#
# Velocity S-wave (km/s) = 3.38176 3.83897 3.61760
# Velocity P-wave (km/s) = 5.49519 6.56603 6.05433
#
# Compressibility (1/GPa) = 0.03388106
#
# Stress axis : x y z
#
# Youngs Moduli (GPa) = 53.93509 68.29871 69.25706
#
# Poissons Ratio (x) = 0.22700 0.26267
# Poissons Ratio (y) = 0.17926 -0.01705
# Poissons Ratio (z) = 0.20456 -0.01681
#
# Static dielectric constant tensor:
#      x y z
#    x 1.714320 0.013710 -0.036120 
#    y 0.013710 1.752780 0.022580 
#    z -0.036120 0.022580 1.746790 
# 
# From -- ./inp_files/84135.got.cif
#   From: 2010.05.17/outbox.cif.g08.bks.cpg/sg2_43_cif.got.tgz:84135.got - 2010.06.03 11:33:40.
