data_PCOD9082295
_publ_section_title
;
Structure prediction by ZEFSAII (Michael W. Deem and Ramdas Pophale) SiO2 
 PCOD9082295
Probable space group: P -1
;
_chemical_formula_sum "Si O2"
_cell_formula_units_Z 16
_cell_length_a 12.149299
_cell_length_b 13.052271
_cell_length_c 5.518556
_cell_angle_alpha 87.531397
_cell_angle_beta 68.034723
_cell_angle_gamma 82.565529
_cell_volume 804.750484
_symmetry_space_group_name_H-M "P -1"
_symmetry_group_IT_number 2
_symmetry_cell_setting 'triclinic'
loop_
_space_group_symop_operation_xyz
x,y,z
-x,-y,-z
loop_
_atom_site_type_symbol
_atom_site_label
_atom_site_fract_x
_atom_site_fract_y
_atom_site_fract_z
Si Si1 0.478583 0.563642 0.760709
Si Si2 0.596021 0.109024 0.992041
Si Si3 0.665755 0.909133 0.227178
Si Si4 0.798791 0.022119 0.485401
Si Si5 0.893490 0.231418 0.406005
Si Si6 0.837781 0.803882 0.728629
Si Si7 0.386945 0.240362 0.322311
Si Si8 0.752814 0.277573 0.021246
O O1 0.500000 0.500000 0.500000
O O2 0.566246 0.652711 0.671631
O O3 0.344598 0.622725 0.883260
O O4 0.500000 0.500000 0.000000
O O5 0.473204 0.183792 0.047916
O O6 0.676185 0.179646 0.079973
O O7 0.587363 0.998021 0.131911
O O8 0.676444 0.079894 0.694078
O O9 0.592703 0.847683 0.479671
O O10 0.760883 0.974590 0.272588
O O11 0.751964 0.822060 0.026772
O O12 0.887515 0.107750 0.405088
O O13 0.842942 0.920693 0.615669
O O14 0.834355 0.271339 0.195799
O O15 0.030918 0.249132 0.320806
O O16 0.823230 0.271920 0.705828
O O17 0.753435 0.749845 0.620551
#
# Coordination Sequence:
#
# PCOD9082295 Si02
#       8
#     2   2   2   2   2   2   2   2
#     4  11  25  47  75  97 117 146 199 268 324 376
#     4   9  18  35  53  85 125 163 206 254 295 361
#     4  10  19  33  53  87 124 169 205 242 302 348
#     4   9  19  33  51  84 122 176 217 246 286 335
#     4  11  21  38  61  87 133 166 216 245 280 362
#     4  10  23  34  53  86 127 177 204 246 295 350
#     4  10  23  37  59  89 122 158 203 249 322 372
#     4  10  22  39  66  94 118 163 205 254 307 353
#
# _framework density 19.881938999999999
#
# number of rings (size 3 to 8) (size 9 to 14) (size 15 to 20)
#    0.000    2.000    1.250    1.500    5.250    6.000 
#    0.000    0.000    0.000    4.500    0.000    0.000 
#    0.000    0.000    0.000    0.000    0.000    0.000 
#
# Total GULP energy -89234.750995 kJ/mol
# GULP energy per Si atom -5577.171937 kJ/mol
# Density = 1.983669 g / cm^3
# Si number density = 19.881939 Si / 1000 Ang^3
#
#
#
# Elastic Constant Matrix: (Units=GPa)
#
#
# Indices 1 2 3 4 5 6 
#
# 1 151.8637 46.8877 60.1683 5.6051 -7.3093 -6.8193
# 2 46.8877 65.5341 38.3492 22.2332 -6.0883 10.9132
# 3 60.1683 38.3492 79.8479 14.7751 15.0212 -4.0386
# 4 5.6051 22.2332 14.7751 19.5358 4.9123 -0.8993
# 5 -7.3093 -6.0883 15.0212 4.9123 23.5556 2.3327
# 6 -6.8193 10.9132 -4.0386 -0.8993 2.3327 24.3976
#
#
#
# Elastic Compliance Matrix: (Units=1/GPa)
#
#
# Indices 1 2 3 4 5 6 
#
# 1 0.012463 -0.010501 -0.006826 0.013375 0.001988 0.007354
# 2 -0.010501 0.090322 -0.033667 -0.093858 0.066949 -0.058770
# 3 -0.006826 -0.033667 0.038925 0.022728 -0.042810 0.024526
# 4 0.013375 -0.093858 0.022728 0.158410 -0.073815 0.062380
# 5 0.001988 0.066949 -0.042810 -0.073815 0.107971 -0.049522
# 6 0.007354 -0.058770 0.024526 0.062380 -0.049522 0.080425
#
#
# Mechanical properties :
#
#
# Convention : Reuss Voigt Hill
#
# Bulk Modulus (GPa) = 25.17331 65.33957 45.25644
# Shear Modulus (GPa) = 8.28165 23.62050 15.95108
#
# Velocity S-wave (km/s) = 2.04315 3.45053 2.83554
# Velocity P-wave (km/s) = 4.27257 6.98642 5.79072
#
# Compressibility (1/GPa) = 0.03972461
#
# Stress axis : x y z
#
# Youngs Moduli (GPa) = 80.23470 11.07150 25.69048
#
# Poissons Ratio (x) = 0.11626 0.17535
# Poissons Ratio (y) = 0.84252 0.86491
# Poissons Ratio (z) = 0.54764 0.37274
#
# Static dielectric constant tensor:
#      x y z
#    x 1.753210 0.011470 0.049830 
#    y 0.011470 1.669290 -0.006240 
#    z 0.049830 -0.006240 1.756010 
# 
# From -- ./inp_files/70283.got.cif
#   From: 2010.05.17/outbox.cif.g08.bks.cpg/sg2_36_cif.got.tgz:70283.got - 2010.06.03 11:33:40.
