data_PCOD9082501
_publ_section_title
;
Structure prediction by ZEFSAII (Michael W. Deem and Ramdas Pophale) SiO2 
 PCOD9082501
Probable space group: P -1
;
_chemical_formula_sum "Si O2"
_cell_formula_units_Z 16
_cell_length_a 16.021209
_cell_length_b 9.629985
_cell_length_c 15.866112
_cell_angle_alpha 32.073459
_cell_angle_beta 28.111913
_cell_angle_gamma 42.172559
_cell_volume 612.287179
_symmetry_space_group_name_H-M "P -1"
_symmetry_group_IT_number 2
_symmetry_cell_setting 'triclinic'
loop_
_space_group_symop_operation_xyz
x,y,z
-x,-y,-z
loop_
_atom_site_type_symbol
_atom_site_label
_atom_site_fract_x
_atom_site_fract_y
_atom_site_fract_z
Si Si1 0.086670 0.186471 0.437111
Si Si2 0.065291 0.388498 0.738296
Si Si3 0.202186 0.959284 0.939276
Si Si4 0.756685 0.664183 0.949131
Si Si5 0.504113 0.279427 0.309952
Si Si6 0.338357 0.338666 0.271844
Si Si7 0.707713 0.220407 0.461108
Si Si8 0.317797 0.213020 0.874447
O O1 0.925941 0.334426 0.460578
O O2 0.164932 0.359629 0.356551
O O3 0.118817 0.892654 0.590497
O O4 0.224782 0.200227 0.227940
O O5 0.212495 0.238260 0.736364
O O6 0.914143 0.454247 0.909580
O O7 0.983509 0.177578 0.852576
O O8 0.238847 0.018335 0.973676
O O9 0.342409 0.767025 0.872664
O O10 0.575833 0.495469 0.198497
O O11 0.749355 0.848083 0.941313
O O12 0.344573 0.388037 0.340415
O O13 0.500000 0.000000 0.500000
O O14 0.351622 0.020599 0.422561
O O15 0.500000 0.500000 0.000000
O O16 0.531142 0.232092 0.668995
O O17 0.742558 0.494984 0.245216
#
# Coordination Sequence:
#
# PCOD9082501 Si02
#       8
#     2   2   2   2   2   2   2   2
#     4   8  17  34  51  71  99 140 171 208 246 297
#     4   8  18  36  56  76  93 134 191 211 233 298
#     4  10  18  34  56  77 101 136 169 219 252 300
#     4   9  19  32  49  79 104 129 173 215 244 300
#     4  11  19  30  52  83 101 128 172 211 257 303
#     4  10  15  32  53  72  97 140 173 203 253 302
#     4   9  20  30  47  74 111 136 162 202 260 323
#     4  11  20  31  49  81 108 137 160 208 275 301
#
# _framework density 26.131530000000001
#
# number of rings (size 3 to 8) (size 9 to 14) (size 15 to 20)
#    1.500    1.000    2.500    0.750    1.750    1.000 
#    0.000    0.625    0.000    0.750    3.250    0.000 
#    0.000    0.000    0.000    0.000    0.000    0.000 
#
# Total GULP energy -89174.774351 kJ/mol
# GULP energy per Si atom -5573.423397 kJ/mol
# Density = 2.607205 g / cm^3
# Si number density = 26.131530 Si / 1000 Ang^3
#
#
#
# Elastic Constant Matrix: (Units=GPa)
#
#
# Indices 1 2 3 4 5 6 
#
# 1 116.6921 46.5492 18.3975 3.7830 14.2994 18.5926
# 2 46.5492 73.0452 13.3689 -1.0607 3.2169 16.7254
# 3 18.3975 13.3689 67.3158 -13.4725 0.2364 4.4477
# 4 3.7830 -1.0607 -13.4725 27.0785 -4.5715 -1.3664
# 5 14.2994 3.2169 0.2364 -4.5715 32.8915 -19.3958
# 6 18.5926 16.7254 4.4477 -1.3664 -19.3958 42.3883
#
#
#
# Elastic Compliance Matrix: (Units=1/GPa)
#
#
# Indices 1 2 3 4 5 6 
#
# 1 0.014847 -0.006176 -0.003479 -0.006627 -0.012409 -0.009602
# 2 -0.006176 0.019459 -0.001773 -0.000033 -0.002782 -0.006057
# 3 -0.003479 -0.001773 0.018021 0.010305 0.004632 0.002787
# 4 -0.006627 -0.000033 0.010305 0.046086 0.015305 0.010327
# 5 -0.012409 -0.002782 0.004632 0.015305 0.057555 0.032883
# 6 -0.009602 -0.006057 0.002787 0.010327 0.032883 0.045280
#
#
# Mechanical properties :
#
#
# Convention : Reuss Voigt Hill
#
# Bulk Modulus (GPa) = 33.93313 45.96492 39.94902
# Shear Modulus (GPa) = 21.37409 32.38750 26.88079
#
# Velocity S-wave (km/s) = 2.86307 3.52433 3.21077
# Velocity P-wave (km/s) = 4.89319 5.84716 5.39131
#
# Compressibility (1/GPa) = 0.02946973
#
# Stress axis : x y z
#
# Youngs Moduli (GPa) = 67.35390 51.38926 55.49228
#
# Poissons Ratio (x) = 0.31737 0.19308
# Poissons Ratio (y) = 0.41597 0.09840
# Poissons Ratio (z) = 0.23435 0.09113
#
# Static dielectric constant tensor:
#      x y z
#    x 2.212760 -0.020060 -0.088360 
#    y -0.020060 2.052050 0.038940 
#    z -0.088360 0.038940 2.087680 
# 
# From -- ./inp_files/528079.got.cif
#   From: 2010.05.17/outbox.cif.g08.bks.cpg/sg2_265_cif.got.tgz:528079.got - 2010.06.03 11:33:40.
