data_PCOD9082773
_publ_section_title
;
Structure prediction by ZEFSAII (Michael W. Deem and Ramdas Pophale) SiO2 
 PCOD9082773
Probable space group: P -1
;
_chemical_formula_sum "Si O2"
_cell_formula_units_Z 16
_cell_length_a 10.253867
_cell_length_b 13.279962
_cell_length_c 10.837192
_cell_angle_alpha 52.586722
_cell_angle_beta 59.314859
_cell_angle_gamma 31.834202
_cell_volume 618.188941
_symmetry_space_group_name_H-M "P -1"
_symmetry_group_IT_number 2
_symmetry_cell_setting 'triclinic'
loop_
_space_group_symop_operation_xyz
x,y,z
-x,-y,-z
loop_
_atom_site_type_symbol
_atom_site_label
_atom_site_fract_x
_atom_site_fract_y
_atom_site_fract_z
Si Si1 0.391466 0.011586 0.171565
Si Si2 0.143088 0.496145 0.222570
Si Si3 0.593536 0.613266 0.073871
Si Si4 0.894332 0.204316 0.253927
Si Si5 0.078495 0.824756 0.458948
Si Si6 0.730141 0.560727 0.334596
Si Si7 0.243297 0.041197 0.850388
Si Si8 0.393628 0.931515 0.591549
O O1 0.101727 0.178566 0.171399
O O2 0.517598 0.024417 0.196203
O O3 0.502998 0.799478 0.300691
O O4 0.500000 0.000000 0.000000
O O5 0.375863 0.315945 0.333453
O O6 0.961916 0.494251 0.311886
O O7 0.254260 0.427215 0.082887
O O8 0.985239 0.725754 0.161568
O O9 0.698033 0.568881 0.194581
O O10 0.642204 0.432536 0.156667
O O11 0.325953 0.855734 0.013335
O O12 0.832587 0.208785 0.420811
O O13 0.023732 0.994154 0.293735
O O14 0.243174 0.597591 0.504467
O O15 0.801719 0.950634 0.510276
O O16 0.228693 0.023376 0.726262
O O17 0.500000 0.000000 0.500000
#
# Coordination Sequence:
#
# PCOD9082773 Si02
#       8
#     2   2   2   2   2   2   2   2
#     4  11  20  34  60  96 121 145 198 254 305 345
#     4  10  21  35  58  91 118 151 194 252 302 339
#     4  10  20  33  61  86 118 151 191 251 305 342
#     4  10  22  38  62  86 121 161 193 249 300 356
#     4  10  22  41  57  85 122 165 201 231 301 364
#     4  10  19  33  57  89 121 149 193 246 297 357
#     4  10  22  35  56  94 118 145 200 250 301 349
#     4  11  21  39  61  83 119 164 199 241 292 357
#
# _framework density 25.882055999999999
#
# number of rings (size 3 to 8) (size 9 to 14) (size 15 to 20)
#    0.000    1.750    2.500    2.625    5.250    1.000 
#    2.250    2.500    0.000    3.750    0.000    0.000 
#    0.000    0.000    0.000    0.000    0.000    0.000 
#
# Total GULP energy -89355.173279 kJ/mol
# GULP energy per Si atom -5584.698330 kJ/mol
# Density = 2.582315 g / cm^3
# Si number density = 25.882056 Si / 1000 Ang^3
#
#
#
# Elastic Constant Matrix: (Units=GPa)
#
#
# Indices 1 2 3 4 5 6 
#
# 1 49.9602 12.7338 24.0111 -2.5869 0.3566 2.8103
# 2 12.7338 167.6555 74.9036 -48.7575 -9.6965 22.6022
# 3 24.0111 74.9036 66.2546 -41.3927 -10.7753 21.5510
# 4 -2.5869 -48.7575 -41.3927 64.1044 7.9420 -12.9159
# 5 0.3566 -9.6965 -10.7753 7.9420 23.4130 -6.8869
# 6 2.8103 22.6022 21.5510 -12.9159 -6.8869 31.1138
#
#
#
# Elastic Compliance Matrix: (Units=1/GPa)
#
#
# Indices 1 2 3 4 5 6 
#
# 1 0.030207 0.005305 -0.025682 -0.009461 -0.005062 0.006159
# 2 0.005305 0.013053 -0.018244 -0.001008 -0.002209 0.001768
# 3 -0.025682 -0.018244 0.067764 0.023686 0.010327 -0.019246
# 4 -0.009461 -0.001008 0.023686 0.029209 -0.000078 -0.002711
# 5 -0.005062 -0.002209 0.010327 -0.000078 0.048290 0.005566
# 6 0.006159 0.001768 -0.019246 -0.002711 0.005566 0.043737
#
#
# Mechanical properties :
#
#
# Convention : Reuss Voigt Hill
#
# Bulk Modulus (GPa) = 29.60193 56.35191 42.97692
# Shear Modulus (GPa) = 15.58790 35.20769 25.39780
#
# Velocity S-wave (km/s) = 2.45677 3.69224 3.13595
# Velocity P-wave (km/s) = 4.41698 6.32430 5.45465
#
# Compressibility (1/GPa) = 0.03378159
#
# Stress axis : x y z
#
# Youngs Moduli (GPa) = 33.10538 76.60862 14.75708
#
# Poissons Ratio (x) = -0.40644 0.37900
# Poissons Ratio (y) = -0.17564 0.26923
# Poissons Ratio (z) = 0.85022 1.39766
#
# Static dielectric constant tensor:
#      x y z
#    x 2.091080 -0.001610 -0.021920 
#    y -0.001610 2.023250 -0.026570 
#    z -0.021920 -0.026570 2.094230 
# 
# From -- ./inp_files/432572.got.cif
#   From: 2010.05.17/outbox.cif.g08.bks.cpg/sg2_217_cif.got.tgz:432572.got - 2010.06.03 11:33:40.
