data_PCOD9082792
_publ_section_title
;
Structure prediction by ZEFSAII (Michael W. Deem and Ramdas Pophale) SiO2 
 PCOD9082792
Probable space group: P -1
;
_chemical_formula_sum "Si O2"
_cell_formula_units_Z 16
_cell_length_a 16.332392
_cell_length_b 5.659433
_cell_length_c 22.880211
_cell_angle_alpha 73.101817
_cell_angle_beta 158.075287
_cell_angle_gamma 96.453180
_cell_volume 678.436978
_symmetry_space_group_name_H-M "P -1"
_symmetry_group_IT_number 2
_symmetry_cell_setting 'triclinic'
loop_
_space_group_symop_operation_xyz
x,y,z
-x,-y,-z
loop_
_atom_site_type_symbol
_atom_site_label
_atom_site_fract_x
_atom_site_fract_y
_atom_site_fract_z
Si Si1 0.825385 0.979569 0.692727
Si Si2 0.001564 0.752739 0.948113
Si Si3 0.383763 0.873207 0.245767
Si Si4 0.673784 0.635188 0.028008
Si Si5 0.666318 0.137954 0.024416
Si Si6 0.239088 0.438193 0.625602
Si Si7 0.243362 0.436509 0.394722
Si Si8 0.387065 0.895868 0.699334
O O1 0.672628 0.849281 0.565549
O O2 0.925397 0.783951 0.828836
O O3 0.059615 0.949618 0.811757
O O4 0.710608 0.301377 0.611996
O O5 0.262945 0.752873 0.127525
O O6 0.804259 0.018253 0.832751
O O7 0.000000 0.500000 0.000000
O O8 0.631380 0.652607 0.453164
O O9 0.419628 0.117401 0.220620
O O10 0.632046 0.368847 0.032650
O O11 0.952688 0.540309 0.198882
O O12 0.632680 0.864835 0.032764
O O13 0.510214 0.770206 0.852208
O O14 0.477297 0.282898 0.835672
O O15 0.241712 0.729354 0.592368
O O16 0.000000 0.500000 0.500000
O O17 0.247842 0.223134 0.597047
#
# Coordination Sequence:
#
# PCOD9082792 Si02
#       8
#     2   2   2   2   2   2   2   2
#     4  10  22  41  61  84 118 163 213 250 302 355
#     4  11  27  41  62  85 126 168 208 257 311 373
#     4  11  26  41  59  93 121 164 208 255 319 356
#     4   8  15  30  52  78 101 147 190 231 277 342
#     4   8  15  28  52  76 105 145 180 236 279 340
#     4  10  19  33  57  93 120 150 195 248 300 359
#     4  10  22  38  63  86 116 157 213 260 292 360
#     4  10  21  36  61  84 123 159 193 249 306 367
#
# _framework density 23.583621999999998
#
# number of rings (size 3 to 8) (size 9 to 14) (size 15 to 20)
#    0.000    2.250    0.000    2.625   12.250    1.000 
#    0.000    0.000    0.000    0.000    0.000   47.250 
#    0.000    0.000    0.000    0.000    0.000    0.000 
#
# Total GULP energy -89262.360605 kJ/mol
# GULP energy per Si atom -5578.897538 kJ/mol
# Density = 2.352994 g / cm^3
# Si number density = 23.583622 Si / 1000 Ang^3
#
#
#
# Elastic Constant Matrix: (Units=GPa)
#
#
# Indices 1 2 3 4 5 6 
#
# 1 50.6663 37.4976 18.9537 9.7111 12.7173 3.7407
# 2 37.4976 238.0402 34.3099 9.0001 8.5054 4.9621
# 3 18.9537 34.3099 10.0836 3.5039 -33.3401 2.5854
# 4 9.7111 9.0001 3.5039 17.1469 -5.5330 9.2108
# 5 12.7173 8.5054 -33.3401 -5.5330 -22.1324 4.1918
# 6 3.7407 4.9621 2.5854 9.2108 4.1918 34.6776
#
#
#
# Elastic Compliance Matrix: (Units=1/GPa)
#
#
# Indices 1 2 3 4 5 6 
#
# 1 0.020876 -0.003678 0.002763 -0.007337 0.008073 -0.000959
# 2 -0.003678 0.004961 -0.002041 0.001089 0.002454 -0.000747
# 3 0.002763 -0.002041 0.020833 -0.016077 -0.025464 0.005789
# 4 -0.007337 0.001089 -0.016077 0.074217 -0.001485 -0.017699
# 5 0.008073 0.002454 -0.025464 -0.001485 -0.000653 0.001150
# 6 -0.000959 -0.000747 0.005789 -0.017699 0.001150 0.033178
#
#
# Mechanical properties :
#
#
# Convention : Reuss Voigt Hill
#
# Bulk Modulus (GPa) = 24.53524 53.36807 38.95166
# Shear Modulus (GPa) = 28.91687 19.80700 24.36194
#
# Velocity S-wave (km/s) = 3.50543 2.90118 3.21752
# Velocity P-wave (km/s) = 5.17785 5.82245 5.50958
#
# Compressibility (1/GPa) = 0.04075769
#
# Stress axis : x y z
#
# Youngs Moduli (GPa) = 47.90167 201.56433 48.00154
#
# Poissons Ratio (x) = 0.74131 -0.13261
# Poissons Ratio (y) = 0.17617 0.09797
# Poissons Ratio (z) = -0.13233 0.41137
#
# Static dielectric constant tensor:
#      x y z
#    x 1.881870 -0.046370 0.026150 
#    y -0.046370 1.991720 -0.064810 
#    z 0.026150 -0.064810 1.899190 
# 
# From -- ./inp_files/39857.got.cif
#   From: 2010.05.17/outbox.cif.g08.bks.cpg/sg2_20_cif.got.tgz:39857.got - 2010.06.03 11:33:40.
