data_PCOD9082141
_publ_section_title
;
Structure prediction by ZEFSAII (Michael W. Deem and Ramdas Pophale) SiO2 
 PCOD9082141
Probable space group: P -1
;
_chemical_formula_sum "Si O2"
_cell_formula_units_Z 14
_cell_length_a 14.358268
_cell_length_b 11.223122
_cell_length_c 9.556238
_cell_angle_alpha 34.858486
_cell_angle_beta 123.010033
_cell_angle_gamma 137.384250
_cell_volume 588.947097
_symmetry_space_group_name_H-M "P -1"
_symmetry_group_IT_number 2
_symmetry_cell_setting 'triclinic'
loop_
_space_group_symop_operation_xyz
x,y,z
-x,-y,-z
loop_
_atom_site_type_symbol
_atom_site_label
_atom_site_fract_x
_atom_site_fract_y
_atom_site_fract_z
Si Si1 0.818330 0.267446 0.263775
Si Si2 0.720196 0.187916 0.967932
Si Si3 0.789941 0.010077 0.780331
Si Si4 0.550719 0.004918 0.742678
Si Si5 0.939224 0.775688 0.551137
Si Si6 0.390410 0.565357 0.834226
Si Si7 0.955387 0.176916 0.010175
O O1 0.950490 0.283037 0.305092
O O2 0.894249 0.572693 0.059643
O O3 0.782155 0.110348 0.528115
O O4 0.709208 0.129866 0.180238
O O5 0.585666 0.035694 0.905192
O O6 0.833175 0.154854 0.022390
O O7 0.792228 0.497862 0.721197
O O8 0.671796 0.996040 0.785362
O O9 0.926892 0.195443 0.807075
O O10 0.752289 0.723302 0.014355
O O11 0.574910 0.255061 0.446219
O O12 0.412895 0.742908 0.815474
O O13 0.000000 0.000000 0.500000
O O14 0.938256 0.913104 0.278753
O O15 0.500000 0.500000 0.000000
#
# Coordination Sequence:
#
# PCOD9082141 Si02
#       7
#     2   2   2   2   2   2   2
#     4  11  21  32  48  78 111 136 168 210 250 297
#     4  10  19  33  52  76 100 137 177 204 245 305
#     4  10  21  33  52  79 105 132 169 212 258 298
#     4   9  19  36  59  75  97 131 170 213 256 300
#     4  11  18  32  52  71 103 146 177 204 238 291
#     4   9  18  37  58  78  97 127 170 213 253 309
#     4  10  19  34  50  72 105 143 175 205 241 298
#
# _framework density 23.771232999999999
#
# number of rings (size 3 to 8) (size 9 to 14) (size 15 to 20)
#    0.000    2.000    2.857    2.143    0.000    1.714 
#    0.000    0.714    0.000    7.714    0.000    0.000 
#    0.000    0.000    0.000    0.000    0.000    0.000 
#
# Total GULP energy -78209.389204 kJ/mol
# GULP energy per Si atom -5586.384943 kJ/mol
# Density = 2.371713 g / cm^3
# Si number density = 23.771233 Si / 1000 Ang^3
#
#
#
# Elastic Constant Matrix: (Units=GPa)
#
#
# Indices 1 2 3 4 5 6 
#
# 1 37.3834 16.3803 -0.6309 11.1524 3.5013 -5.1384
# 2 16.3803 120.0000 57.8722 50.5046 -7.7409 -5.4120
# 3 -0.6309 57.8722 134.1438 25.0210 -0.4020 -14.7936
# 4 11.1524 50.5046 25.0210 53.4608 -11.2961 -1.5603
# 5 3.5013 -7.7409 -0.4020 -11.2961 31.2622 7.0253
# 6 -5.1384 -5.4120 -14.7936 -1.5603 7.0253 31.2841
#
#
#
# Elastic Compliance Matrix: (Units=1/GPa)
#
#
# Indices 1 2 3 4 5 6 
#
# 1 0.032348 -0.003640 0.003845 -0.006716 -0.008728 0.008127
# 2 -0.003640 0.016378 -0.004834 -0.012459 0.000053 -0.000684
# 3 0.003845 -0.004834 0.010455 -0.001671 -0.003310 0.005399
# 4 -0.006716 -0.012459 -0.001671 0.034916 0.011353 -0.004857
# 5 -0.008728 0.000053 -0.003310 0.011353 0.039580 -0.011312
# 6 0.008127 -0.000684 0.005399 -0.004857 -0.011312 0.038033
#
#
# Mechanical properties :
#
#
# Convention : Reuss Voigt Hill
#
# Bulk Modulus (GPa) = 20.03076 48.75230 34.39153
# Shear Modulus (GPa) = 25.30263 37.72846 31.51555
#
# Velocity S-wave (km/s) = 3.26609 3.98822 3.64508
# Velocity P-wave (km/s) = 4.76108 6.46230 5.67579
#
# Compressibility (1/GPa) = 0.04992322
#
# Stress axis : x y z
#
# Youngs Moduli (GPa) = 30.91423 61.05807 95.64390
#
# Poissons Ratio (x) = 0.22224 -0.36777
# Poissons Ratio (y) = 0.11252 0.46236
# Poissons Ratio (z) = -0.11887 0.29516
#
# Static dielectric constant tensor:
#      x y z
#    x 2.001030 0.011520 -0.004050 
#    y 0.011520 1.965630 0.019790 
#    z -0.004050 0.019790 1.893030 
# 
# From -- ./inp_files/35532.got.cif
#   From: 2010.05.17/outbox.cif.g08.bks.cpg/sg2_18_cif.got.tgz:35532.got - 2010.06.03 11:33:40.
