data_PCOD9082329
_publ_section_title
;
Structure prediction by ZEFSAII (Michael W. Deem and Ramdas Pophale) SiO2 
 PCOD9082329
Probable space group: P -1
;
_chemical_formula_sum "Si O2"
_cell_formula_units_Z 14
_cell_length_a 11.711083
_cell_length_b 14.990886
_cell_length_c 16.143048
_cell_angle_alpha 24.111482
_cell_angle_beta 137.895243
_cell_angle_gamma 149.428876
_cell_volume 575.512793
_symmetry_space_group_name_H-M "P -1"
_symmetry_group_IT_number 2
_symmetry_cell_setting 'triclinic'
loop_
_space_group_symop_operation_xyz
x,y,z
-x,-y,-z
loop_
_atom_site_type_symbol
_atom_site_label
_atom_site_fract_x
_atom_site_fract_y
_atom_site_fract_z
Si Si1 0.670720 0.342939 0.784926
Si Si2 0.678492 0.622805 0.391432
Si Si3 0.393019 0.453916 0.098012
Si Si4 0.012535 0.853230 0.761216
Si Si5 0.656794 0.372119 0.428857
Si Si6 0.647686 0.974493 0.662529
Si Si7 0.844500 0.156808 0.324731
O O1 0.660894 0.410617 0.627140
O O2 0.566582 0.463076 0.677150
O O3 0.932387 0.512634 0.805520
O O4 0.500000 0.000000 0.000000
O O5 0.760122 0.592921 0.374468
O O6 0.827966 0.927869 0.263609
O O7 0.225493 0.439903 0.080693
O O8 0.589481 0.498034 0.218051
O O9 0.253496 0.131973 0.252575
O O10 0.493617 0.698558 0.875857
O O11 0.141602 0.835226 0.774008
O O12 0.925608 0.996803 0.545533
O O13 0.776452 0.268348 0.536893
O O14 0.416148 0.060678 0.598308
O O15 0.500000 0.000000 0.500000
#
# Coordination Sequence:
#
# PCOD9082329 Si02
#       7
#     2   2   2   2   2   2   2
#     4  10  20  33  48  71 108 147 177 209 253 305
#     4  10  20  33  48  74 108 138 174 218 257 303
#     4   9  18  35  57  77 100 134 176 217 261 311
#     4   9  17  32  53  76 106 140 172 212 258 305
#     4  10  19  33  54  79 107 138 173 214 261 309
#     4   9  19  35  57  79  99 130 177 223 259 307
#     4   9  17  31  52  78 107 139 173 209 254 309
#
# _framework density 24.326132000000001
#
# number of rings (size 3 to 8) (size 9 to 14) (size 15 to 20)
#    0.000    2.571    0.000    4.286    0.000    3.429 
#    0.000    2.857    0.000    7.714    0.000    0.000 
#    0.000    0.000    0.000    0.000    0.000    0.000 
#
# Total GULP energy -78139.967224 kJ/mol
# GULP energy per Si atom -5581.426230 kJ/mol
# Density = 2.427076 g / cm^3
# Si number density = 24.326132 Si / 1000 Ang^3
#
#
#
# Elastic Constant Matrix: (Units=GPa)
#
#
# Indices 1 2 3 4 5 6 
#
# 1 92.3782 24.4913 10.8132 23.8112 16.4777 -22.1467
# 2 24.4913 120.3579 41.7073 -8.9543 9.9006 -26.9535
# 3 10.8132 41.7073 119.3738 14.7444 -6.5214 -9.0236
# 4 23.8112 -8.9543 14.7444 21.9747 -3.8511 -5.9841
# 5 16.4777 9.9006 -6.5214 -3.8511 38.3629 -3.2266
# 6 -22.1467 -26.9535 -9.0236 -5.9841 -3.2266 39.1377
#
#
#
# Elastic Compliance Matrix: (Units=1/GPa)
#
#
# Indices 1 2 3 4 5 6 
#
# 1 0.022675 -0.006496 0.003704 -0.030476 -0.010180 0.003712
# 2 -0.006496 0.015229 -0.006543 0.020003 0.000462 0.008400
# 3 0.003704 -0.006543 0.012089 -0.015232 0.000463 -0.001913
# 4 -0.030476 0.020003 -0.015232 0.102526 0.016476 0.010053
# 5 -0.010180 0.000462 0.000463 0.016476 0.032038 -0.000175
# 6 0.003712 0.008400 -0.001913 0.010053 -0.000175 0.034518
#
#
# Mechanical properties :
#
#
# Convention : Reuss Voigt Hill
#
# Bulk Modulus (GPa) = 31.92438 54.01482 42.96960
# Shear Modulus (GPa) = 20.14615 36.90159 28.52387
#
# Velocity S-wave (km/s) = 2.88091 3.89903 3.42798
# Velocity P-wave (km/s) = 4.92120 6.52093 5.77671
#
# Compressibility (1/GPa) = 0.03132402
#
# Stress axis : x y z
#
# Youngs Moduli (GPa) = 44.10152 65.66400 82.71690
#
# Poissons Ratio (x) = 0.42657 -0.30642
# Poissons Ratio (y) = 0.28650 0.54120
# Poissons Ratio (z) = -0.16337 0.42963
#
# Static dielectric constant tensor:
#      x y z
#    x 1.991990 -0.007350 0.043920 
#    y -0.007350 1.971320 -0.044770 
#    z 0.043920 -0.044770 2.014240 
# 
# From -- ./inp_files/534132.got.cif
#   From: 2010.05.17/outbox.cif.g08.bks.cpg/sg2_268_cif.got.tgz:534132.got - 2010.06.03 11:33:40.
