data_PCOD9082193
_publ_section_title
;
Structure prediction by ZEFSAII (Michael W. Deem and Ramdas Pophale) SiO2 
 PCOD9082193
Probable space group: P -1
;
_chemical_formula_sum "Si O2"
_cell_formula_units_Z 16
_cell_length_a 20.518946
_cell_length_b 11.996009
_cell_length_c 14.804788
_cell_angle_alpha 149.100876
_cell_angle_beta 149.517598
_cell_angle_gamma 31.141026
_cell_volume 849.212653
_symmetry_space_group_name_H-M "P -1"
_symmetry_group_IT_number 2
_symmetry_cell_setting 'triclinic'
loop_
_space_group_symop_operation_xyz
x,y,z
-x,-y,-z
loop_
_atom_site_type_symbol
_atom_site_label
_atom_site_fract_x
_atom_site_fract_y
_atom_site_fract_z
Si Si1 0.145604 0.934191 0.070174
Si Si2 0.715608 0.317012 0.108831
Si Si3 0.139152 0.403669 0.442346
Si Si4 0.320074 0.608836 0.211450
Si Si5 0.183901 0.270776 0.768286
Si Si6 0.528455 0.197569 0.920331
Si Si7 0.582992 0.150033 0.164293
Si Si8 0.277641 0.094642 0.562206
O O1 0.270590 0.742506 0.148866
O O2 0.171794 0.171618 0.257887
O O3 0.157054 0.819549 0.905671
O O4 0.000000 0.000000 0.000000
O O5 0.759911 0.463819 0.337523
O O6 0.584446 0.522108 0.038785
O O7 0.658899 0.147893 0.974367
O O8 0.159617 0.277522 0.478771
O O9 0.982947 0.601024 0.364184
O O10 0.487224 0.417904 0.275821
O O11 0.278600 0.834059 0.385764
O O12 0.229230 0.454985 0.003950
O O13 0.256168 0.220056 0.720271
O O14 0.254762 0.011106 0.721366
O O15 0.433649 0.056353 0.687923
O O16 0.574528 0.160199 0.053323
O O17 0.500000 0.000000 0.000000
#
# Coordination Sequence:
#
# PCOD9082193 Si02
#       8
#     2   2   2   2   2   2   2   2
#     4  11  20  33  57  87 116 140 182 240 279 328
#     4  10  22  38  60  80 118 149 184 237 278 332
#     4  10  22  33  55  88 110 148 186 226 288 331
#     4  10  19  33  52  85 113 140 185 229 285 323
#     4  11  20  34  53  83 117 143 182 233 280 331
#     4  10  19  41  57  83 115 149 188 231 281 331
#     4  10  19  36  58  80 115 150 183 234 276 329
#     4  10  20  32  57  85 109 144 184 234 283 326
#
# _framework density 18.840982
#
# number of rings (size 3 to 8) (size 9 to 14) (size 15 to 20)
#    0.000    1.750    5.000    1.125    3.500    0.500 
#    2.250    3.125    0.000    0.750    0.000    0.000 
#    0.000    0.000    0.000    0.000    0.000    0.000 
#
# Total GULP energy -89102.390004 kJ/mol
# GULP energy per Si atom -5568.899375 kJ/mol
# Density = 1.879810 g / cm^3
# Si number density = 18.840982 Si / 1000 Ang^3
#
#
#
# Elastic Constant Matrix: (Units=GPa)
#
#
# Indices 1 2 3 4 5 6 
#
# 1 53.4136 8.4683 10.8515 -0.9521 2.5872 0.3818
# 2 8.4683 115.9983 9.6702 -19.5764 2.0345 9.7276
# 3 10.8515 9.6702 53.3948 3.0362 3.8545 1.1304
# 4 -0.9521 -19.5764 3.0362 25.1046 -0.4392 -7.3594
# 5 2.5872 2.0345 3.8545 -0.4392 14.8152 -2.2303
# 6 0.3818 9.7276 1.1304 -7.3594 -2.2303 18.2497
#
#
#
# Elastic Compliance Matrix: (Units=1/GPa)
#
#
# Indices 1 2 3 4 5 6 
#
# 1 0.019754 -0.001046 -0.003689 0.000416 -0.002295 0.000260
# 2 -0.001046 0.010355 -0.001977 0.007544 -0.000868 -0.002439
# 3 -0.003689 -0.001977 0.020545 -0.005075 -0.005001 -0.002799
# 4 0.000416 0.007544 -0.005075 0.051589 0.004395 0.017625
# 5 -0.002295 -0.000868 -0.005001 0.004395 0.071149 0.011288
# 6 0.000260 -0.002439 -0.002799 0.017625 0.011288 0.064750
#
#
# Mechanical properties :
#
#
# Convention : Reuss Voigt Hill
#
# Bulk Modulus (GPa) = 26.86032 31.19853 29.02943
# Shear Modulus (GPa) = 18.94107 24.55502 21.74804
#
# Velocity S-wave (km/s) = 3.17411 3.61401 3.40118
# Velocity P-wave (km/s) = 5.26503 5.83177 5.55563
#
# Compressibility (1/GPa) = 0.03722964
#
# Stress axis : x y z
#
# Youngs Moduli (GPa) = 50.62331 96.57210 48.67356
#
# Poissons Ratio (x) = 0.10102 0.17954
# Poissons Ratio (y) = 0.05295 0.09625
# Poissons Ratio (z) = 0.18673 0.19097
#
# Static dielectric constant tensor:
#      x y z
#    x 1.654620 -0.019460 0.013410 
#    y -0.019460 1.698310 -0.002800 
#    z 0.013410 -0.002800 1.689460 
# 
# From -- ./inp_files/423241.got.cif
#   From: 2010.05.17/outbox.cif.g08.bks.cpg/sg2_212_cif.got.tgz:423241.got - 2010.06.03 11:33:40.
