data_PCOD9082035
_publ_section_title
;
Structure prediction by ZEFSAII (Michael W. Deem and Ramdas Pophale) SiO2 
 PCOD9082035
Probable space group: P -1
;
_chemical_formula_sum "Si O2"
_cell_formula_units_Z 16
_cell_length_a 10.234551
_cell_length_b 10.533494
_cell_length_c 7.230926
_cell_angle_alpha 86.647504
_cell_angle_beta 96.672647
_cell_angle_gamma 121.845742
_cell_volume 657.703013
_symmetry_space_group_name_H-M "P -1"
_symmetry_group_IT_number 2
_symmetry_cell_setting 'triclinic'
loop_
_space_group_symop_operation_xyz
x,y,z
-x,-y,-z
loop_
_atom_site_type_symbol
_atom_site_label
_atom_site_fract_x
_atom_site_fract_y
_atom_site_fract_z
Si Si1 0.254440 0.465783 0.789695
Si Si2 0.992803 0.233463 0.271552
Si Si3 0.649772 0.776456 0.188115
Si Si4 0.834382 0.448330 0.880625
Si Si5 0.200847 0.100686 0.422422
Si Si6 0.856406 0.025197 0.943545
Si Si7 0.525120 0.362523 0.497181
Si Si8 0.926571 0.335944 0.594762
O O1 0.324152 0.359937 0.837421
O O2 0.331357 0.575780 0.618980
O O3 0.075989 0.351775 0.719608
O O4 0.269485 0.562905 0.962306
O O5 0.129293 0.403065 0.236984
O O6 0.080281 0.152686 0.363819
O O7 0.884886 0.233275 0.416082
O O8 0.901808 0.163222 0.072862
O O9 0.773510 0.891249 0.353618
O O10 0.699679 0.882908 0.011784
O O11 0.492971 0.702502 0.292026
O O12 0.810617 0.325740 0.735197
O O13 0.000000 0.500000 0.000000
O O14 0.372698 0.232975 0.383155
O O15 0.160256 0.970413 0.280048
O O16 0.000000 0.000000 0.000000
O O17 0.500000 0.500000 0.500000
O O18 0.000000 0.500000 0.500000
#
# Coordination Sequence:
#
# PCOD9082035 Si02
#       8
#     2   2   2   2   2   2   2   2
#     4  10  15  31  50  68  99 132 153 198 254 282
#     4  10  17  32  47  68 103 130 152 200 251 285
#     4   9  18  32  47  72 107 128 161 192 234 297
#     4   9  19  30  47  74  94 119 165 209 241 291
#     4   9  18  32  47  73 106 127 164 192 229 300
#     4  10  20  30  46  74 102 134 164 188 234 302
#     4   8  16  30  48  67  99 136 159 187 242 293
#     4   9  17  30  47  70  96 119 161 208 243 283
#
# _framework density 24.327089000000001
#
# number of rings (size 3 to 8) (size 9 to 14) (size 15 to 20)
#    0.750    2.000    1.250    1.500    0.000    2.000 
#    4.500    8.125    0.000    0.000    0.000   22.750 
#    0.000    0.000    0.000    0.000    0.000    0.000 
#
# Total GULP energy -89223.713288 kJ/mol
# GULP energy per Si atom -5576.482080 kJ/mol
# Density = 2.427172 g / cm^3
# Si number density = 24.327089 Si / 1000 Ang^3
#
#
#
# Elastic Constant Matrix: (Units=GPa)
#
#
# Indices 1 2 3 4 5 6 
#
# 1 52.6510 13.3583 37.3456 5.5404 -26.8176 6.7944
# 2 13.3583 55.4868 38.8226 -1.8181 -14.9753 12.2573
# 3 37.3456 38.8226 207.7566 28.1362 -35.1893 -4.5436
# 4 5.5404 -1.8181 28.1362 59.7334 2.3189 -5.0560
# 5 -26.8176 -14.9753 -35.1893 2.3189 47.8189 -2.6044
# 6 6.7944 12.2573 -4.5436 -5.0560 -2.6044 23.0469
#
#
#
# Elastic Compliance Matrix: (Units=1/GPa)
#
#
# Indices 1 2 3 4 5 6 
#
# 1 0.029523 0.000504 -0.002798 -0.002680 0.014323 -0.008493
# 2 0.000504 0.025323 -0.004672 0.001609 0.003949 -0.013739
# 3 -0.002798 -0.004672 0.007126 -0.002971 0.002593 0.004356
# 4 -0.002680 0.001609 -0.002971 0.018848 -0.003934 0.003039
# 5 0.014323 0.003949 0.002593 -0.003934 0.032115 -0.003045
# 6 -0.008493 -0.013739 0.004356 0.003039 -0.003045 0.054381
#
#
# Mechanical properties :
#
#
# Convention : Reuss Voigt Hill
#
# Bulk Modulus (GPa) = 20.81578 54.99416 37.90497
# Shear Modulus (GPa) = 25.34690 41.21104 33.27897
#
# Velocity S-wave (km/s) = 3.23138 4.12034 3.70263
# Velocity P-wave (km/s) = 4.74317 6.72989 5.82190
#
# Compressibility (1/GPa) = 0.04804048
#
# Stress axis : x y z
#
# Youngs Moduli (GPa) = 33.87165 39.48941 140.32712
#
# Poissons Ratio (x) = -0.01990 0.39262
# Poissons Ratio (y) = -0.01707 0.65563
# Poissons Ratio (z) = 0.09477 0.18450
#
# Static dielectric constant tensor:
#      x y z
#    x 2.031550 0.030220 -0.083870 
#    y 0.030220 2.017200 -0.046810 
#    z -0.083870 -0.046810 2.141300 
# 
# From -- ./inp_files/303638.got.cif
#   From: 2010.05.17/outbox.cif.g08.bks.cpg/sg2_152_cif.got.tgz:303638.got - 2010.06.03 11:33:40.
