data_PCOD9082076
_publ_section_title
;
Structure prediction by ZEFSAII (Michael W. Deem and Ramdas Pophale) SiO2 
 PCOD9082076
Probable space group: P -1
;
_chemical_formula_sum "Si O2"
_cell_formula_units_Z 12
_cell_length_a 9.268538
_cell_length_b 11.017277
_cell_length_c 5.304101
_cell_angle_alpha 96.676989
_cell_angle_beta 86.017444
_cell_angle_gamma 76.755240
_cell_volume 521.047415
_symmetry_space_group_name_H-M "P -1"
_symmetry_group_IT_number 2
_symmetry_cell_setting 'triclinic'
loop_
_space_group_symop_operation_xyz
x,y,z
-x,-y,-z
loop_
_atom_site_type_symbol
_atom_site_label
_atom_site_fract_x
_atom_site_fract_y
_atom_site_fract_z
Si Si1 0.574658 0.112477 0.448774
Si Si2 0.960343 0.336653 0.404649
Si Si3 0.873615 0.098594 0.180224
Si Si4 0.760305 0.566942 0.689634
Si Si5 0.695566 0.491613 0.176978
Si Si6 0.594271 0.248995 0.988972
O O1 0.751176 0.055284 0.357451
O O2 0.556482 0.209067 0.707260
O O3 0.500000 0.000000 0.500000
O O4 0.517897 0.188105 0.213834
O O5 0.129143 0.346941 0.377724
O O6 0.939466 0.197550 0.356239
O O7 0.868518 0.424019 0.656205
O O8 0.865372 0.415269 0.204190
O O9 0.766832 0.175072 0.995680
O O10 0.000000 0.000000 0.000000
O O11 0.652154 0.554887 0.469615
O O12 0.694497 0.591069 0.980090
O O13 0.605604 0.390945 0.077171
#
# Coordination Sequence:
#
# PCOD9082076 Si02
#       6
#     2   2   2   2   2   2
#     4  10  19  33  49  65  91 127 162 195 226 270
#     4   8  16  24  39  61  90 120 146 178 225 272
#     4   9  19  32  47  69 100 129 152 187 232 279
#     4   9  15  23  40  60  87 119 143 182 223 273
#     4   9  14  25  39  63  87 115 141 183 235 267
#     4   9  18  30  49  68  95 122 154 195 231 275
#
# _framework density 23.030532000000001
#
# number of rings (size 3 to 8) (size 9 to 14) (size 15 to 20)
#    2.000    1.000    0.000    3.000    0.000    0.667 
#    0.000    0.000    0.000    0.000    0.000    0.000 
#    0.000   24.000    0.000    0.000    0.000    0.000 
#
# Total GULP energy -66850.482399 kJ/mol
# GULP energy per Si atom -5570.873533 kJ/mol
# Density = 2.297811 g / cm^3
# Si number density = 23.030532 Si / 1000 Ang^3
#
#
#
# Elastic Constant Matrix: (Units=GPa)
#
#
# Indices 1 2 3 4 5 6 
#
# 1 83.0367 48.5777 35.5522 13.8948 -11.9011 19.6201
# 2 48.5777 96.9277 29.6735 2.7287 -10.0726 23.9675
# 3 35.5522 29.6735 136.0531 -14.2389 -13.8471 13.4461
# 4 13.8948 2.7287 -14.2389 32.7767 -5.1163 7.1326
# 5 -11.9011 -10.0726 -13.8471 -5.1163 29.8939 2.4057
# 6 19.6201 23.9675 13.4461 7.1326 2.4057 33.3892
#
#
#
# Elastic Compliance Matrix: (Units=1/GPa)
#
#
# Indices 1 2 3 4 5 6 
#
# 1 0.021133 -0.008000 -0.004137 -0.008983 0.002527 -0.003273
# 2 -0.008000 0.016687 0.000191 0.004587 0.004005 -0.008623
# 3 -0.004137 0.000191 0.010030 0.007632 0.004668 -0.003712
# 4 -0.008983 0.004587 0.007632 0.041003 0.009368 -0.010521
# 5 0.002527 0.004005 0.004668 0.009368 0.040471 -0.011157
# 6 -0.003273 -0.008623 -0.003712 -0.010521 -0.011157 0.042609
#
#
# Mechanical properties :
#
#
# Convention : Reuss Voigt Hill
#
# Bulk Modulus (GPa) = 41.73991 60.40272 51.07132
# Shear Modulus (GPa) = 24.53252 32.69289 28.61271
#
# Velocity S-wave (km/s) = 3.26731 3.77177 3.52857
# Velocity P-wave (km/s) = 5.69182 6.72700 6.23094
#
# Compressibility (1/GPa) = 0.02395788
#
# Stress axis : x y z
#
# Youngs Moduli (GPa) = 47.31959 59.92625 99.69947
#
# Poissons Ratio (x) = 0.47941 0.41245
# Poissons Ratio (y) = 0.37856 -0.01902
# Poissons Ratio (z) = 0.19576 -0.01143
#
# Static dielectric constant tensor:
#      x y z
#    x 1.906550 -0.055670 -0.026530 
#    y -0.055670 1.844810 -0.009730 
#    z -0.026530 -0.009730 1.873230 
# 
# From -- ./inp_files/64894.got.cif
#   From: 2010.05.17/outbox.cif.g08.bks.cpg/sg2_33_cif.got.tgz:64894.got - 2010.06.03 11:33:40.
