data_PCOD9082046
_publ_section_title
;
Structure prediction by ZEFSAII (Michael W. Deem and Ramdas Pophale) SiO2 
 PCOD9082046
Probable space group: P -1
;
_chemical_formula_sum "Si O2"
_cell_formula_units_Z 15
_cell_length_a 10.352583
_cell_length_b 18.078015
_cell_length_c 7.851591
_cell_angle_alpha 58.349493
_cell_angle_beta 45.968027
_cell_angle_gamma 34.182354
_cell_volume 588.943271
_symmetry_space_group_name_H-M "P -1"
_symmetry_group_IT_number 2
_symmetry_cell_setting 'triclinic'
loop_
_space_group_symop_operation_xyz
x,y,z
-x,-y,-z
loop_
_atom_site_type_symbol
_atom_site_label
_atom_site_fract_x
_atom_site_fract_y
_atom_site_fract_z
Si Si1 0.540054 0.556911 0.538869
Si Si2 0.667115 0.767520 0.140636
Si Si3 0.892857 0.067074 0.740823
Si Si4 0.014428 0.285919 0.561115
Si Si5 0.000000 0.500000 0.000000
Si Si6 0.724649 0.656694 0.581511
Si Si7 0.849589 0.183250 0.001645
Si Si8 0.942613 0.826933 0.706084
O O1 0.500000 0.500000 0.500000
O O2 0.717600 0.441120 0.655348
O O3 0.240521 0.704159 0.669296
O O4 0.738180 0.558260 0.280161
O O5 0.401007 0.841049 0.185326
O O6 0.655686 0.735144 0.380710
O O7 0.928753 0.623978 0.987190
O O8 0.726320 0.849026 0.981326
O O9 0.072359 0.065759 0.458213
O O10 0.859661 0.131193 0.871750
O O11 0.027703 0.927244 0.839661
O O12 0.052464 0.223233 0.423144
O O13 0.226743 0.286878 0.389020
O O14 0.015518 0.211265 0.792705
O O15 0.472588 0.688083 0.823632
O O16 0.000000 0.500000 0.500000
#
# Coordination Sequence:
#
# PCOD9082046 Si02
#       8
#     2   2   2   2   1   2   2   2
#     4  10  19  32  62  94 124 165 209 276 320 374
#     4  12  25  38  68  98 130 180 216 281 325 404
#     4  10  23  46  74  97 124 179 237 270 325 384
#     4  10  22  42  64  95 135 175 214 275 331 393
#     4  12  20  36  64  96 132 158 228 272 320 386
#     4  12  29  42  62 103 143 177 211 270 353 397
#     4  10  25  47  70  96 135 177 222 282 324 398
#     4  10  21  38  69 100 125 170 231 278 323 386
#
# _framework density 25.469346999999999
#
# number of rings (size 3 to 8) (size 9 to 14) (size 15 to 20)
#    0.000    1.333    4.000    1.600    3.733    3.200 
#    0.000    5.333    0.000    0.000    0.000    0.000 
#    0.000    0.000    0.000    0.000    0.000    0.000 
#
# Total GULP energy -83793.921560 kJ/mol
# GULP energy per Si atom -5586.261437 kJ/mol
# Density = 2.541138 g / cm^3
# Si number density = 25.469347 Si / 1000 Ang^3
#
#
#
# Elastic Constant Matrix: (Units=GPa)
#
#
# Indices 1 2 3 4 5 6 
#
# 1 95.7806 7.1330 13.5268 -10.7193 0.1648 -8.9744
# 2 7.1330 70.0759 7.9905 -18.3974 10.6052 3.2654
# 3 13.5268 7.9905 114.2832 -30.7634 -20.3352 0.7061
# 4 -10.7193 -18.3974 -30.7634 42.3612 11.6460 2.4014
# 5 0.1648 10.6052 -20.3352 11.6460 44.1264 -6.5656
# 6 -8.9744 3.2654 0.7061 2.4014 -6.5656 30.3189
#
#
#
# Elastic Compliance Matrix: (Units=1/GPa)
#
#
# Indices 1 2 3 4 5 6 
#
# 1 0.011110 -0.000668 -0.000853 0.001797 -0.000275 0.003178
# 2 -0.000668 0.018439 0.000241 0.010415 -0.007766 -0.004696
# 3 -0.000853 0.000241 0.011368 0.007290 0.003197 -0.000428
# 4 0.001797 0.010415 0.007290 0.036886 -0.009747 -0.005792
# 5 -0.000275 -0.007766 0.003197 -0.009747 0.029750 0.007895
# 6 0.003178 -0.004696 -0.000428 -0.005792 0.007895 0.036608
#
#
# Mechanical properties :
#
#
# Convention : Reuss Voigt Hill
#
# Bulk Modulus (GPa) = 26.07171 37.49337 31.78254
# Shear Modulus (GPa) = 31.34635 40.12727 35.73681
#
# Velocity S-wave (km/s) = 3.51201 3.97358 3.74990
# Velocity P-wave (km/s) = 5.16762 5.98376 5.59060
#
# Compressibility (1/GPa) = 0.03835575
#
# Stress axis : x y z
#
# Youngs Moduli (GPa) = 90.00736 54.23245 87.96558
#
# Poissons Ratio (x) = 0.03624 0.07505
# Poissons Ratio (y) = 0.06015 -0.02116
# Poissons Ratio (z) = 0.07679 -0.01305
#
# Static dielectric constant tensor:
#      x y z
#    x 2.056850 0.049120 0.013130 
#    y 0.049120 2.092460 -0.021030 
#    z 0.013130 -0.021030 1.967560 
# 
# From -- ./inp_files/281598.got.cif
#   From: 2010.05.17/outbox.cif.g08.bks.cpg/sg2_141_cif.got.tgz:281598.got - 2010.06.03 11:33:40.
