data_PCOD9082928
_publ_section_title
;
Structure prediction by ZEFSAII (Michael W. Deem and Ramdas Pophale) SiO2 
 PCOD9082928
Probable space group: P -1
;
_chemical_formula_sum "Si O2"
_cell_formula_units_Z 14
_cell_length_a 12.073544
_cell_length_b 7.432384
_cell_length_c 7.200533
_cell_angle_alpha 120.339196
_cell_angle_beta 71.713069
_cell_angle_gamma 110.243364
_cell_volume 515.440619
_symmetry_space_group_name_H-M "P -1"
_symmetry_group_IT_number 2
_symmetry_cell_setting 'triclinic'
loop_
_space_group_symop_operation_xyz
x,y,z
-x,-y,-z
loop_
_atom_site_type_symbol
_atom_site_label
_atom_site_fract_x
_atom_site_fract_y
_atom_site_fract_z
Si Si1 0.188269 0.736468 0.987661
Si Si2 0.894953 0.908871 0.367324
Si Si3 0.897758 0.629932 0.885638
Si Si4 0.321742 0.175987 0.985303
Si Si5 0.689026 0.137928 0.498545
Si Si6 0.563782 0.219862 0.983705
Si Si7 0.159650 0.466020 0.536925
O O1 0.119171 0.603499 0.128173
O O2 0.234399 0.993041 0.066099
O O3 0.114358 0.628930 0.788069
O O4 0.319525 0.677906 0.903935
O O5 0.813120 0.069778 0.446034
O O6 0.081309 0.373158 0.349704
O O7 0.947242 0.816805 0.108625
O O8 0.819396 0.713051 0.426764
O O9 0.762276 0.678238 0.971117
O O10 0.723450 0.374370 0.519488
O O11 0.359976 0.035229 0.724659
O O12 0.446425 0.314679 0.071749
O O13 0.617151 0.153209 0.729041
O O14 0.500000 0.000000 0.000000
O O15 0.000000 0.000000 0.500000
#
# Coordination Sequence:
#
# PCOD9082928 Si02
#       7
#     2   2   2   2   2   2   2
#     4   9  19  36  52  85 119 152 193 237 271 340
#     4  10  24  42  62  89 113 143 198 246 288 352
#     4  10  20  38  60  84 118 151 189 238 290 340
#     4   9  20  34  57  84 118 159 194 231 278 337
#     4  10  20  40  60  83 121 158 186 239 293 335
#     4  10  19  33  59  86 119 156 199 229 276 338
#     4  10  21  37  64  83 116 157 188 233 302 338
#
# _framework density 27.161228000000001
#
# number of rings (size 3 to 8) (size 9 to 14) (size 15 to 20)
#    0.000    2.286    1.429    0.429    4.000    1.714 
#    0.000    1.429    0.000    0.000    0.000    0.000 
#    0.000    0.000    0.000    0.000    0.000    0.000 
#
# Total GULP energy -78213.386974 kJ/mol
# GULP energy per Si atom -5586.670498 kJ/mol
# Density = 2.709941 g / cm^3
# Si number density = 27.161228 Si / 1000 Ang^3
#
#
#
# Elastic Constant Matrix: (Units=GPa)
#
#
# Indices 1 2 3 4 5 6 
#
# 1 63.9893 2.2833 28.4314 4.4667 20.2433 -3.0141
# 2 2.2833 145.2881 16.9544 -30.1825 -1.6563 -3.3118
# 3 28.4314 16.9544 175.6598 -13.5215 6.6696 4.9336
# 4 4.4667 -30.1825 -13.5215 40.6390 3.4272 3.5570
# 5 20.2433 -1.6563 6.6696 3.4272 46.1001 2.3001
# 6 -3.0141 -3.3118 4.9336 3.5570 2.3001 37.7065
#
#
#
# Elastic Compliance Matrix: (Units=1/GPa)
#
#
# Indices 1 2 3 4 5 6 
#
# 1 0.020046 -0.000659 -0.003200 -0.003304 -0.008256 0.002779
# 2 -0.000659 0.008181 -0.000227 0.006049 0.000161 0.000115
# 3 -0.003200 -0.000227 0.006444 0.002417 0.000353 -0.001368
# 4 -0.003304 0.006049 0.002417 0.030588 -0.000811 -0.002885
# 5 -0.008256 0.000161 0.000353 -0.000811 0.025441 -0.002167
# 6 0.002779 0.000115 -0.001368 -0.002885 -0.002167 0.027336
#
#
# Mechanical properties :
#
#
# Convention : Reuss Voigt Hill
#
# Bulk Modulus (GPa) = 37.73571 53.36393 45.54982
# Shear Modulus (GPa) = 37.02609 47.37368 42.19989
#
# Velocity S-wave (km/s) = 3.69615 4.18085 3.94595
# Velocity P-wave (km/s) = 5.66911 6.55712 6.12922
#
# Compressibility (1/GPa) = 0.02650010
#
# Stress axis : x y z
#
# Youngs Moduli (GPa) = 49.88437 122.23711 155.19013
#
# Poissons Ratio (x) = 0.08053 0.49659
# Poissons Ratio (y) = 0.03287 0.03517
# Poissons Ratio (z) = 0.15963 0.02770
#
# Static dielectric constant tensor:
#      x y z
#    x 2.375210 0.005710 -0.008620 
#    y 0.005710 2.081070 -0.017680 
#    z -0.008620 -0.017680 2.255430 
# 
# From -- ./inp_files/293408.got.cif
#   From: 2010.05.17/outbox.cif.g08.bks.cpg/sg2_147_cif.got.tgz:293408.got - 2010.06.03 11:33:40.
