data_PCOD9082488
_publ_section_title
;
Structure prediction by ZEFSAII (Michael W. Deem and Ramdas Pophale) SiO2 
 PCOD9082488
Probable space group: P -1
;
_chemical_formula_sum "Si O2"
_cell_formula_units_Z 16
_cell_length_a 7.117828
_cell_length_b 17.895355
_cell_length_c 11.065036
_cell_angle_alpha 62.493078
_cell_angle_beta 117.705849
_cell_angle_gamma 147.350308
_cell_volume 665.852998
_symmetry_space_group_name_H-M "P -1"
_symmetry_group_IT_number 2
_symmetry_cell_setting 'triclinic'
loop_
_space_group_symop_operation_xyz
x,y,z
-x,-y,-z
loop_
_atom_site_type_symbol
_atom_site_label
_atom_site_fract_x
_atom_site_fract_y
_atom_site_fract_z
Si Si1 0.738824 0.223960 0.713688
Si Si2 0.811897 0.650373 0.044328
Si Si3 0.900820 0.104080 0.178351
Si Si4 0.670948 0.835754 0.554688
Si Si5 0.686835 0.882997 0.900143
Si Si6 0.656248 0.380140 0.902955
Si Si7 0.324524 0.357262 0.595246
Si Si8 0.697777 0.145538 0.401795
O O1 0.535678 0.234767 0.578393
O O2 0.942183 0.325024 0.812950
O O3 0.010364 0.273482 0.660243
O O4 0.467683 0.061408 0.786249
O O5 0.621628 0.653416 0.078003
O O6 0.500000 0.500000 0.000000
O O7 0.072675 0.794147 0.940917
O O8 0.146024 0.183415 0.311513
O O9 0.113030 0.109713 0.146768
O O10 0.427894 0.811190 0.593232
O O11 0.000000 0.000000 0.500000
O O12 0.463826 0.882972 0.758585
O O13 0.431279 0.744507 0.006943
O O14 0.000000 0.000000 0.000000
O O15 0.602926 0.393712 0.737466
O O16 0.000000 0.500000 0.000000
O O17 0.500000 0.500000 0.500000
O O18 0.102787 0.259387 0.481688
O O19 0.500000 0.000000 0.500000
#
# Coordination Sequence:
#
# PCOD9082488 Si02
#       8
#     2   2   2   2   2   2   2   2
#     4   9  18  35  57  80 105 144 186 226 275 331
#     4  10  21  36  55  84 115 146 185 229 277 331
#     4   9  18  35  59  82 112 147 185 228 276 332
#     4   8  16  33  55  77 105 143 183 223 273 327
#     4  10  20  34  56  87 115 147 187 230 279 334
#     4  10  21  38  56  79 113 152 188 229 283 341
#     4  10  20  36  56  79 109 146 186 232 284 333
#     4  10  19  33  55  84 112 141 183 233 277 329
#
# _framework density 24.029326999999999
#
# number of rings (size 3 to 8) (size 9 to 14) (size 15 to 20)
#    0.000    2.500    0.000    1.875    0.000    3.000 
#    0.000   13.125    0.000    0.000    0.000    0.000 
#    0.000    0.000    0.000    0.000    0.000    0.000 
#
# Total GULP energy -89146.534963 kJ/mol
# GULP energy per Si atom -5571.658435 kJ/mol
# Density = 2.397464 g / cm^3
# Si number density = 24.029327 Si / 1000 Ang^3
#
#
#
# Elastic Constant Matrix: (Units=GPa)
#
#
# Indices 1 2 3 4 5 6 
#
# 1 74.2848 2.9709 27.6114 2.3956 0.8442 1.9316
# 2 2.9709 154.6527 103.0809 37.4754 5.9345 -4.9911
# 3 27.6114 103.0809 246.9439 53.6628 19.9220 -7.4942
# 4 2.3956 37.4754 53.6628 56.9911 3.3071 -0.8035
# 5 0.8442 5.9345 19.9220 3.3071 35.2516 0.4912
# 6 1.9316 -4.9911 -7.4942 -0.8035 0.4912 24.1599
#
#
#
# Elastic Compliance Matrix: (Units=1/GPa)
#
#
# Indices 1 2 3 4 5 6 
#
# 1 0.014283 0.000967 -0.002297 0.000861 0.000735 -0.001641
# 2 0.000967 0.009472 -0.003421 -0.003073 0.000594 0.000704
# 3 -0.002297 -0.003421 0.006870 -0.003932 -0.002904 0.001536
# 4 0.000861 -0.003073 -0.003932 0.023185 0.000560 -0.001164
# 5 0.000735 0.000594 -0.002904 0.000560 0.029858 -0.001425
# 6 -0.001641 0.000704 0.001536 -0.001164 -0.001425 0.042134
#
#
# Mechanical properties :
#
#
# Convention : Reuss Voigt Hill
#
# Bulk Modulus (GPa) = 47.34096 82.57863 64.95980
# Shear Modulus (GPa) = 35.12586 46.09508 40.61047
#
# Velocity S-wave (km/s) = 3.82749 4.38457 4.11547
# Velocity P-wave (km/s) = 6.26713 7.75068 7.04805
#
# Compressibility (1/GPa) = 0.02112336
#
# Stress axis : x y z
#
# Youngs Moduli (GPa) = 70.01187 105.57296 145.56729
#
# Poissons Ratio (x) = -0.10206 0.33433
# Poissons Ratio (y) = -0.06768 0.49796
# Poissons Ratio (z) = 0.16080 0.36115
#
# Static dielectric constant tensor:
#      x y z
#    x 2.168090 0.164740 -0.019590 
#    y 0.164740 2.005400 0.116440 
#    z -0.019590 0.116440 2.110670 
# 
# From -- ./inp_files/405486.got.cif
#   From: 2010.05.17/outbox.cif.g08.bks.cpg/sg2_203_cif.got.tgz:405486.got - 2010.06.03 11:33:40.
