data_PCOD9082691
_publ_section_title
;
Structure prediction by ZEFSAII (Michael W. Deem and Ramdas Pophale) SiO2 
 PCOD9082691
Probable space group: P -1
;
_chemical_formula_sum "Si O2"
_cell_formula_units_Z 14
_cell_length_a 8.082957
_cell_length_b 10.333632
_cell_length_c 7.951157
_cell_angle_alpha 74.867490
_cell_angle_beta 101.915491
_cell_angle_gamma 127.087793
_cell_volume 510.376569
_symmetry_space_group_name_H-M "P -1"
_symmetry_group_IT_number 2
_symmetry_cell_setting 'triclinic'
loop_
_space_group_symop_operation_xyz
x,y,z
-x,-y,-z
loop_
_atom_site_type_symbol
_atom_site_label
_atom_site_fract_x
_atom_site_fract_y
_atom_site_fract_z
Si Si1 0.887862 0.254146 0.090023
Si Si2 0.883517 0.589577 0.425416
Si Si3 0.328511 0.187485 0.195477
Si Si4 0.897609 0.977113 0.305419
Si Si5 0.489822 0.306211 0.557481
Si Si6 0.279799 0.867283 0.281898
Si Si7 0.282464 0.531513 0.937298
O O1 0.822905 0.096358 0.236550
O O2 0.806304 0.357803 0.103572
O O3 0.800876 0.194008 0.903967
O O4 0.139471 0.382716 0.085621
O O5 0.688643 0.496692 0.544063
O O6 0.781119 0.543921 0.235960
O O7 0.000000 0.500000 0.500000
O O8 0.077749 0.779584 0.392964
O O9 0.389659 0.268336 0.364925
O O10 0.469486 0.336916 0.045789
O O11 0.079970 0.061342 0.176280
O O12 0.393911 0.061291 0.244316
O O13 0.699597 0.787570 0.318599
O O14 0.000000 0.000000 0.500000
O O15 0.589640 0.203228 0.621179
#
# Coordination Sequence:
#
# PCOD9082691 Si02
#       7
#     2   2   2   2   2   2   2
#     4  10  21  37  56  81 109 139 181 226 270 315
#     4   8  16  31  54  81 105 131 173 224 269 309
#     4  10  20  34  54  80 109 144 179 213 267 326
#     4  10  22  36  52  77 112 147 178 215 266 327
#     4   9  18  35  55  77 108 143 182 223 263 313
#     4  10  19  33  57  82 106 138 180 231 267 307
#     4   9  19  36  58  81 104 138 182 226 268 312
#
# _framework density 27.430728999999999
#
# number of rings (size 3 to 8) (size 9 to 14) (size 15 to 20)
#    0.000    2.571    0.000    1.286    0.000    9.143 
#    0.000    0.714    0.000   12.000    0.000    0.000 
#    0.000    0.000    0.000    0.000    0.000    0.000 
#
# Total GULP energy -78361.596469 kJ/mol
# GULP energy per Si atom -5597.256891 kJ/mol
# Density = 2.736830 g / cm^3
# Si number density = 27.430729 Si / 1000 Ang^3
#
#
#
# Elastic Constant Matrix: (Units=GPa)
#
#
# Indices 1 2 3 4 5 6 
#
# 1 111.4823 35.3465 29.4687 -7.9114 -15.7418 27.7236
# 2 35.3465 143.2555 66.2063 -47.7555 -23.2090 20.7021
# 3 29.4687 66.2063 100.9953 3.8691 7.2371 8.3294
# 4 -7.9114 -47.7555 3.8691 65.0201 6.3214 -17.7922
# 5 -15.7418 -23.2090 7.2371 6.3214 34.0615 -22.2334
# 6 27.7236 20.7021 8.3294 -17.7922 -22.2334 65.4262
#
#
#
# Elastic Compliance Matrix: (Units=1/GPa)
#
#
# Indices 1 2 3 4 5 6 
#
# 1 0.011137 -0.000151 -0.003192 0.000271 0.003773 -0.002909
# 2 -0.000151 0.024771 -0.019127 0.019187 0.022145 0.007404
# 3 -0.003192 -0.019127 0.026222 -0.015979 -0.022226 -0.007832
# 4 0.000271 0.019187 -0.015979 0.031597 0.017514 0.010392
# 5 0.003773 0.022145 -0.022226 0.017514 0.060400 0.019512
# 6 -0.002909 0.007404 -0.007832 0.010392 0.019512 0.024628
#
#
# Mechanical properties :
#
#
# Convention : Reuss Voigt Hill
#
# Bulk Modulus (GPa) = 58.16841 68.64178 63.40509
# Shear Modulus (GPa) = 21.79372 47.88235 34.83803
#
# Velocity S-wave (km/s) = 2.82175 4.18254 3.56762
# Velocity P-wave (km/s) = 5.64517 6.95721 6.33525
#
# Compressibility (1/GPa) = 0.01719146
#
# Stress axis : x y z
#
# Youngs Moduli (GPa) = 89.79104 40.36958 38.13601
#
# Poissons Ratio (x) = 0.00608 0.12172
# Poissons Ratio (y) = 0.01353 0.72943
# Poissons Ratio (z) = 0.28658 0.77215
#
# Static dielectric constant tensor:
#      x y z
#    x 2.265410 0.043080 -0.019070 
#    y 0.043080 2.088720 -0.072240 
#    z -0.019070 -0.072240 2.030110 
# 
# From -- ./inp_files/154090.got.cif
#   From: 2010.05.17/outbox.cif.g08.bks.cpg/sg2_78_cif.got.tgz:154090.got - 2010.06.03 11:33:40.
