data_PCOD9082126
_publ_section_title
;
Structure prediction by ZEFSAII (Michael W. Deem and Ramdas Pophale) SiO2 
 PCOD9082126
Probable space group: P -1
;
_chemical_formula_sum "Si O2"
_cell_formula_units_Z 16
_cell_length_a 5.300736
_cell_length_b 8.292123
_cell_length_c 18.521849
_cell_angle_alpha 50.863335
_cell_angle_beta 99.737456
_cell_angle_gamma 90.240089
_cell_volume 616.739117
_symmetry_space_group_name_H-M "P -1"
_symmetry_group_IT_number 2
_symmetry_cell_setting 'triclinic'
loop_
_space_group_symop_operation_xyz
x,y,z
-x,-y,-z
loop_
_atom_site_type_symbol
_atom_site_label
_atom_site_fract_x
_atom_site_fract_y
_atom_site_fract_z
Si Si1 0.489992 0.722369 0.652490
Si Si2 0.809047 0.861106 0.490546
Si Si3 0.261895 0.453097 0.926136
Si Si4 0.737131 0.242607 0.692150
Si Si5 0.186207 0.468229 0.605630
Si Si6 0.695883 0.145160 0.998983
Si Si7 0.113107 0.606501 0.186669
Si Si8 0.945217 0.835027 0.876823
O O1 0.639463 0.768741 0.571307
O O2 0.281255 0.572200 0.656559
O O3 0.689951 0.608011 0.751636
O O4 0.372612 0.952413 0.610843
O O5 0.987751 0.672248 0.512542
O O6 0.000000 0.000000 0.500000
O O7 0.562681 0.370959 0.959752
O O8 0.123973 0.677501 0.879059
O O9 0.165182 0.428701 0.846020
O O10 0.171133 0.294366 0.027683
O O11 0.462927 0.362677 0.617046
O O12 0.796878 0.335747 0.746961
O O13 0.995273 0.292928 0.651076
O O14 0.744949 0.996896 0.778011
O O15 0.837289 0.211547 0.917046
O O16 0.857537 0.041270 0.102828
O O17 0.500000 0.000000 0.000000
#
# Coordination Sequence:
#
# PCOD9082126 Si02
#       8
#     2   2   2   2   2   2   2   2
#     4   9  18  30  51  82 119 152 185 228 300 347
#     4   9  16  30  51  79 121 152 178 229 296 357
#     4  10  22  39  55  75 117 150 200 243 292 346
#     4  11  22  34  58  84 113 153 194 245 285 345
#     4  10  19  33  51  83 117 146 189 235 290 341
#     4  11  22  35  59  82 113 150 195 244 294 342
#     4  10  21  34  54  85 113 147 192 242 289 342
#     4  10  23  39  53  79 108 159 200 241 293 346
#
# _framework density 25.942899000000001
#
# number of rings (size 3 to 8) (size 9 to 14) (size 15 to 20)
#    0.000    2.000    2.500    1.875    8.750    2.000 
#    0.000    0.000    0.000    0.000    0.000    1.750 
#    0.000    0.500    0.000    0.000    0.000    0.000 
#
# Total GULP energy -89251.314844 kJ/mol
# GULP energy per Si atom -5578.207178 kJ/mol
# Density = 2.588385 g / cm^3
# Si number density = 25.942899 Si / 1000 Ang^3
#
#
#
# Elastic Constant Matrix: (Units=GPa)
#
#
# Indices 1 2 3 4 5 6 
#
# 1 111.2698 19.1551 35.8632 0.8042 28.0408 -4.2978
# 2 19.1551 52.9026 21.8723 1.9657 1.6003 -19.4921
# 3 35.8632 21.8723 118.3792 -13.7648 40.6835 -4.2014
# 4 0.8042 1.9657 -13.7648 35.8025 -11.7856 9.2259
# 5 28.0408 1.6003 40.6835 -11.7856 53.2137 -8.1725
# 6 -4.2978 -19.4921 -4.2014 9.2259 -8.1725 30.2405
#
#
#
# Elastic Compliance Matrix: (Units=1/GPa)
#
#
# Indices 1 2 3 4 5 6 
#
# 1 0.011462 -0.004454 -0.000875 -0.001685 -0.005990 -0.002468
# 2 -0.004454 0.032844 -0.008041 -0.007961 0.009493 0.024414
# 3 -0.000875 -0.008041 0.013920 0.004405 -0.010108 -0.007449
# 4 -0.001685 -0.007961 0.004405 0.034917 0.003261 -0.014530
# 5 -0.005990 0.009493 -0.010108 0.003261 0.031876 0.011483
# 6 -0.002468 0.024414 -0.007449 -0.014530 0.011483 0.054956
#
#
# Mechanical properties :
#
#
# Convention : Reuss Voigt Hill
#
# Bulk Modulus (GPa) = 31.75953 48.48141 40.12047
# Shear Modulus (GPa) = 23.01923 37.56207 30.29065
#
# Velocity S-wave (km/s) = 2.98200 3.80922 3.42071
# Velocity P-wave (km/s) = 4.91173 6.17051 5.57675
#
# Compressibility (1/GPa) = 0.03148661
#
# Stress axis : x y z
#
# Youngs Moduli (GPa) = 87.24411 30.44689 71.84137
#
# Poissons Ratio (x) = 0.13562 0.06283
# Poissons Ratio (y) = 0.38861 0.57766
# Poissons Ratio (z) = 0.07630 0.24481
#
# Static dielectric constant tensor:
#      x y z
#    x 2.150890 -0.034190 0.000010 
#    y -0.034190 2.160170 -0.076500 
#    z 0.000010 -0.076500 2.019890 
# 
# From -- ./inp_files/117071.got.cif
#   From: 2010.05.17/outbox.cif.g08.bks.cpg/sg2_59_cif.got.tgz:117071.got - 2010.06.03 11:33:40.
