data_PCOD9082880
_publ_section_title
;
Structure prediction by ZEFSAII (Michael W. Deem and Ramdas Pophale) SiO2 
 PCOD9082880
Probable space group: P -1
;
_chemical_formula_sum "Si O2"
_cell_formula_units_Z 14
_cell_length_a 12.193296
_cell_length_b 15.960567
_cell_length_c 8.703496
_cell_angle_alpha 129.587551
_cell_angle_beta 117.262822
_cell_angle_gamma 25.701213
_cell_volume 530.816101
_symmetry_space_group_name_H-M "P -1"
_symmetry_group_IT_number 2
_symmetry_cell_setting 'triclinic'
loop_
_space_group_symop_operation_xyz
x,y,z
-x,-y,-z
loop_
_atom_site_type_symbol
_atom_site_label
_atom_site_fract_x
_atom_site_fract_y
_atom_site_fract_z
Si Si1 0.219849 0.258068 0.963551
Si Si2 0.469752 0.335767 0.559026
Si Si3 0.689535 0.762242 0.547500
Si Si4 0.635548 0.349311 0.102313
Si Si5 0.912309 0.301386 0.765092
Si Si6 0.140359 0.869243 0.672403
Si Si7 0.057081 0.577843 0.374082
O O1 0.089677 0.245009 0.917652
O O2 0.505040 0.000220 0.778113
O O3 0.268243 0.312785 0.184979
O O4 0.000000 0.500000 0.000000
O O5 0.480470 0.216289 0.523478
O O6 0.473237 0.447167 0.776165
O O7 0.673481 0.191622 0.375647
O O8 0.165596 0.567026 0.567333
O O9 0.000000 0.500000 0.500000
O O10 0.773510 0.742669 0.413046
O O11 0.382620 0.467026 0.079527
O O12 0.705234 0.299132 0.274031
O O13 0.886428 0.120668 0.891054
O O14 0.944815 0.153912 0.539203
O O15 0.934889 0.351969 0.683195
#
# Coordination Sequence:
#
# PCOD9082880 Si02
#       7
#     2   2   2   2   2   2   2
#     4  10  24  40  61  89 124 166 204 244 302 362
#     4  10  19  37  57  87 123 150 201 253 297 354
#     4  10  24  40  61  89 124 166 204 244 302 362
#     4  10  19  33  58  90 112 159 199 250 304 352
#     4  10  19  37  57  87 123 150 201 253 297 354
#     4  10  19  33  62  85 120 156 201 251 302 349
#     4  10  20  37  60  87 124 160 200 250 298 358
#
# _framework density 26.374483000000001
#
# number of rings (size 3 to 8) (size 9 to 14) (size 15 to 20)
#    0.000    2.000    2.857    0.857    0.000   11.429 
#    0.000    2.857    0.000    5.143    0.000    0.000 
#    0.000    0.000    0.000    0.000    0.000    0.000 
#
# Total GULP energy -78042.641321 kJ/mol
# GULP energy per Si atom -5574.474380 kJ/mol
# Density = 2.631445 g / cm^3
# Si number density = 26.374483 Si / 1000 Ang^3
#
#
#
# Elastic Constant Matrix: (Units=GPa)
#
#
# Indices 1 2 3 4 5 6 
#
# 1 223.8982 24.8587 68.7443 16.4762 -11.0125 -35.3805
# 2 24.8587 96.5147 12.6031 6.6909 0.4141 2.8494
# 3 68.7443 12.6031 138.5943 38.2987 -6.9781 -17.8277
# 4 16.4762 6.6909 38.2987 37.9325 -14.6827 0.0654
# 5 -11.0125 0.4141 -6.9781 -14.6827 44.7960 -2.9804
# 6 -35.3805 2.8494 -17.8277 0.0654 -2.9804 39.7609
#
#
#
# Elastic Compliance Matrix: (Units=1/GPa)
#
#
# Indices 1 2 3 4 5 6 
#
# 1 0.006129 -0.001453 -0.002419 0.000675 0.001671 0.004598
# 2 -0.001453 0.010939 -0.000195 -0.001540 -0.001143 -0.002247
# 3 -0.002419 -0.000195 0.012026 -0.012011 -0.002451 0.003090
# 4 0.000675 -0.001540 -0.012011 0.043202 0.012215 -0.003830
# 5 0.001671 -0.001143 -0.002451 0.012215 0.026529 0.002438
# 6 0.004598 -0.002247 0.003090 -0.003830 0.002438 0.030977
#
#
# Mechanical properties :
#
#
# Convention : Reuss Voigt Hill
#
# Bulk Modulus (GPa) = 47.70968 74.60215 61.15592
# Shear Modulus (GPa) = 34.50110 48.01797 41.25954
#
# Velocity S-wave (km/s) = 3.62072 4.27150 3.95951
# Velocity P-wave (km/s) = 5.96725 7.25774 6.64390
#
# Compressibility (1/GPa) = 0.02096011
#
# Stress axis : x y z
#
# Youngs Moduli (GPa) = 163.14918 91.41832 83.15248
#
# Poissons Ratio (x) = 0.13279 0.20116
# Poissons Ratio (y) = 0.23697 0.01624
# Poissons Ratio (z) = 0.39469 0.01786
#
# Static dielectric constant tensor:
#      x y z
#    x 2.137020 0.177430 -0.131510 
#    y 0.177430 2.426060 -0.280150 
#    z -0.131510 -0.280150 2.432320 
# 
# From -- ./inp_files/431729.got.cif
#   From: 2010.05.17/outbox.cif.g08.bks.cpg/sg2_216_cif.got.tgz:431729.got - 2010.06.03 11:33:40.
