data_PCOD9082652
_publ_section_title
;
Structure prediction by ZEFSAII (Michael W. Deem and Ramdas Pophale) SiO2 
 PCOD9082652
Probable space group: P -1
;
_chemical_formula_sum "Si O2"
_cell_formula_units_Z 16
_cell_length_a 19.756658
_cell_length_b 11.885253
_cell_length_c 10.359046
_cell_angle_alpha 65.716812
_cell_angle_beta 135.437415
_cell_angle_gamma 149.147995
_cell_volume 726.963680
_symmetry_space_group_name_H-M "P -1"
_symmetry_group_IT_number 2
_symmetry_cell_setting 'triclinic'
loop_
_space_group_symop_operation_xyz
x,y,z
-x,-y,-z
loop_
_atom_site_type_symbol
_atom_site_label
_atom_site_fract_x
_atom_site_fract_y
_atom_site_fract_z
Si Si1 0.602476 0.230871 0.958388
Si Si2 0.183469 0.333235 0.517027
Si Si3 0.633937 0.919352 0.515935
Si Si4 0.775959 0.017740 0.092209
Si Si5 0.548409 0.643299 0.722689
Si Si6 0.378738 0.526175 0.957658
Si Si7 0.929354 0.473157 0.097000
Si Si8 0.326585 0.704899 0.381384
O O1 0.429668 0.112360 0.698622
O O2 0.690763 0.429300 0.085128
O O3 0.777555 0.372776 0.036993
O O4 0.500000 0.000000 0.000000
O O5 0.305186 0.386199 0.553147
O O6 0.236066 0.346014 0.723821
O O7 0.281861 0.581005 0.508804
O O8 0.948178 0.106048 0.289165
O O9 0.633738 0.777806 0.633524
O O10 0.434426 0.735611 0.413342
O O11 0.837956 0.224948 0.692288
O O12 0.868569 0.259891 0.120765
O O13 0.663571 0.868169 0.872729
O O14 0.604609 0.802617 0.070886
O O15 0.612198 0.579559 0.884998
O O16 0.866845 0.455529 0.879459
O O17 0.500000 0.000000 0.500000
#
# Coordination Sequence:
#
# PCOD9082652 Si02
#       8
#     2   2   2   2   2   2   2   2
#     4  11  25  43  61  87 122 158 206 252 297 349
#     4  10  21  35  60  90 120 155 193 243 300 353
#     4  10  23  39  61  89 118 162 199 248 299 351
#     4  11  21  36  63  95 120 157 196 243 305 363
#     4  10  23  42  61  88 125 155 199 245 300 361
#     4  11  24  42  59  86 124 163 201 247 291 352
#     4  11  22  38  63  92 123 156 202 246 301 359
#     4  10  19  33  56  88 126 155 188 242 301 356
#
# _framework density 22.009353000000001
#
# number of rings (size 3 to 8) (size 9 to 14) (size 15 to 20)
#    0.000    1.500    1.250    5.250    3.500    5.500 
#    0.000    0.625    0.000    0.000    0.000    0.000 
#    0.000    0.000    0.000    0.000    0.000    0.000 
#
# Total GULP energy -89299.212888 kJ/mol
# GULP energy per Si atom -5581.200806 kJ/mol
# Density = 2.195926 g / cm^3
# Si number density = 22.009353 Si / 1000 Ang^3
#
#
#
# Elastic Constant Matrix: (Units=GPa)
#
#
# Indices 1 2 3 4 5 6 
#
# 1 53.8617 24.2751 7.4992 -1.6613 13.4898 0.7464
# 2 24.2751 116.9837 37.3870 -34.8640 -3.0792 -3.1058
# 3 7.4992 37.3870 105.6479 -5.3477 14.9694 14.1905
# 4 -1.6613 -34.8640 -5.3477 38.6665 5.5315 -1.2287
# 5 13.4898 -3.0792 14.9694 5.5315 30.8242 -3.9976
# 6 0.7464 -3.1058 14.1905 -1.2287 -3.9976 24.4717
#
#
#
# Elastic Compliance Matrix: (Units=1/GPa)
#
#
# Indices 1 2 3 4 5 6 
#
# 1 0.025095 -0.008088 0.003675 -0.003950 -0.013691 -0.006358
# 2 -0.008088 0.016663 -0.006782 0.012964 0.007225 0.008125
# 3 0.003675 -0.006782 0.014402 -0.002858 -0.010211 -0.011136
# 4 -0.003950 0.012964 -0.002858 0.037381 -0.001644 0.005031
# 5 -0.013691 0.007225 -0.010211 -0.001644 0.046321 0.014740
# 6 -0.006358 0.008125 -0.011136 0.005031 0.014740 0.051207
#
#
# Mechanical properties :
#
#
# Convention : Reuss Voigt Hill
#
# Bulk Modulus (GPa) = 29.61141 46.09064 37.85102
# Shear Modulus (GPa) = 22.25030 32.61464 27.43247
#
# Velocity S-wave (km/s) = 3.18299 3.85366 3.53427
# Velocity P-wave (km/s) = 5.19536 6.38653 5.82149
#
# Compressibility (1/GPa) = 0.03377077
#
# Stress axis : x y z
#
# Youngs Moduli (GPa) = 39.84883 60.01215 69.43282
#
# Poissons Ratio (x) = 0.48538 -0.25515
# Poissons Ratio (y) = 0.32230 0.47087
# Poissons Ratio (z) = -0.14644 0.40698
#
# Static dielectric constant tensor:
#      x y z
#    x 1.836200 -0.010610 0.027580 
#    y -0.010610 1.851730 -0.048500 
#    z 0.027580 -0.048500 1.878550 
# 
# From -- ./inp_files/465102.got.cif
#   From: 2010.05.17/outbox.cif.g08.bks.cpg/sg2_233_cif.got.tgz:465102.got - 2010.06.03 11:33:40.
