data_PCOD9082108
_publ_section_title
;
Structure prediction by ZEFSAII (Michael W. Deem and Ramdas Pophale) SiO2 
 PCOD9082108
Probable space group: P -1
;
_chemical_formula_sum "Si O2"
_cell_formula_units_Z 16
_cell_length_a 12.474434
_cell_length_b 21.530304
_cell_length_c 15.601932
_cell_angle_alpha 152.196217
_cell_angle_beta 26.122745
_cell_angle_gamma 149.765423
_cell_volume 809.395495
_symmetry_space_group_name_H-M "P -1"
_symmetry_group_IT_number 2
_symmetry_cell_setting 'triclinic'
loop_
_space_group_symop_operation_xyz
x,y,z
-x,-y,-z
loop_
_atom_site_type_symbol
_atom_site_label
_atom_site_fract_x
_atom_site_fract_y
_atom_site_fract_z
Si Si1 0.805072 0.302963 0.424819
Si Si2 0.840072 0.009580 0.252807
Si Si3 0.081545 0.330061 0.442686
Si Si4 0.356353 0.690410 0.984292
Si Si5 0.265509 0.281223 0.952672
Si Si6 0.400644 0.442798 0.875647
Si Si7 0.972389 0.483163 0.136393
Si Si8 0.610559 0.993614 0.219614
O O1 0.658268 0.407268 0.627584
O O2 0.937918 0.338424 0.466734
O O3 0.015166 0.294203 0.195289
O O4 0.596532 0.145432 0.392473
O O5 0.630889 0.973295 0.282061
O O6 0.752626 0.881491 0.226716
O O7 0.924045 0.177477 0.413252
O O8 0.105859 0.997648 0.008094
O O9 0.369434 0.328586 0.212805
O O10 0.100300 0.453076 0.646811
O O11 0.265990 0.622025 0.872967
O O12 0.130906 0.608758 0.112115
O O13 0.407386 0.856947 0.156812
O O14 0.508856 0.390042 0.962159
O O15 0.290466 0.350025 0.925709
O O16 0.181712 0.409758 0.921679
#
# Coordination Sequence:
#
# PCOD9082108 Si02
#       8
#     2   2   2   2   2   2   2   2
#     4  10  20  34  56  81 106 136 166 212 268 308
#     4   8  15  29  54  81 102 126 164 219 268 302
#     4  10  19  35  58  81 103 130 173 221 262 302
#     4  10  21  38  57  74 102 138 175 220 256 296
#     4  10  19  33  51  77 110 138 166 209 263 312
#     4  11  22  33  48  77 112 141 171 203 250 319
#     4  11  23  36  52  77 106 141 177 208 251 307
#     4   8  15  31  54  78 100 130 172 214 259 302
#
# _framework density 19.767838000000001
#
# number of rings (size 3 to 8) (size 9 to 14) (size 15 to 20)
#    0.000    2.250    0.000    6.000    0.000    2.000 
#    0.000    3.750    0.000    6.750    0.000    0.000 
#    0.000    0.000    0.000    0.000    0.000    0.000 
#
# Total GULP energy -89340.567548 kJ/mol
# GULP energy per Si atom -5583.785472 kJ/mol
# Density = 1.972285 g / cm^3
# Si number density = 19.767838 Si / 1000 Ang^3
#
#
#
# Elastic Constant Matrix: (Units=GPa)
#
#
# Indices 1 2 3 4 5 6 
#
# 1 29.0679 11.4747 19.0858 12.4426 -5.8885 11.3945
# 2 11.4747 97.0621 10.6195 13.9960 2.4941 1.3825
# 3 19.0858 10.6195 52.2694 0.6126 3.7594 6.7422
# 4 12.4426 13.9960 0.6126 32.4804 -3.1255 6.8397
# 5 -5.8885 2.4941 3.7594 -3.1255 28.0411 -0.0671
# 6 11.3945 1.3825 6.7422 6.8397 -0.0671 28.9724
#
#
#
# Elastic Compliance Matrix: (Units=1/GPa)
#
#
# Indices 1 2 3 4 5 6 
#
# 1 0.069155 -0.002938 -0.023367 -0.019711 0.015679 -0.016930
# 2 -0.002938 0.011447 -0.001313 -0.004379 -0.001943 0.001944
# 3 -0.023367 -0.001313 0.028293 0.008088 -0.007680 0.000741
# 4 -0.019711 -0.004379 0.008088 0.040793 -0.000296 -0.003552
# 5 0.015679 -0.001943 -0.007680 -0.000296 0.040114 -0.004124
# 6 -0.016930 0.001944 0.000741 -0.003552 -0.004124 0.041738
#
#
# Mechanical properties :
#
#
# Convention : Reuss Voigt Hill
#
# Bulk Modulus (GPa) = 18.63635 28.97328 23.80482
# Shear Modulus (GPa) = 16.41160 27.04673 21.72916
#
# Velocity S-wave (km/s) = 2.88447 3.70296 3.31904
# Velocity P-wave (km/s) = 4.53229 5.74205 5.17266
#
# Compressibility (1/GPa) = 0.05365857
#
# Stress axis : x y z
#
# Youngs Moduli (GPa) = 14.46020 87.35710 35.34480
#
# Poissons Ratio (x) = 0.25669 0.82592
# Poissons Ratio (y) = 0.04249 0.04639
# Poissons Ratio (z) = 0.33790 0.11466
#
# Static dielectric constant tensor:
#      x y z
#    x 1.660630 -0.014040 -0.001770 
#    y -0.014040 1.722280 -0.014180 
#    z -0.001770 -0.014180 1.759870 
# 
# From -- ./inp_files/418260.got.cif
#   From: 2010.05.17/outbox.cif.g08.bks.cpg/sg2_210_cif.got.tgz:418260.got - 2010.06.03 11:33:40.
