data_PCOD9082168
_publ_section_title
;
Structure prediction by ZEFSAII (Michael W. Deem and Ramdas Pophale) SiO2 
 PCOD9082168
Probable space group: P -1
;
_chemical_formula_sum "Si O2"
_cell_formula_units_Z 16
_cell_length_a 6.233236
_cell_length_b 20.494005
_cell_length_c 8.189157
_cell_angle_alpha 108.052804
_cell_angle_beta 70.255097
_cell_angle_gamma 57.791218
_cell_volume 656.754293
_symmetry_space_group_name_H-M "P -1"
_symmetry_group_IT_number 2
_symmetry_cell_setting 'triclinic'
loop_
_space_group_symop_operation_xyz
x,y,z
-x,-y,-z
loop_
_atom_site_type_symbol
_atom_site_label
_atom_site_fract_x
_atom_site_fract_y
_atom_site_fract_z
Si Si1 0.450628 0.742465 0.228274
Si Si2 0.812797 0.427350 0.228676
Si Si3 0.607801 0.139235 0.170309
Si Si4 0.530023 0.868162 0.173632
Si Si5 0.667380 0.977851 0.113612
Si Si6 0.273081 0.698278 0.932701
Si Si7 0.762676 0.583287 0.259243
Si Si8 0.872684 0.645615 0.565098
O O1 0.389982 0.837908 0.305289
O O2 0.476172 0.694261 0.352227
O O3 0.250067 0.742726 0.145867
O O4 0.823552 0.653672 0.004008
O O5 0.641810 0.400369 0.163418
O O6 0.656700 0.535255 0.330684
O O7 0.892151 0.402418 0.379839
O O8 0.275092 0.250512 0.371715
O O9 0.617256 0.069584 0.226354
O O10 0.601124 0.121857 0.965227
O O11 0.942123 0.110060 0.079948
O O12 0.511845 0.955202 0.259302
O O13 0.919317 0.775534 0.002620
O O14 0.500000 0.000000 0.000000
O O15 0.551952 0.675600 0.741399
O O16 0.970479 0.582813 0.332614
O O17 0.000000 0.500000 0.000000
#
# Coordination Sequence:
#
# PCOD9082168 Si02
#       8
#     2   2   2   2   2   2   2   2
#     4   9  18  32  52  74 107 146 179 216 268 326
#     4   9  19  35  55  76 101 142 182 234 277 309
#     4  10  17  30  51  87 109 140 174 219 276 315
#     4  10  15  31  53  80 109 141 174 218 270 320
#     4   9  18  27  51  86 120 131 166 223 271 328
#     4  10  17  31  55  76 103 139 186 225 268 319
#     4  10  22  38  52  76 110 148 187 226 272 317
#     4  11  19  34  57  77 108 144 183 227 273 320
#
# _framework density 24.362233
#
# number of rings (size 3 to 8) (size 9 to 14) (size 15 to 20)
#    0.000    2.250    5.000    0.375    0.000    1.000 
#    0.000    5.000    0.000    0.750    0.000   12.250 
#    0.000    0.000    0.000    0.000    0.000    0.000 
#
# Total GULP energy -89208.655065 kJ/mol
# GULP energy per Si atom -5575.540942 kJ/mol
# Density = 2.430678 g / cm^3
# Si number density = 24.362233 Si / 1000 Ang^3
#
#
#
# Elastic Constant Matrix: (Units=GPa)
#
#
# Indices 1 2 3 4 5 6 
#
# 1 114.9771 63.2354 12.4163 -7.2058 7.5876 5.8498
# 2 63.2354 178.6695 9.2983 -0.9552 10.3216 37.3692
# 3 12.4163 9.2983 24.9499 -2.9455 8.0752 -0.9011
# 4 -7.2058 -0.9552 -2.9455 -19.6523 -10.6640 31.6110
# 5 7.5876 10.3216 8.0752 -10.6640 19.6027 15.8364
# 6 5.8498 37.3692 -0.9011 31.6110 15.8364 36.5720
#
#
#
# Elastic Compliance Matrix: (Units=1/GPa)
#
#
# Indices 1 2 3 4 5 6 
#
# 1 0.011475 -0.004239 -0.003249 0.001209 -0.002032 0.002251
# 2 -0.004239 0.007963 -0.001027 -0.003821 -0.001277 -0.003628
# 3 -0.003249 -0.001027 0.048416 0.007832 -0.016377 0.003084
# 4 0.001209 -0.003821 0.007832 -0.007738 -0.022224 0.020216
# 5 -0.002032 -0.001277 -0.016377 -0.022224 0.047094 0.000043
# 6 0.002251 -0.003628 0.003084 0.020216 0.000043 0.013274
#
#
# Mechanical properties :
#
#
# Convention : Reuss Voigt Hill
#
# Bulk Modulus (GPa) = 19.67564 54.27740 36.97652
# Shear Modulus (GPa) = 32.37188 22.88091 27.62640
#
# Velocity S-wave (km/s) = 3.64919 3.06796 3.37112
# Velocity P-wave (km/s) = 5.08422 5.90572 5.51030
#
# Compressibility (1/GPa) = 0.05082428
#
# Stress axis : x y z
#
# Youngs Moduli (GPa) = 87.14563 125.58389 20.65415
#
# Poissons Ratio (x) = 0.53237 0.06711
# Poissons Ratio (y) = 0.36942 0.02121
# Poissons Ratio (z) = 0.28314 0.12895
#
# Static dielectric constant tensor:
#      x y z
#    x 1.965440 0.084200 -0.030360 
#    y 0.084200 2.093400 -0.013390 
#    z -0.030360 -0.013390 2.003050 
# 
# From -- ./inp_files/141448.got.cif
#   From: 2010.05.17/outbox.cif.g08.bks.cpg/sg2_71_cif.got.tgz:141448.got - 2010.06.03 11:33:40.
