data_PCOD9082182
_publ_section_title
;
Structure prediction by ZEFSAII (Michael W. Deem and Ramdas Pophale) SiO2 
 PCOD9082182
Probable space group: P -1
;
_chemical_formula_sum "Si O2"
_cell_formula_units_Z 16
_cell_length_a 13.950587
_cell_length_b 12.053319
_cell_length_c 6.847539
_cell_angle_alpha 86.032689
_cell_angle_beta 60.986557
_cell_angle_gamma 108.115672
_cell_volume 922.878626
_symmetry_space_group_name_H-M "P -1"
_symmetry_group_IT_number 2
_symmetry_cell_setting 'triclinic'
loop_
_space_group_symop_operation_xyz
x,y,z
-x,-y,-z
loop_
_atom_site_type_symbol
_atom_site_label
_atom_site_fract_x
_atom_site_fract_y
_atom_site_fract_z
Si Si1 0.125969 0.027060 0.974058
Si Si2 0.500531 0.081139 0.676500
Si Si3 0.938113 0.099236 0.580204
Si Si4 0.504223 0.670385 0.501418
Si Si5 0.821493 0.761956 0.783304
Si Si6 0.295845 0.163285 0.468529
Si Si7 0.581296 0.534403 0.110564
Si Si8 0.664448 0.011866 0.791837
O O1 0.223147 0.059105 0.705774
O O2 0.173101 0.145284 0.056741
O O3 0.094767 0.911763 0.158010
O O4 0.000000 0.000000 0.000000
O O5 0.514145 0.211641 0.568684
O O6 0.604855 0.088237 0.723967
O O7 0.500000 0.000000 0.500000
O O8 0.382440 0.017086 0.936636
O O9 0.807575 0.064219 0.623864
O O10 0.041410 0.220268 0.384098
O O11 0.000000 0.000000 0.500000
O O12 0.628064 0.721962 0.493318
O O13 0.518150 0.597069 0.310622
O O14 0.416230 0.580148 0.757499
O O15 0.787038 0.807604 0.607346
O O16 0.715470 0.632662 0.933940
O O17 0.378858 0.117286 0.261331
O O18 0.500000 0.500000 0.000000
#
# Coordination Sequence:
#
# PCOD9082182 Si02
#       8
#     2   2   2   2   2   2   2   2
#     4  11  19  29  50  80 118 158 179 229 298 360
#     4  11  24  39  61  84 122 162 200 246 293 358
#     4  10  19  33  52  82 120 153 187 237 303 357
#     4  11  23  37  57  88 115 158 207 246 295 354
#     4  11  20  34  50  84 119 155 190 241 300 355
#     4  12  18  32  57  80 124 150 189 238 288 361
#     4  11  23  37  60  84 121 159 199 254 300 345
#     4  11  22  36  56  89 119 160 192 235 305 362
#
# _framework density 17.337059
#
# number of rings (size 3 to 8) (size 9 to 14) (size 15 to 20)
#    0.000    1.000    7.500    2.250    0.000    0.000 
#    0.000    0.000    0.000    0.750    0.000    1.750 
#    0.000    0.000    0.000    0.000    0.000    0.000 
#
# Total GULP energy -89078.733930 kJ/mol
# GULP energy per Si atom -5567.420871 kJ/mol
# Density = 1.729760 g / cm^3
# Si number density = 17.337059 Si / 1000 Ang^3
#
#
#
# Elastic Constant Matrix: (Units=GPa)
#
#
# Indices 1 2 3 4 5 6 
#
# 1 96.3765 37.2135 37.5293 -9.9617 4.1839 11.7274
# 2 37.2135 74.0198 50.5818 -10.7051 6.9955 8.6734
# 3 37.5293 50.5818 141.3931 -12.0948 4.0828 11.0347
# 4 -9.9617 -10.7051 -12.0948 39.7408 10.1953 3.3288
# 5 4.1839 6.9955 4.0828 10.1953 33.7494 -2.5325
# 6 11.7274 8.6734 11.0347 3.3288 -2.5325 30.6321
#
#
#
# Elastic Compliance Matrix: (Units=1/GPa)
#
#
# Indices 1 2 3 4 5 6 
#
# 1 0.013573 -0.005050 -0.001266 0.002342 -0.001467 -0.003686
# 2 -0.005050 0.021206 -0.005528 0.004184 -0.004583 -0.002913
# 3 -0.001266 -0.005528 0.009639 0.001363 -0.000395 -0.001603
# 4 0.002342 0.004184 0.001363 0.030715 -0.011113 -0.006829
# 5 -0.001467 -0.004583 -0.000395 -0.011113 0.034623 0.006072
# 6 -0.003686 -0.002913 -0.001603 -0.006829 0.006072 0.036703
#
#
# Mechanical properties :
#
#
# Convention : Reuss Voigt Hill
#
# Bulk Modulus (GPa) = 48.23717 62.49319 55.36518
# Shear Modulus (GPa) = 28.23952 33.25546 30.74749
#
# Velocity S-wave (km/s) = 4.04028 4.38445 4.21588
# Velocity P-wave (km/s) = 7.04619 7.85846 7.46338
#
# Compressibility (1/GPa) = 0.02073090
#
# Stress axis : x y z
#
# Youngs Moduli (GPa) = 73.67585 47.15648 103.74230
#
# Poissons Ratio (x) = 0.23812 0.13132
# Poissons Ratio (y) = 0.37203 0.57352
# Poissons Ratio (z) = 0.09326 0.26070
#
# Static dielectric constant tensor:
#      x y z
#    x 1.638620 0.020320 -0.004190 
#    y 0.020320 1.625460 -0.016520 
#    z -0.004190 -0.016520 1.665970 
# 
# From -- ./inp_files/94892.got.cif
#   From: 2010.05.17/outbox.cif.g08.bks.cpg/sg2_48_cif.got.tgz:94892.got - 2010.06.03 11:33:40.
