data_PCOD9082029
_publ_section_title
;
Structure prediction by ZEFSAII (Michael W. Deem and Ramdas Pophale) SiO2 
 PCOD9082029
Probable space group: P -1
;
_chemical_formula_sum "Si O2"
_cell_formula_units_Z 16
_cell_length_a 14.892778
_cell_length_b 8.022022
_cell_length_c 7.548477
_cell_angle_alpha 127.464293
_cell_angle_beta 73.904180
_cell_angle_gamma 122.468072
_cell_volume 602.277613
_symmetry_space_group_name_H-M "P -1"
_symmetry_group_IT_number 2
_symmetry_cell_setting 'triclinic'
loop_
_space_group_symop_operation_xyz
x,y,z
-x,-y,-z
loop_
_atom_site_type_symbol
_atom_site_label
_atom_site_fract_x
_atom_site_fract_y
_atom_site_fract_z
Si Si1 0.869810 0.772398 0.934594
Si Si2 0.902308 0.500478 0.444552
Si Si3 0.571102 0.061721 0.786481
Si Si4 0.698789 0.042217 0.379975
Si Si5 0.060714 0.774344 0.004827
Si Si6 0.244815 0.049952 0.350223
Si Si7 0.371524 0.466930 0.057477
Si Si8 0.588967 0.443282 0.495843
O O1 0.899733 0.718819 0.687223
O O2 0.749833 0.584074 0.914494
O O3 0.780102 0.285722 0.396870
O O4 0.882517 0.034029 0.066606
O O5 0.933950 0.465360 0.206422
O O6 0.000000 0.500000 0.500000
O O7 0.943921 0.745638 0.023654
O O8 0.663624 0.022237 0.806444
O O9 0.571898 0.312661 0.966881
O O10 0.611207 0.064248 0.563199
O O11 0.454611 0.831787 0.717128
O O12 0.770189 0.007934 0.471950
O O13 0.639885 0.789765 0.149424
O O14 0.136666 0.898378 0.207266
O O15 0.298403 0.336581 0.482777
O O16 0.412784 0.533259 0.276597
O O17 0.500000 0.500000 0.500000
#
# Coordination Sequence:
#
# PCOD9082029 Si02
#       8
#     2   2   2   2   2   2   2   2
#     4  10  19  32  61  85 112 151 201 225 290 342
#     4  10  19  35  57  86 114 153 198 232 282 352
#     4   9  22  38  59  83 118 149 199 236 291 342
#     4  10  21  36  59  85 119 152 193 237 293 342
#     4  10  19  36  58  85 116 157 190 240 285 343
#     4   9  19  40  59  83 124 148 190 249 286 332
#     4  12  20  39  63  84 118 156 194 239 287 355
#     4  10  20  39  64  84 114 158 189 248 296 334
#
# _framework density 26.565822000000001
#
# number of rings (size 3 to 8) (size 9 to 14) (size 15 to 20)
#    0.750    1.250    3.750    0.375    0.000    0.500 
#    2.250    6.875    2.750    0.000    0.000    0.000 
#    0.000    0.000    0.000    0.000    0.000    0.000 
#
# Total GULP energy -89378.494524 kJ/mol
# GULP energy per Si atom -5586.155908 kJ/mol
# Density = 2.650536 g / cm^3
# Si number density = 26.565822 Si / 1000 Ang^3
#
#
#
# Elastic Constant Matrix: (Units=GPa)
#
#
# Indices 1 2 3 4 5 6 
#
# 1 130.6286 33.9528 43.2286 1.3655 39.2490 2.7068
# 2 33.9528 82.8035 24.6495 20.8676 19.4801 -8.5747
# 3 43.2286 24.6495 82.5451 24.5154 19.0413 -10.3491
# 4 1.3655 20.8676 24.5154 39.2459 -2.0524 8.5519
# 5 39.2490 19.4801 19.0413 -2.0524 50.7280 -1.2257
# 6 2.7068 -8.5747 -10.3491 8.5519 -1.2257 34.2284
#
#
#
# Elastic Compliance Matrix: (Units=1/GPa)
#
#
# Indices 1 2 3 4 5 6 
#
# 1 0.012860 -0.004406 -0.007194 0.007493 -0.005408 -0.006362
# 2 -0.004406 0.018711 0.003373 -0.014237 -0.005390 0.009420
# 3 -0.007194 0.003373 0.023392 -0.019275 -0.004972 0.013124
# 4 0.007493 -0.014237 -0.019275 0.050108 0.008396 -0.022206
# 5 -0.005408 -0.005390 -0.004972 0.008396 0.028088 -0.003518
# 6 -0.006362 0.009420 0.013124 -0.022206 -0.003518 0.041469
#
#
# Mechanical properties :
#
#
# Convention : Reuss Voigt Hill
#
# Bulk Modulus (GPa) = 25.96906 55.51543 40.74225
# Shear Modulus (GPa) = 24.51962 37.78356 31.15159
#
# Velocity S-wave (km/s) = 3.04135 3.77538 3.42807
# Velocity P-wave (km/s) = 4.70422 6.32039 5.57122
#
# Compressibility (1/GPa) = 0.03850736
#
# Stress axis : x y z
#
# Youngs Moduli (GPa) = 77.76250 53.44456 42.74961
#
# Poissons Ratio (x) = 0.23549 0.30755
# Poissons Ratio (y) = 0.34264 -0.14419
# Poissons Ratio (z) = 0.55944 -0.18026
#
# Static dielectric constant tensor:
#      x y z
#    x 2.085100 -0.007440 -0.058590 
#    y -0.007440 2.090770 0.033880 
#    z -0.058590 0.033880 2.107210 
# 
# From -- ./inp_files/326866.got.cif
#   From: 2010.05.17/outbox.cif.g08.bks.cpg/sg2_164_cif.got.tgz:326866.got - 2010.06.03 11:33:40.
