data_PCOD9082150
_publ_section_title
;
Structure prediction by ZEFSAII (Michael W. Deem and Ramdas Pophale) SiO2 
 PCOD9082150
Probable space group: P -1
;
_chemical_formula_sum "Si O2"
_cell_formula_units_Z 16
_cell_length_a 12.358232
_cell_length_b 5.445735
_cell_length_c 27.746457
_cell_angle_alpha 100.833253
_cell_angle_beta 26.791672
_cell_angle_gamma 95.523787
_cell_volume 815.835537
_symmetry_space_group_name_H-M "P -1"
_symmetry_group_IT_number 2
_symmetry_cell_setting 'triclinic'
loop_
_space_group_symop_operation_xyz
x,y,z
-x,-y,-z
loop_
_atom_site_type_symbol
_atom_site_label
_atom_site_fract_x
_atom_site_fract_y
_atom_site_fract_z
Si Si1 0.177331 0.670714 0.316052
Si Si2 0.464725 0.017080 0.758387
Si Si3 0.208386 0.011708 0.118742
Si Si4 0.800485 0.545245 0.932140
Si Si5 0.701937 0.185840 0.825871
Si Si6 0.016328 0.404960 0.934941
Si Si7 0.880535 0.747202 0.526484
Si Si8 0.415895 0.822587 0.867531
O O1 0.138587 0.719260 0.276378
O O2 0.366568 0.411361 0.234679
O O3 0.942801 0.680774 0.443548
O O4 0.329595 0.870141 0.288215
O O5 0.604495 0.824113 0.657307
O O6 0.325340 0.898208 0.852403
O O7 0.279255 0.241464 0.817033
O O8 0.137738 0.752288 0.116022
O O9 0.157307 0.987669 0.195121
O O10 0.121780 0.267029 0.132477
O O11 0.500000 0.000000 0.000000
O O12 0.937572 0.592269 0.929144
O O13 0.504919 0.602820 0.059798
O O14 0.531558 0.028508 0.857982
O O15 0.000000 0.500000 0.000000
O O16 0.797737 0.243122 0.017044
O O17 0.000000 0.500000 0.500000
O O18 0.000000 0.000000 0.500000
#
# Coordination Sequence:
#
# PCOD9082150 Si02
#       8
#     2   2   2   2   2   2   2   2
#     4  10  19  33  52  78 105 139 179 224 262 315
#     4  10  21  34  50  76 108 154 176 216 264 316
#     4  10  21  35  53  73 106 142 174 220 273 317
#     4  11  22  35  49  77 108 143 176 214 260 326
#     4  10  20  33  53  78 105 139 179 223 277 316
#     4  12  21  34  52  79 114 148 183 208 260 331
#     4  10  20  36  53  74 107 142 184 225 265 307
#     4  11  19  32  51  78 111 142 178 216 265 321
#
# _framework density 19.611795000000001
#
# number of rings (size 3 to 8) (size 9 to 14) (size 15 to 20)
#    0.000    1.500    3.750    4.125    1.750    1.000 
#    0.000    0.000    0.000    0.000    0.000    1.750 
#    0.000    0.000    0.000    0.000    0.000    0.000 
#
# Total GULP energy -89179.957909 kJ/mol
# GULP energy per Si atom -5573.747369 kJ/mol
# Density = 1.956716 g / cm^3
# Si number density = 19.611795 Si / 1000 Ang^3
#
#
#
# Elastic Constant Matrix: (Units=GPa)
#
#
# Indices 1 2 3 4 5 6 
#
# 1 104.6943 29.6694 31.3435 1.3846 19.3897 -35.3260
# 2 29.6694 79.0562 13.6212 7.9146 10.1130 -19.2559
# 3 31.3435 13.6212 88.1193 11.9210 20.9260 -16.6534
# 4 1.3846 7.9146 11.9210 10.7527 -2.5069 1.4990
# 5 19.3897 10.1130 20.9260 -2.5069 22.7250 -4.6907
# 6 -35.3260 -19.2559 -16.6534 1.4990 -4.6907 36.3301
#
#
#
# Elastic Compliance Matrix: (Units=1/GPa)
#
#
# Indices 1 2 3 4 5 6 
#
# 1 0.017164 -0.000207 0.001313 -0.008859 -0.013476 0.015807
# 2 -0.000207 0.019041 0.006414 -0.026182 -0.014610 0.012025
# 3 0.001313 0.006414 0.024883 -0.041089 -0.028511 0.014097
# 4 -0.008859 -0.026182 -0.041089 0.180552 0.068729 -0.039903
# 5 -0.013476 -0.014610 -0.028511 0.068729 0.090671 -0.025046
# 6 0.015807 0.012025 0.014097 -0.039903 -0.025046 0.054144
#
#
# Mechanical properties :
#
#
# Convention : Reuss Voigt Hill
#
# Bulk Modulus (GPa) = 13.13554 46.79312 29.96433
# Shear Modulus (GPa) = 12.60114 27.11061 19.85587
#
# Velocity S-wave (km/s) = 2.53756 3.72205 3.18535
# Velocity P-wave (km/s) = 3.91126 6.51022 5.37033
#
# Compressibility (1/GPa) = 0.07612936
#
# Stress axis : x y z
#
# Youngs Moduli (GPa) = 58.26195 52.51891 40.18779
#
# Poissons Ratio (x) = 0.01085 -0.05277
# Poissons Ratio (y) = 0.01204 -0.25778
# Poissons Ratio (z) = -0.07650 -0.33687
#
# Static dielectric constant tensor:
#      x y z
#    x 1.758260 0.000280 0.040720 
#    y 0.000280 1.784240 -0.033030 
#    z 0.040720 -0.033030 1.729330 
# 
# From -- ./inp_files/80588.got.cif
#   From: 2010.05.17/outbox.cif.g08.bks.cpg/sg2_41_cif.got.tgz:80588.got - 2010.06.03 11:33:40.
