data_PCOD9082236
_publ_section_title
;
Structure prediction by ZEFSAII (Michael W. Deem and Ramdas Pophale) SiO2 
 PCOD9082236
Probable space group: P -1
;
_chemical_formula_sum "Si O2"
_cell_formula_units_Z 14
_cell_length_a 11.321643
_cell_length_b 9.218092
_cell_length_c 11.943269
_cell_angle_alpha 41.490229
_cell_angle_beta 128.839188
_cell_angle_gamma 141.763976
_cell_volume 508.776137
_symmetry_space_group_name_H-M "P -1"
_symmetry_group_IT_number 2
_symmetry_cell_setting 'triclinic'
loop_
_space_group_symop_operation_xyz
x,y,z
-x,-y,-z
loop_
_atom_site_type_symbol
_atom_site_label
_atom_site_fract_x
_atom_site_fract_y
_atom_site_fract_z
Si Si1 0.760237 0.618120 0.349605
Si Si2 0.699112 0.733970 0.718214
Si Si3 0.349138 0.183351 0.131783
Si Si4 0.732291 0.677802 0.535123
Si Si5 0.682724 0.210933 0.358548
Si Si6 0.162595 0.858036 0.982075
Si Si7 0.808345 0.231291 0.182273
O O1 0.535195 0.495885 0.278880
O O2 0.785188 0.573052 0.520730
O O3 0.793352 0.471005 0.357306
O O4 0.885104 0.941376 0.209796
O O5 0.767924 0.799094 0.849859
O O6 0.767831 0.650162 0.701831
O O7 0.269139 0.992637 0.465716
O O8 0.461277 0.082389 0.316679
O O9 0.256359 0.000475 0.073270
O O10 0.500000 0.500000 0.000000
O O11 0.500000 0.500000 0.500000
O O12 0.822636 0.992363 0.372302
O O13 0.707760 0.256756 0.213278
O O14 0.995564 0.541206 0.093453
O O15 0.278615 0.865337 0.938859
#
# Coordination Sequence:
#
# PCOD9082236 Si02
#       7
#     2   2   2   2   2   2   2
#     4   9  15  28  50  73  98 133 171 212 250 299
#     4   9  17  31  51  77 101 133 180 215 250 306
#     4  11  19  32  53  80 109 134 174 217 262 303
#     4   8  15  29  51  73  94 133 179 209 239 306
#     4  10  19  33  53  79 104 134 184 215 251 308
#     4  10  19  34  52  76 110 141 166 216 266 315
#     4   9  20  34  51  79 105 138 178 209 263 316
#
# _framework density 27.517014
#
# number of rings (size 3 to 8) (size 9 to 14) (size 15 to 20)
#    0.000    2.571    2.857    1.714    0.000    1.143 
#    0.000    2.857    3.143    0.000    0.000   23.000 
#    0.000    0.000    0.000    0.000    0.000    0.000 
#
# Total GULP energy -78217.183425 kJ/mol
# GULP energy per Si atom -5586.941673 kJ/mol
# Density = 2.745438 g / cm^3
# Si number density = 27.517014 Si / 1000 Ang^3
#
#
#
# Elastic Constant Matrix: (Units=GPa)
#
#
# Indices 1 2 3 4 5 6 
#
# 1 94.5503 47.2493 46.6729 14.2125 -32.5281 -34.7732
# 2 47.2493 203.3166 61.1819 27.6624 -33.9985 -41.7233
# 3 46.6729 61.1819 126.3182 9.4603 -25.1665 -30.6245
# 4 14.2125 27.6624 9.4603 75.8130 -24.9703 -21.6223
# 5 -32.5281 -33.9985 -25.1665 -24.9703 64.2482 16.6193
# 6 -34.7732 -41.7233 -30.6245 -21.6223 16.6193 45.0484
#
#
#
# Elastic Compliance Matrix: (Units=1/GPa)
#
#
# Indices 1 2 3 4 5 6 
#
# 1 0.017574 -0.000487 -0.002838 0.001976 0.005701 0.010030
# 2 -0.000487 0.006660 -0.001815 -0.000587 0.001362 0.003774
# 3 -0.002838 -0.001815 0.010922 0.001358 0.001460 0.003666
# 4 0.001976 -0.000587 0.001358 0.017038 0.005788 0.007947
# 5 0.005701 0.001362 0.001460 0.005788 0.021616 0.001459
# 6 0.010030 0.003774 0.003666 0.007947 0.001459 0.039205
#
#
# Mechanical properties :
#
#
# Convention : Reuss Voigt Hill
#
# Bulk Modulus (GPa) = 40.20009 81.59926 60.89968
# Shear Modulus (GPa) = 37.99750 54.96064 46.47907
#
# Velocity S-wave (km/s) = 3.72004 4.47400 4.11433
# Velocity P-wave (km/s) = 5.75261 7.51049 6.68954
#
# Compressibility (1/GPa) = 0.02487556
#
# Stress axis : x y z
#
# Youngs Moduli (GPa) = 56.90241 150.14798 91.55431
#
# Poissons Ratio (x) = 0.07316 0.25981
# Poissons Ratio (y) = 0.02773 0.16622
# Poissons Ratio (z) = 0.16147 0.27259
#
# Static dielectric constant tensor:
#      x y z
#    x 2.253340 0.041030 0.039970 
#    y 0.041030 2.199940 0.064060 
#    z 0.039970 0.064060 2.134120 
# 
# From -- ./inp_files/167843.got.cif
#   From: 2010.05.17/outbox.cif.g08.bks.cpg/sg2_84_cif.got.tgz:167843.got - 2010.06.03 11:33:40.
