data_PCOD9082315
_publ_section_title
;
Structure prediction by ZEFSAII (Michael W. Deem and Ramdas Pophale) SiO2 
 PCOD9082315
Probable space group: P -1
;
_chemical_formula_sum "Si O2"
_cell_formula_units_Z 16
_cell_length_a 8.101434
_cell_length_b 18.691418
_cell_length_c 7.382205
_cell_angle_alpha 65.222410
_cell_angle_beta 71.321964
_cell_angle_gamma 46.910437
_cell_volume 740.238307
_symmetry_space_group_name_H-M "P -1"
_symmetry_group_IT_number 2
_symmetry_cell_setting 'triclinic'
loop_
_space_group_symop_operation_xyz
x,y,z
-x,-y,-z
loop_
_atom_site_type_symbol
_atom_site_label
_atom_site_fract_x
_atom_site_fract_y
_atom_site_fract_z
Si Si1 0.310780 0.007662 0.668320
Si Si2 0.351689 0.461780 0.423421
Si Si3 0.946387 0.999778 0.804095
Si Si4 0.412384 0.613460 0.197100
Si Si5 0.908700 0.575013 0.671945
Si Si6 0.930689 0.832784 0.112166
Si Si7 0.469144 0.156308 0.910988
Si Si8 0.233051 0.363097 0.982933
O O1 0.139247 0.115613 0.719183
O O2 0.145572 0.991321 0.645897
O O3 0.500000 0.000000 0.500000
O O4 0.445034 0.922135 0.869019
O O5 0.426176 0.518711 0.233833
O O6 0.518566 0.402876 0.596574
O O7 0.301081 0.397518 0.397604
O O8 0.103765 0.553639 0.499167
O O9 0.689558 0.103729 0.762999
O O10 0.946162 0.905065 0.898041
O O11 0.000000 0.000000 0.000000
O O12 0.599178 0.615003 0.040462
O O13 0.167406 0.720403 0.143380
O O14 0.032265 0.462238 0.836465
O O15 0.852708 0.646114 0.786436
O O16 0.729636 0.833557 0.124880
O O17 0.370650 0.264025 0.916079
#
# Coordination Sequence:
#
# PCOD9082315 Si02
#       8
#     2   2   2   2   2   2   2   2
#     4  10  20  35  55  80 109 137 171 222 271 309
#     4   9  19  35  53  75 107 140 170 215 273 318
#     4   8  16  33  56  75 103 139 174 211 259 315
#     4  10  19  33  54  77 104 139 177 216 262 315
#     4   9  19  35  53  76 105 138 176 218 265 314
#     4  10  19  35  56  77 105 146 183 210 258 322
#     4  10  19  35  56  77 104 144 182 213 259 318
#     4  10  19  33  55  78 103 137 181 223 256 306
#
# _framework density 21.614661999999999
#
# number of rings (size 3 to 8) (size 9 to 14) (size 15 to 20)
#    0.000    2.750    0.000    4.500    0.000    1.500 
#    0.000    6.250    0.000    0.000    0.000    0.875 
#    0.000    0.000    0.000    0.000    0.000    0.000 
#
# Total GULP energy -89244.509353 kJ/mol
# GULP energy per Si atom -5577.781835 kJ/mol
# Density = 2.156547 g / cm^3
# Si number density = 21.614662 Si / 1000 Ang^3
#
#
#
# Elastic Constant Matrix: (Units=GPa)
#
#
# Indices 1 2 3 4 5 6 
#
# 1 128.4272 14.3000 11.8669 2.3728 -11.0844 -24.2083
# 2 14.3000 55.7460 10.3573 -7.0072 0.2779 -18.3359
# 3 11.8669 10.3573 34.1419 13.6458 -13.5580 -6.1556
# 4 2.3728 -7.0072 13.6458 18.9715 -10.5947 0.8360
# 5 -11.0844 0.2779 -13.5580 -10.5947 31.0129 -2.2206
# 6 -24.2083 -18.3359 -6.1556 0.8360 -2.2206 29.1085
#
#
#
# Elastic Compliance Matrix: (Units=1/GPa)
#
#
# Indices 1 2 3 4 5 6 
#
# 1 0.009765 0.000754 -0.001123 0.001855 0.004244 0.008629
# 2 0.000754 0.027569 -0.013108 0.020104 0.002221 0.014813
# 3 -0.001123 -0.013108 0.053584 -0.037488 0.010623 0.004028
# 4 0.001855 0.020104 -0.037488 0.096348 0.017355 0.004836
# 5 0.004244 0.002221 0.010623 0.017355 0.045039 0.010112
# 6 0.008629 0.014813 0.004028 0.004836 0.010112 0.052346
#
#
# Mechanical properties :
#
#
# Convention : Reuss Voigt Hill
#
# Bulk Modulus (GPa) = 15.63382 32.37373 24.00377
# Shear Modulus (GPa) = 15.01840 27.93797 21.47818
#
# Velocity S-wave (km/s) = 2.63881 3.59910 3.15570
# Velocity P-wave (km/s) = 4.06609 5.68169 4.94038
#
# Compressibility (1/GPa) = 0.06396389
#
# Stress axis : x y z
#
# Youngs Moduli (GPa) = 102.40768 36.27289 18.66227
#
# Poissons Ratio (x) = -0.02735 0.02096
# Poissons Ratio (y) = -0.07721 0.24462
# Poissons Ratio (z) = 0.11501 0.47546
#
# Static dielectric constant tensor:
#      x y z
#    x 1.825600 0.009400 -0.013260 
#    y 0.009400 1.788870 0.034760 
#    z -0.013260 0.034760 1.848750 
# 
# From -- ./inp_files/220633.got.cif
#   From: 2010.05.17/outbox.cif.g08.bks.cpg/sg2_111_cif.got.tgz:220633.got - 2010.06.03 11:33:40.
