data_PCOD9082400
_publ_section_title
;
Structure prediction by ZEFSAII (Michael W. Deem and Ramdas Pophale) SiO2 
 PCOD9082400
Probable space group: P -1
;
_chemical_formula_sum "Si O2"
_cell_formula_units_Z 14
_cell_length_a 8.982243
_cell_length_b 11.884886
_cell_length_c 5.530220
_cell_angle_alpha 77.399452
_cell_angle_beta 93.689179
_cell_angle_gamma 81.971208
_cell_volume 567.748005
_symmetry_space_group_name_H-M "P -1"
_symmetry_group_IT_number 2
_symmetry_cell_setting 'triclinic'
loop_
_space_group_symop_operation_xyz
x,y,z
-x,-y,-z
loop_
_atom_site_type_symbol
_atom_site_label
_atom_site_fract_x
_atom_site_fract_y
_atom_site_fract_z
Si Si1 0.165734 0.718269 0.933455
Si Si2 0.141452 0.398801 0.549683
Si Si3 0.390422 0.611665 0.343778
Si Si4 0.107746 0.749084 0.414049
Si Si5 0.841848 0.661360 0.919072
Si Si6 0.348514 0.099726 0.233359
Si Si7 0.484867 0.860361 0.269559
O O1 0.152980 0.793266 0.654783
O O2 0.026301 0.642583 0.946115
O O3 0.324251 0.636361 0.051311
O O4 0.133573 0.798281 0.131144
O O5 0.218524 0.394498 0.300020
O O6 0.000000 0.500000 0.500000
O O7 0.059634 0.281918 0.583648
O O8 0.221219 0.387262 0.820563
O O9 0.500000 0.500000 0.500000
O O10 0.230495 0.628071 0.463852
O O11 0.455843 0.729307 0.357662
O O12 0.794344 0.800397 0.850391
O O13 0.408403 0.115119 0.505637
O O14 0.343980 0.963872 0.250417
O O15 0.454864 0.127535 0.004096
#
# Coordination Sequence:
#
# PCOD9082400 Si02
#       7
#     2   2   2   2   2   2   2
#     4   8  18  35  53  78 112 145 182 235 282 347
#     4  10  19  33  54  84 116 153 186 243 293 343
#     4  10  22  38  60  85 120 156 195 236 305 359
#     4   8  18  33  50  75 114 142 180 232 277 341
#     4  10  19  36  58  79 115 149 193 243 293 349
#     4  10  22  42  62  86 117 155 211 243 295 347
#     4  10  23  41  61  87 119 157 198 258 287 347
#
# _framework density 24.658828
#
# number of rings (size 3 to 8) (size 9 to 14) (size 15 to 20)
#    0.857    1.714    0.000    1.286    2.000    2.857 
#    5.143    0.714    0.000    1.714    0.000    0.000 
#    0.000    0.000    0.000    0.000    0.000    0.000 
#
# Total GULP energy -77945.117055 kJ/mol
# GULP energy per Si atom -5567.508361 kJ/mol
# Density = 2.460270 g / cm^3
# Si number density = 24.658828 Si / 1000 Ang^3
#
#
#
# Elastic Constant Matrix: (Units=GPa)
#
#
# Indices 1 2 3 4 5 6 
#
# 1 28.2106 13.1072 -0.4205 6.1962 0.1515 2.9822
# 2 13.1072 101.9775 42.5817 -4.7588 -0.9732 -7.4452
# 3 -0.4205 42.5817 192.4234 48.7492 -4.2988 -4.7668
# 4 6.1962 -4.7588 48.7492 48.5488 -3.3406 0.4174
# 5 0.1515 -0.9732 -4.2988 -3.3406 27.4470 -3.0360
# 6 2.9822 -7.4452 -4.7668 0.4174 -3.0360 32.2291
#
#
#
# Elastic Compliance Matrix: (Units=1/GPa)
#
#
# Indices 1 2 3 4 5 6 
#
# 1 0.042231 -0.008184 0.004459 -0.010742 -0.001703 -0.005160
# 2 -0.008184 0.013381 -0.004675 0.007092 0.001000 0.003159
# 3 0.004459 -0.004675 0.008717 -0.009781 -0.000024 -0.000079
# 4 -0.010742 0.007092 -0.009781 0.032674 0.002870 0.001033
# 5 -0.001703 0.001000 -0.000024 0.002870 0.037251 0.003857
# 6 -0.005160 0.003159 -0.000079 0.001033 0.003857 0.032573
#
#
# Mechanical properties :
#
#
# Convention : Reuss Voigt Hill
#
# Bulk Modulus (GPa) = 21.04032 48.12759 34.58396
# Shear Modulus (GPa) = 25.06639 39.46786 32.26713
#
# Velocity S-wave (km/s) = 3.19176 4.00504 3.62130
# Velocity P-wave (km/s) = 4.70470 6.39897 5.61610
#
# Compressibility (1/GPa) = 0.04752780
#
# Stress axis : x y z
#
# Youngs Moduli (GPa) = 23.67953 74.73086 114.72277
#
# Poissons Ratio (x) = 0.61160 -0.51154
# Poissons Ratio (y) = 0.19379 0.53636
# Poissons Ratio (z) = -0.10558 0.34939
#
# Static dielectric constant tensor:
#      x y z
#    x 2.037600 0.005330 -0.015400 
#    y 0.005330 1.966660 0.039010 
#    z -0.015400 0.039010 2.069180 
# 
# From -- ./inp_files/65924.got.cif
#   From: 2010.05.17/outbox.cif.g08.bks.cpg/sg2_33_cif.got.tgz:65924.got - 2010.06.03 11:33:40.
