data_PCOD9082772
_publ_section_title
;
Structure prediction by ZEFSAII (Michael W. Deem and Ramdas Pophale) SiO2 
 PCOD9082772
Probable space group: P -1
;
_chemical_formula_sum "Si O2"
_cell_formula_units_Z 14
_cell_length_a 17.506333
_cell_length_b 8.044058
_cell_length_c 13.975773
_cell_angle_alpha 98.988387
_cell_angle_beta 20.316953
_cell_angle_gamma 89.085860
_cell_volume 594.411452
_symmetry_space_group_name_H-M "P -1"
_symmetry_group_IT_number 2
_symmetry_cell_setting 'triclinic'
loop_
_space_group_symop_operation_xyz
x,y,z
-x,-y,-z
loop_
_atom_site_type_symbol
_atom_site_label
_atom_site_fract_x
_atom_site_fract_y
_atom_site_fract_z
Si Si1 0.918045 0.730072 0.726938
Si Si2 0.624180 0.806988 0.275187
Si Si3 0.838442 0.275039 0.238257
Si Si4 0.736305 0.701037 0.735605
Si Si5 0.578273 0.633101 0.481619
Si Si6 0.174402 0.989026 0.432835
Si Si7 0.028885 0.939722 0.123230
O O1 0.152216 0.518097 0.446644
O O2 0.997796 0.890437 0.618889
O O3 0.766898 0.704840 0.814289
O O4 0.765668 0.785286 0.008820
O O5 0.395648 0.769301 0.506274
O O6 0.752322 0.665384 0.202798
O O7 0.500000 0.000000 0.500000
O O8 0.716081 0.504319 0.399010
O O9 0.975972 0.140387 0.154438
O O10 0.992080 0.183199 0.951324
O O11 0.882469 0.809672 0.529584
O O12 0.446891 0.832648 0.063274
O O13 0.500000 0.500000 0.500000
O O14 0.308683 0.819182 0.828989
O O15 0.164120 0.021935 0.562217
#
# Coordination Sequence:
#
# PCOD9082772 Si02
#       7
#     2   2   2   2   2   2   2
#     4  11  22  41  66  91 124 164 209 259 313 377
#     4  10  19  33  57  89 120 155 198 250 315 374
#     4   9  18  32  55  85 119 157 206 241 305 387
#     4  10  25  40  63  93 119 168 213 256 315 367
#     4   8  17  31  53  82 112 153 201 236 297 380
#     4  11  22  41  63  89 126 158 214 265 310 370
#     4   9  17  32  59  83 117 162 192 257 311 353
#
# _framework density 23.552710000000001
#
# number of rings (size 3 to 8) (size 9 to 14) (size 15 to 20)
#    0.000    2.571    0.000    3.429    6.000    0.000 
#    0.000    0.000    9.429   12.000    0.000    0.000 
#    0.000    0.000    0.000    0.000    0.000    0.000 
#
# Total GULP energy -78050.082729 kJ/mol
# GULP energy per Si atom -5575.005909 kJ/mol
# Density = 2.349910 g / cm^3
# Si number density = 23.552710 Si / 1000 Ang^3
#
#
#
# Elastic Constant Matrix: (Units=GPa)
#
#
# Indices 1 2 3 4 5 6 
#
# 1 66.4894 15.3946 23.1979 7.0157 15.2615 -15.2083
# 2 15.3946 119.5753 33.6217 6.9120 11.6377 -29.1855
# 3 23.1979 33.6217 83.0912 -0.7759 16.6805 -11.9521
# 4 7.0157 6.9120 -0.7759 30.4062 -12.0278 -7.7521
# 5 15.2615 11.6377 16.6805 -12.0278 39.6427 6.8602
# 6 -15.2083 -29.1855 -11.9521 -7.7521 6.8602 40.8241
#
#
#
# Elastic Compliance Matrix: (Units=1/GPa)
#
#
# Indices 1 2 3 4 5 6 
#
# 1 0.021048 0.001811 -0.003220 -0.007525 -0.011055 0.008622
# 2 0.001811 0.011739 -0.003002 -0.003090 -0.005287 0.008490
# 3 -0.003220 -0.003002 0.015351 0.000541 -0.004522 0.002011
# 4 -0.007525 -0.003090 0.000541 0.041846 0.016209 0.000369
# 5 -0.011055 -0.005287 -0.004522 0.016209 0.040083 -0.012880
# 6 0.008622 0.008490 0.002011 0.000369 -0.012880 0.036600
#
#
# Mechanical properties :
#
#
# Convention : Reuss Voigt Hill
#
# Bulk Modulus (GPa) = 25.43520 45.95383 35.69451
# Shear Modulus (GPa) = 26.51203 35.30403 30.90803
#
# Velocity S-wave (km/s) = 3.35871 3.87581 3.62649
# Velocity P-wave (km/s) = 5.08566 6.29147 5.72043
#
# Compressibility (1/GPa) = 0.03931560
#
# Stress axis : x y z
#
# Youngs Moduli (GPa) = 47.51148 85.18467 65.14319
#
# Poissons Ratio (x) = -0.15425 0.20975
# Poissons Ratio (y) = -0.08603 0.19556
# Poissons Ratio (z) = 0.15298 0.25572
#
# Static dielectric constant tensor:
#      x y z
#    x 1.966250 0.005130 -0.129930 
#    y 0.005130 2.056800 -0.050150 
#    z -0.129930 -0.050150 1.956130 
# 
# From -- ./inp_files/540052.got.cif
#   From: 2010.05.17/outbox.cif.g08.bks.cpg/sg2_271_cif.got.tgz:540052.got - 2010.06.03 11:33:40.
