data_PCOD9082642
_publ_section_title
;
Structure prediction by ZEFSAII (Michael W. Deem and Ramdas Pophale) SiO2 
 PCOD9082642
Probable space group: P -1
;
_chemical_formula_sum "Si O2"
_cell_formula_units_Z 16
_cell_length_a 15.888275
_cell_length_b 11.908753
_cell_length_c 16.331958
_cell_angle_alpha 59.740202
_cell_angle_beta 25.672629
_cell_angle_gamma 44.338402
_cell_volume 828.488161
_symmetry_space_group_name_H-M "P -1"
_symmetry_group_IT_number 2
_symmetry_cell_setting 'triclinic'
loop_
_space_group_symop_operation_xyz
x,y,z
-x,-y,-z
loop_
_atom_site_type_symbol
_atom_site_label
_atom_site_fract_x
_atom_site_fract_y
_atom_site_fract_z
Si Si1 0.914955 0.641924 0.641901
Si Si2 0.560988 0.194495 0.760033
Si Si3 0.787653 0.483754 0.936301
Si Si4 0.639852 0.964731 0.064202
Si Si5 0.566974 0.532366 0.842167
Si Si6 0.778493 0.943494 0.261433
Si Si7 0.848914 0.043537 0.988786
Si Si8 0.053338 0.148989 0.331368
O O1 0.903929 0.509840 0.747167
O O2 0.618322 0.820738 0.804145
O O3 0.989006 0.709213 0.624302
O O4 0.132533 0.559589 0.409210
O O5 0.776735 0.200266 0.539429
O O6 0.480138 0.124703 0.789297
O O7 0.727669 0.041546 0.741740
O O8 0.301719 0.381377 0.961161
O O9 0.991362 0.275324 0.860124
O O10 0.514006 0.541735 0.124029
O O11 0.821320 0.941815 0.984563
O O12 0.810499 0.878699 0.862980
O O13 0.366195 0.746126 0.925408
O O14 0.500000 0.500000 0.000000
O O15 0.500000 0.000000 0.500000
O O16 0.771899 0.020321 0.152674
O O17 0.870818 0.008368 0.223670
#
# Coordination Sequence:
#
# PCOD9082642 Si02
#       8
#     2   2   2   2   2   2   2   2
#     4  11  20  35  59  90 128 160 192 235 296 362
#     4  10  19  33  57  89 119 162 194 230 294 361
#     4  11  20  37  62  85 117 155 207 246 289 353
#     4  11  21  35  59  89 127 152 190 242 300 363
#     4  11  24  36  57  92 125 156 195 249 298 355
#     4  10  23  44  65  80 108 161 208 251 299 344
#     4  10  24  42  59  86 119 151 201 249 302 352
#     4  10  19  33  56  87 128 163 190 227 297 359
#
# _framework density 19.312287000000001
#
# number of rings (size 3 to 8) (size 9 to 14) (size 15 to 20)
#    0.000    1.500    3.750    2.250    0.000    5.000 
#    0.000    0.625    0.000    1.500    0.000    0.000 
#    0.000    0.000    0.000    0.000    0.000    0.000 
#
# Total GULP energy -89310.225593 kJ/mol
# GULP energy per Si atom -5581.889100 kJ/mol
# Density = 1.926833 g / cm^3
# Si number density = 19.312287 Si / 1000 Ang^3
#
#
#
# Elastic Constant Matrix: (Units=GPa)
#
#
# Indices 1 2 3 4 5 6 
#
# 1 112.9348 29.1676 39.0538 -9.4010 -18.4574 23.6933
# 2 29.1676 77.8014 17.9351 -15.6319 -7.1192 -1.3661
# 3 39.0538 17.9351 106.1780 -21.3418 -12.3160 -3.1587
# 4 -9.4010 -15.6319 -21.3418 25.0094 9.2896 -3.6785
# 5 -18.4574 -7.1192 -12.3160 9.2896 20.8810 -11.4578
# 6 23.6933 -1.3661 -3.1587 -3.6785 -11.4578 29.4717
#
#
#
# Elastic Compliance Matrix: (Units=1/GPa)
#
#
# Indices 1 2 3 4 5 6 
#
# 1 0.014836 -0.005265 -0.005612 -0.005752 0.004024 -0.011926
# 2 -0.005265 0.016793 0.001532 0.010420 0.001135 0.006917
# 3 -0.005612 0.001532 0.014116 0.010708 0.004070 0.009014
# 4 -0.005752 0.010420 0.010708 0.061485 -0.018974 0.006552
# 5 0.004024 0.001135 0.004070 -0.018974 0.076105 0.024474
# 6 -0.011926 0.006917 0.009014 0.006552 0.024474 0.055138
#
#
# Mechanical properties :
#
#
# Convention : Reuss Voigt Hill
#
# Bulk Modulus (GPa) = 36.96159 52.13633 44.54896
# Shear Modulus (GPa) = 18.78421 29.12295 23.95358
#
# Velocity S-wave (km/s) = 3.12213 3.88751 3.52565
# Velocity P-wave (km/s) = 5.67251 6.87062 6.30011
#
# Compressibility (1/GPa) = 0.02705511
#
# Stress axis : x y z
#
# Youngs Moduli (GPa) = 67.40386 59.54882 70.84131
#
# Poissons Ratio (x) = 0.31353 0.39754
# Poissons Ratio (y) = 0.35489 -0.10852
# Poissons Ratio (z) = 0.37825 -0.09122
#
# Static dielectric constant tensor:
#      x y z
#    x 1.699420 0.044880 -0.024750 
#    y 0.044880 1.674410 -0.019610 
#    z -0.024750 -0.019610 1.669320 
# 
# From -- ./inp_files/465460.got.cif
#   From: 2010.05.17/outbox.cif.g08.bks.cpg/sg2_233_cif.got.tgz:465460.got - 2010.06.03 11:33:40.
