data_PCOD9082582
_publ_section_title
;
Structure prediction by ZEFSAII (Michael W. Deem and Ramdas Pophale) SiO2 
 PCOD9082582
Probable space group: P -1
;
_chemical_formula_sum "Si O2"
_cell_formula_units_Z 14
_cell_length_a 14.871125
_cell_length_b 9.752068
_cell_length_c 7.640429
_cell_angle_alpha 105.929016
_cell_angle_beta 41.702700
_cell_angle_gamma 130.238693
_cell_volume 513.422106
_symmetry_space_group_name_H-M "P -1"
_symmetry_group_IT_number 2
_symmetry_cell_setting 'triclinic'
loop_
_space_group_symop_operation_xyz
x,y,z
-x,-y,-z
loop_
_atom_site_type_symbol
_atom_site_label
_atom_site_fract_x
_atom_site_fract_y
_atom_site_fract_z
Si Si1 0.036594 0.398640 0.544862
Si Si2 0.104063 0.194117 0.032149
Si Si3 0.197755 0.132036 0.415141
Si Si4 0.433997 0.723380 0.957808
Si Si5 0.396865 0.224262 0.788778
Si Si6 0.387554 0.952344 0.888415
Si Si7 0.165554 0.413314 0.701983
O O1 0.081253 0.466493 0.709576
O O2 0.000000 0.500000 0.500000
O O3 0.826503 0.187457 0.791457
O O4 0.243165 0.501925 0.204707
O O5 0.300565 0.261999 0.808007
O O6 0.104759 0.335981 0.961827
O O7 0.000000 0.000000 0.000000
O O8 0.968497 0.093385 0.361162
O O9 0.382543 0.239608 0.300536
O O10 0.122260 0.235629 0.595137
O O11 0.281731 0.177902 0.116806
O O12 0.477596 0.863729 0.106845
O O13 0.424224 0.812833 0.829000
O O14 0.613273 0.413127 0.555454
O O15 0.388023 0.043554 0.739177
#
# Coordination Sequence:
#
# PCOD9082582 Si02
#       7
#     2   2   2   2   2   2   2
#     4  10  19  33  56  83 110 147 192 235 275 336
#     4  10  22  36  55  82 119 155 188 231 297 346
#     4  10  20  36  57  87 117 146 196 238 284 336
#     4   9  18  33  52  86 110 145 188 244 271 330
#     4  11  20  36  60  87 112 152 198 237 277 346
#     4   9  17  31  55  81 112 142 190 234 281 322
#     4  11  21  37  57  86 121 151 185 242 291 345
#
# _framework density 27.268011999999999
#
# number of rings (size 3 to 8) (size 9 to 14) (size 15 to 20)
#    0.000    2.000    2.857    3.000    0.000    1.143 
#    0.000    0.000    0.000   14.571    0.000    0.000 
#    0.000    0.000    0.000    0.000    0.000    0.000 
#
# Total GULP energy -78141.882742 kJ/mol
# GULP energy per Si atom -5581.563053 kJ/mol
# Density = 2.720595 g / cm^3
# Si number density = 27.268012 Si / 1000 Ang^3
#
#
#
# Elastic Constant Matrix: (Units=GPa)
#
#
# Indices 1 2 3 4 5 6 
#
# 1 176.9230 30.1663 46.9938 -11.6290 -5.5091 -17.6787
# 2 30.1663 31.3345 28.8294 -21.5749 1.8279 -8.0538
# 3 46.9938 28.8294 132.6669 -49.7425 15.5302 5.7146
# 4 -11.6290 -21.5749 -49.7425 50.6409 -0.2340 2.6937
# 5 -5.5091 1.8279 15.5302 -0.2340 59.5816 -6.6247
# 6 -17.6787 -8.0538 5.7146 2.6937 -6.6247 24.5971
#
#
#
# Elastic Compliance Matrix: (Units=1/GPa)
#
#
# Indices 1 2 3 4 5 6 
#
# 1 0.008111 -0.006220 -0.003947 -0.004969 0.002613 0.005958
# 2 -0.006220 0.057795 -0.004015 0.018538 0.000264 0.013427
# 3 -0.003947 -0.004015 0.016081 0.013733 -0.005591 -0.010898
# 4 -0.004969 0.018538 0.013733 0.040315 -0.005172 -0.006500
# 5 0.002613 0.000264 -0.005591 -0.005172 0.019463 0.009072
# 6 0.005958 0.013427 -0.010898 -0.006500 0.009072 0.055021
#
#
# Mechanical properties :
#
#
# Convention : Reuss Voigt Hill
#
# Bulk Modulus (GPa) = 18.64822 61.43371 40.04097
# Shear Modulus (GPa) = 20.57409 42.62625 31.60017
#
# Velocity S-wave (km/s) = 2.74982 3.95806 3.40792
# Velocity P-wave (km/s) = 4.11530 6.59294 5.49557
#
# Compressibility (1/GPa) = 0.05362441
#
# Stress axis : x y z
#
# Youngs Moduli (GPa) = 123.28599 17.30256 62.18381
#
# Poissons Ratio (x) = 0.10761 0.24546
# Poissons Ratio (y) = 0.76679 0.24964
# Poissons Ratio (z) = 0.48665 0.06946
#
# Static dielectric constant tensor:
#      x y z
#    x 2.199120 -0.035610 0.072260 
#    y -0.035610 2.255460 0.076020 
#    z 0.072260 0.076020 2.104020 
# 
# From -- ./inp_files/206518.got.cif
#   From: 2010.05.17/outbox.cif.g08.bks.cpg/sg2_104_cif.got.tgz:206518.got - 2010.06.03 11:33:40.
