data_PCOD9083711
_publ_section_title
;
Structure prediction by ZEFSAII (Michael W. Deem and Ramdas Pophale) SiO2 
 PCOD9083711
Probable space group: P -1
;
_chemical_formula_sum "Si O2"
_cell_formula_units_Z 16
_cell_length_a 7.021424
_cell_length_b 13.321265
_cell_length_c 9.685694
_cell_angle_alpha 80.066484
_cell_angle_beta 113.941660
_cell_angle_gamma 59.209835
_cell_volume 622.309834
_symmetry_space_group_name_H-M "P -1"
_symmetry_group_IT_number 2
_symmetry_cell_setting 'triclinic'
loop_
_space_group_symop_operation_xyz
x,y,z
-x,-y,-z
loop_
_atom_site_type_symbol
_atom_site_label
_atom_site_fract_x
_atom_site_fract_y
_atom_site_fract_z
Si Si1 0.441971 0.682380 0.859817
Si Si2 0.760959 0.698444 0.486145
Si Si3 0.307344 0.963039 0.449792
Si Si4 0.069753 0.609822 0.864077
Si Si5 0.951007 0.907076 0.932225
Si Si6 0.577550 0.358988 0.715132
Si Si7 0.247233 0.667930 0.538904
Si Si8 0.549302 0.860321 0.818863
O O1 0.251130 0.651972 0.869796
O O2 0.330548 0.726655 0.659505
O O3 0.481168 0.783375 0.910904
O O4 0.737949 0.535132 0.979007
O O5 0.487811 0.825475 0.449171
O O6 0.672777 0.639873 0.369532
O O7 0.949548 0.601203 0.689759
O O8 0.938733 0.729916 0.460073
O O9 0.297002 0.950914 0.614960
O O10 0.500000 0.000000 0.500000
O O11 0.073538 0.064373 0.246865
O O12 0.810172 0.733166 0.841175
O O13 0.672981 0.930537 0.886004
O O14 0.197561 0.757100 0.090080
O O15 0.000000 0.000000 0.000000
O O16 0.450388 0.509110 0.671428
O O17 0.707831 0.322852 0.609316
#
# Coordination Sequence:
#
# PCOD9083711 Si02
#       8
#     2   2   2   2   2   2   2   2
#     4  10  19  34  57  88 119 149 200 251 303 361
#     4  10  19  37  60  85 122 159 198 252 306 365
#     4   9  19  37  63  87 115 163 209 251 305 357
#     4   9  19  33  57  89 117 149 196 254 301 361
#     4  11  22  38  63  89 121 166 211 251 304 364
#     4  11  22  38  59  85 126 164 197 250 312 370
#     4  10  22  36  59  93 120 157 205 250 311 375
#     4  10  20  36  63  83 114 159 200 249 304 358
#
# _framework density 25.710663
#
# number of rings (size 3 to 8) (size 9 to 14) (size 15 to 20)
#    0.000    2.000    1.250    3.000    0.000    2.000 
#    0.000    3.125    5.500   10.500    0.000    0.000 
#    0.000    0.000    0.000    0.000    0.000    0.000 
#
# Total GULP energy -89408.902052 kJ/mol
# GULP energy per Si atom -5588.056378 kJ/mol
# Density = 2.565214 g / cm^3
# Si number density = 25.710663 Si / 1000 Ang^3
#
#
#
# Elastic Constant Matrix: (Units=GPa)
#
#
# Indices 1 2 3 4 5 6 
#
# 1 89.2274 15.0188 30.7889 -9.3613 17.7547 12.6819
# 2 15.0188 92.4038 43.3984 15.7822 6.1170 39.1265
# 3 30.7889 43.3984 165.3812 -4.2767 20.9287 16.3447
# 4 -9.3613 15.7822 -4.2767 35.0013 5.9551 5.5292
# 5 17.7547 6.1170 20.9287 5.9551 35.4472 5.0308
# 6 12.6819 39.1265 16.3447 5.5292 5.0308 41.6017
#
#
#
# Elastic Compliance Matrix: (Units=1/GPa)
#
#
# Indices 1 2 3 4 5 6 
#
# 1 0.014118 -0.001195 -0.001031 0.005782 -0.006843 -0.002716
# 2 -0.001195 0.021790 -0.004392 -0.008460 0.003363 -0.017686
# 3 -0.001031 -0.004392 0.007847 0.003132 -0.004089 0.001440
# 4 0.005782 -0.008460 0.003132 0.035711 -0.009478 0.001363
# 5 -0.006843 0.003363 -0.004089 -0.009478 0.035419 -0.002494
# 6 -0.002716 -0.017686 0.001440 0.001363 -0.002494 0.041054
#
#
# Mechanical properties :
#
#
# Convention : Reuss Voigt Hill
#
# Bulk Modulus (GPa) = 32.76572 58.38051 45.57311
# Shear Modulus (GPa) = 27.87858 39.59712 33.73785
#
# Velocity S-wave (km/s) = 3.29647 3.92867 3.62638
# Velocity P-wave (km/s) = 5.22117 6.58296 5.94121
#
# Compressibility (1/GPa) = 0.03051970
#
# Stress axis : x y z
#
# Youngs Moduli (GPa) = 70.82939 45.89222 127.43349
#
# Poissons Ratio (x) = 0.05485 0.13137
# Poissons Ratio (y) = 0.08466 0.55968
# Poissons Ratio (z) = 0.07302 0.20156
#
# Static dielectric constant tensor:
#      x y z
#    x 2.260640 0.609990 0.008180 
#    y 0.609990 3.912340 0.069010 
#    z 0.008180 0.069010 2.042620 
# 
# From -- ./inp_files/395793.got.cif
#   From: 2010.05.17/outbox.cif.g08.bks.cpg/sg2_198_cif.got.tgz:395793.got - 2010.06.03 11:33:40.
