data_PCOD9083886
_publ_section_title
;
Structure prediction by ZEFSAII (Michael W. Deem and Ramdas Pophale) SiO2 
 PCOD9083886
Probable space group: P -1
;
_chemical_formula_sum "Si O2"
_cell_formula_units_Z 16
_cell_length_a 12.578449
_cell_length_b 13.983643
_cell_length_c 8.044073
_cell_angle_alpha 132.671143
_cell_angle_beta 45.805806
_cell_angle_gamma 119.401748
_cell_volume 745.424621
_symmetry_space_group_name_H-M "P -1"
_symmetry_group_IT_number 2
_symmetry_cell_setting 'triclinic'
loop_
_space_group_symop_operation_xyz
x,y,z
-x,-y,-z
loop_
_atom_site_type_symbol
_atom_site_label
_atom_site_fract_x
_atom_site_fract_y
_atom_site_fract_z
Si Si1 0.177191 0.056730 0.707772
Si Si2 0.320397 0.630479 0.851260
Si Si3 0.175682 0.342946 0.198928
Si Si4 0.832715 0.037121 0.049467
Si Si5 0.076986 0.513054 0.214660
Si Si6 0.102720 0.746223 0.998274
Si Si7 0.207104 0.143669 0.425012
Si Si8 0.383095 0.365988 0.312002
O O1 0.249352 0.069711 0.462298
O O2 0.007402 0.001407 0.817408
O O3 0.170979 0.207059 0.949514
O O4 0.238580 0.984363 0.717509
O O5 0.382093 0.520526 0.531854
O O6 0.449120 0.674788 0.889073
O O7 0.189551 0.555780 0.002671
O O8 0.240008 0.739604 0.964685
O O9 0.167969 0.457788 0.206497
O O10 0.307656 0.345760 0.191455
O O11 0.023510 0.365889 0.490351
O O12 0.839439 0.183459 0.148276
O O13 0.766736 0.945694 0.868427
O O14 0.965097 0.396560 0.138994
O O15 0.966161 0.824543 0.316179
O O16 0.289459 0.280761 0.450732
#
# Coordination Sequence:
#
# PCOD9083886 Si02
#       8
#     2   2   2   2   2   2   2   2
#     4  10  19  34  58  91 119 146 189 252 289 347
#     4  11  23  38  56  84 119 159 198 235 291 356
#     4  11  20  35  60  87 119 152 190 245 300 345
#     4  10  21  34  58  93 117 148 195 246 297 339
#     4  11  21  35  58  91 115 148 191 250 298 341
#     4  11  19  36  59  87 114 151 192 247 289 338
#     4  11  20  38  62  89 116 154 197 241 296 341
#     4  11  22  37  60  83 116 165 193 232 296 357
#
# _framework density 21.464275000000001
#
# number of rings (size 3 to 8) (size 9 to 14) (size 15 to 20)
#    0.000    1.250    6.250    2.625    0.000    0.500 
#    0.000    0.625    0.000    0.750    0.000    0.000 
#    0.000    0.000    0.000    0.000    0.000    0.000 
#
# Total GULP energy -89304.139424 kJ/mol
# GULP energy per Si atom -5581.508714 kJ/mol
# Density = 2.141542 g / cm^3
# Si number density = 21.464275 Si / 1000 Ang^3
#
#
#
# Elastic Constant Matrix: (Units=GPa)
#
#
# Indices 1 2 3 4 5 6 
#
# 1 129.2038 43.3004 22.2739 3.1340 9.1323 -29.1322
# 2 43.3004 60.0984 4.2160 6.3623 -6.0388 -16.6329
# 3 22.2739 4.2160 16.1211 4.4211 6.3909 -4.9020
# 4 3.1340 6.3623 4.4211 -4.8496 -5.3628 11.0934
# 5 9.1323 -6.0388 6.3909 -5.3628 23.5238 5.8470
# 6 -29.1322 -16.6329 -4.9020 11.0934 5.8470 23.1717
#
#
#
# Elastic Compliance Matrix: (Units=1/GPa)
#
#
# Indices 1 2 3 4 5 6 
#
# 1 0.015536 -0.008927 -0.016641 0.005975 -0.004391 0.007852
# 2 -0.008927 0.023116 -0.000866 0.007595 0.011716 -0.001406
# 3 -0.016641 -0.000866 0.075353 0.024666 -0.004570 -0.016258
# 4 0.005975 0.007595 0.024666 -0.039545 -0.027004 0.043928
# 5 -0.004391 0.011716 -0.004570 -0.027004 0.041201 0.004454
# 6 0.007852 -0.001406 -0.016258 0.043928 0.004454 0.026425
#
#
# Mechanical properties :
#
#
# Convention : Reuss Voigt Hill
#
# Bulk Modulus (GPa) = 16.35692 38.33377 27.34534
# Shear Modulus (GPa) = 23.21975 17.41137 20.31556
#
# Velocity S-wave (km/s) = 3.29262 2.85121 3.07983
# Velocity P-wave (km/s) = 4.70023 5.36072 5.04130
#
# Compressibility (1/GPa) = 0.06113622
#
# Stress axis : x y z
#
# Youngs Moduli (GPa) = 64.36603 43.26008 13.27084
#
# Poissons Ratio (x) = 0.38618 0.22084
# Poissons Ratio (y) = 0.57459 0.01150
# Poissons Ratio (z) = 1.07113 0.03748
#
# Static dielectric constant tensor:
#      x y z
#    x 1.828640 -0.033350 0.024060 
#    y -0.033350 1.794230 0.019880 
#    z 0.024060 0.019880 1.781630 
# 
# From -- ./inp_files/268772.got.cif
#   From: 2010.05.17/outbox.cif.g08.bks.cpg/sg2_135_cif.got.tgz:268772.got - 2010.06.03 11:33:40.
