data_PCOD9083482
_publ_section_title
;
Structure prediction by ZEFSAII (Michael W. Deem and Ramdas Pophale) SiO2 
 PCOD9083482
Probable space group: P -1
;
_chemical_formula_sum "Si O2"
_cell_formula_units_Z 15
_cell_length_a 7.043285
_cell_length_b 18.672177
_cell_length_c 10.815550
_cell_angle_alpha 136.454727
_cell_angle_beta 119.757980
_cell_angle_gamma 91.569622
_cell_volume 648.415281
_symmetry_space_group_name_H-M "P -1"
_symmetry_group_IT_number 2
_symmetry_cell_setting 'triclinic'
loop_
_space_group_symop_operation_xyz
x,y,z
-x,-y,-z
loop_
_atom_site_type_symbol
_atom_site_label
_atom_site_fract_x
_atom_site_fract_y
_atom_site_fract_z
Si Si1 0.582909 0.522172 0.729795
Si Si2 0.000000 0.500000 0.500000
Si Si3 0.732376 0.469161 0.947758
Si Si4 0.665872 0.120030 0.302227
Si Si5 0.821114 0.062632 0.908304
Si Si6 0.987017 0.674045 0.835437
Si Si7 0.838084 0.833971 0.591675
Si Si8 0.211986 0.638552 0.490736
O O1 0.631646 0.529743 0.899435
O O2 0.821169 0.647546 0.875967
O O3 0.260474 0.455541 0.502510
O O4 0.620024 0.414539 0.560157
O O5 0.844306 0.381429 0.182482
O O6 0.189012 0.630159 0.619258
O O7 0.481912 0.308875 0.683335
O O8 0.000000 0.500000 0.000000
O O9 0.890158 0.552680 0.225979
O O10 0.631106 0.222997 0.361885
O O11 0.987868 0.179398 0.468546
O O12 0.504945 0.051853 0.292461
O O13 0.500000 0.000000 0.000000
O O14 0.879119 0.968958 0.747956
O O15 0.878217 0.181477 0.993983
O O16 0.018079 0.136101 0.187462
#
# Coordination Sequence:
#
# PCOD9083482 Si02
#       8
#     2   1   2   2   2   2   2   2
#     4   9  19  34  55  82 112 148 189 230 288 346
#     4  10  20  36  52  82 112 142 188 238 288 340
#     4  10  19  35  58  85 118 147 192 238 291 341
#     4  10  21  34  53  86 113 150 194 239 282 338
#     4  10  19  34  57  82 115 154 192 237 284 337
#     4  10  19  34  56  82 113 149 187 236 291 331
#     4  10  20  33  54  83 116 149 194 238 283 344
#     4  10  21  35  57  82 116 145 186 243 287 337
#
# _framework density 23.133324000000002
#
# number of rings (size 3 to 8) (size 9 to 14) (size 15 to 20)
#    0.000    2.133    1.333    3.200    3.733    0.533 
#    2.400    0.000    0.000   14.400    0.000   24.267 
#    0.000    0.000    0.000    0.000    0.000    0.000 
#
# Total GULP energy -83517.540904 kJ/mol
# GULP energy per Si atom -5567.836060 kJ/mol
# Density = 2.308067 g / cm^3
# Si number density = 23.133324 Si / 1000 Ang^3
#
#
#
# Elastic Constant Matrix: (Units=GPa)
#
#
# Indices 1 2 3 4 5 6 
#
# 1 91.4078 19.4548 11.5251 24.6771 11.3132 5.1800
# 2 19.4548 142.4670 35.4666 45.9973 0.2626 -2.5352
# 3 11.5251 35.4666 82.3580 28.9742 11.9174 -4.9216
# 4 24.6771 45.9973 28.9742 60.4928 -2.5948 -1.4662
# 5 11.3132 0.2626 11.9174 -2.5948 26.3493 9.9773
# 6 5.1800 -2.5352 -4.9216 -1.4662 9.9773 21.7048
#
#
#
# Elastic Compliance Matrix: (Units=1/GPa)
#
#
# Indices 1 2 3 4 5 6 
#
# 1 0.013366 -0.000119 0.001411 -0.006339 -0.006957 -0.000114
# 2 -0.000119 0.009539 -0.001873 -0.006298 0.000088 0.000252
# 3 0.001411 -0.001873 0.018005 -0.008112 -0.012903 0.008911
# 4 -0.006339 -0.006298 -0.008112 0.028154 0.010786 -0.004118
# 5 -0.006957 0.000088 -0.012903 0.010786 0.058159 -0.027261
# 6 -0.000114 0.000252 0.008911 -0.004118 -0.027261 0.060403
#
#
# Mechanical properties :
#
#
# Convention : Reuss Voigt Hill
#
# Bulk Modulus (GPa) = 25.15895 49.90288 37.53091
# Shear Modulus (GPa) = 24.74767 38.36181 31.55474
#
# Velocity S-wave (km/s) = 3.27430 4.07663 3.69730
# Velocity P-wave (km/s) = 5.01936 6.61644 5.87245
#
# Compressibility (1/GPa) = 0.03974729
#
# Stress axis : x y z
#
# Youngs Moduli (GPa) = 74.81550 104.82761 55.53980
#
# Poissons Ratio (x) = 0.01248 -0.07835
# Poissons Ratio (y) = 0.00891 0.10405
# Poissons Ratio (z) = -0.10554 0.19638
#
# Static dielectric constant tensor:
#      x y z
#    x 3.229920 -0.393520 0.114620 
#    y -0.393520 2.015440 -0.051910 
#    z 0.114620 -0.051910 1.916280 
# 
# From -- ./inp_files/402251.got.cif
#   From: 2010.05.17/outbox.cif.g08.bks.cpg/sg2_202_cif.got.tgz:402251.got - 2010.06.03 11:33:40.
