data_PCOD9083878
_publ_section_title
;
Structure prediction by ZEFSAII (Michael W. Deem and Ramdas Pophale) SiO2 
 PCOD9083878
Probable space group: P -1
;
_chemical_formula_sum "Si O2"
_cell_formula_units_Z 16
_cell_length_a 9.200875
_cell_length_b 12.042232
_cell_length_c 17.803469
_cell_angle_alpha 35.955943
_cell_angle_beta 87.563516
_cell_angle_gamma 115.626390
_cell_volume 700.565975
_symmetry_space_group_name_H-M "P -1"
_symmetry_group_IT_number 2
_symmetry_cell_setting 'triclinic'
loop_
_space_group_symop_operation_xyz
x,y,z
-x,-y,-z
loop_
_atom_site_type_symbol
_atom_site_label
_atom_site_fract_x
_atom_site_fract_y
_atom_site_fract_z
Si Si1 0.034478 0.376009 0.682390
Si Si2 0.303171 0.310411 0.521674
Si Si3 0.041601 0.079033 0.126794
Si Si4 0.761795 0.199693 0.416216
Si Si5 0.995057 0.851837 0.650268
Si Si6 0.345738 0.047456 0.784748
Si Si7 0.595854 0.691035 0.807473
Si Si8 0.637460 0.016058 0.763711
O O1 0.780888 0.137752 0.772539
O O2 0.091660 0.506441 0.693434
O O3 0.209840 0.677500 0.458709
O O4 0.060350 0.176203 0.790190
O O5 0.216224 0.142681 0.537787
O O6 0.410541 0.244278 0.602028
O O7 0.470188 0.665874 0.317888
O O8 0.071369 0.117058 0.684740
O O9 0.323221 0.385555 0.954301
O O10 0.920017 0.157938 0.078156
O O11 0.500000 0.000000 0.500000
O O12 0.941446 0.292578 0.300004
O O13 0.702031 0.963668 0.602193
O O14 0.000000 0.000000 0.500000
O O15 0.755532 0.669077 0.800348
O O16 0.396189 0.884186 0.857747
O O17 0.603086 0.797010 0.831701
#
# Coordination Sequence:
#
# PCOD9083878 Si02
#       8
#     2   2   2   2   2   2   2   2
#     4  10  20  35  58  85 116 150 199 237 296 344
#     4   9  18  33  61  89 112 153 198 236 298 350
#     4  10  20  38  60  91 119 150 187 255 311 340
#     4  10  24  40  64  85 112 162 203 240 273 354
#     4  10  22  38  56  84 119 160 196 232 283 360
#     4   9  19  32  59  90 114 152 193 247 294 347
#     4  10  23  39  59  91 120 149 196 242 307 349
#     4  10  19  34  58  90 116 147 196 251 286 343
#
# _framework density 22.838677000000001
#
# number of rings (size 3 to 8) (size 9 to 14) (size 15 to 20)
#    0.750    1.500    1.250    0.750   10.500    2.500 
#    0.000    2.500    0.000    0.000    0.000    0.000 
#    0.000    0.000    0.000    0.000    0.000    0.000 
#
# Total GULP energy -89185.932291 kJ/mol
# GULP energy per Si atom -5574.120768 kJ/mol
# Density = 2.278670 g / cm^3
# Si number density = 22.838677 Si / 1000 Ang^3
#
#
#
# Elastic Constant Matrix: (Units=GPa)
#
#
# Indices 1 2 3 4 5 6 
#
# 1 156.7579 75.1353 39.0693 -12.1906 -21.8557 -46.8788
# 2 75.1353 166.8723 31.6554 -32.0022 -14.7131 -26.4497
# 3 39.0693 31.6554 68.4085 -14.1201 -17.2414 -22.0270
# 4 -12.1906 -32.0022 -14.1201 30.6795 -1.5517 5.4067
# 5 -21.8557 -14.7131 -17.2414 -1.5517 39.0463 3.9639
# 6 -46.8788 -26.4497 -22.0270 5.4067 3.9639 33.2835
#
#
#
# Elastic Compliance Matrix: (Units=1/GPa)
#
#
# Indices 1 2 3 4 5 6 
#
# 1 0.013129 -0.003160 -0.000010 -0.000590 0.004554 0.015527
# 2 -0.003160 0.009437 0.000220 0.008519 0.002064 0.001565
# 3 -0.000010 0.000220 0.022768 0.008935 0.009198 0.012681
# 4 -0.000590 0.008519 0.008935 0.045154 0.008261 0.003532
# 5 0.004554 0.002064 0.009198 0.008261 0.032420 0.008939
# 6 0.015527 0.001565 0.012681 0.003532 0.008939 0.059912
#
#
# Mechanical properties :
#
#
# Convention : Reuss Voigt Hill
#
# Bulk Modulus (GPa) = 25.35910 75.97318 50.66614
# Shear Modulus (GPa) = 24.76905 37.01378 30.89142
#
# Velocity S-wave (km/s) = 3.29678 4.03011 3.68175
# Velocity P-wave (km/s) = 5.06156 7.41573 6.34872
#
# Compressibility (1/GPa) = 0.03943357
#
# Stress axis : x y z
#
# Youngs Moduli (GPa) = 76.16801 105.96187 43.92153
#
# Poissons Ratio (x) = 0.33484 0.00046
# Poissons Ratio (y) = 0.24069 -0.00967
# Poissons Ratio (z) = 0.00079 -0.02333
#
# Static dielectric constant tensor:
#      x y z
#    x 1.906000 -0.047930 0.005060 
#    y -0.047930 1.828950 0.057510 
#    z 0.005060 0.057510 1.869140 
# 
# From -- ./inp_files/607038.got.cif
#   From: 2010.05.17/outbox.cif.g08.bks.cpg/sg2_304_cif.got.tgz:607038.got - 2010.06.03 11:33:40.
