data_PCOD9083318
_publ_section_title
;
Structure prediction by ZEFSAII (Michael W. Deem and Ramdas Pophale) SiO2 
 PCOD9083318
Probable space group: P -1
;
_chemical_formula_sum "Si O2"
_cell_formula_units_Z 16
_cell_length_a 10.929011
_cell_length_b 10.977045
_cell_length_c 13.496075
_cell_angle_alpha 58.165542
_cell_angle_beta 72.869559
_cell_angle_gamma 31.852085
_cell_volume 682.051290
_symmetry_space_group_name_H-M "P -1"
_symmetry_group_IT_number 2
_symmetry_cell_setting 'triclinic'
loop_
_space_group_symop_operation_xyz
x,y,z
-x,-y,-z
loop_
_atom_site_type_symbol
_atom_site_label
_atom_site_fract_x
_atom_site_fract_y
_atom_site_fract_z
Si Si1 0.182248 0.537369 0.182454
Si Si2 0.046498 0.842110 0.700598
Si Si3 0.870266 0.740308 0.997769
Si Si4 0.624668 0.282748 0.477305
Si Si5 0.279005 0.078657 0.625035
Si Si6 0.955910 0.479982 0.372824
Si Si7 0.868526 0.247234 0.716210
Si Si8 0.361622 0.294591 0.819130
O O1 0.146377 0.717042 0.177320
O O2 0.065530 0.645792 0.054401
O O3 0.045662 0.535207 0.270107
O O4 0.465699 0.221388 0.264098
O O5 0.210437 0.788260 0.612572
O O6 0.226521 0.540043 0.814775
O O7 0.818158 0.008265 0.615195
O O8 0.944602 0.027012 0.739429
O O9 0.715069 0.790643 0.090945
O O10 0.000000 0.500000 0.000000
O O11 0.654679 0.028883 0.866502
O O12 0.500000 0.500000 0.500000
O O13 0.391294 0.452557 0.397532
O O14 0.214433 0.293910 0.596060
O O15 0.205140 0.169451 0.488675
O O16 0.077893 0.155871 0.672228
O O17 0.773381 0.558869 0.316923
#
# Coordination Sequence:
#
# PCOD9083318 Si02
#       8
#     2   2   2   2   2   2   2   2
#     4  10  20  36  58  80 113 154 193 238 290 344
#     4  10  21  37  57  85 120 157 189 236 284 347
#     4  10  22  42  61  85 110 150 197 250 292 335
#     4   9  20  35  54  85 121 157 192 224 283 343
#     4  10  19  34  54  83 119 151 183 235 290 347
#     4   9  20  33  52  86 112 148 189 233 290 351
#     4  10  21  35  55  85 119 156 190 230 286 351
#     4  10  22  38  61  83 116 147 196 241 289 340
#
# _framework density 23.458646000000002
#
# number of rings (size 3 to 8) (size 9 to 14) (size 15 to 20)
#    0.000    2.250    0.000    1.875    7.000    3.000 
#    4.500    0.625    0.000    3.750    0.000    0.000 
#    0.000    0.000    0.000    0.000    0.000    0.000 
#
# Total GULP energy -89270.542561 kJ/mol
# GULP energy per Si atom -5579.408910 kJ/mol
# Density = 2.340525 g / cm^3
# Si number density = 23.458646 Si / 1000 Ang^3
#
#
#
# Elastic Constant Matrix: (Units=GPa)
#
#
# Indices 1 2 3 4 5 6 
#
# 1 97.8465 49.2098 58.1083 -12.1792 45.6030 11.2906
# 2 49.2098 96.0625 54.2001 -28.0487 35.7996 16.6338
# 3 58.1083 54.2001 104.9337 -29.0386 48.1144 1.1790
# 4 -12.1792 -28.0487 -29.0386 42.7114 -6.1185 -2.2221
# 5 45.6030 35.7996 48.1144 -6.1185 54.1914 7.4068
# 6 11.2906 16.6338 1.1790 -2.2221 7.4068 35.0201
#
#
#
# Elastic Compliance Matrix: (Units=1/GPa)
#
#
# Indices 1 2 3 4 5 6 
#
# 1 0.019526 -0.003778 -0.005076 -0.001825 -0.009296 -0.002480
# 2 -0.003778 0.019715 -0.003352 0.008536 -0.005027 -0.006429
# 3 -0.005076 -0.003352 0.023216 0.010477 -0.013767 0.006024
# 4 -0.001825 0.008536 0.010477 0.034268 -0.009589 0.000383
# 5 -0.009296 -0.005027 -0.013767 -0.009589 0.041212 -0.003477
# 6 -0.002480 -0.006429 0.006024 0.000383 -0.003477 0.032965
#
#
# Mechanical properties :
#
#
# Convention : Reuss Voigt Hill
#
# Bulk Modulus (GPa) = 26.28399 69.09767 47.69083
# Shear Modulus (GPa) = 24.03880 35.53955 29.78917
#
# Velocity S-wave (km/s) = 3.20461 3.89651 3.56737
# Velocity P-wave (km/s) = 4.99214 7.05427 6.11082
#
# Compressibility (1/GPa) = 0.03804598
#
# Stress axis : x y z
#
# Youngs Moduli (GPa) = 51.21294 50.72212 43.07297
#
# Poissons Ratio (x) = 0.19161 0.21865
# Poissons Ratio (y) = 0.19346 0.14438
# Poissons Ratio (z) = 0.25998 0.17002
#
# Static dielectric constant tensor:
#      x y z
#    x 1.916120 0.043440 -0.011990 
#    y 0.043440 1.952180 0.031820 
#    z -0.011990 0.031820 1.966210 
# 
# From -- ./inp_files/66430.got.cif
#   From: 2010.05.17/outbox.cif.g08.bks.cpg/sg2_34_cif.got.tgz:66430.got - 2010.06.03 11:33:40.
