data_PCOD9083904
_publ_section_title
;
Structure prediction by ZEFSAII (Michael W. Deem and Ramdas Pophale) SiO2 
 PCOD9083904
Probable space group: P -1
;
_chemical_formula_sum "Si O2"
_cell_formula_units_Z 14
_cell_length_a 10.446565
_cell_length_b 8.754645
_cell_length_c 11.453697
_cell_angle_alpha 54.401519
_cell_angle_beta 35.132024
_cell_angle_gamma 52.205165
_cell_volume 468.740283
_symmetry_space_group_name_H-M "P -1"
_symmetry_group_IT_number 2
_symmetry_cell_setting 'triclinic'
loop_
_space_group_symop_operation_xyz
x,y,z
-x,-y,-z
loop_
_atom_site_type_symbol
_atom_site_label
_atom_site_fract_x
_atom_site_fract_y
_atom_site_fract_z
Si Si1 0.917612 0.096260 0.145816
Si Si2 0.787511 0.379418 0.742167
Si Si3 0.516101 0.812077 0.305226
Si Si4 0.991945 0.142320 0.325001
Si Si5 0.432497 0.490469 0.795056
Si Si6 0.775390 0.759285 0.365892
Si Si7 0.771079 0.741985 0.713025
O O1 0.068195 0.065679 0.169384
O O2 0.790029 0.322711 0.117352
O O3 0.287645 0.210155 0.735854
O O4 0.728758 0.973621 0.367524
O O5 0.563191 0.341790 0.867225
O O6 0.956658 0.323217 0.753726
O O7 0.662824 0.602593 0.779740
O O8 0.992381 0.299608 0.527662
O O9 0.279749 0.758379 0.541478
O O10 0.634142 0.602666 0.570848
O O11 0.605230 0.656039 0.208228
O O12 0.407798 0.041004 0.255104
O O13 0.122419 0.284221 0.223939
O O14 0.000000 0.000000 0.500000
O O15 0.000000 0.000000 0.000000
#
# Coordination Sequence:
#
# PCOD9083904 Si02
#       7
#     2   2   2   2   2   2   2
#     4  12  29  46  67 100 149 191 224 284 364 420
#     4  11  21  35  65 111 137 167 227 303 342 395
#     4  11  22  35  67 110 131 171 236 304 332 396
#     4  10  20  36  70 101 132 171 235 289 337 397
#     4  12  23  40  69 106 136 180 239 289 343 411
#     4  12  22  40  68 103 131 179 240 289 331 406
#     4  10  19  34  59 100 144 163 218 297 354 384
#
# _framework density 29.867287999999999
#
# number of rings (size 3 to 8) (size 9 to 14) (size 15 to 20)
#    0.000    0.857    5.714    3.429    4.000    0.000 
#    0.000    1.429    0.000    4.286    0.000    0.000 
#    0.000    0.000    0.000    0.000    0.000    0.000 
#
# Total GULP energy -78032.195876 kJ/mol
# GULP energy per Si atom -5573.728277 kJ/mol
# Density = 2.979931 g / cm^3
# Si number density = 29.867288 Si / 1000 Ang^3
#
#
#
# Elastic Constant Matrix: (Units=GPa)
#
#
# Indices 1 2 3 4 5 6 
#
# 1 318.4760 90.8392 48.5893 18.4562 59.3036 24.1973
# 2 90.8392 218.8511 58.1515 20.6129 36.5177 8.3359
# 3 48.5893 58.1515 124.3229 17.1488 48.4775 16.0123
# 4 18.4562 20.6129 17.1488 35.7590 10.1470 9.6154
# 5 59.3036 36.5177 48.4775 10.1470 66.0674 9.0440
# 6 24.1973 8.3359 16.0123 9.6154 9.0440 67.4099
#
#
#
# Elastic Compliance Matrix: (Units=1/GPa)
#
#
# Indices 1 2 3 4 5 6 
#
# 1 0.004099 -0.001201 0.000339 -0.000467 -0.003066 -0.000925
# 2 -0.001201 0.005803 -0.001834 -0.001814 -0.000572 0.000484
# 3 0.000339 -0.001834 0.012314 -0.002437 -0.007755 -0.001432
# 4 -0.000467 -0.001814 -0.002437 0.031669 -0.001190 -0.003387
# 5 -0.003066 -0.000572 -0.007755 -0.001190 0.024084 -0.000048
# 6 -0.000925 0.000484 -0.001432 -0.003387 -0.000048 0.015936
#
#
# Mechanical properties :
#
#
# Convention : Reuss Voigt Hill
#
# Bulk Modulus (GPa) = 59.44280 117.42335 88.43308
# Shear Modulus (GPa) = 47.66236 64.78527 56.22381
#
# Velocity S-wave (km/s) = 3.99909 4.66242 4.34343
# Velocity P-wave (km/s) = 6.42410 8.26950 7.40451
#
# Compressibility (1/GPa) = 0.01682290
#
# Stress axis : x y z
#
# Youngs Moduli (GPa) = 243.96248 172.33097 81.21009
#
# Poissons Ratio (x) = 0.20689 -0.02750
# Poissons Ratio (y) = 0.29289 0.14897
# Poissons Ratio (z) = -0.08261 0.31612
#
# Static dielectric constant tensor:
#      x y z
#    x 2.251730 0.042470 -0.184890 
#    y 0.042470 2.579990 -0.443360 
#    z -0.184890 -0.443360 3.236680 
# 
# From -- ./inp_files/253594.got.cif
#   From: 2010.05.17/outbox.cif.g08.bks.cpg/sg2_127_cif.got.tgz:253594.got - 2010.06.03 11:33:40.
