data_PCOD9083380
_publ_section_title
;
Structure prediction by ZEFSAII (Michael W. Deem and Ramdas Pophale) SiO2 
 PCOD9083380
Probable space group: P -1
;
_chemical_formula_sum "Si O2"
_cell_formula_units_Z 14
_cell_length_a 5.555251
_cell_length_b 16.128875
_cell_length_c 8.945315
_cell_angle_alpha 98.905547
_cell_angle_beta 122.889711
_cell_angle_gamma 53.054560
_cell_volume 520.016753
_symmetry_space_group_name_H-M "P -1"
_symmetry_group_IT_number 2
_symmetry_cell_setting 'triclinic'
loop_
_space_group_symop_operation_xyz
x,y,z
-x,-y,-z
loop_
_atom_site_type_symbol
_atom_site_label
_atom_site_fract_x
_atom_site_fract_y
_atom_site_fract_z
Si Si1 0.342241 0.699653 0.142338
Si Si2 0.871019 0.970780 0.805972
Si Si3 0.646663 0.794198 0.447262
Si Si4 0.875958 0.707599 0.198878
Si Si5 0.300559 0.463147 0.217046
Si Si6 0.899680 0.458667 0.316283
Si Si7 0.627076 0.096377 0.317408
O O1 0.490175 0.729674 0.338449
O O2 0.473624 0.737746 0.068423
O O3 0.564532 0.573057 0.159529
O O4 0.954030 0.743800 0.085076
O O5 0.633909 0.938259 0.788105
O O6 0.196765 0.896919 0.773122
O O7 0.600950 0.082060 0.654671
O O8 0.000000 0.000000 0.000000
O O9 0.922022 0.747131 0.382475
O O10 0.618033 0.805817 0.619631
O O11 0.164000 0.577727 0.270344
O O12 0.712656 0.405978 0.286543
O O13 0.227224 0.404947 0.295893
O O14 0.000000 0.500000 0.000000
O O15 0.000000 0.500000 0.500000
O O16 0.000000 0.000000 0.500000
#
# Coordination Sequence:
#
# PCOD9083380 Si02
#       7
#     2   2   2   2   2   2   2
#     4   8  17  29  51  77  99 134 179 209 259 306
#     4  11  23  36  54  83 113 137 168 224 282 308
#     4   9  19  33  61  71 106 137 190 215 246 322
#     4   8  17  29  51  77  99 136 180 213 257 299
#     4  10  19  34  55  80 106 142 183 217 255 329
#     4  10  19  34  55  80 106 138 177 223 269 307
#     4  10  21  35  58  84  98 142 189 213 252 324
#
# _framework density 26.922211000000001
#
# number of rings (size 3 to 8) (size 9 to 14) (size 15 to 20)
#    0.857    1.714    0.000    3.000    6.000    0.000 
#    0.000    0.000    6.286    0.000    0.000    0.000 
#    0.000    0.000    0.000    0.000    0.000    0.000 
#
# Total GULP energy -77983.753314 kJ/mol
# GULP energy per Si atom -5570.268094 kJ/mol
# Density = 2.686093 g / cm^3
# Si number density = 26.922211 Si / 1000 Ang^3
#
#
#
# Elastic Constant Matrix: (Units=GPa)
#
#
# Indices 1 2 3 4 5 6 
#
# 1 304.5615 22.1866 55.4046 -4.3524 -14.5661 -35.0644
# 2 22.1866 93.8542 7.1469 17.1835 -6.4508 -18.1542
# 3 55.4046 7.1469 51.7914 4.8268 -6.2636 -11.4200
# 4 -4.3524 17.1835 4.8268 33.1243 -1.7670 -5.8975
# 5 -14.5661 -6.4508 -6.2636 -1.7670 53.4508 0.5049
# 6 -35.0644 -18.1542 -11.4200 -5.8975 0.5049 47.9299
#
#
#
# Elastic Compliance Matrix: (Units=1/GPa)
#
#
# Indices 1 2 3 4 5 6 
#
# 1 0.004416 -0.000600 -0.004251 0.001943 0.000676 0.002223
# 2 -0.000600 0.012658 0.000412 -0.005983 0.001180 0.003706
# 3 -0.004251 0.000412 0.024909 -0.003871 0.001659 0.002487
# 4 0.001943 -0.005983 -0.003871 0.034579 0.000473 0.002483
# 5 0.000676 0.001180 0.001659 0.000473 0.019234 0.001192
# 6 0.002223 0.003706 0.002487 0.002483 0.001192 0.024779
#
#
# Mechanical properties :
#
#
# Convention : Reuss Voigt Hill
#
# Bulk Modulus (GPa) = 30.20570 68.85370 49.52970
# Shear Modulus (GPa) = 35.59006 51.26562 43.42784
#
# Velocity S-wave (km/s) = 3.63982 4.36846 4.02068
# Velocity P-wave (km/s) = 5.37665 7.14669 6.32391
#
# Compressibility (1/GPa) = 0.03310633
#
# Stress axis : x y z
#
# Youngs Moduli (GPa) = 226.42763 78.99899 40.14679
#
# Poissons Ratio (x) = 0.04736 0.17066
# Poissons Ratio (y) = 0.13575 -0.01654
# Poissons Ratio (z) = 0.96252 -0.03254
#
# Static dielectric constant tensor:
#      x y z
#    x 2.154480 -0.040090 -0.017290 
#    y -0.040090 2.224760 -0.073430 
#    z -0.017290 -0.073430 2.141800 
# 
# From -- ./inp_files/122300.got.cif
#   From: 2010.05.17/outbox.cif.g08.bks.cpg/sg2_62_cif.got.tgz:122300.got - 2010.06.03 11:33:40.
