data_PCOD9083973
_publ_section_title
;
Structure prediction by ZEFSAII (Michael W. Deem and Ramdas Pophale) SiO2 
 PCOD9083973
Probable space group: P -1
;
_chemical_formula_sum "Si O2"
_cell_formula_units_Z 14
_cell_length_a 13.926333
_cell_length_b 14.027262
_cell_length_c 10.556088
_cell_angle_alpha 138.363758
_cell_angle_beta 147.454729
_cell_angle_gamma 38.895948
_cell_volume 670.637684
_symmetry_space_group_name_H-M "P -1"
_symmetry_group_IT_number 2
_symmetry_cell_setting 'triclinic'
loop_
_space_group_symop_operation_xyz
x,y,z
-x,-y,-z
loop_
_atom_site_type_symbol
_atom_site_label
_atom_site_fract_x
_atom_site_fract_y
_atom_site_fract_z
Si Si1 0.054606 0.439756 0.857498
Si Si2 0.073002 0.068968 0.840147
Si Si3 0.512056 0.327075 0.877731
Si Si4 0.859362 0.244027 0.530994
Si Si5 0.200815 0.763289 0.098227
Si Si6 0.838289 0.709168 0.686007
Si Si7 0.553181 0.555802 0.804370
O O1 0.006282 0.287818 0.651651
O O2 0.912932 0.565115 0.724480
O O3 0.272515 0.417739 0.044358
O O4 0.000000 0.500000 0.000000
O O5 0.952539 0.197187 0.726788
O O6 0.913384 0.087639 0.790745
O O7 0.157771 0.906811 0.699838
O O8 0.217712 0.132194 0.134172
O O9 0.700435 0.211578 0.893479
O O10 0.328357 0.299938 0.594605
O O11 0.500000 0.500000 0.000000
O O12 0.509652 0.331922 0.029937
O O13 0.646802 0.389111 0.441861
O O14 0.360253 0.623288 0.222379
O O15 0.032322 0.700546 0.819525
#
# Coordination Sequence:
#
# PCOD9083973 Si02
#       7
#     2   2   2   2   2   2   2
#     4  11  20  36  60  91 111 147 189 237 290 323
#     4   9  21  41  57  82 114 162 178 229 298 335
#     4  10  19  34  59  87 113 148 191 239 279 323
#     4  11  21  40  58  82 126 140 190 239 280 344
#     4   8  18  37  57  86 108 155 189 227 286 329
#     4   9  19  37  57  84 115 145 195 228 274 348
#     4  10  22  34  58  91 108 147 195 236 277 332
#
# _framework density 20.875654000000001
#
# number of rings (size 3 to 8) (size 9 to 14) (size 15 to 20)
#    0.857    1.429    1.429    1.714    0.000    9.714 
#    2.571    2.857    0.000    0.000    0.000    0.000 
#    0.000    0.000    0.000    0.000    0.000    0.000 
#
# Total GULP energy -78052.138143 kJ/mol
# GULP energy per Si atom -5575.152725 kJ/mol
# Density = 2.082814 g / cm^3
# Si number density = 20.875654 Si / 1000 Ang^3
#
#
#
# Elastic Constant Matrix: (Units=GPa)
#
#
# Indices 1 2 3 4 5 6 
#
# 1 95.8834 6.9821 -12.0081 -11.1808 10.7617 -0.0873
# 2 6.9821 24.0091 18.7903 -3.8096 0.2152 -0.7419
# 3 -12.0081 18.7903 69.4674 -4.0420 -1.6039 15.3908
# 4 -11.1808 -3.8096 -4.0420 21.9488 -6.0407 -1.5676
# 5 10.7617 0.2152 -1.6039 -6.0407 22.9696 0.9289
# 6 -0.0873 -0.7419 15.3908 -1.5676 0.9289 12.4760
#
#
#
# Elastic Compliance Matrix: (Units=1/GPa)
#
#
# Indices 1 2 3 4 5 6 
#
# 1 0.012745 -0.007895 0.006064 0.004648 -0.003969 -0.006982
# 2 -0.007895 0.068087 -0.028147 0.005699 0.001003 0.039358
# 3 0.006064 -0.028147 0.032396 0.001703 0.001811 -0.041517
# 4 0.004648 0.005699 0.001703 0.052708 0.011586 0.004030
# 5 -0.003969 0.001003 0.001811 0.011586 0.048737 -0.004376
# 6 -0.006982 0.039358 -0.041517 0.004030 -0.004376 0.134495
#
#
# Mechanical properties :
#
#
# Convention : Reuss Voigt Hill
#
# Bulk Modulus (GPa) = 18.77133 24.09873 21.43503
# Shear Modulus (GPa) = 11.71290 23.18523 17.44906
#
# Velocity S-wave (km/s) = 2.37128 3.33623 2.89426
# Velocity P-wave (km/s) = 4.06310 5.13903 4.63241
#
# Compressibility (1/GPa) = 0.05327272
#
# Stress axis : x y z
#
# Youngs Moduli (GPa) = 78.46337 14.68712 30.86781
#
# Poissons Ratio (x) = 0.11596 -0.18719
# Poissons Ratio (y) = 0.61948 0.86883
# Poissons Ratio (z) = -0.47582 0.41339
#
# Static dielectric constant tensor:
#      x y z
#    x 1.767170 -0.009590 -0.013740 
#    y -0.009590 1.789490 0.012590 
#    z -0.013740 0.012590 1.764160 
# 
# From -- ./inp_files/453366.got.cif
#   From: 2010.05.17/outbox.cif.g08.bks.cpg/sg2_227_cif.got.tgz:453366.got - 2010.06.03 11:33:40.
