data_PCOD9083413
_publ_section_title
;
Structure prediction by ZEFSAII (Michael W. Deem and Ramdas Pophale) SiO2 
 PCOD9083413
Probable space group: P -1
;
_chemical_formula_sum "Si O2"
_cell_formula_units_Z 16
_cell_length_a 23.570262
_cell_length_b 18.548340
_cell_length_c 6.104100
_cell_angle_alpha 95.574874
_cell_angle_beta 102.780890
_cell_angle_gamma 18.639408
_cell_volume 775.753859
_symmetry_space_group_name_H-M "P -1"
_symmetry_group_IT_number 2
_symmetry_cell_setting 'triclinic'
loop_
_space_group_symop_operation_xyz
x,y,z
-x,-y,-z
loop_
_atom_site_type_symbol
_atom_site_label
_atom_site_fract_x
_atom_site_fract_y
_atom_site_fract_z
Si Si1 0.659344 0.718910 0.428677
Si Si2 0.548306 0.148982 0.379697
Si Si3 0.273069 0.483410 0.867414
Si Si4 0.940874 0.624278 0.677406
Si Si5 0.257736 0.259033 0.163435
Si Si6 0.449251 0.588481 0.230751
Si Si7 0.333139 0.521703 0.544850
Si Si8 0.998864 0.086959 0.954657
O O1 0.554461 0.786701 0.525882
O O2 0.785581 0.519589 0.314683
O O3 0.768411 0.646510 0.653063
O O4 0.485214 0.971666 0.242053
O O5 0.470383 0.320747 0.423264
O O6 0.777810 0.871268 0.519018
O O7 0.460707 0.236556 0.094213
O O8 0.336507 0.465911 0.737829
O O9 0.123520 0.707001 0.952624
O O10 0.831389 0.707665 0.795818
O O11 0.000000 0.500000 0.500000
O O12 0.135426 0.423427 0.893295
O O13 0.500000 0.500000 0.500000
O O14 0.570209 0.518712 0.320411
O O15 0.500000 0.500000 0.000000
O O16 0.216362 0.858164 0.094172
O O17 0.115679 0.780847 0.336211
O O18 0.000000 0.000000 0.000000
#
# Coordination Sequence:
#
# PCOD9083413 Si02
#       8
#     2   2   2   2   2   2   2   2
#     4   9  18  37  59  84 117 162 206 264 322 386
#     4   9  20  38  58  83 122 160 206 256 325 386
#     4  10  21  39  66  88 125 172 215 264 332 395
#     4  10  19  34  55  84 116 158 204 258 318 381
#     4   9  19  34  57  84 118 156 209 262 318 385
#     4  12  27  45  72 105 136 174 225 281 341 411
#     4  10  23  44  66  92 132 175 211 277 333 397
#     4  11  23  43  71  97 129 169 221 273 335 404
#
# _framework density 20.6251
#
# number of rings (size 3 to 8) (size 9 to 14) (size 15 to 20)
#    0.000    2.000    1.250    1.500    3.500    3.000 
#    9.000    3.750    0.000    0.000    0.000    0.000 
#    0.000    0.000    0.000    0.000    0.000    0.000 
#
# Total GULP energy -89079.254067 kJ/mol
# GULP energy per Si atom -5567.453379 kJ/mol
# Density = 2.057816 g / cm^3
# Si number density = 20.625100 Si / 1000 Ang^3
#
#
#
# Elastic Constant Matrix: (Units=GPa)
#
#
# Indices 1 2 3 4 5 6 
#
# 1 59.1356 13.8604 44.6266 -3.5141 13.4062 8.2566
# 2 13.8604 80.9339 70.2991 -10.5463 11.3853 5.8409
# 3 44.6266 70.2991 164.1338 -22.1593 19.3008 8.1441
# 4 -3.5141 -10.5463 -22.1593 34.2678 4.5633 7.5343
# 5 13.4062 11.3853 19.3008 4.5633 39.5908 3.5130
# 6 8.2566 5.8409 8.1441 7.5343 3.5130 24.7695
#
#
#
# Elastic Compliance Matrix: (Units=1/GPa)
#
#
# Indices 1 2 3 4 5 6 
#
# 1 0.023200 0.003005 -0.006562 0.001034 -0.005119 -0.005873
# 2 0.003005 0.020323 -0.008819 0.001877 -0.002503 -0.003110
# 3 -0.006562 -0.008819 0.012661 0.005329 -0.001918 -0.001245
# 4 0.001034 0.001877 0.005329 0.037020 -0.006613 -0.012862
# 5 -0.005119 -0.002503 -0.001918 -0.006613 0.029340 0.000778
# 6 -0.005873 -0.003110 -0.001245 -0.012862 0.000778 0.047275
#
#
# Mechanical properties :
#
#
# Convention : Reuss Voigt Hill
#
# Bulk Modulus (GPa) = 31.81557 62.41950 47.11753
# Shear Modulus (GPa) = 24.38462 31.42010 27.90236
#
# Velocity S-wave (km/s) = 3.44216 3.90730 3.68208
# Velocity P-wave (km/s) = 5.59080 7.11938 6.40088
#
# Compressibility (1/GPa) = 0.03143115
#
# Stress axis : x y z
#
# Youngs Moduli (GPa) = 43.10363 49.20602 78.98318
#
# Poissons Ratio (x) = -0.14789 0.51830
# Poissons Ratio (y) = -0.12955 0.69659
# Poissons Ratio (z) = 0.28285 0.43397
#
# Static dielectric constant tensor:
#      x y z
#    x 1.736610 0.001240 -0.030340 
#    y 0.001240 1.773260 0.012520 
#    z -0.030340 0.012520 1.769570 
# 
# From -- ./inp_files/49178.got.cif
#   From: 2010.05.17/outbox.cif.g08.bks.cpg/sg2_25_cif.got.tgz:49178.got - 2010.06.03 11:33:40.
