data_PCOD9083743
_publ_section_title
;
Structure prediction by ZEFSAII (Michael W. Deem and Ramdas Pophale) SiO2 
 PCOD9083743
Probable space group: P -1
;
_chemical_formula_sum "Si O2"
_cell_formula_units_Z 12
_cell_length_a 8.450717
_cell_length_b 12.319617
_cell_length_c 12.131983
_cell_angle_alpha 57.272430
_cell_angle_beta 77.974631
_cell_angle_gamma 127.842601
_cell_volume 488.708185
_symmetry_space_group_name_H-M "P -1"
_symmetry_group_IT_number 2
_symmetry_cell_setting 'triclinic'
loop_
_space_group_symop_operation_xyz
x,y,z
-x,-y,-z
loop_
_atom_site_type_symbol
_atom_site_label
_atom_site_fract_x
_atom_site_fract_y
_atom_site_fract_z
Si Si1 0.935767 0.176378 0.055615
Si Si2 0.633100 0.089402 0.559051
Si Si3 0.859448 0.189028 0.817024
Si Si4 0.680674 0.382550 0.091638
Si Si5 0.492428 0.625480 0.363240
Si Si6 0.399453 0.632704 0.136079
O O1 0.619105 0.018830 0.257509
O O2 0.797308 0.935140 0.186330
O O3 0.011997 0.282380 0.864841
O O4 0.256254 0.454164 0.926110
O O5 0.013622 0.415689 0.334207
O O6 0.500000 0.000000 0.500000
O O7 0.635045 0.937337 0.668683
O O8 0.132656 0.437164 0.557058
O O9 0.500000 0.000000 0.000000
O O10 0.716040 0.953911 0.919652
O O11 0.648285 0.426484 0.953457
O O12 0.000000 0.500000 0.000000
O O13 0.500000 0.500000 0.500000
O O14 0.472935 0.593693 0.251972
#
# Coordination Sequence:
#
# PCOD9083743 Si02
#       6
#     2   2   2   2   2   2
#     4  10  22  35  61  95 126 168 212 263 324 375
#     4  11  20  34  64  98 136 160 201 266 341 384
#     4  11  22  38  65  95 130 157 218 277 324 370
#     4  10  19  34  57  94 130 161 205 267 329 383
#     4  11  26  45  64  89 132 183 222 254 310 386
#     4  11  21  37  61  93 129 169 210 262 324 377
#
# _framework density 24.554532999999999
#
# number of rings (size 3 to 8) (size 9 to 14) (size 15 to 20)
#    0.000    1.333    3.333    5.000    2.333    5.333 
#    0.000    0.833    0.000    3.000    0.000    0.000 
#    0.000    0.000    0.000    0.000    0.000    0.000 
#
# Total GULP energy -66911.210779 kJ/mol
# GULP energy per Si atom -5575.934232 kJ/mol
# Density = 2.449865 g / cm^3
# Si number density = 24.554533 Si / 1000 Ang^3
#
#
#
# Elastic Constant Matrix: (Units=GPa)
#
#
# Indices 1 2 3 4 5 6 
#
# 1 72.6205 45.6953 19.2765 3.9048 14.1813 11.2706
# 2 45.6953 206.3675 36.7393 25.0591 26.7340 25.6888
# 3 19.2765 36.7393 101.8256 4.1700 0.2891 2.5176
# 4 3.9048 25.0591 4.1700 43.1465 6.1183 15.5850
# 5 14.1813 26.7340 0.2891 6.1183 46.3941 9.1229
# 6 11.2706 25.6888 2.5176 15.5850 9.1229 15.7574
#
#
#
# Elastic Compliance Matrix: (Units=1/GPa)
#
#
# Indices 1 2 3 4 5 6 
#
# 1 0.017926 -0.002307 -0.002450 0.004547 -0.002421 -0.011765
# 2 -0.002307 0.006948 -0.001848 -0.000578 -0.001668 -0.007845
# 3 -0.002450 -0.001848 0.010910 -0.001197 0.001215 0.003502
# 4 0.004547 -0.000578 -0.001197 0.037515 0.001937 -0.040344
# 5 -0.002421 -0.001668 0.001215 0.001937 0.025427 -0.012379
# 6 -0.011765 -0.007845 0.003502 -0.040344 -0.012379 0.131176
#
#
# Mechanical properties :
#
#
# Convention : Reuss Voigt Hill
#
# Bulk Modulus (GPa) = 44.29600 64.91509 54.60554
# Shear Modulus (GPa) = 19.94909 39.66645 29.80777
#
# Velocity S-wave (km/s) = 2.85343 4.02362 3.48795
# Velocity P-wave (km/s) = 5.37913 6.93401 6.20546
#
# Compressibility (1/GPa) = 0.02257540
#
# Stress axis : x y z
#
# Youngs Moduli (GPa) = 55.78351 143.91752 91.65781
#
# Poissons Ratio (x) = 0.33207 0.22452
# Poissons Ratio (y) = 0.12871 0.16937
# Poissons Ratio (z) = 0.13665 0.26594
#
# Static dielectric constant tensor:
#      x y z
#    x 2.344220 -0.009260 -0.099760 
#    y -0.009260 1.930540 -0.018600 
#    z -0.099760 -0.018600 1.971090 
# 
# From -- ./inp_files/257924.got.cif
#   From: 2010.05.17/outbox.cif.g08.bks.cpg/sg2_129_cif.got.tgz:257924.got - 2010.06.03 11:33:40.
