data_PCOD9083745
_publ_section_title
;
Structure prediction by ZEFSAII (Michael W. Deem and Ramdas Pophale) SiO2 
 PCOD9083745
Probable space group: P -1
;
_chemical_formula_sum "Si O2"
_cell_formula_units_Z 16
_cell_length_a 7.664547
_cell_length_b 19.771258
_cell_length_c 7.914726
_cell_angle_alpha 78.877139
_cell_angle_beta 80.943426
_cell_angle_gamma 36.140469
_cell_volume 694.064613
_symmetry_space_group_name_H-M "P -1"
_symmetry_group_IT_number 2
_symmetry_cell_setting 'triclinic'
loop_
_space_group_symop_operation_xyz
x,y,z
-x,-y,-z
loop_
_atom_site_type_symbol
_atom_site_label
_atom_site_fract_x
_atom_site_fract_y
_atom_site_fract_z
Si Si1 0.283554 0.255020 0.770543
Si Si2 0.161142 0.715431 0.210952
Si Si3 0.072237 0.572856 0.540511
Si Si4 0.672745 0.377567 0.389728
Si Si5 0.294232 0.994136 0.063678
Si Si6 0.755765 0.965121 0.294790
Si Si7 0.231280 0.415716 0.859850
Si Si8 0.073517 0.130668 0.337278
O O1 0.546769 0.117958 0.808773
O O2 0.306442 0.313479 0.856521
O O3 0.010108 0.291932 0.849868
O O4 0.215659 0.307054 0.568178
O O5 0.267768 0.656205 0.405470
O O6 0.454104 0.649313 0.109884
O O7 0.928656 0.846214 0.241264
O O8 0.319786 0.492732 0.391144
O O9 0.171122 0.597209 0.658656
O O10 0.906008 0.505706 0.326394
O O11 0.829643 0.266566 0.323283
O O12 0.050167 0.098543 0.179820
O O13 0.500000 0.000000 0.000000
O O14 0.219701 0.991176 0.888096
O O15 0.914044 0.922164 0.472726
O O16 0.404161 0.061965 0.328569
O O17 0.000000 0.500000 0.000000
#
# Coordination Sequence:
#
# PCOD9083745 Si02
#       8
#     2   2   2   2   2   2   2   2
#     4  11  21  40  66  88 120 169 200 257 325 362
#     4   9  18  39  62  85 124 161 200 253 319 368
#     4   9  19  38  60  84 127 163 201 258 314 363
#     4   8  16  32  62  95 115 160 210 252 311 375
#     4  10  19  34  57  95 125 156 211 256 308 380
#     4   9  17  32  56  87 123 160 192 260 309 359
#     4  11  25  41  58  92 126 160 213 257 304 380
#     4   9  16  29  57  95 119 155 213 248 307 383
#
# _framework density 23.052609
#
# number of rings (size 3 to 8) (size 9 to 14) (size 15 to 20)
#    0.000    2.500    2.500    1.125    1.750    2.500 
#    2.250    0.625    0.000    6.750    0.000    0.000 
#    0.000    0.000    0.000    0.000    0.000    0.000 
#
# Total GULP energy -89152.494721 kJ/mol
# GULP energy per Si atom -5572.030920 kJ/mol
# Density = 2.300014 g / cm^3
# Si number density = 23.052609 Si / 1000 Ang^3
#
#
#
# Elastic Constant Matrix: (Units=GPa)
#
#
# Indices 1 2 3 4 5 6 
#
# 1 58.4869 15.6632 3.3456 9.7619 -5.1655 7.7952
# 2 15.6632 124.4119 30.0192 4.3809 -12.3241 28.6100
# 3 3.3456 30.0192 84.7138 10.7617 -0.2630 6.0780
# 4 9.7619 4.3809 10.7617 35.5892 2.4759 1.1478
# 5 -5.1655 -12.3241 -0.2630 2.4759 13.0542 -2.0150
# 6 7.7952 28.6100 6.0780 1.1478 -2.0150 24.7783
#
#
#
# Elastic Compliance Matrix: (Units=1/GPa)
#
#
# Indices 1 2 3 4 5 6 
#
# 1 0.019484 -0.000527 0.000521 -0.005811 0.007590 -0.004762
# 2 -0.000527 0.012996 -0.003527 -0.000668 0.010091 -0.013123
# 3 0.000521 -0.003527 0.013447 -0.003651 -0.002066 0.000611
# 4 -0.005811 -0.000668 -0.003651 0.031445 -0.008763 0.001325
# 5 0.007590 0.010091 -0.002066 -0.008763 0.089855 -0.005819
# 6 -0.004762 -0.013123 0.000611 0.001325 -0.005819 0.056324
#
#
# Mechanical properties :
#
#
# Convention : Reuss Voigt Hill
#
# Bulk Modulus (GPa) = 25.73244 40.62987 33.18115
# Shear Modulus (GPa) = 20.52776 29.25666 24.89221
#
# Velocity S-wave (km/s) = 2.98732 3.56634 3.28960
# Velocity P-wave (km/s) = 4.80474 5.88401 5.37155
#
# Compressibility (1/GPa) = 0.03886145
#
# Stress axis : x y z
#
# Youngs Moduli (GPa) = 51.32353 76.94630 74.36499
#
# Poissons Ratio (x) = 0.04055 -0.03873
# Poissons Ratio (y) = 0.02705 0.26227
# Poissons Ratio (z) = -0.02673 0.27137
#
# Static dielectric constant tensor:
#      x y z
#    x 2.001680 -0.071410 0.011140 
#    y -0.071410 1.926180 -0.097700 
#    z 0.011140 -0.097700 1.927150 
# 
# From -- ./inp_files/224927.got.cif
#   From: 2010.05.17/outbox.cif.g08.bks.cpg/sg2_113_cif.got.tgz:224927.got - 2010.06.03 11:33:40.
