data_PCOD9083698
_publ_section_title
;
Structure prediction by ZEFSAII (Michael W. Deem and Ramdas Pophale) SiO2 
 PCOD9083698
Probable space group: P -1
;
_chemical_formula_sum "Si O2"
_cell_formula_units_Z 15
_cell_length_a 6.687319
_cell_length_b 13.324723
_cell_length_c 7.029547
_cell_angle_alpha 66.955433
_cell_angle_beta 66.077538
_cell_angle_gamma 85.558212
_cell_volume 524.413783
_symmetry_space_group_name_H-M "P -1"
_symmetry_group_IT_number 2
_symmetry_cell_setting 'triclinic'
loop_
_space_group_symop_operation_xyz
x,y,z
-x,-y,-z
loop_
_atom_site_type_symbol
_atom_site_label
_atom_site_fract_x
_atom_site_fract_y
_atom_site_fract_z
Si Si1 0.055430 0.827901 0.283938
Si Si2 0.277487 0.702074 0.996060
Si Si3 0.174799 0.412126 0.715411
Si Si4 0.500000 0.500000 0.000000
Si Si5 0.955441 0.616641 0.662516
Si Si6 0.388673 0.880261 0.573577
Si Si7 0.923549 0.937332 0.769435
Si Si8 0.382784 0.207447 0.786743
O O1 0.244643 0.771016 0.144960
O O2 0.008409 0.748677 0.544777
O O3 0.829857 0.819118 0.254663
O O4 0.114191 0.956777 0.172250
O O5 0.032241 0.657887 0.050850
O O6 0.372306 0.589958 0.088641
O O7 0.442172 0.768150 0.737334
O O8 0.113723 0.403076 0.519711
O O9 0.380981 0.339316 0.705978
O O10 0.152502 0.539136 0.683335
O O11 0.741129 0.573478 0.892968
O O12 0.145706 0.881194 0.757806
O O13 0.436511 0.853699 0.355037
O O14 0.500000 0.000000 0.500000
O O15 0.000000 0.000000 0.500000
O O16 0.709435 0.854340 0.941091
#
# Coordination Sequence:
#
# PCOD9083698 Si02
#       8
#     2   2   2   1   2   2   2   2
#     4  10  18  35  55  78 111 153 184 227 276 333
#     4   9  17  29  51  84 114 139 177 231 283 322
#     4   8  14  28  47  74 108 136 171 225 278 321
#     4  10  16  24  44  90 118 128 168 242 278 324
#     4   8  15  25  45  76 111 134 171 223 282 315
#     4  12  21  33  60  84 105 148 194 230 277 334
#     4  12  25  40  54  80 118 152 190 238 280 323
#     4  10  19  35  59  80 107 142 192 230 278 337
#
# _framework density 28.603368
#
# number of rings (size 3 to 8) (size 9 to 14) (size 15 to 20)
#    0.000    2.400    4.000    3.600    0.000    0.533 
#    0.000    0.000    0.000    0.800    0.000    1.867 
#    0.000    0.000    0.000    0.000    0.000    0.000 
#
# Total GULP energy -83553.257360 kJ/mol
# GULP energy per Si atom -5570.217157 kJ/mol
# Density = 2.853827 g / cm^3
# Si number density = 28.603368 Si / 1000 Ang^3
#
#
#
# Elastic Constant Matrix: (Units=GPa)
#
#
# Indices 1 2 3 4 5 6 
#
# 1 64.9892 37.5635 33.5108 -3.1468 -29.9964 6.2148
# 2 37.5635 154.1709 31.8829 8.7969 -11.3245 -26.0803
# 3 33.5108 31.8829 142.9855 -11.4267 -23.1377 -0.1145
# 4 -3.1468 8.7969 -11.4267 57.2939 -7.2099 -6.1221
# 5 -29.9964 -11.3245 -23.1377 -7.2099 51.7960 5.1845
# 6 6.2148 -26.0803 -0.1145 -6.1221 5.1845 31.5118
#
#
#
# Elastic Compliance Matrix: (Units=1/GPa)
#
#
# Indices 1 2 3 4 5 6 
#
# 1 0.031087 -0.008626 -0.002375 0.003046 0.017031 -0.015489
# 2 -0.008626 0.010407 -0.001166 -0.001732 -0.004555 0.010724
# 3 -0.002375 -0.001166 0.008360 0.001970 0.002426 -0.000483
# 4 0.003046 -0.001732 0.001970 0.018979 0.004820 0.000867
# 5 0.017031 -0.004555 0.002426 0.004820 0.031059 -0.011294
# 6 -0.015489 0.010724 -0.000483 0.000867 -0.011294 0.045689
#
#
# Mechanical properties :
#
#
# Convention : Reuss Voigt Hill
#
# Bulk Modulus (GPa) = 39.18519 63.11776 51.15148
# Shear Modulus (GPa) = 28.02315 45.39955 36.71135
#
# Velocity S-wave (km/s) = 3.13344 3.98830 3.58643
# Velocity P-wave (km/s) = 5.17885 6.58204 5.92215
#
# Compressibility (1/GPa) = 0.02551985
#
# Stress axis : x y z
#
# Youngs Moduli (GPa) = 32.16734 96.08494 119.61632
#
# Poissons Ratio (x) = 0.82885 0.28413
# Poissons Ratio (y) = 0.27748 0.13946
# Poissons Ratio (z) = 0.07641 0.11203
#
# Static dielectric constant tensor:
#      x y z
#    x 2.968930 -0.381960 0.333450 
#    y -0.381960 2.572600 -0.159860 
#    z 0.333450 -0.159860 2.328200 
# 
# From -- ./inp_files/195497.got.cif
#   From: 2010.05.17/outbox.cif.g08.bks.cpg/sg2_98_cif.got.tgz:195497.got - 2010.06.03 11:33:40.
