data_PCOD9083187
_publ_section_title
;
Structure prediction by ZEFSAII (Michael W. Deem and Ramdas Pophale) SiO2 
 PCOD9083187
Probable space group: P -1
;
_chemical_formula_sum "Si O2"
_cell_formula_units_Z 14
_cell_length_a 6.106733
_cell_length_b 8.492393
_cell_length_c 17.185104
_cell_angle_alpha 107.723957
_cell_angle_beta 131.318429
_cell_angle_gamma 65.230982
_cell_volume 607.277751
_symmetry_space_group_name_H-M "P -1"
_symmetry_group_IT_number 2
_symmetry_cell_setting 'triclinic'
loop_
_space_group_symop_operation_xyz
x,y,z
-x,-y,-z
loop_
_atom_site_type_symbol
_atom_site_label
_atom_site_fract_x
_atom_site_fract_y
_atom_site_fract_z
Si Si1 0.759099 0.897072 0.642089
Si Si2 0.588501 0.781533 0.277055
Si Si3 0.134421 0.893402 0.438500
Si Si4 0.161327 0.564138 0.161784
Si Si5 0.677618 0.991170 0.889993
Si Si6 0.998467 0.313596 0.189352
Si Si7 0.377203 0.258502 0.040451
O O1 0.064351 0.023720 0.368023
O O2 0.509899 0.159576 0.825975
O O3 0.961803 0.744109 0.720494
O O4 0.586810 0.059726 0.682072
O O5 0.457594 0.627316 0.246592
O O6 0.947460 0.757219 0.365192
O O7 0.500871 0.164710 0.472846
O O8 0.000000 0.000000 0.500000
O O9 0.235400 0.405954 0.094075
O O10 0.054444 0.490811 0.203610
O O11 0.885983 0.716625 0.081692
O O12 0.527243 0.921986 0.916918
O O13 0.752547 0.838063 0.820930
O O14 0.000000 0.000000 0.000000
O O15 0.669879 0.303362 0.082767
#
# Coordination Sequence:
#
# PCOD9083187 Si02
#       7
#     2   2   2   2   2   2   2
#     4   9  19  36  57  83 103 131 179 225 264 324
#     4  10  19  34  55  82 108 140 176 223 265 305
#     4   9  18  35  60  80 103 132 171 224 280 314
#     4  10  21  35  51  76 113 145 184 214 254 320
#     4  10  19  34  52  79 111 138 182 224 253 309
#     4  10  21  35  53  77 109 147 178 214 266 314
#     4  10  20  36  52  72 110 156 180 214 259 305
#
# _framework density 23.053701
#
# number of rings (size 3 to 8) (size 9 to 14) (size 15 to 20)
#    0.000    2.286    1.429    1.286    0.000    2.857 
#    2.571    0.714    0.000    8.571    0.000    0.000 
#    0.000    0.000    0.000    0.000    0.000    0.000 
#
# Total GULP energy -78224.467956 kJ/mol
# GULP energy per Si atom -5587.461997 kJ/mol
# Density = 2.300123 g / cm^3
# Si number density = 23.053701 Si / 1000 Ang^3
#
#
#
# Elastic Constant Matrix: (Units=GPa)
#
#
# Indices 1 2 3 4 5 6 
#
# 1 86.3595 39.0384 22.4237 0.1307 -4.6400 31.6438
# 2 39.0384 71.9234 22.6727 3.3519 -2.6141 29.2487
# 3 22.4237 22.6727 90.5812 7.2745 8.5262 26.4795
# 4 0.1307 3.3519 7.2745 19.2984 12.5978 8.0975
# 5 -4.6400 -2.6141 8.5262 12.5978 43.7558 11.8987
# 6 31.6438 29.2487 26.4795 8.0975 11.8987 51.0762
#
#
#
# Elastic Compliance Matrix: (Units=1/GPa)
#
#
# Indices 1 2 3 4 5 6 
#
# 1 0.017709 -0.005971 -0.001007 0.002658 0.003180 -0.008192
# 2 -0.005971 0.021206 -0.001637 -0.002064 0.003762 -0.008144
# 3 -0.001007 -0.001637 0.013364 -0.002150 -0.000879 -0.004821
# 4 0.002658 -0.002064 -0.002150 0.066537 -0.016962 -0.005948
# 5 0.003180 0.003762 -0.000879 -0.016962 0.030681 -0.008127
# 6 -0.008192 -0.008144 -0.004821 -0.005948 -0.008127 0.034653
#
#
# Mechanical properties :
#
#
# Convention : Reuss Voigt Hill
#
# Bulk Modulus (GPa) = 28.53350 46.34819 37.44084
# Shear Modulus (GPa) = 23.46727 33.80805 28.63766
#
# Velocity S-wave (km/s) = 3.19398 3.83363 3.52833
# Velocity P-wave (km/s) = 5.09959 6.30426 5.73365
#
# Compressibility (1/GPa) = 0.03504653
#
# Stress axis : x y z
#
# Youngs Moduli (GPa) = 56.46881 47.15691 74.82991
#
# Poissons Ratio (x) = 0.28160 0.07538
# Poissons Ratio (y) = 0.33720 0.12251
# Poissons Ratio (z) = 0.05688 0.07720
#
# Static dielectric constant tensor:
#      x y z
#    x 1.890760 -0.005670 -0.018060 
#    y -0.005670 1.875170 0.012110 
#    z -0.018060 0.012110 1.873010 
# 
# From -- ./inp_files/548663.got.cif
#   From: 2010.05.17/outbox.cif.g08.bks.cpg/sg2_275_cif.got.tgz:548663.got - 2010.06.03 11:33:40.
