data_PCOD9083355
_publ_section_title
;
Structure prediction by ZEFSAII (Michael W. Deem and Ramdas Pophale) SiO2 
 PCOD9083355
Probable space group: P -1
;
_chemical_formula_sum "Si O2"
_cell_formula_units_Z 16
_cell_length_a 18.670336
_cell_length_b 7.299086
_cell_length_c 20.496468
_cell_angle_alpha 142.803176
_cell_angle_beta 157.166795
_cell_angle_gamma 34.510215
_cell_volume 605.272357
_symmetry_space_group_name_H-M "P -1"
_symmetry_group_IT_number 2
_symmetry_cell_setting 'triclinic'
loop_
_space_group_symop_operation_xyz
x,y,z
-x,-y,-z
loop_
_atom_site_type_symbol
_atom_site_label
_atom_site_fract_x
_atom_site_fract_y
_atom_site_fract_z
Si Si1 0.211975 0.664250 0.228901
Si Si2 0.133404 0.659337 0.421883
Si Si3 0.525385 0.981256 0.430254
Si Si4 0.387915 0.576340 0.008220
Si Si5 0.011741 0.974675 0.725447
Si Si6 0.232957 0.058744 0.722169
Si Si7 0.732844 0.613024 0.370450
Si Si8 0.186312 0.027879 0.078756
O O1 0.230200 0.295428 0.146074
O O2 0.420201 0.711508 0.417098
O O3 0.106767 0.833490 0.256134
O O4 0.053193 0.845099 0.090311
O O5 0.323204 0.317526 0.484601
O O6 0.967023 0.658652 0.335278
O O7 0.030914 0.775363 0.299546
O O8 0.206341 0.930083 0.592046
O O9 0.611280 0.860428 0.395686
O O10 0.298254 0.023713 0.239518
O O11 0.401881 0.205243 0.907808
O O12 0.234808 0.793728 0.887282
O O13 0.587164 0.650252 0.198196
O O14 0.286541 0.692940 0.027843
O O15 0.923746 0.706852 0.551759
O O16 0.247018 0.746994 0.689717
#
# Coordination Sequence:
#
# PCOD9083355 Si02
#       8
#     2   2   2   2   2   2   2   2
#     4   9  17  32  55  77  99 130 167 211 255 294
#     4  10  20  34  53  76 103 138 172 206 254 306
#     4   9  17  32  52  74 100 133 171 207 245 296
#     4  10  19  34  55  78 103 134 171 211 252 297
#     4  10  20  35  52  75 109 134 162 214 262 299
#     4  10  19  34  55  74  99 138 176 209 249 301
#     4   9  19  34  53  78 102 131 173 211 251 304
#     4   9  17  30  54  79  98 128 173 209 243 299
#
# _framework density 26.434381999999999
#
# number of rings (size 3 to 8) (size 9 to 14) (size 15 to 20)
#    0.000    2.500    0.000    4.500    0.000    2.000 
#    0.000    8.125    0.000   12.000    0.000    0.000 
#    0.000    0.000    0.000    0.000    0.000    0.000 
#
# Total GULP energy -89450.961772 kJ/mol
# GULP energy per Si atom -5590.685111 kJ/mol
# Density = 2.637422 g / cm^3
# Si number density = 26.434382 Si / 1000 Ang^3
#
#
#
# Elastic Constant Matrix: (Units=GPa)
#
#
# Indices 1 2 3 4 5 6 
#
# 1 59.4936 3.0610 28.0305 -9.3919 -4.1735 6.7561
# 2 3.0610 59.8044 31.9717 -4.1775 -5.0836 23.1317
# 3 28.0305 31.9717 220.0444 -6.5937 -15.4324 25.6285
# 4 -9.3919 -4.1775 -6.5937 57.5978 15.3039 -17.5855
# 5 -4.1735 -5.0836 -15.4324 15.3039 17.8501 -4.7106
# 6 6.7561 23.1317 25.6285 -17.5855 -4.7106 23.4810
#
#
#
# Elastic Compliance Matrix: (Units=1/GPa)
#
#
# Indices 1 2 3 4 5 6 
#
# 1 0.018396 0.001544 -0.002119 0.001786 0.000573 -0.003049
# 2 0.001544 0.031377 -0.000019 -0.011543 0.009109 -0.038150
# 3 -0.002119 -0.000019 0.005959 -0.003383 0.005630 -0.007279
# 4 0.001786 -0.011543 -0.003383 0.033856 -0.025648 0.034760
# 5 0.000573 0.009109 0.005630 -0.025648 0.080782 -0.018286
# 6 -0.003049 -0.038150 -0.007279 0.034760 -0.018286 0.111357
#
#
# Mechanical properties :
#
#
# Convention : Reuss Voigt Hill
#
# Bulk Modulus (GPa) = 18.33439 51.71874 35.02656
# Shear Modulus (GPa) = 16.60606 38.20441 27.40523
#
# Velocity S-wave (km/s) = 2.50911 3.80577 3.22332
# Velocity P-wave (km/s) = 3.91727 6.23854 5.20886
#
# Compressibility (1/GPa) = 0.05454232
#
# Stress axis : x y z
#
# Youngs Moduli (GPa) = 54.36041 31.87086 167.82668
#
# Poissons Ratio (x) = -0.04920 0.35560
# Poissons Ratio (y) = -0.08393 0.00324
# Poissons Ratio (z) = 0.11518 0.00061
#
# Static dielectric constant tensor:
#      x y z
#    x 2.061150 0.009750 0.006240 
#    y 0.009750 2.120250 -0.077800 
#    z 0.006240 -0.077800 2.105850 
# 
# From -- ./inp_files/313682.got.cif
#   From: 2010.05.17/outbox.cif.g08.bks.cpg/sg2_157_cif.got.tgz:313682.got - 2010.06.03 11:33:40.
