data_PCOD9083385
_publ_section_title
;
Structure prediction by ZEFSAII (Michael W. Deem and Ramdas Pophale) SiO2 
 PCOD9083385
Probable space group: P -1
;
_chemical_formula_sum "Si O2"
_cell_formula_units_Z 14
_cell_length_a 13.159959
_cell_length_b 10.659037
_cell_length_c 13.170102
_cell_angle_alpha 35.215347
_cell_angle_beta 118.625793
_cell_angle_gamma 141.485837
_cell_volume 593.725709
_symmetry_space_group_name_H-M "P -1"
_symmetry_group_IT_number 2
_symmetry_cell_setting 'triclinic'
loop_
_space_group_symop_operation_xyz
x,y,z
-x,-y,-z
loop_
_atom_site_type_symbol
_atom_site_label
_atom_site_fract_x
_atom_site_fract_y
_atom_site_fract_z
Si Si1 0.414079 0.363131 0.819736
Si Si2 0.832756 0.019496 0.585779
Si Si3 0.821779 0.208682 0.245890
Si Si4 0.310570 0.739285 0.143117
Si Si5 0.583338 0.927192 0.657445
Si Si6 0.000299 0.822712 0.797248
Si Si7 0.598796 0.297229 0.580056
O O1 0.438023 0.521819 0.834587
O O2 0.629076 0.626250 0.725523
O O3 0.348654 0.444295 0.650220
O O4 0.305672 0.984049 0.013769
O O5 0.893744 0.216080 0.380485
O O6 0.772585 0.110071 0.580580
O O7 0.974291 0.037316 0.670184
O O8 0.613901 0.969576 0.323781
O O9 0.832398 0.053295 0.260874
O O10 0.933500 0.580663 0.018555
O O11 0.150552 0.440312 0.189230
O O12 0.311953 0.589968 0.341597
O O13 0.500000 0.000000 0.000000
O O14 0.610079 0.076543 0.678935
O O15 0.500000 0.000000 0.500000
#
# Coordination Sequence:
#
# PCOD9083385 Si02
#       7
#     2   2   2   2   2   2   2
#     4   8  18  31  50  78  98 127 166 212 250 292
#     4   9  17  34  54  78  97 131 175 216 248 288
#     4  10  20  34  54  73 106 137 171 204 257 297
#     4  12  20  32  49  76 112 130 165 210 255 303
#     4   8  15  32  54  80  98 122 180 220 243 292
#     4  11  22  34  48  81 108 136 167 204 253 320
#     4  10  19  34  55  80  95 135 169 217 254 286
#
# _framework density 23.579910999999999
#
# number of rings (size 3 to 8) (size 9 to 14) (size 15 to 20)
#    0.857    1.429    4.286    0.429    0.000    2.286 
#    0.000    0.000    0.000    1.714    0.000    0.000 
#    0.000    0.000    0.000    0.000    0.000    0.000 
#
# Total GULP energy -78171.688383 kJ/mol
# GULP energy per Si atom -5583.692027 kJ/mol
# Density = 2.352624 g / cm^3
# Si number density = 23.579911 Si / 1000 Ang^3
#
#
#
# Elastic Constant Matrix: (Units=GPa)
#
#
# Indices 1 2 3 4 5 6 
#
# 1 130.3567 0.8686 28.4557 -5.5840 20.4831 9.7817
# 2 0.8686 33.4833 7.7957 4.2697 -4.6262 -12.0478
# 3 28.4557 7.7957 98.6074 8.8169 20.5414 8.5011
# 4 -5.5840 4.2697 8.8169 29.0357 -1.5266 8.2738
# 5 20.4831 -4.6262 20.5414 -1.5266 31.3722 -5.3182
# 6 9.7817 -12.0478 8.5011 8.2738 -5.3182 19.6883
#
#
#
# Elastic Compliance Matrix: (Units=1/GPa)
#
#
# Indices 1 2 3 4 5 6 
#
# 1 0.011198 -0.010015 0.001017 0.008035 -0.012252 -0.018817
# 2 -0.010015 0.069186 -0.014469 -0.027136 0.037631 0.075129
# 3 0.001017 -0.014469 0.016192 0.002818 -0.017014 -0.022131
# 4 0.008035 -0.027136 0.002818 0.051968 -0.016730 -0.048172
# 5 -0.012252 0.037631 -0.017014 -0.016730 0.066152 0.061360
# 6 -0.018817 0.075129 -0.022131 -0.048172 0.061360 0.152488
#
#
# Mechanical properties :
#
#
# Convention : Reuss Voigt Hill
#
# Bulk Modulus (GPa) = 20.14517 37.40970 28.77743
# Shear Modulus (GPa) = 11.60995 31.04105 21.32550
#
# Velocity S-wave (km/s) = 2.22134 3.63219 3.01057
# Velocity P-wave (km/s) = 3.89115 5.78704 4.93107
#
# Compressibility (1/GPa) = 0.04963970
#
# Stress axis : x y z
#
# Youngs Moduli (GPa) = 89.30551 14.45377 61.75927
#
# Poissons Ratio (x) = 0.14476 -0.06278
# Poissons Ratio (y) = 0.89443 0.89360
# Poissons Ratio (z) = -0.09079 0.20913
#
# Static dielectric constant tensor:
#      x y z
#    x 1.917490 0.013570 0.039860 
#    y 0.013570 1.971660 -0.043200 
#    z 0.039860 -0.043200 1.903270 
# 
# From -- ./inp_files/518580.got.cif
#   From: 2010.05.17/outbox.cif.g08.bks.cpg/sg2_260_cif.got.tgz:518580.got - 2010.06.03 11:33:40.
