data_PCOD9083079
_publ_section_title
;
Structure prediction by ZEFSAII (Michael W. Deem and Ramdas Pophale) SiO2 
 PCOD9083079
Probable space group: P -1
;
_chemical_formula_sum "Si O2"
_cell_formula_units_Z 14
_cell_length_a 18.187449
_cell_length_b 7.345900
_cell_length_c 9.403911
_cell_angle_alpha 90.156641
_cell_angle_beta 129.591036
_cell_angle_gamma 128.984765
_cell_volume 556.030720
_symmetry_space_group_name_H-M "P -1"
_symmetry_group_IT_number 2
_symmetry_cell_setting 'triclinic'
loop_
_space_group_symop_operation_xyz
x,y,z
-x,-y,-z
loop_
_atom_site_type_symbol
_atom_site_label
_atom_site_fract_x
_atom_site_fract_y
_atom_site_fract_z
Si Si1 0.130239 0.225595 0.033895
Si Si2 0.775573 0.589542 0.140241
Si Si3 0.563884 0.997361 0.435878
Si Si4 0.144183 0.683132 0.069983
Si Si5 0.767404 0.151284 0.119938
Si Si6 0.376168 0.525929 0.553639
Si Si7 0.302301 0.231581 0.737149
O O1 0.107216 0.146011 0.839375
O O2 0.152198 0.478073 0.052882
O O3 0.291749 0.372083 0.295299
O O4 0.000000 0.000000 0.000000
O O5 0.802246 0.417198 0.196398
O O6 0.590864 0.311554 0.844242
O O7 0.762106 0.690753 0.261065
O O8 0.682896 0.022924 0.632503
O O9 0.652142 0.298878 0.456714
O O10 0.500000 0.000000 0.500000
O O11 0.133834 0.750626 0.900710
O O12 0.000000 0.500000 0.000000
O O13 0.574253 0.823445 0.826760
O O14 0.786939 0.069269 0.288192
O O15 0.283632 0.250413 0.549409
O O16 0.500000 0.500000 0.000000
#
# Coordination Sequence:
#
# PCOD9083079 Si02
#       7
#     2   2   2   2   2   2   2
#     4  10  20  36  59  83 111 151 199 237 289 353
#     4  10  19  37  64  81 113 161 191 233 303 342
#     4  10  15  35  61  82 111 156 195 242 293 351
#     4  10  19  33  55  86 116 147 188 255 294 328
#     4   9  18  36  58  81 122 147 191 242 286 350
#     4   9  17  36  58  82 115 146 192 237 284 348
#     4  10  22  35  56  93 118 146 193 244 290 350
#
# _framework density 25.178464999999999
#
# number of rings (size 3 to 8) (size 9 to 14) (size 15 to 20)
#    0.000    2.286    5.714    0.000    2.000    5.143 
#    5.143    4.286    0.000    1.714    0.000    0.000 
#    0.000    0.000    0.000    0.000    0.000    0.000 
#
# Total GULP energy -78145.492116 kJ/mol
# GULP energy per Si atom -5581.820865 kJ/mol
# Density = 2.512116 g / cm^3
# Si number density = 25.178465 Si / 1000 Ang^3
#
#
#
# Elastic Constant Matrix: (Units=GPa)
#
#
# Indices 1 2 3 4 5 6 
#
# 1 110.6998 45.9371 19.6840 -13.6251 1.5978 13.1919
# 2 45.9371 165.6496 27.5614 -51.0731 0.3299 8.0673
# 3 19.6840 27.5614 75.5466 -11.9266 6.3943 -0.2147
# 4 -13.6251 -51.0731 -11.9266 43.3823 7.4510 4.6350
# 5 1.5978 0.3299 6.3943 7.4510 19.8989 -1.6524
# 6 13.1919 8.0673 -0.2147 4.6350 -1.6524 34.3320
#
#
#
# Elastic Compliance Matrix: (Units=1/GPa)
#
#
# Indices 1 2 3 4 5 6 
#
# 1 0.010864 -0.002285 -0.001813 0.000776 -0.000858 -0.003795
# 2 -0.002285 0.011169 -0.000939 0.013447 -0.005051 -0.003811
# 3 -0.001813 -0.000939 0.015107 0.003477 -0.005974 0.000255
# 4 0.000776 0.013447 0.003477 0.044433 -0.018899 -0.010345
# 5 -0.000858 -0.005051 -0.005974 -0.018899 0.059977 0.006917
# 6 -0.003795 -0.003811 0.000255 -0.010345 0.006917 0.033212
#
#
# Mechanical properties :
#
#
# Convention : Reuss Voigt Hill
#
# Bulk Modulus (GPa) = 36.94817 59.80677 48.37747
# Shear Modulus (GPa) = 25.79192 36.77022 31.28107
#
# Velocity S-wave (km/s) = 3.20404 3.82564 3.52856
# Velocity P-wave (km/s) = 5.32862 6.58170 5.98803
#
# Compressibility (1/GPa) = 0.02706494
#
# Stress axis : x y z
#
# Youngs Moduli (GPa) = 92.04488 89.53620 66.19382
#
# Poissons Ratio (x) = 0.20463 0.11999
# Poissons Ratio (y) = 0.21037 0.06219
# Poissons Ratio (z) = 0.16684 0.08412
#
# Static dielectric constant tensor:
#      x y z
#    x 1.971170 -0.009700 0.015850 
#    y -0.009700 2.111270 0.068100 
#    z 0.015850 0.068100 2.053600 
# 
# From -- ./inp_files/195687.got.cif
#   From: 2010.05.17/outbox.cif.g08.bks.cpg/sg2_98_cif.got.tgz:195687.got - 2010.06.03 11:33:40.
