data_PCOD9083759
_publ_section_title
;
Structure prediction by ZEFSAII (Michael W. Deem and Ramdas Pophale) SiO2 
 PCOD9083759
Probable space group: P -1
;
_chemical_formula_sum "Si O2"
_cell_formula_units_Z 14
_cell_length_a 11.789723
_cell_length_b 8.844531
_cell_length_c 9.266707
_cell_angle_alpha 114.660444
_cell_angle_beta 109.059059
_cell_angle_gamma 107.834188
_cell_volume 711.402035
_symmetry_space_group_name_H-M "P -1"
_symmetry_group_IT_number 2
_symmetry_cell_setting 'triclinic'
loop_
_space_group_symop_operation_xyz
x,y,z
-x,-y,-z
loop_
_atom_site_type_symbol
_atom_site_label
_atom_site_fract_x
_atom_site_fract_y
_atom_site_fract_z
Si Si1 0.741101 0.100069 0.901607
Si Si2 0.019241 0.911837 0.806605
Si Si3 0.364107 0.785209 0.845285
Si Si4 0.810257 0.685466 0.865158
Si Si5 0.092911 0.705504 0.539308
Si Si6 0.536738 0.659789 0.702493
Si Si7 0.868545 0.354174 0.791528
O O1 0.779920 0.172231 0.784521
O O2 0.612158 0.879381 0.759290
O O3 0.869158 0.106530 0.048349
O O4 0.704974 0.240335 0.035400
O O5 0.037362 0.838635 0.632603
O O6 0.868908 0.776447 0.765335
O O7 0.070565 0.138589 0.919557
O O8 0.251670 0.783631 0.687999
O O9 0.414252 0.643618 0.747403
O O10 0.500000 0.000000 0.000000
O O11 0.664727 0.663940 0.840321
O O12 0.795618 0.478874 0.780330
O O13 0.086031 0.686263 0.358241
O O14 0.000000 0.500000 0.500000
O O15 0.500000 0.500000 0.500000
O O16 0.000000 0.500000 0.000000
#
# Coordination Sequence:
#
# PCOD9083759 Si02
#       7
#     2   2   2   2   2   2   2
#     4   9  19  37  59  82 112 149 189 240 287 333
#     4   9  18  36  58  81 108 150 193 233 279 343
#     4   9  19  39  60  81 111 155 199 232 279 357
#     4  10  19  34  58  80 115 149 190 229 293 339
#     4  11  20  35  61  90 112 152 202 238 282 352
#     4  10  20  35  57  84 111 151 195 233 280 348
#     4  12  21  36  57  91 122 149 187 248 299 337
#
# _framework density 19.679448000000001
#
# number of rings (size 3 to 8) (size 9 to 14) (size 15 to 20)
#    0.000    2.000    2.857    2.571    0.000    0.000 
#    0.000    9.286    0.000    0.000    0.000    0.000 
#    0.000    0.000    0.000    0.000    0.000    0.000 
#
# Total GULP energy -78014.376798 kJ/mol
# GULP energy per Si atom -5572.455486 kJ/mol
# Density = 1.963466 g / cm^3
# Si number density = 19.679448 Si / 1000 Ang^3
#
#
#
# Elastic Constant Matrix: (Units=GPa)
#
#
# Indices 1 2 3 4 5 6 
#
# 1 106.0724 0.1330 33.0194 -2.6472 -36.5182 -1.9639
# 2 0.1330 53.0902 18.7898 -1.9996 -23.0174 9.5902
# 3 33.0194 18.7898 101.3845 -3.2112 -36.9151 11.0863
# 4 -2.6472 -1.9996 -3.2112 24.4184 4.8309 -10.5744
# 5 -36.5182 -23.0174 -36.9151 4.8309 52.7714 5.7389
# 6 -1.9639 9.5902 11.0863 -10.5744 5.7389 22.0244
#
#
#
# Elastic Compliance Matrix: (Units=1/GPa)
#
#
# Indices 1 2 3 4 5 6 
#
# 1 0.014009 0.007180 -0.000197 -0.003763 0.013814 -0.007184
# 2 0.007180 0.034200 0.004198 -0.014504 0.027465 -0.030485
# 3 -0.000197 0.004198 0.016897 -0.008871 0.016380 -0.018878
# 4 -0.003763 -0.014504 -0.008871 0.064221 -0.026248 0.048119
# 5 0.013814 0.027465 0.016380 -0.026248 0.059468 -0.047070
# 6 -0.007184 -0.030485 -0.018878 0.048119 -0.047070 0.102908
#
#
# Mechanical properties :
#
#
# Convention : Reuss Voigt Hill
#
# Bulk Modulus (GPa) = 11.43297 40.49239 25.96268
# Shear Modulus (GPa) = 16.75057 33.74984 25.25020
#
# Velocity S-wave (km/s) = 2.92065 4.14572 3.58589
# Velocity P-wave (km/s) = 4.14678 6.59823 5.51056
#
# Compressibility (1/GPa) = 0.08746630
#
# Stress axis : x y z
#
# Youngs Moduli (GPa) = 71.38481 29.23961 59.18250
#
# Poissons Ratio (x) = -0.20993 0.01165
# Poissons Ratio (y) = -0.51251 -0.24843
# Poissons Ratio (z) = 0.01406 -0.12274
#
# Static dielectric constant tensor:
#      x y z
#    x 1.767990 -0.026350 -0.010320 
#    y -0.026350 1.711910 -0.001540 
#    z -0.010320 -0.001540 1.669650 
# 
# From -- ./inp_files/181756.got.cif
#   From: 2010.05.17/outbox.cif.g08.bks.cpg/sg2_91_cif.got.tgz:181756.got - 2010.06.03 11:33:40.
