data_PCOD9083137
_publ_section_title
;
Structure prediction by ZEFSAII (Michael W. Deem and Ramdas Pophale) SiO2 
 PCOD9083137
Probable space group: P -1
;
_chemical_formula_sum "Si O2"
_cell_formula_units_Z 16
_cell_length_a 9.084398
_cell_length_b 7.282753
_cell_length_c 12.116597
_cell_angle_alpha 100.550261
_cell_angle_beta 116.406114
_cell_angle_gamma 84.647591
_cell_volume 705.787009
_symmetry_space_group_name_H-M "P -1"
_symmetry_group_IT_number 2
_symmetry_cell_setting 'triclinic'
loop_
_space_group_symop_operation_xyz
x,y,z
-x,-y,-z
loop_
_atom_site_type_symbol
_atom_site_label
_atom_site_fract_x
_atom_site_fract_y
_atom_site_fract_z
Si Si1 0.252401 0.166370 0.556142
Si Si2 0.211964 0.695423 0.804693
Si Si3 0.865561 0.820968 0.729637
Si Si4 0.404602 0.882255 0.269459
Si Si5 0.863822 0.733047 0.240228
Si Si6 0.487481 0.191471 0.951583
Si Si7 0.797375 0.382510 0.683887
Si Si8 0.188738 0.577188 0.559836
O O1 0.161181 0.141012 0.406857
O O2 0.423666 0.055382 0.611261
O O3 0.152622 0.154826 0.637145
O O4 0.295129 0.388379 0.590297
O O5 0.144332 0.486464 0.758011
O O6 0.230811 0.727085 0.683793
O O7 0.063304 0.824688 0.815645
O O8 0.382101 0.686385 0.925081
O O9 0.814086 0.607500 0.719821
O O10 0.738143 0.960694 0.760698
O O11 0.450301 0.824641 0.154442
O O12 0.341370 0.706258 0.298428
O O13 0.705509 0.766535 0.116397
O O14 0.038674 0.736201 0.240763
O O15 0.500000 0.000000 0.000000
O O16 0.783765 0.346245 0.544369
O O17 0.000000 0.500000 0.500000
#
# Coordination Sequence:
#
# PCOD9083137 Si02
#       8
#     2   2   2   2   2   2   2   2
#     4   9  17  37  63  92 133 159 198 260 308 374
#     4  10  19  39  67  93 118 169 212 253 308 375
#     4  10  20  39  64  93 133 160 203 256 324 374
#     4  11  25  41  60  93 131 166 210 258 310 378
#     4   9  18  40  67  89 120 162 214 257 303 372
#     4  11  26  45  59  86 126 169 216 264 305 366
#     4  10  20  40  69  97 123 165 202 261 323 365
#     4  10  15  36  70  97 124 157 204 258 308 381
#
# _framework density 22.669729
#
# number of rings (size 3 to 8) (size 9 to 14) (size 15 to 20)
#    0.000    2.000    5.000    0.750    1.750    2.500 
#   15.750    2.500    0.000    0.000    0.000    0.000 
#    0.000    0.000    0.000    0.000    0.000    0.000 
#
# Total GULP energy -89275.570975 kJ/mol
# GULP energy per Si atom -5579.723186 kJ/mol
# Density = 2.261813 g / cm^3
# Si number density = 22.669729 Si / 1000 Ang^3
#
#
#
# Elastic Constant Matrix: (Units=GPa)
#
#
# Indices 1 2 3 4 5 6 
#
# 1 99.4446 22.8365 36.0492 -13.0293 5.4785 -6.2734
# 2 22.8365 64.7305 9.7865 -17.0266 5.6941 -7.6271
# 3 36.0492 9.7865 79.6837 -16.8806 9.7030 -4.8145
# 4 -13.0293 -17.0266 -16.8806 28.9819 -3.8161 4.6337
# 5 5.4785 5.6941 9.7030 -3.8161 25.8648 -18.0591
# 6 -6.2734 -7.6271 -4.8145 4.6337 -18.0591 37.0181
#
#
#
# Elastic Compliance Matrix: (Units=1/GPa)
#
#
# Indices 1 2 3 4 5 6 
#
# 1 0.012894 -0.003545 -0.005325 0.000551 0.000929 0.001146
# 2 -0.003545 0.019499 0.001694 0.010392 -0.001536 0.001587
# 3 -0.005325 0.001694 0.017068 0.008113 -0.006061 -0.002306
# 4 0.000551 0.010392 0.008113 0.045945 -0.000588 -0.002748
# 5 0.000929 -0.001536 -0.006061 -0.000588 0.061241 0.029002
# 6 0.001146 0.001587 -0.002306 -0.002748 0.029002 0.041728
#
#
# Mechanical properties :
#
#
# Convention : Reuss Voigt Hill
#
# Bulk Modulus (GPa) = 28.48393 42.35592 35.41993
# Shear Modulus (GPa) = 22.27871 30.05208 26.16539
#
# Velocity S-wave (km/s) = 3.13829 3.64489 3.40104
# Velocity P-wave (km/s) = 5.07187 6.03640 5.57503
#
# Compressibility (1/GPa) = 0.03510751
#
# Stress axis : x y z
#
# Youngs Moduli (GPa) = 77.55774 51.28464 58.58927
#
# Poissons Ratio (x) = 0.18182 0.31197
# Poissons Ratio (y) = 0.27497 -0.09922
# Poissons Ratio (z) = 0.41297 -0.08685
#
# Static dielectric constant tensor:
#      x y z
#    x 2.327990 0.194000 0.305720 
#    y 0.194000 2.008600 0.116820 
#    z 0.305720 0.116820 2.086160 
# 
# From -- ./inp_files/382701.got.cif
#   From: 2010.05.17/outbox.cif.g08.bks.cpg/sg2_192_cif.got.tgz:382701.got - 2010.06.03 11:33:40.
