data_PCOD9083774
_publ_section_title
;
Structure prediction by ZEFSAII (Michael W. Deem and Ramdas Pophale) SiO2 
 PCOD9083774
Probable space group: P -1
;
_chemical_formula_sum "Si O2"
_cell_formula_units_Z 14
_cell_length_a 9.947452
_cell_length_b 14.922371
_cell_length_c 12.093159
_cell_angle_alpha 133.552817
_cell_angle_beta 34.297712
_cell_angle_gamma 144.653707
_cell_volume 584.551288
_symmetry_space_group_name_H-M "P -1"
_symmetry_group_IT_number 2
_symmetry_cell_setting 'triclinic'
loop_
_space_group_symop_operation_xyz
x,y,z
-x,-y,-z
loop_
_atom_site_type_symbol
_atom_site_label
_atom_site_fract_x
_atom_site_fract_y
_atom_site_fract_z
Si Si1 0.701406 0.848335 0.123693
Si Si2 0.719088 0.751368 0.612185
Si Si3 0.591126 0.478342 0.038241
Si Si4 0.554280 0.561826 0.365343
Si Si5 0.902950 0.206806 0.059780
Si Si6 0.771974 0.231242 0.937924
Si Si7 0.380542 0.960045 0.345057
O O1 0.478437 0.895552 0.320515
O O2 0.542342 0.700204 0.023725
O O3 0.837366 0.811408 0.101122
O O4 0.000000 0.000000 0.000000
O O5 0.618667 0.707239 0.514158
O O6 0.687094 0.599602 0.546806
O O7 0.474364 0.748128 0.843010
O O8 0.048190 0.907930 0.544160
O O9 0.476119 0.525741 0.258472
O O10 0.500000 0.500000 0.000000
O O11 0.946823 0.610924 0.902499
O O12 0.893813 0.612907 0.178219
O O13 0.795036 0.148234 0.958786
O O14 0.661512 0.129277 0.256722
O O15 0.673172 0.134286 0.811285
#
# Coordination Sequence:
#
# PCOD9083774 Si02
#       7
#     2   2   2   2   2   2   2
#     4   9  18  34  58  81 106 146 189 228 278 337
#     4  10  20  32  54  88 117 148 189 235 284 338
#     4   9  17  33  60  81 106 150 189 230 283 334
#     4   9  19  34  54  85 118 148 189 234 284 339
#     4   9  19  34  56  83 112 151 190 229 285 339
#     4  10  19  34  58  81 114 152 188 235 285 333
#     4  10  20  35  57  83 114 151 191 234 279 335
#
# _framework density 23.949995000000001
#
# number of rings (size 3 to 8) (size 9 to 14) (size 15 to 20)
#    0.000    2.571    0.000    1.714    0.000    6.286 
#    0.000    0.000    0.000   73.714    0.000    0.000 
#    0.000    0.000    0.000    0.000    0.000    0.000 
#
# Total GULP energy -77974.161463 kJ/mol
# GULP energy per Si atom -5569.582962 kJ/mol
# Density = 2.389548 g / cm^3
# Si number density = 23.949995 Si / 1000 Ang^3
#
#
#
# Elastic Constant Matrix: (Units=GPa)
#
#
# Indices 1 2 3 4 5 6 
#
# 1 82.4870 13.5182 8.5971 -4.2900 -5.4423 -3.4343
# 2 13.5182 116.4530 10.1619 -21.1567 1.7025 2.2634
# 3 8.5971 10.1619 75.9231 -18.5689 -0.1053 9.0309
# 4 -4.2900 -21.1567 -18.5689 27.1695 -0.4548 3.8506
# 5 -5.4423 1.7025 -0.1053 -0.4548 23.9513 -2.8524
# 6 -3.4343 2.2634 9.0309 3.8506 -2.8524 30.2058
#
#
#
# Elastic Compliance Matrix: (Units=1/GPa)
#
#
# Indices 1 2 3 4 5 6 
#
# 1 0.012842 -0.001555 -0.001691 -0.000634 0.003304 0.002475
# 2 -0.001555 0.010372 0.001320 0.009084 -0.001225 -0.002622
# 3 -0.001691 0.001320 0.017402 0.013676 -0.001015 -0.007333
# 4 -0.000634 0.009084 0.013676 0.054799 -0.001110 -0.011932
# 5 0.003304 -0.001225 -0.001015 -0.001110 0.043158 0.004988
# 6 0.002475 -0.002622 -0.007333 -0.011932 0.004988 0.037769
#
#
# Mechanical properties :
#
#
# Convention : Reuss Voigt Hill
#
# Bulk Modulus (GPa) = 27.20082 37.71306 32.45694
# Shear Modulus (GPa) = 25.98112 32.43772 29.20942
#
# Velocity S-wave (km/s) = 3.29721 3.68420 3.49607
# Velocity P-wave (km/s) = 5.08699 5.82053 5.46608
#
# Compressibility (1/GPa) = 0.03676360
#
# Stress axis : x y z
#
# Youngs Moduli (GPa) = 77.86808 96.41640 57.46546
#
# Poissons Ratio (x) = 0.14991 0.09717
# Poissons Ratio (y) = 0.12107 -0.07584
# Poissons Ratio (z) = 0.13167 -0.12725
#
# Static dielectric constant tensor:
#      x y z
#    x 2.065960 0.046500 -0.031950 
#    y 0.046500 2.115690 0.019740 
#    z -0.031950 0.019740 1.926420 
# 
# From -- ./inp_files/522819.got.cif
#   From: 2010.05.17/outbox.cif.g08.bks.cpg/sg2_262_cif.got.tgz:522819.got - 2010.06.03 11:33:40.
