data_PCOD9083958
_publ_section_title
;
Structure prediction by ZEFSAII (Michael W. Deem and Ramdas Pophale) SiO2 
 PCOD9083958
Probable space group: P -1
;
_chemical_formula_sum "Si O2"
_cell_formula_units_Z 14
_cell_length_a 12.188644
_cell_length_b 7.549514
_cell_length_c 9.548111
_cell_angle_alpha 106.054879
_cell_angle_beta 125.052817
_cell_angle_gamma 59.994403
_cell_volume 622.777378
_symmetry_space_group_name_H-M "P -1"
_symmetry_group_IT_number 2
_symmetry_cell_setting 'triclinic'
loop_
_space_group_symop_operation_xyz
x,y,z
-x,-y,-z
loop_
_atom_site_type_symbol
_atom_site_label
_atom_site_fract_x
_atom_site_fract_y
_atom_site_fract_z
Si Si1 0.851209 0.988722 0.946629
Si Si2 0.131907 0.955116 0.719059
Si Si3 0.651331 0.783045 0.420496
Si Si4 0.408975 0.804948 0.425171
Si Si5 0.187084 0.743422 0.438818
Si Si6 0.133327 0.367819 0.680061
Si Si7 0.081323 0.400808 0.223711
O O1 0.892520 0.745279 0.920123
O O2 0.716192 0.104396 0.767320
O O3 0.802360 0.074424 0.084870
O O4 0.000000 0.000000 0.000000
O O5 0.140228 0.149620 0.688782
O O6 0.955419 0.035783 0.640454
O O7 0.194824 0.762944 0.617703
O O8 0.559275 0.690742 0.421797
O O9 0.710159 0.691011 0.292854
O O10 0.801397 0.742548 0.606075
O O11 0.562357 0.027102 0.423400
O O12 0.334164 0.714219 0.460592
O O13 0.129526 0.584991 0.299972
O O14 0.000000 0.500000 0.500000
O O15 0.082700 0.511174 0.811047
#
# Coordination Sequence:
#
# PCOD9083958 Si02
#       7
#     2   2   2   2   2   2   2
#     4  11  22  38  57  87 119 151 186 241 296 335
#     4  10  20  34  58  87 117 146 193 240 283 338
#     4   9  18  34  57  83 113 151 196 231 278 345
#     4  10  19  35  58  81 116 156 190 229 291 341
#     4  10  19  34  59  86 111 149 196 238 277 343
#     4   9  17  33  57  85 111 144 189 237 275 329
#     4   9  21  34  60  86 112 146 197 235 286 332
#
# _framework density 22.479942000000001
#
# number of rings (size 3 to 8) (size 9 to 14) (size 15 to 20)
#    0.000    2.286    2.857    0.000    0.000    5.143 
#    0.000    0.714    0.000    3.429    0.000    0.000 
#    0.000    0.000    0.000    0.000    0.000    0.000 
#
# Total GULP energy -77948.972138 kJ/mol
# GULP energy per Si atom -5567.783724 kJ/mol
# Density = 2.242878 g / cm^3
# Si number density = 22.479942 Si / 1000 Ang^3
#
#
#
# Elastic Constant Matrix: (Units=GPa)
#
#
# Indices 1 2 3 4 5 6 
#
# 1 179.1036 44.7716 24.2266 19.0337 -21.8631 -16.6060
# 2 44.7716 51.0483 26.1889 11.2369 -3.9714 13.7807
# 3 24.2266 26.1889 91.5588 16.7930 -22.1665 1.4181
# 4 19.0337 11.2369 16.7930 25.1012 -1.8800 -2.8239
# 5 -21.8631 -3.9714 -22.1665 -1.8800 20.9986 0.0339
# 6 -16.6060 13.7807 1.4181 -2.8239 0.0339 32.7315
#
#
#
# Elastic Compliance Matrix: (Units=1/GPa)
#
#
# Indices 1 2 3 4 5 6 
#
# 1 0.011425 -0.013547 0.004697 -0.003460 0.013964 0.010984
# 2 -0.013547 0.044447 -0.012338 -0.005679 -0.019190 -0.025522
# 3 0.004697 -0.012338 0.020476 -0.009331 0.023327 0.005861
# 4 -0.003460 -0.005679 -0.009331 0.051115 -0.009959 0.005460
# 5 0.013964 -0.019190 0.023327 -0.009959 0.082244 0.013209
# 6 0.010984 -0.025522 0.005861 0.005460 0.013209 0.047073
#
#
# Mechanical properties :
#
#
# Convention : Reuss Voigt Hill
#
# Bulk Modulus (GPa) = 29.43534 56.89834 43.16684
# Shear Modulus (GPa) = 16.10403 30.86785 23.48594
#
# Velocity S-wave (km/s) = 2.67942 3.70959 3.23577
# Velocity P-wave (km/s) = 4.76391 6.61164 5.76232
#
# Compressibility (1/GPa) = 0.03397277
#
# Stress axis : x y z
#
# Youngs Moduli (GPa) = 87.52637 22.49851 48.83683
#
# Poissons Ratio (x) = 0.30479 -0.22939
# Poissons Ratio (y) = 1.18574 0.60254
# Poissons Ratio (z) = -0.41111 0.27758
#
# Static dielectric constant tensor:
#      x y z
#    x 1.874470 0.023390 -0.033450 
#    y 0.023390 1.976510 0.011490 
#    z -0.033450 0.011490 1.870530 
# 
# From -- ./inp_files/171674.got.cif
#   From: 2010.05.17/outbox.cif.g08.bks.cpg/sg2_86_cif.got.tgz:171674.got - 2010.06.03 11:33:40.
