data_PCOD9083021
_publ_section_title
;
Structure prediction by ZEFSAII (Michael W. Deem and Ramdas Pophale) SiO2 
 PCOD9083021
Probable space group: P -1
;
_chemical_formula_sum "Si O2"
_cell_formula_units_Z 16
_cell_length_a 13.736192
_cell_length_b 9.277830
_cell_length_c 18.384301
_cell_angle_alpha 36.304289
_cell_angle_beta 151.838596
_cell_angle_gamma 139.487219
_cell_volume 644.222421
_symmetry_space_group_name_H-M "P -1"
_symmetry_group_IT_number 2
_symmetry_cell_setting 'triclinic'
loop_
_space_group_symop_operation_xyz
x,y,z
-x,-y,-z
loop_
_atom_site_type_symbol
_atom_site_label
_atom_site_fract_x
_atom_site_fract_y
_atom_site_fract_z
Si Si1 0.900071 0.961463 0.031092
Si Si2 0.760667 0.585525 0.562551
Si Si3 0.951645 0.645208 0.481168
Si Si4 0.735156 0.129578 0.583770
Si Si5 0.218737 0.593200 0.814984
Si Si6 0.387853 0.218754 0.466974
Si Si7 0.230153 0.646418 0.109774
Si Si8 0.630872 0.919661 0.211940
O O1 0.748226 0.690887 0.047110
O O2 0.089389 0.956504 0.215790
O O3 0.000000 0.000000 0.000000
O O4 0.786199 0.171221 0.906774
O O5 0.638107 0.299297 0.599664
O O6 0.697793 0.705772 0.545395
O O7 0.707853 0.783520 0.388680
O O8 0.002383 0.578458 0.722268
O O9 0.812154 0.864065 0.297635
O O10 0.000000 0.500000 0.500000
O O11 0.149357 0.675853 0.655100
O O12 0.783771 0.422434 0.499007
O O13 0.736778 0.039194 0.537841
O O14 0.500000 0.000000 0.500000
O O15 0.369361 0.801228 0.874748
O O16 0.339525 0.421042 0.296215
O O17 0.387011 0.791989 0.092976
O O18 0.000000 0.500000 0.000000
#
# Coordination Sequence:
#
# PCOD9083021 Si02
#       8
#     2   2   2   2   2   2   2   2
#     4  11  24  43  65  94 128 176 222 271 328 386
#     4   9  18  34  61  94 121 158 209 270 323 390
#     4  10  22  38  63 101 133 164 209 277 339 390
#     4  11  22  37  65  95 131 161 220 281 328 379
#     4  10  21  40  62  89 130 166 218 267 323 392
#     4  10  19  33  60  93 119 163 215 259 329 383
#     4  11  22  41  63  87 129 176 215 268 318 386
#     4  10  22  39  64  92 129 173 213 260 335 395
#
# _framework density 24.836144000000001
#
# number of rings (size 3 to 8) (size 9 to 14) (size 15 to 20)
#    0.000    1.750    1.250    5.250    3.500    2.500 
#    0.000    0.000    0.000    6.000    0.000    0.000 
#    0.000    0.000    0.000    0.000    0.000    0.000 
#
# Total GULP energy -89247.236869 kJ/mol
# GULP energy per Si atom -5577.952304 kJ/mol
# Density = 2.477962 g / cm^3
# Si number density = 24.836144 Si / 1000 Ang^3
#
#
#
# Elastic Constant Matrix: (Units=GPa)
#
#
# Indices 1 2 3 4 5 6 
#
# 1 78.9668 3.4487 0.1322 5.9659 12.1737 -26.4980
# 2 3.4487 139.6519 18.4231 -14.7102 4.0485 -13.3920
# 3 0.1322 18.4231 43.5883 -0.9195 7.7219 0.8678
# 4 5.9659 -14.7102 -0.9195 30.1432 0.8012 9.9017
# 5 12.1737 4.0485 7.7219 0.8012 28.0925 -1.1747
# 6 -26.4980 -13.3920 0.8678 9.9017 -1.1747 30.1867
#
#
#
# Elastic Compliance Matrix: (Units=1/GPa)
#
#
# Indices 1 2 3 4 5 6 
#
# 1 0.022920 0.000677 0.000482 -0.011820 -0.008824 0.023939
# 2 0.000677 0.008217 -0.003404 0.002652 -0.000473 0.003449
# 3 0.000482 -0.003404 0.025630 -0.000119 -0.006846 -0.002052
# 4 -0.011820 0.002652 -0.000119 0.044524 0.002512 -0.023703
# 5 -0.008824 -0.000473 -0.006846 0.002512 0.041007 -0.006987
# 6 0.023939 0.003449 -0.002052 -0.023703 -0.006987 0.063233
#
#
# Mechanical properties :
#
#
# Convention : Reuss Voigt Hill
#
# Bulk Modulus (GPa) = 19.12934 34.02389 26.57662
# Shear Modulus (GPa) = 21.98316 33.69801 27.84058
#
# Velocity S-wave (km/s) = 2.97834 3.68749 3.35172
# Velocity P-wave (km/s) = 4.42112 5.64440 5.06979
#
# Compressibility (1/GPa) = 0.05227572
#
# Stress axis : x y z
#
# Youngs Moduli (GPa) = 43.63093 121.70227 39.01636
#
# Poissons Ratio (x) = -0.08237 -0.01879
# Poissons Ratio (y) = -0.02953 0.13281
# Poissons Ratio (z) = -0.02101 0.41426
#
# Static dielectric constant tensor:
#      x y z
#    x 2.204410 -0.006690 0.020010 
#    y -0.006690 2.137400 0.122360 
#    z 0.020010 0.122360 2.091140 
# 
# From -- ./inp_files/597313.got.cif
#   From: 2010.05.17/outbox.cif.g08.bks.cpg/sg2_299_cif.got.tgz:597313.got - 2010.06.03 11:33:40.
