data_PCOD9083391
_publ_section_title
;
Structure prediction by ZEFSAII (Michael W. Deem and Ramdas Pophale) SiO2 
 PCOD9083391
Probable space group: P -1
;
_chemical_formula_sum "Si O2"
_cell_formula_units_Z 16
_cell_length_a 11.264414
_cell_length_b 7.678320
_cell_length_c 14.936090
_cell_angle_alpha 50.405212
_cell_angle_beta 134.232815
_cell_angle_gamma 135.689438
_cell_volume 621.458029
_symmetry_space_group_name_H-M "P -1"
_symmetry_group_IT_number 2
_symmetry_cell_setting 'triclinic'
loop_
_space_group_symop_operation_xyz
x,y,z
-x,-y,-z
loop_
_atom_site_type_symbol
_atom_site_label
_atom_site_fract_x
_atom_site_fract_y
_atom_site_fract_z
Si Si1 0.399680 0.528158 0.271590
Si Si2 0.882342 0.064115 0.621003
Si Si3 0.769960 0.223041 0.686817
Si Si4 0.936909 0.414150 0.881862
Si Si5 0.385173 0.041912 0.633340
Si Si6 0.226147 0.988214 0.861508
Si Si7 0.566849 0.225910 0.090247
Si Si8 0.258116 0.298164 0.089365
O O1 0.264441 0.240817 0.333188
O O2 0.274807 0.672626 0.169769
O O3 0.581049 0.714025 0.365778
O O4 0.405451 0.478633 0.185763
O O5 0.836994 0.217524 0.624066
O O6 0.812890 0.096214 0.477192
O O7 0.095938 0.111516 0.722831
O O8 0.761577 0.977929 0.815568
O O9 0.917945 0.454492 0.751351
O O10 0.555461 0.166182 0.607854
O O11 0.072842 0.694193 0.902357
O O12 0.048241 0.258810 0.007608
O O13 0.409969 0.835884 0.775480
O O14 0.345069 0.930036 0.867751
O O15 0.362066 0.128692 0.969794
O O16 0.677997 0.528773 0.022409
#
# Coordination Sequence:
#
# PCOD9083391 Si02
#       8
#     2   2   2   2   2   2   2   2
#     4   9  18  32  55  84 108 141 188 237 284 323
#     4  10  21  37  58  83 112 148 189 233 281 328
#     4  10  22  35  54  84 115 148 185 230 282 329
#     4   9  17  31  55  86 112 138 181 238 286 323
#     4  11  21  36  57  82 117 151 184 229 278 337
#     4   9  19  38  61  84 112 144 187 235 275 332
#     4  10  21  36  58  86 113 147 188 229 277 327
#     4  10  19  34  55  81 115 148 185 229 275 334
#
# _framework density 25.745906999999999
#
# number of rings (size 3 to 8) (size 9 to 14) (size 15 to 20)
#    0.000    2.250    0.000    3.750    0.000    8.000 
#    0.000    1.250    0.000    9.000    0.000    0.000 
#    0.000    0.000    0.000    0.000    0.000    0.000 
#
# Total GULP energy -89429.616937 kJ/mol
# GULP energy per Si atom -5589.351059 kJ/mol
# Density = 2.568731 g / cm^3
# Si number density = 25.745907 Si / 1000 Ang^3
#
#
#
# Elastic Constant Matrix: (Units=GPa)
#
#
# Indices 1 2 3 4 5 6 
#
# 1 84.7144 11.4627 43.7234 25.5309 -3.3731 -5.4428
# 2 11.4627 51.8777 21.8998 10.3316 -9.5168 -0.9233
# 3 43.7234 21.8998 159.8021 33.9378 6.9527 8.4461
# 4 25.5309 10.3316 33.9378 32.1561 0.9975 -6.1466
# 5 -3.3731 -9.5168 6.9527 0.9975 33.2235 7.5746
# 6 -5.4428 -0.9233 8.4461 -6.1466 7.5746 27.6151
#
#
#
# Elastic Compliance Matrix: (Units=1/GPa)
#
#
# Indices 1 2 3 4 5 6 
#
# 1 0.016307 -0.000125 -0.002430 -0.010204 0.002188 0.001082
# 2 -0.000125 0.022647 -0.002119 -0.005541 0.007521 -0.001916
# 3 -0.002430 -0.002119 0.009224 -0.007987 -0.001462 -0.004748
# 4 -0.010204 -0.005541 -0.007987 0.052139 -0.005567 0.013379
# 5 0.002188 0.007521 -0.001462 -0.005567 0.035173 -0.009757
# 6 0.001082 -0.001916 -0.004748 0.013379 -0.009757 0.043467
#
#
# Mechanical properties :
#
#
# Convention : Reuss Voigt Hill
#
# Bulk Modulus (GPa) = 25.75261 50.06291 37.90776
# Shear Modulus (GPa) = 24.84489 33.21950 29.03219
#
# Velocity S-wave (km/s) = 3.10982 3.59595 3.36168
# Velocity P-wave (km/s) = 4.78738 6.06039 5.46110
#
# Compressibility (1/GPa) = 0.03883102
#
# Stress axis : x y z
#
# Youngs Moduli (GPa) = 61.32229 44.15573 108.41614
#
# Poissons Ratio (x) = 0.00550 0.26347
# Poissons Ratio (y) = 0.00764 0.22972
# Poissons Ratio (z) = 0.14902 0.09356
#
# Static dielectric constant tensor:
#      x y z
#    x 2.102550 0.008460 -0.049580 
#    y 0.008460 2.070050 0.003230 
#    z -0.049580 0.003230 2.068450 
# 
# From -- ./inp_files/514135.got.cif
#   From: 2010.05.17/outbox.cif.g08.bks.cpg/sg2_258_cif.got.tgz:514135.got - 2010.06.03 11:33:40.
