data_PCOD9083697
_publ_section_title
;
Structure prediction by ZEFSAII (Michael W. Deem and Ramdas Pophale) SiO2 
 PCOD9083697
Probable space group: P -1
;
_chemical_formula_sum "Si O2"
_cell_formula_units_Z 14
_cell_length_a 7.645216
_cell_length_b 13.042607
_cell_length_c 11.089103
_cell_angle_alpha 145.964106
_cell_angle_beta 101.515436
_cell_angle_gamma 72.209094
_cell_volume 586.311492
_symmetry_space_group_name_H-M "P -1"
_symmetry_group_IT_number 2
_symmetry_cell_setting 'triclinic'
loop_
_space_group_symop_operation_xyz
x,y,z
-x,-y,-z
loop_
_atom_site_type_symbol
_atom_site_label
_atom_site_fract_x
_atom_site_fract_y
_atom_site_fract_z
Si Si1 0.707522 0.990797 0.556164
Si Si2 0.225487 0.904206 0.595562
Si Si3 0.317108 0.597115 0.678628
Si Si4 0.393114 0.499567 0.175454
Si Si5 0.900481 0.224298 0.959293
Si Si6 0.257888 0.408175 0.825051
Si Si7 0.491372 0.817967 0.743572
O O1 0.792667 0.779604 0.407261
O O2 0.500000 0.000000 0.500000
O O3 0.795767 0.027899 0.478436
O O4 0.734141 0.141937 0.804067
O O5 0.235649 0.682285 0.372482
O O6 0.421989 0.895005 0.676962
O O7 0.076426 0.051367 0.796728
O O8 0.498687 0.597400 0.786816
O O9 0.336657 0.726138 0.694168
O O10 0.341521 0.374269 0.434201
O O11 0.145974 0.692280 0.832761
O O12 0.554468 0.573198 0.198835
O O13 0.306761 0.392672 0.958306
O O14 0.894208 0.402498 0.045514
O O15 0.500000 0.000000 0.000000
#
# Coordination Sequence:
#
# PCOD9083697 Si02
#       7
#     2   2   2   2   2   2   2
#     4  12  22  36  65  91 121 169 205 236 294 367
#     4  11  23  40  59  92 128 157 200 252 306 347
#     4   9  21  40  63  87 118 158 202 243 313 348
#     4   9  17  36  59  83 122 155 200 246 288 352
#     4  11  24  40  59  92 134 155 187 257 307 361
#     4  10  19  34  57  87 119 164 198 236 288 360
#     4  10  23  42  67  89 111 156 213 257 282 363
#
# _framework density 23.878091999999999
#
# number of rings (size 3 to 8) (size 9 to 14) (size 15 to 20)
#    0.000    1.714    2.857    2.143    4.000    1.143 
#    0.000    0.714    0.000    0.000    0.000    0.000 
#    0.000    0.000    0.000    0.000    0.000    0.000 
#
# Total GULP energy -78185.539990 kJ/mol
# GULP energy per Si atom -5584.681428 kJ/mol
# Density = 2.382374 g / cm^3
# Si number density = 23.878092 Si / 1000 Ang^3
#
#
#
# Elastic Constant Matrix: (Units=GPa)
#
#
# Indices 1 2 3 4 5 6 
#
# 1 39.5629 7.6878 19.1519 6.8436 -20.9223 -8.2475
# 2 7.6878 57.0391 18.6145 9.9184 0.4460 4.0081
# 3 19.1519 18.6145 186.7115 12.8082 -18.4374 1.1120
# 4 6.8436 9.9184 12.8082 44.4597 -1.8038 -9.9595
# 5 -20.9223 0.4460 -18.4374 -1.8038 43.2592 7.2115
# 6 -8.2475 4.0081 1.1120 -9.9595 7.2115 10.6643
#
#
#
# Elastic Compliance Matrix: (Units=1/GPa)
#
#
# Indices 1 2 3 4 5 6 
#
# 1 0.040572 -0.007189 -0.002387 0.002725 0.014253 0.027235
# 2 -0.007189 0.021635 -0.000837 -0.008116 -0.000973 -0.020526
# 3 -0.002387 -0.000837 0.006125 -0.002479 0.002377 -0.006093
# 4 0.002725 -0.008116 -0.002479 0.033328 -0.004910 0.039863
# 5 0.014253 -0.000973 0.002377 -0.004910 0.033514 -0.016108
# 6 0.027235 -0.020526 -0.006093 0.039863 -0.016108 0.171304
#
#
# Mechanical properties :
#
#
# Convention : Reuss Voigt Hill
#
# Bulk Modulus (GPa) = 21.04890 41.58023 31.31457
# Shear Modulus (GPa) = 14.57138 35.53392 25.05265
#
# Velocity S-wave (km/s) = 2.47298 3.86183 3.24263
# Velocity P-wave (km/s) = 4.12171 6.11034 5.21175
#
# Compressibility (1/GPa) = 0.04750841
#
# Stress axis : x y z
#
# Youngs Moduli (GPa) = 24.64745 46.22128 163.26083
#
# Poissons Ratio (x) = 0.33227 0.38966
# Poissons Ratio (y) = 0.17718 0.13659
# Poissons Ratio (z) = 0.05883 0.03867
#
# Static dielectric constant tensor:
#      x y z
#    x 1.956840 -0.023120 -0.035630 
#    y -0.023120 1.940260 0.003440 
#    z -0.035630 0.003440 1.926890 
# 
# From -- ./inp_files/242019.got.cif
#   From: 2010.05.17/outbox.cif.g08.bks.cpg/sg2_122_cif.got.tgz:242019.got - 2010.06.03 11:33:40.
