data_PCOD9083399
_publ_section_title
;
Structure prediction by ZEFSAII (Michael W. Deem and Ramdas Pophale) SiO2 
 PCOD9083399
Probable space group: P -1
;
_chemical_formula_sum "Si O2"
_cell_formula_units_Z 16
_cell_length_a 13.468885
_cell_length_b 9.611190
_cell_length_c 17.890635
_cell_angle_alpha 140.099690
_cell_angle_beta 31.306211
_cell_angle_gamma 121.497315
_cell_volume 707.806568
_symmetry_space_group_name_H-M "P -1"
_symmetry_group_IT_number 2
_symmetry_cell_setting 'triclinic'
loop_
_space_group_symop_operation_xyz
x,y,z
-x,-y,-z
loop_
_atom_site_type_symbol
_atom_site_label
_atom_site_fract_x
_atom_site_fract_y
_atom_site_fract_z
Si Si1 0.833637 0.337178 0.233034
Si Si2 0.341280 0.227848 0.288441
Si Si3 0.718094 0.682531 0.064399
Si Si4 0.074934 0.400569 0.327323
Si Si5 0.487133 0.191527 0.439882
Si Si6 0.482193 0.693009 0.953669
Si Si7 0.759714 0.132748 0.042557
Si Si8 0.237731 0.406980 0.830177
O O1 0.695806 0.244195 0.335866
O O2 0.681882 0.598860 0.412501
O O3 0.848765 0.182484 0.083710
O O4 0.055013 0.334067 0.113920
O O5 0.425358 0.305709 0.189558
O O6 0.515548 0.180073 0.220238
O O7 0.112401 0.424709 0.530731
O O8 0.340115 0.970089 0.169926
O O9 0.642013 0.470685 0.015917
O O10 0.727534 0.698344 0.154398
O O11 0.548309 0.938980 0.258047
O O12 0.307593 0.391918 0.165837
O O13 0.000000 0.500000 0.500000
O O14 0.110314 0.127709 0.180175
O O15 0.381077 0.224997 0.602600
O O16 0.742355 0.343521 0.085089
O O17 0.000000 0.500000 0.000000
#
# Coordination Sequence:
#
# PCOD9083399 Si02
#       8
#     2   2   2   2   2   2   2   2
#     4  10  23  42  57  84 124 161 196 240 283 358
#     4   9  17  33  51  79 119 152 186 238 295 348
#     4  12  21  36  62  90 121 156 192 246 295 346
#     4   9  19  32  52  80 114 152 190 233 290 351
#     4  10  23  40  58  82 122 165 200 226 294 360
#     4   9  19  31  51  82 120 147 187 239 296 339
#     4  10  19  34  55  82 118 153 189 237 289 343
#     4  11  21  37  56  91 128 149 184 255 295 339
#
# _framework density 22.605045
#
# number of rings (size 3 to 8) (size 9 to 14) (size 15 to 20)
#    0.000    2.000    3.750    1.500    0.000    5.000 
#    0.000    0.000    0.000    3.000    0.000   33.250 
#    0.000    0.000    0.000    0.000    0.000    0.000 
#
# Total GULP energy -89284.617356 kJ/mol
# GULP energy per Si atom -5580.288585 kJ/mol
# Density = 2.255360 g / cm^3
# Si number density = 22.605045 Si / 1000 Ang^3
#
#
#
# Elastic Constant Matrix: (Units=GPa)
#
#
# Indices 1 2 3 4 5 6 
#
# 1 27.4376 20.9702 40.5093 13.0186 -4.0318 5.8314
# 2 20.9702 106.8027 51.1833 11.2805 -9.3447 26.2656
# 3 40.5093 51.1833 139.7039 24.1749 -15.5997 13.5889
# 4 13.0186 11.2805 24.1749 32.8929 -7.9004 2.2838
# 5 -4.0318 -9.3447 -15.5997 -7.9004 36.1867 -6.7730
# 6 5.8314 26.2656 13.5889 2.2838 -6.7730 33.8429
#
#
#
# Elastic Compliance Matrix: (Units=1/GPa)
#
#
# Indices 1 2 3 4 5 6 
#
# 1 0.071656 -0.004227 -0.016821 -0.015390 -0.004112 -0.002097
# 2 -0.004227 0.013781 -0.002909 -0.000275 0.000135 -0.008753
# 3 -0.016821 -0.002909 0.013695 -0.001722 0.002971 0.000368
# 4 -0.015390 -0.000275 -0.001722 0.039250 0.006453 0.002199
# 5 -0.004112 0.000135 0.002971 0.006453 0.030865 0.005152
# 6 -0.002097 -0.008753 0.000368 0.002199 0.005152 0.037438
#
#
# Mechanical properties :
#
#
# Convention : Reuss Voigt Hill
#
# Bulk Modulus (GPa) = 19.52449 55.47442 37.49946
# Shear Modulus (GPa) = 18.40462 31.33660 24.87061
#
# Velocity S-wave (km/s) = 2.85648 3.72730 3.32056
# Velocity P-wave (km/s) = 4.41988 6.56640 5.59701
#
# Compressibility (1/GPa) = 0.05121772
#
# Stress axis : x y z
#
# Youngs Moduli (GPa) = 13.95566 72.56578 73.01743
#
# Poissons Ratio (x) = 0.30671 1.22824
# Poissons Ratio (y) = 0.05898 0.21242
# Poissons Ratio (z) = 0.23475 0.21110
#
# Static dielectric constant tensor:
#      x y z
#    x 1.837130 -0.150180 0.060010 
#    y -0.150180 1.458730 0.113320 
#    z 0.060010 0.113320 1.815180 
# 
# From -- ./inp_files/613194.got.cif
#   From: 2010.05.17/outbox.cif.g08.bks.cpg/sg2_307_cif.got.tgz:613194.got - 2010.06.03 11:33:40.
