data_PCOD9083189
_publ_section_title
;
Structure prediction by ZEFSAII (Michael W. Deem and Ramdas Pophale) SiO2 
 PCOD9083189
Probable space group: P -1
;
_chemical_formula_sum "Si O2"
_cell_formula_units_Z 16
_cell_length_a 8.291824
_cell_length_b 20.252358
_cell_length_c 10.605272
_cell_angle_alpha 34.291922
_cell_angle_beta 45.387717
_cell_angle_gamma 57.677456
_cell_volume 709.671685
_symmetry_space_group_name_H-M "P -1"
_symmetry_group_IT_number 2
_symmetry_cell_setting 'triclinic'
loop_
_space_group_symop_operation_xyz
x,y,z
-x,-y,-z
loop_
_atom_site_type_symbol
_atom_site_label
_atom_site_fract_x
_atom_site_fract_y
_atom_site_fract_z
Si Si1 0.645367 0.113865 0.293778
Si Si2 0.307387 0.270824 0.642445
Si Si3 0.036794 0.462503 0.394940
Si Si4 0.079836 0.042759 0.026127
Si Si5 0.578471 0.294318 0.851250
Si Si6 0.401469 0.862900 0.152707
Si Si7 0.797480 0.071429 0.545994
Si Si8 0.906481 0.694333 0.015409
O O1 0.658596 0.112351 0.437281
O O2 0.887821 0.090279 0.141303
O O3 0.500000 0.000000 0.500000
O O4 0.560013 0.229166 0.098654
O O5 0.160120 0.274331 0.850721
O O6 0.244509 0.382624 0.420948
O O7 0.256090 0.159501 0.753052
O O8 0.545034 0.241566 0.618765
O O9 0.805109 0.386060 0.593104
O O10 0.050472 0.583234 0.118920
O O11 0.000000 0.500000 0.500000
O O12 0.185319 0.929138 0.201081
O O13 0.000000 0.000000 0.000000
O O14 0.339086 0.335795 0.871908
O O15 0.622503 0.194040 0.882641
O O16 0.614154 0.967037 0.869058
O O17 0.000000 0.000000 0.500000
O O18 0.947893 0.195060 0.303821
#
# Coordination Sequence:
#
# PCOD9083189 Si02
#       8
#     2   2   2   2   2   2   2   2
#     4  12  20  33  53  81 115 150 180 232 287 329
#     4  10  19  34  53  77 111 148 186 235 276 328
#     4  10  19  34  52  79 112 148 191 234 281 333
#     4  12  20  34  51  81 117 151 191 225 285 349
#     4  11  19  34  52  83 112 147 186 236 282 334
#     4  11  22  34  56  85 116 153 188 226 294 343
#     4  12  19  36  55  80 119 147 184 237 289 330
#     4  10  20  33  55  81 111 151 187 236 282 332
#
# _framework density 22.545635000000001
#
# number of rings (size 3 to 8) (size 9 to 14) (size 15 to 20)
#    0.000    1.000    7.500    1.500    0.000    0.000 
#    0.000    0.000    0.000    0.750    0.000    1.750 
#    0.000   17.000    0.000    0.000    0.000    0.000 
#
# Total GULP energy -89186.400392 kJ/mol
# GULP energy per Si atom -5574.150025 kJ/mol
# Density = 2.249432 g / cm^3
# Si number density = 22.545635 Si / 1000 Ang^3
#
#
#
# Elastic Constant Matrix: (Units=GPa)
#
#
# Indices 1 2 3 4 5 6 
#
# 1 118.7550 36.6346 35.0941 -20.0658 10.2380 -13.1724
# 2 36.6346 62.2190 19.0837 -10.8890 15.6151 -14.1202
# 3 35.0941 19.0837 92.8238 -21.2899 18.7507 -13.3880
# 4 -20.0658 -10.8890 -21.2899 36.9711 -12.5837 9.1755
# 5 10.2380 15.6151 18.7507 -12.5837 39.0318 -23.4184
# 6 -13.1724 -14.1202 -13.3880 9.1755 -23.4184 42.2180
#
#
#
# Elastic Compliance Matrix: (Units=1/GPa)
#
#
# Indices 1 2 3 4 5 6 
#
# 1 0.011492 -0.005628 -0.002678 0.003538 0.002571 0.001511
# 2 -0.005628 0.021537 -0.000807 0.000485 -0.005312 0.002139
# 3 -0.002678 -0.000807 0.013903 0.004934 -0.004083 -0.000034
# 4 0.003538 0.000485 0.004934 0.034588 0.007265 -0.000657
# 5 0.002571 -0.005312 -0.004083 0.007265 0.043565 0.020317
# 6 0.001511 0.002139 -0.000034 -0.000657 0.020317 0.036275
#
#
# Mechanical properties :
#
#
# Convention : Reuss Voigt Hill
#
# Bulk Modulus (GPa) = 34.83594 50.60253 42.71923
# Shear Modulus (GPa) = 26.43335 35.84322 31.13828
#
# Velocity S-wave (km/s) = 3.42780 3.99156 3.72038
# Velocity P-wave (km/s) = 5.58133 6.61337 6.11915
#
# Compressibility (1/GPa) = 0.02870599
#
# Stress axis : x y z
#
# Youngs Moduli (GPa) = 87.01708 46.43097 71.92734
#
# Poissons Ratio (x) = 0.26133 0.19260
# Poissons Ratio (y) = 0.48976 0.05805
# Poissons Ratio (z) = 0.23300 0.03748
#
# Static dielectric constant tensor:
#      x y z
#    x 1.793970 -0.084050 -0.031640 
#    y -0.084050 1.710460 -0.080360 
#    z -0.031640 -0.080360 1.807100 
# 
# From -- ./inp_files/260580.got.cif
#   From: 2010.05.17/outbox.cif.g08.bks.cpg/sg2_131_cif.got.tgz:260580.got - 2010.06.03 11:33:40.
