data_PCOD9083260
_publ_section_title
;
Structure prediction by ZEFSAII (Michael W. Deem and Ramdas Pophale) SiO2 
 PCOD9083260
Probable space group: P -1
;
_chemical_formula_sum "Si O2"
_cell_formula_units_Z 16
_cell_length_a 12.944446
_cell_length_b 6.941484
_cell_length_c 13.211396
_cell_angle_alpha 118.093340
_cell_angle_beta 50.752749
_cell_angle_gamma 140.270748
_cell_volume 587.293614
_symmetry_space_group_name_H-M "P -1"
_symmetry_group_IT_number 2
_symmetry_cell_setting 'triclinic'
loop_
_space_group_symop_operation_xyz
x,y,z
-x,-y,-z
loop_
_atom_site_type_symbol
_atom_site_label
_atom_site_fract_x
_atom_site_fract_y
_atom_site_fract_z
Si Si1 0.900672 0.189968 0.803403
Si Si2 0.519998 0.218833 0.810201
Si Si3 0.728780 0.808646 0.552598
Si Si4 0.794166 0.144731 0.236895
Si Si5 0.123319 0.432075 0.975779
Si Si6 0.505788 0.284745 0.068901
Si Si7 0.676337 0.616010 0.312424
Si Si8 0.118082 0.300667 0.385248
O O1 0.069111 0.508521 0.725088
O O2 0.882317 0.307954 0.948688
O O3 0.698649 0.000609 0.832708
O O4 0.916369 0.948149 0.728898
O O5 0.496453 0.454847 0.869306
O O6 0.722406 0.382392 0.687244
O O7 0.366942 0.954659 0.762369
O O8 0.506837 0.185113 0.930325
O O9 0.686789 0.637901 0.431139
O O10 0.529332 0.685233 0.669018
O O11 0.790406 0.704913 0.573453
O O12 0.915436 0.155947 0.502231
O O13 0.712906 0.898869 0.313087
O O14 0.936564 0.163362 0.084627
O O15 0.303129 0.564094 0.961289
O O16 0.170435 0.367007 0.826723
#
# Coordination Sequence:
#
# PCOD9083260 Si02
#       8
#     2   2   2   2   2   2   2   2
#     4   9  22  36  61  87 127 150 187 246 313 344
#     4  10  20  33  59  80 125 150 197 240 279 360
#     4  10  23  36  69  78 116 163 208 245 269 347
#     4  10  21  36  59  90 121 156 182 254 299 348
#     4  10  21  35  63  87 127 150 182 250 304 354
#     4  10  19  34  53  90 115 161 185 230 302 358
#     4  11  20  40  58  96 113 155 209 234 294 350
#     4  10  20  44  58  88 114 158 208 241 287 341
#
# _framework density 27.243611999999999
#
# number of rings (size 3 to 8) (size 9 to 14) (size 15 to 20)
#    0.750    1.250    2.500    1.500    1.750    2.500 
#    2.250    1.250    0.000    0.000    0.000    0.000 
#    0.000    0.000    0.000    0.000    0.000    0.000 
#
# Total GULP energy -89498.054419 kJ/mol
# GULP energy per Si atom -5593.628401 kJ/mol
# Density = 2.718160 g / cm^3
# Si number density = 27.243612 Si / 1000 Ang^3
#
#
#
# Elastic Constant Matrix: (Units=GPa)
#
#
# Indices 1 2 3 4 5 6 
#
# 1 92.6301 45.5881 39.5280 -3.9551 -25.4818 23.2727
# 2 45.5881 157.4934 38.7928 -34.4444 7.3093 36.3978
# 3 39.5280 38.7928 115.4785 -17.2145 -7.2741 28.3444
# 4 -3.9551 -34.4444 -17.2145 65.8842 20.6578 -4.0489
# 5 -25.4818 7.3093 -7.2741 20.6578 51.1233 -3.2151
# 6 23.2727 36.3978 28.3444 -4.0489 -3.2151 51.3420
#
#
#
# Elastic Compliance Matrix: (Units=1/GPa)
#
#
# Indices 1 2 3 4 5 6 
#
# 1 0.019480 -0.006412 -0.004417 -0.007488 0.012921 -0.001627
# 2 -0.006412 0.011494 0.000300 0.007999 -0.008362 -0.005301
# 3 -0.004417 0.000300 0.011518 0.003327 -0.002230 -0.004447
# 4 -0.007488 0.007999 0.003327 0.024081 -0.014329 -0.003111
# 5 0.012921 -0.008362 -0.002230 -0.014329 0.032809 0.002227
# 6 -0.001627 -0.005301 -0.004447 -0.003111 0.002227 0.026321
#
#
# Mechanical properties :
#
#
# Convention : Reuss Voigt Hill
#
# Bulk Modulus (GPa) = 46.65441 68.15778 57.40610
# Shear Modulus (GPa) = 32.48752 49.78277 41.13515
#
# Velocity S-wave (km/s) = 3.45698 4.27935 3.88996
# Velocity P-wave (km/s) = 5.75294 7.03487 6.42595
#
# Compressibility (1/GPa) = 0.02143420
#
# Stress axis : x y z
#
# Youngs Moduli (GPa) = 51.33539 87.00212 86.82414
#
# Poissons Ratio (x) = 0.55786 0.38349
# Poissons Ratio (y) = 0.32916 -0.02607
# Poissons Ratio (z) = 0.22674 -0.02613
#
# Static dielectric constant tensor:
#      x y z
#    x 2.143370 -0.003460 -0.001730 
#    y -0.003460 2.178420 0.010540 
#    z -0.001730 0.010540 2.141340 
# 
# From -- ./inp_files/528815.got.cif
#   From: 2010.05.17/outbox.cif.g08.bks.cpg/sg2_265_cif.got.tgz:528815.got - 2010.06.03 11:33:40.
