data_PCOD9083309
_publ_section_title
;
Structure prediction by ZEFSAII (Michael W. Deem and Ramdas Pophale) SiO2 
 PCOD9083309
Probable space group: P -1
;
_chemical_formula_sum "Si O2"
_cell_formula_units_Z 14
_cell_length_a 12.872654
_cell_length_b 12.803129
_cell_length_c 12.647634
_cell_angle_alpha 45.467311
_cell_angle_beta 44.648987
_cell_angle_gamma 22.313119
_cell_volume 548.842709
_symmetry_space_group_name_H-M "P -1"
_symmetry_group_IT_number 2
_symmetry_cell_setting 'triclinic'
loop_
_space_group_symop_operation_xyz
x,y,z
-x,-y,-z
loop_
_atom_site_type_symbol
_atom_site_label
_atom_site_fract_x
_atom_site_fract_y
_atom_site_fract_z
Si Si1 0.142334 0.591032 0.725460
Si Si2 0.157964 0.856109 0.123990
Si Si3 0.784107 0.407216 0.564639
Si Si4 0.401876 0.913838 0.114125
Si Si5 0.189868 0.237969 0.841047
Si Si6 0.404743 0.990278 0.470671
Si Si7 0.753499 0.419812 0.924080
O O1 0.247800 0.572503 0.553554
O O2 0.348453 0.405157 0.808856
O O3 0.107693 0.449593 0.817566
O O4 0.848502 0.903119 0.752895
O O5 0.208850 0.760756 0.272733
O O6 0.423001 0.704464 0.978704
O O7 0.147898 0.709514 0.171661
O O8 0.878665 0.182133 0.073598
O O9 0.536594 0.715700 0.572476
O O10 0.076801 0.243868 0.499472
O O11 0.500000 0.000000 0.000000
O O12 0.280756 0.030646 0.001295
O O13 0.437962 0.069409 0.701210
O O14 0.919895 0.419560 0.841285
O O15 0.500000 0.000000 0.500000
#
# Coordination Sequence:
#
# PCOD9083309 Si02
#       7
#     2   2   2   2   2   2   2
#     4  10  21  35  56  85 111 142 180 229 284 334
#     4  10  22  39  56  78 109 152 191 226 266 320
#     4  11  21  38  58  78 112 152 186 221 280 339
#     4  10  19  34  54  82 115 141 178 226 280 337
#     4  10  21  36  59  86 115 145 182 230 285 330
#     4  11  23  35  55  87 116 143 179 230 284 337
#     4  10  22  37  57  81 109 146 191 229 267 324
#
# _framework density 25.508219
#
# number of rings (size 3 to 8) (size 9 to 14) (size 15 to 20)
#    0.000    1.714    0.000    6.429    0.000   10.286 
#    0.000    0.000    0.000    5.143    0.000    0.000 
#    0.000    0.000    0.000    0.000    0.000    0.000 
#
# Total GULP energy -78402.914755 kJ/mol
# GULP energy per Si atom -5600.208197 kJ/mol
# Density = 2.545016 g / cm^3
# Si number density = 25.508219 Si / 1000 Ang^3
#
#
#
# Elastic Constant Matrix: (Units=GPa)
#
#
# Indices 1 2 3 4 5 6 
#
# 1 66.5414 3.2954 -15.2172 13.9064 8.9137 -13.4998
# 2 3.2954 85.3804 0.1145 -4.4632 0.6689 -3.5173
# 3 -15.2172 0.1145 86.4238 -11.4645 -1.3807 7.3701
# 4 13.9064 -4.4632 -11.4645 31.5870 0.2140 3.9621
# 5 8.9137 0.6689 -1.3807 0.2140 24.3660 3.9785
# 6 -13.4998 -3.5173 7.3701 3.9621 3.9785 40.3828
#
#
#
# Elastic Compliance Matrix: (Units=1/GPa)
#
#
# Indices 1 2 3 4 5 6 
#
# 1 0.020180 -0.000871 0.001469 -0.009441 -0.008526 0.008168
# 2 -0.000871 0.011874 0.000049 0.002011 -0.000112 0.000548
# 3 0.001469 0.000049 0.012589 0.004210 0.000507 -0.002265
# 4 -0.009441 0.002011 0.004210 0.038598 0.004603 -0.007990
# 5 -0.008526 -0.000112 0.000507 0.004603 0.045438 -0.007881
# 6 0.008168 0.000548 -0.002265 -0.007990 -0.007881 0.029515
#
#
# Mechanical properties :
#
#
# Convention : Reuss Voigt Hill
#
# Bulk Modulus (GPa) = 21.76849 23.85898 22.81374
# Shear Modulus (GPa) = 29.03383 35.94400 32.48892
#
# Velocity S-wave (km/s) = 3.37740 3.75789 3.57272
# Velocity P-wave (km/s) = 4.87459 5.31062 5.09727
#
# Compressibility (1/GPa) = 0.04593795
#
# Stress axis : x y z
#
# Youngs Moduli (GPa) = 49.55483 84.21461 79.43257
#
# Poissons Ratio (x) = 0.07336 -0.11670
# Poissons Ratio (y) = 0.04317 -0.00391
# Poissons Ratio (z) = -0.07280 -0.00414
#
# Static dielectric constant tensor:
#      x y z
#    x 2.112590 0.008750 -0.007560 
#    y 0.008750 1.950050 -0.038000 
#    z -0.007560 -0.038000 2.020210 
# 
# From -- ./inp_files/454621.got.cif
#   From: 2010.05.17/outbox.cif.g08.bks.cpg/sg2_228_cif.got.tgz:454621.got - 2010.06.03 11:33:40.
