data_PCOD9083990
_publ_section_title
;
Structure prediction by ZEFSAII (Michael W. Deem and Ramdas Pophale) SiO2 
 PCOD9083990
Probable space group: P -1
;
_chemical_formula_sum "Si O2"
_cell_formula_units_Z 16
_cell_length_a 11.232474
_cell_length_b 14.658129
_cell_length_c 9.148070
_cell_angle_alpha 141.098848
_cell_angle_beta 129.920888
_cell_angle_gamma 41.777941
_cell_volume 623.359209
_symmetry_space_group_name_H-M "P -1"
_symmetry_group_IT_number 2
_symmetry_cell_setting 'triclinic'
loop_
_space_group_symop_operation_xyz
x,y,z
-x,-y,-z
loop_
_atom_site_type_symbol
_atom_site_label
_atom_site_fract_x
_atom_site_fract_y
_atom_site_fract_z
Si Si1 0.296272 0.637883 0.039200
Si Si2 0.784984 0.997313 0.213788
Si Si3 0.754635 0.674237 0.777652
Si Si4 0.555970 0.372092 0.562925
Si Si5 0.865257 0.008980 0.631477
Si Si6 0.447114 0.290887 0.037530
Si Si7 0.690469 0.940699 0.656725
Si Si8 0.841344 0.583259 0.301254
O O1 0.288826 0.673142 0.250733
O O2 0.265940 0.810526 0.168936
O O3 0.500000 0.500000 0.000000
O O4 0.170804 0.565529 0.811452
O O5 0.960868 0.975114 0.242903
O O6 0.646816 0.196046 0.326799
O O7 0.811821 0.977578 0.389006
O O8 0.738384 0.854521 0.958237
O O9 0.621966 0.629055 0.528426
O O10 0.683334 0.691266 0.909569
O O11 0.957251 0.517100 0.727519
O O12 0.503967 0.561369 0.716248
O O13 0.845198 0.898212 0.601935
O O14 0.311928 0.351633 0.865563
O O15 0.618534 0.102401 0.907906
O O16 0.773863 0.752519 0.552960
O O17 0.500000 0.000000 0.500000
#
# Coordination Sequence:
#
# PCOD9083990 Si02
#       8
#     2   2   2   2   2   2   2   2
#     4  10  19  38  63  84 117 154 195 240 297 351
#     4  10  21  35  58  89 116 157 193 244 298 347
#     4  12  22  39  59  89 123 151 199 247 292 349
#     4  10  23  38  59  87 119 157 194 240 303 351
#     4  10  19  34  59  88 118 145 202 249 286 345
#     4  10  22  39  61  85 118 158 200 238 296 346
#     4  10  20  37  59  90 115 150 196 248 292 341
#     4  10  21  36  61  92 113 151 202 245 288 342
#
# _framework density 25.667383999999998
#
# number of rings (size 3 to 8) (size 9 to 14) (size 15 to 20)
#    0.000    1.750    1.250    4.875    3.500    1.000 
#    0.000    1.250    2.750    0.000    0.000    0.000 
#    0.000    0.000    0.000    0.000    0.000    0.000 
#
# Total GULP energy -89236.034682 kJ/mol
# GULP energy per Si atom -5577.252168 kJ/mol
# Density = 2.560896 g / cm^3
# Si number density = 25.667384 Si / 1000 Ang^3
#
#
#
# Elastic Constant Matrix: (Units=GPa)
#
#
# Indices 1 2 3 4 5 6 
#
# 1 126.6144 20.4223 79.4448 4.8307 9.5801 -13.2281
# 2 20.4223 77.8639 60.9827 28.8236 10.9353 -17.6215
# 3 79.4448 60.9827 211.9633 36.4933 12.3667 -0.6867
# 4 4.8307 28.8236 36.4933 38.2600 6.2866 -5.7019
# 5 9.5801 10.9353 12.3667 6.2866 53.2973 3.9402
# 6 -13.2281 -17.6215 -0.6867 -5.7019 3.9402 38.3737
#
#
#
# Elastic Compliance Matrix: (Units=1/GPa)
#
#
# Indices 1 2 3 4 5 6 
#
# 1 0.011470 0.001036 -0.005109 0.003715 -0.001903 0.005086
# 2 0.001036 0.023075 -0.004942 -0.010847 -0.003203 0.009582
# 3 -0.005109 -0.004942 0.008834 -0.004888 0.000805 -0.004681
# 4 0.003715 -0.010847 -0.004888 0.039181 -0.002096 0.002249
# 5 -0.001903 -0.003203 0.000805 -0.002096 0.020155 -0.004493
# 6 0.005086 0.009582 -0.004681 0.002249 -0.004493 0.032925
#
#
# Mechanical properties :
#
#
# Convention : Reuss Voigt Hill
#
# Bulk Modulus (GPa) = 39.44843 82.01570 60.73207
# Shear Modulus (GPa) = 30.84129 43.02565 36.93347
#
# Velocity S-wave (km/s) = 3.47013 4.09868 3.79743
# Velocity P-wave (km/s) = 5.60876 7.37709 6.55285
#
# Compressibility (1/GPa) = 0.02534955
#
# Stress axis : x y z
#
# Youngs Moduli (GPa) = 87.18115 43.33643 113.19903
#
# Poissons Ratio (x) = -0.04490 0.57838
# Poissons Ratio (y) = -0.09033 0.55940
# Poissons Ratio (z) = 0.44544 0.21416
#
# Static dielectric constant tensor:
#      x y z
#    x 2.148250 0.024670 -0.056880 
#    y 0.024670 2.176110 -0.014140 
#    z -0.056880 -0.014140 2.088140 
# 
# From -- ./inp_files/189918.got.cif
#   From: 2010.05.17/outbox.cif.g08.bks.cpg/sg2_95_cif.got.tgz:189918.got - 2010.06.03 11:33:40.
