data_PCOD9083218
_publ_section_title
;
Structure prediction by ZEFSAII (Michael W. Deem and Ramdas Pophale) SiO2 
 PCOD9083218
Probable space group: P -1
;
_chemical_formula_sum "Si O2"
_cell_formula_units_Z 16
_cell_length_a 16.345128
_cell_length_b 6.375901
_cell_length_c 16.350739
_cell_angle_alpha 61.264952
_cell_angle_beta 133.455296
_cell_angle_gamma 86.571088
_cell_volume 856.560121
_symmetry_space_group_name_H-M "P -1"
_symmetry_group_IT_number 2
_symmetry_cell_setting 'triclinic'
loop_
_space_group_symop_operation_xyz
x,y,z
-x,-y,-z
loop_
_atom_site_type_symbol
_atom_site_label
_atom_site_fract_x
_atom_site_fract_y
_atom_site_fract_z
Si Si1 0.102788 0.176888 0.470617
Si Si2 0.144705 0.858796 0.717139
Si Si3 0.550821 0.545163 0.941670
Si Si4 0.023934 0.146308 0.750861
Si Si5 0.544880 0.845059 0.304730
Si Si6 0.540968 0.074156 0.430823
Si Si7 0.775103 0.152233 0.552581
Si Si8 0.347523 0.748373 0.102830
O O1 0.950971 0.236950 0.359886
O O2 0.068150 0.495129 0.366956
O O3 0.171300 0.014553 0.634381
O O4 0.190522 0.951394 0.498479
O O5 0.062266 0.091182 0.691215
O O6 0.290727 0.568642 0.907709
O O7 0.579004 0.336737 0.921605
O O8 0.454956 0.890723 0.782464
O O9 0.500000 0.500000 0.000000
O O10 0.923957 0.044222 0.715864
O O11 0.176853 0.953362 0.937185
O O12 0.670264 0.514278 0.420301
O O13 0.401423 0.897488 0.166910
O O14 0.556316 0.867665 0.405469
O O15 0.685371 0.044162 0.544644
O O16 0.417238 0.420498 0.252250
O O17 0.500000 0.000000 0.500000
#
# Coordination Sequence:
#
# PCOD9083218 Si02
#       8
#     2   2   2   2   2   2   2   2
#     4  10  19  34  53  76 115 153 196 234 273 326
#     4   9  20  32  48  79 110 156 201 229 268 328
#     4  10  21  33  52  79 120 152 193 234 273 331
#     4  10  19  36  56  79 117 154 188 237 279 330
#     4  10  21  39  58  82 115 151 186 239 289 336
#     4  10  22  42  65  86 111 142 187 242 296 352
#     4  10  22  35  59  86 111 149 195 231 291 340
#     4   9  21  38  57  87 112 151 192 227 292 342
#
# _framework density 18.679366000000002
#
# number of rings (size 3 to 8) (size 9 to 14) (size 15 to 20)
#    0.000    2.250    0.000    1.875    7.000    3.500 
#    4.500    0.625    0.000    3.750    0.000    0.000 
#    0.000    0.000    0.000    0.000    0.000    0.000 
#
# Total GULP energy -89209.052753 kJ/mol
# GULP energy per Si atom -5575.565797 kJ/mol
# Density = 1.863685 g / cm^3
# Si number density = 18.679366 Si / 1000 Ang^3
#
#
#
# Elastic Constant Matrix: (Units=GPa)
#
#
# Indices 1 2 3 4 5 6 
#
# 1 118.8907 46.2049 44.6208 10.0082 0.3188 -4.8232
# 2 46.2049 98.2289 39.5051 5.4996 7.2898 -3.1562
# 3 44.6208 39.5051 65.7319 13.9418 10.9630 0.6712
# 4 10.0082 5.4996 13.9418 25.9833 6.4781 9.5439
# 5 0.3188 7.2898 10.9630 6.4781 30.7505 9.2005
# 6 -4.8232 -3.1562 0.6712 9.5439 9.2005 18.7100
#
#
#
# Elastic Compliance Matrix: (Units=1/GPa)
#
#
# Indices 1 2 3 4 5 6 
#
# 1 0.012374 -0.003201 -0.006448 -0.002294 0.002580 0.002783
# 2 -0.003201 0.014432 -0.006480 0.001373 -0.002004 0.002127
# 3 -0.006448 -0.006480 0.026932 -0.010736 -0.007342 0.005365
# 4 -0.002294 0.001373 -0.010736 0.055135 0.000372 -0.028282
# 5 0.002580 -0.002004 -0.007342 0.000372 0.041492 -0.020003
# 6 0.002783 0.002127 0.005365 -0.028282 -0.020003 0.078593
#
#
# Mechanical properties :
#
#
# Convention : Reuss Voigt Hill
#
# Bulk Modulus (GPa) = 46.55464 60.39031 53.47248
# Shear Modulus (GPa) = 18.63053 25.25680 21.94367
#
# Velocity S-wave (km/s) = 3.16157 3.68111 3.43119
# Velocity P-wave (km/s) = 6.18906 7.10405 6.66228
#
# Compressibility (1/GPa) = 0.02148014
#
# Stress axis : x y z
#
# Youngs Moduli (GPa) = 80.81263 69.29036 37.13067
#
# Poissons Ratio (x) = 0.22179 0.23944
# Poissons Ratio (y) = 0.25867 0.24060
# Poissons Ratio (z) = 0.52112 0.44898
#
# Static dielectric constant tensor:
#      x y z
#    x 1.645590 0.014190 0.042190 
#    y 0.014190 1.669040 0.019820 
#    z 0.042190 0.019820 1.670550 
# 
# From -- ./inp_files/37540.got.cif
#   From: 2010.05.17/outbox.cif.g08.bks.cpg/sg2_19_cif.got.tgz:37540.got - 2010.06.03 11:33:40.
