data_PCOD9083824
_publ_section_title
;
Structure prediction by ZEFSAII (Michael W. Deem and Ramdas Pophale) SiO2 
 PCOD9083824
Probable space group: P -1
;
_chemical_formula_sum "Si O2"
_cell_formula_units_Z 14
_cell_length_a 10.231013
_cell_length_b 8.504692
_cell_length_c 8.872042
_cell_angle_alpha 102.715925
_cell_angle_beta 73.539899
_cell_angle_gamma 63.639145
_cell_volume 607.221956
_symmetry_space_group_name_H-M "P -1"
_symmetry_group_IT_number 2
_symmetry_cell_setting 'triclinic'
loop_
_space_group_symop_operation_xyz
x,y,z
-x,-y,-z
loop_
_atom_site_type_symbol
_atom_site_label
_atom_site_fract_x
_atom_site_fract_y
_atom_site_fract_z
Si Si1 0.004269 0.883459 0.327540
Si Si2 0.348342 0.493474 0.113200
Si Si3 0.530193 0.483684 0.308554
Si Si4 0.190032 0.273676 0.023300
Si Si5 0.773639 0.090117 0.172162
Si Si6 0.868785 0.631556 0.296323
Si Si7 0.521136 0.801661 0.489209
O O1 0.182480 0.699976 0.193450
O O2 0.902756 0.787472 0.380414
O O3 0.163771 0.320606 0.862323
O O4 0.000000 0.000000 0.500000
O O5 0.397781 0.462967 0.264933
O O6 0.500000 0.500000 0.000000
O O7 0.320764 0.326525 0.036869
O O8 0.500000 0.500000 0.500000
O O9 0.497440 0.693420 0.334702
O O10 0.710455 0.302597 0.175945
O O11 0.210670 0.067306 0.982551
O O12 0.030159 0.422839 0.201118
O O13 0.920134 0.005995 0.227130
O O14 0.615093 0.141323 0.330817
O O15 0.711583 0.658047 0.430213
O O16 0.500000 0.000000 0.500000
#
# Coordination Sequence:
#
# PCOD9083824 Si02
#       7
#     2   2   2   2   2   2   2
#     4  10  19  34  58  85 118 155 203 240 292 345
#     4  11  23  36  60  91 119 153 204 252 277 354
#     4  10  23  39  58  89 125 154 191 245 310 346
#     4   9  18  34  53  80 119 150 189 235 306 336
#     4  10  21  37  59  84 117 160 188 243 303 351
#     4   9  18  31  53  85 111 149 194 247 276 345
#     4  11  18  33  60  84 107 152 206 234 269 355
#
# _framework density 23.055820000000001
#
# number of rings (size 3 to 8) (size 9 to 14) (size 15 to 20)
#    0.000    2.000    2.857    3.429    0.000    0.571 
#    0.000    2.857    0.000   21.429    0.000    0.000 
#    0.000    0.000    0.000    0.000    0.000    0.000 
#
# Total GULP energy -78051.421078 kJ/mol
# GULP energy per Si atom -5575.101506 kJ/mol
# Density = 2.300334 g / cm^3
# Si number density = 23.055820 Si / 1000 Ang^3
#
#
#
# Elastic Constant Matrix: (Units=GPa)
#
#
# Indices 1 2 3 4 5 6 
#
# 1 146.9121 18.9994 58.6281 12.8118 26.2427 0.1719
# 2 18.9994 55.8586 31.3967 29.8154 16.2609 -4.7447
# 3 58.6281 31.3967 82.7872 22.0824 17.4890 7.9194
# 4 12.8118 29.8154 22.0824 43.4986 15.8241 7.3849
# 5 26.2427 16.2609 17.4890 15.8241 64.8326 13.8037
# 6 0.1719 -4.7447 7.9194 7.3849 13.8037 30.3466
#
#
#
# Elastic Compliance Matrix: (Units=1/GPa)
#
#
# Indices 1 2 3 4 5 6 
#
# 1 0.010203 0.002178 -0.007697 0.000000 -0.003419 0.003847
# 2 0.002178 0.037838 -0.010392 -0.022035 -0.005720 0.016580
# 3 -0.007697 -0.010392 0.022171 -0.001147 0.001695 -0.007859
# 4 0.000000 -0.022035 -0.001147 0.041379 -0.001605 -0.012485
# 5 -0.003419 -0.005720 0.001695 -0.001605 0.020345 -0.010181
# 6 0.003847 0.016580 -0.007859 -0.012485 -0.010181 0.045243
#
#
# Mechanical properties :
#
#
# Convention : Reuss Voigt Hill
#
# Bulk Modulus (GPa) = 26.04929 55.95626 41.00278
# Shear Modulus (GPa) = 22.54289 39.50448 31.02369
#
# Velocity S-wave (km/s) = 3.13030 4.14385 3.67221
# Velocity P-wave (km/s) = 4.93841 6.87153 5.98355
#
# Compressibility (1/GPa) = 0.03838877
#
# Stress axis : x y z
#
# Youngs Moduli (GPa) = 98.00937 26.42857 45.10337
#
# Poissons Ratio (x) = -0.05756 0.34718
# Poissons Ratio (y) = -0.21345 0.46872
# Poissons Ratio (z) = 0.75442 0.27465
#
# Static dielectric constant tensor:
#      x y z
#    x 1.937030 0.056120 0.032950 
#    y 0.056120 2.183660 -0.010650 
#    z 0.032950 -0.010650 1.924880 
# 
# From -- ./inp_files/415389.got.cif
#   From: 2010.05.17/outbox.cif.g08.bks.cpg/sg2_208_cif.got.tgz:415389.got - 2010.06.03 11:33:40.
