data_PCOD9083273
_publ_section_title
;
Structure prediction by ZEFSAII (Michael W. Deem and Ramdas Pophale) SiO2 
 PCOD9083273
Probable space group: P -1
;
_chemical_formula_sum "Si O2"
_cell_formula_units_Z 14
_cell_length_a 18.499858
_cell_length_b 6.183976
_cell_length_c 9.261786
_cell_angle_alpha 129.130824
_cell_angle_beta 132.151699
_cell_angle_gamma 58.675533
_cell_volume 600.731330
_symmetry_space_group_name_H-M "P -1"
_symmetry_group_IT_number 2
_symmetry_cell_setting 'triclinic'
loop_
_space_group_symop_operation_xyz
x,y,z
-x,-y,-z
loop_
_atom_site_type_symbol
_atom_site_label
_atom_site_fract_x
_atom_site_fract_y
_atom_site_fract_z
Si Si1 0.247937 0.239868 0.805079
Si Si2 0.767767 0.526385 0.813161
Si Si3 0.619456 0.208310 0.046676
Si Si4 0.593379 0.838957 0.267872
Si Si5 0.103369 0.083678 0.331213
Si Si6 0.926220 0.783123 0.979788
Si Si7 0.617805 0.959810 0.648103
O O1 0.335101 0.215982 0.794405
O O2 0.282424 0.943986 0.809721
O O3 0.147743 0.254376 0.587327
O O4 0.241536 0.460361 0.020695
O O5 0.824510 0.222908 0.710634
O O6 0.665621 0.655650 0.651675
O O7 0.896357 0.782750 0.771390
O O8 0.592217 0.525619 0.197514
O O9 0.522526 0.056281 0.877610
O O10 0.638265 0.182649 0.889592
O O11 0.642050 0.996259 0.527620
O O12 0.992003 0.029265 0.188871
O O13 0.166132 0.238823 0.052077
O O14 0.000000 0.500000 0.000000
O O15 0.500000 0.000000 0.500000
#
# Coordination Sequence:
#
# PCOD9083273 Si02
#       7
#     2   2   2   2   2   2   2
#     4  11  22  33  55  86 110 143 187 228 277 332
#     4  10  21  37  57  85 117 148 186 230 277 331
#     4   9  20  36  52  77 112 148 187 232 273 318
#     4  10  19  34  54  76 110 152 190 227 272 324
#     4  10  21  39  61  83 110 146 186 233 283 330
#     4   9  20  41  62  81 111 146 184 232 284 338
#     4   9  18  34  56  81 112 150 187 224 270 323
#
# _framework density 23.304925999999998
#
# number of rings (size 3 to 8) (size 9 to 14) (size 15 to 20)
#    0.000    2.286    0.000    2.143    0.000    5.143 
#    0.000    6.429    0.000   15.429    0.000    0.000 
#    0.000    0.000    0.000    0.000    0.000    0.000 
#
# Total GULP energy -78096.194928 kJ/mol
# GULP energy per Si atom -5578.299638 kJ/mol
# Density = 2.325188 g / cm^3
# Si number density = 23.304926 Si / 1000 Ang^3
#
#
#
# Elastic Constant Matrix: (Units=GPa)
#
#
# Indices 1 2 3 4 5 6 
#
# 1 105.5475 -9.9149 44.3354 -3.9031 -16.3673 12.2268
# 2 -9.9149 62.6481 25.0585 -16.8360 -0.2457 -6.7470
# 3 44.3354 25.0585 140.4058 -31.4366 -24.3561 4.6127
# 4 -3.9031 -16.8360 -31.4366 32.2028 -7.2937 -5.6065
# 5 -16.3673 -0.2457 -24.3561 -7.2937 28.0019 -4.3799
# 6 12.2268 -6.7470 4.6127 -5.6065 -4.3799 16.1062
#
#
#
# Elastic Compliance Matrix: (Units=1/GPa)
#
#
# Indices 1 2 3 4 5 6 
#
# 1 0.012606 0.002220 -0.004425 -0.002629 0.001627 -0.007845
# 2 0.002220 0.022530 -0.000130 0.016508 0.008146 0.015752
# 3 -0.004425 -0.000130 0.016288 0.021558 0.018962 0.011301
# 4 -0.002629 0.016508 0.021558 0.077677 0.044126 0.041776
# 5 0.001627 0.008146 0.018962 0.044126 0.069574 0.031027
# 6 -0.007845 0.015752 0.011301 0.041776 0.031027 0.094385
#
#
# Mechanical properties :
#
#
# Convention : Reuss Voigt Hill
#
# Bulk Modulus (GPa) = 21.38923 47.50659 34.44791
# Shear Modulus (GPa) = 15.95838 31.87035 23.91437
#
# Velocity S-wave (km/s) = 2.61964 3.70203 3.20683
# Velocity P-wave (km/s) = 4.28345 6.22113 5.34090
#
# Compressibility (1/GPa) = 0.04675250
#
# Stress axis : x y z
#
# Youngs Moduli (GPa) = 79.32969 44.38438 61.39604
#
# Poissons Ratio (x) = -0.09854 0.27170
# Poissons Ratio (y) = -0.17612 0.00801
# Poissons Ratio (z) = 0.35106 0.00579
#
# Static dielectric constant tensor:
#      x y z
#    x 1.959560 0.006290 0.023160 
#    y 0.006290 1.865310 -0.005830 
#    z 0.023160 -0.005830 1.912690 
# 
# From -- ./inp_files/309763.got.cif
#   From: 2010.05.17/outbox.cif.g08.bks.cpg/sg2_155_cif.got.tgz:309763.got - 2010.06.03 11:33:40.
