data_PCOD9083970
_publ_section_title
;
Structure prediction by ZEFSAII (Michael W. Deem and Ramdas Pophale) SiO2 
 PCOD9083970
Probable space group: P -1
;
_chemical_formula_sum "Si O2"
_cell_formula_units_Z 14
_cell_length_a 20.040485
_cell_length_b 10.113642
_cell_length_c 11.505953
_cell_angle_alpha 70.773330
_cell_angle_beta 132.865051
_cell_angle_gamma 147.000258
_cell_volume 741.757087
_symmetry_space_group_name_H-M "P -1"
_symmetry_group_IT_number 2
_symmetry_cell_setting 'triclinic'
loop_
_space_group_symop_operation_xyz
x,y,z
-x,-y,-z
loop_
_atom_site_type_symbol
_atom_site_label
_atom_site_fract_x
_atom_site_fract_y
_atom_site_fract_z
Si Si1 0.427822 0.699487 0.492795
Si Si2 0.595005 0.245107 0.930431
Si Si3 0.229775 0.285291 0.172733
Si Si4 0.606400 0.151859 0.400290
Si Si5 0.835284 0.106896 0.886139
Si Si6 0.197374 0.724965 0.742133
Si Si7 0.984221 0.430082 0.195777
O O1 0.326952 0.443443 0.368612
O O2 0.338477 0.632421 0.527116
O O3 0.448468 0.857630 0.382205
O O4 0.647836 0.952715 0.710628
O O5 0.678966 0.481028 0.879124
O O6 0.494185 0.988021 0.803049
O O7 0.408408 0.050584 0.838426
O O8 0.766126 0.393088 0.158502
O O9 0.239673 0.143247 0.175450
O O10 0.000000 0.000000 0.000000
O O11 0.801314 0.322447 0.574083
O O12 0.988104 0.386736 0.895735
O O13 0.923797 0.234740 0.082958
O O14 0.160766 0.746253 0.817735
O O15 0.000000 0.500000 0.500000
#
# Coordination Sequence:
#
# PCOD9083970 Si02
#       7
#     2   2   2   2   2   2   2
#     4   9  18  30  51  80 114 151 178 229 289 340
#     4  10  22  37  58  87 116 151 196 239 285 339
#     4  11  21  36  54  84 120 152 186 238 298 343
#     4   9  16  32  53  80 115 142 187 237 278 333
#     4  10  20  34  56  86 117 147 187 241 292 344
#     4  11  21  38  61  86 112 153 198 240 279 340
#     4  10  19  34  59  87 111 149 197 236 286 341
#
# _framework density 18.874103000000002
#
# number of rings (size 3 to 8) (size 9 to 14) (size 15 to 20)
#    0.000    2.000    1.429    3.000    0.000    4.571 
#    2.571    0.714    0.000    0.857    0.000    0.000 
#    0.000    0.000    0.000    0.000    0.000    0.000 
#
# Total GULP energy -77964.615874 kJ/mol
# GULP energy per Si atom -5568.901134 kJ/mol
# Density = 1.883115 g / cm^3
# Si number density = 18.874103 Si / 1000 Ang^3
#
#
#
# Elastic Constant Matrix: (Units=GPa)
#
#
# Indices 1 2 3 4 5 6 
#
# 1 122.2801 50.8082 32.7069 0.8821 -5.0543 11.5947
# 2 50.8082 55.9085 14.1367 5.9488 -6.5785 0.0498
# 3 32.7069 14.1367 101.9875 -2.4856 2.2253 1.9088
# 4 0.8821 5.9488 -2.4856 18.3947 -5.1941 0.8487
# 5 -5.0543 -6.5785 2.2253 -5.1941 35.3505 6.2372
# 6 11.5947 0.0498 1.9088 0.8487 6.2372 34.8428
#
#
#
# Elastic Compliance Matrix: (Units=1/GPa)
#
#
# Indices 1 2 3 4 5 6 
#
# 1 0.014849 -0.013023 -0.002799 0.003730 0.001323 -0.005097
# 2 -0.013023 0.031027 -0.000466 -0.009142 0.001856 0.004205
# 3 -0.002799 -0.000466 0.010816 0.001429 -0.001045 0.000492
# 4 0.003730 -0.009142 0.001429 0.059871 0.008288 -0.004248
# 5 0.001323 0.001856 -0.001045 0.008288 0.031195 -0.006172
# 6 -0.005097 0.004205 0.000492 -0.004248 -0.006172 0.031572
#
#
# Mechanical properties :
#
#
# Convention : Reuss Voigt Hill
#
# Bulk Modulus (GPa) = 41.46961 52.83108 47.15034
# Shear Modulus (GPa) = 22.73293 29.88590 26.30942
#
# Velocity S-wave (km/s) = 3.47428 3.98356 3.73760
# Velocity P-wave (km/s) = 6.17362 7.01501 6.60772
#
# Compressibility (1/GPa) = 0.02411405
#
# Stress axis : x y z
#
# Youngs Moduli (GPa) = 67.34436 32.23016 92.45640
#
# Poissons Ratio (x) = 0.41974 0.25882
# Poissons Ratio (y) = 0.87704 0.04311
# Poissons Ratio (z) = 0.18852 0.01503
#
# Static dielectric constant tensor:
#      x y z
#    x 1.795050 -0.054860 -0.012920 
#    y -0.054860 1.685950 -0.020720 
#    z -0.012920 -0.020720 1.724450 
# 
# From -- ./inp_files/190523.got.cif
#   From: 2010.05.17/outbox.cif.g08.bks.cpg/sg2_96_cif.got.tgz:190523.got - 2010.06.03 11:33:40.
