data_PCOD9083748
_publ_section_title
;
Structure prediction by ZEFSAII (Michael W. Deem and Ramdas Pophale) SiO2 
 PCOD9083748
Probable space group: P -1
;
_chemical_formula_sum "Si O2"
_cell_formula_units_Z 13
_cell_length_a 5.339308
_cell_length_b 12.605296
_cell_length_c 8.625643
_cell_angle_alpha 78.886094
_cell_angle_beta 90.163384
_cell_angle_gamma 117.897857
_cell_volume 500.886377
_symmetry_space_group_name_H-M "P -1"
_symmetry_group_IT_number 2
_symmetry_cell_setting 'triclinic'
loop_
_space_group_symop_operation_xyz
x,y,z
-x,-y,-z
loop_
_atom_site_type_symbol
_atom_site_label
_atom_site_fract_x
_atom_site_fract_y
_atom_site_fract_z
Si Si1 0.000000 0.000000 0.500000
Si Si2 0.224383 0.301980 0.724931
Si Si3 0.738423 0.491208 0.108508
Si Si4 0.225094 0.140864 0.018748
Si Si5 0.663187 0.077941 0.131224
Si Si6 0.674451 0.118965 0.613648
Si Si7 0.459291 0.277611 0.414422
O O1 0.749940 0.017829 0.578041
O O2 0.168032 0.151496 0.428272
O O3 0.183901 0.403199 0.790586
O O4 0.361628 0.237966 0.853537
O O5 0.392706 0.337096 0.552042
O O6 0.910584 0.189863 0.723354
O O7 0.585879 0.368389 0.246856
O O8 0.500000 0.500000 0.000000
O O9 0.000000 0.500000 0.000000
O O10 0.469836 0.144117 0.126582
O O11 0.992429 0.170743 0.089105
O O12 0.000000 0.000000 0.000000
O O13 0.634390 0.972008 0.283279
O O14 0.500000 0.000000 0.000000
O O15 0.670841 0.224858 0.482619
#
# Coordination Sequence:
#
# PCOD9083748 Si02
#       7
#     1   2   2   2   2   2   2
#     4  10  26  44  72 118 160 204 248 340 398 478
#     4  11  25  46  82 112 152 213 277 329 398 488
#     4  12  33  58  79 116 166 218 272 344 416 477
#     4  10  19  35  60 108 150 186 241 309 385 448
#     4  10  19  34  58 103 152 186 237 307 378 457
#     4  11  23  42  77 114 155 205 272 325 409 470
#     4  11  26  52  82 116 159 216 280 326 408 494
#
# _framework density 25.953987999999999
#
# number of rings (size 3 to 8) (size 9 to 14) (size 15 to 20)
#    0.000    1.231    3.077    2.769    8.615    3.077 
#    0.000    0.000    0.000    0.000    0.000    0.000 
#    0.000    0.000    0.000    0.000    0.000    0.000 
#
# Total GULP energy -72468.529789 kJ/mol
# GULP energy per Si atom -5574.502291 kJ/mol
# Density = 2.589492 g / cm^3
# Si number density = 25.953988 Si / 1000 Ang^3
#
#
#
# Elastic Constant Matrix: (Units=GPa)
#
#
# Indices 1 2 3 4 5 6 
#
# 1 142.8947 26.7965 53.4441 -4.7046 -18.3563 -34.9019
# 2 26.7965 154.2969 77.0562 15.2447 -14.5045 -23.5758
# 3 53.4441 77.0562 208.5126 -37.1271 -16.3537 -8.3793
# 4 -4.7046 15.2447 -37.1271 55.4175 -4.2407 -0.2584
# 5 -18.3563 -14.5045 -16.3537 -4.2407 44.0045 4.8373
# 6 -34.9019 -23.5758 -8.3793 -0.2584 4.8373 31.6088
#
#
#
# Elastic Compliance Matrix: (Units=1/GPa)
#
#
# Indices 1 2 3 4 5 6 
#
# 1 0.011142 0.001907 -0.003102 -0.001399 0.002615 0.012491
# 2 0.001907 0.010695 -0.005114 -0.006098 0.000894 0.008540
# 3 -0.003102 -0.005114 0.008641 0.007021 0.001471 -0.005117
# 4 -0.001399 -0.006098 0.007021 0.024506 0.002869 -0.004470
# 5 0.002615 0.000894 0.001471 0.002869 0.024917 0.000155
# 6 0.012491 0.008540 -0.005117 -0.004470 0.000155 0.050382
#
#
# Mechanical properties :
#
#
# Convention : Reuss Voigt Hill
#
# Bulk Modulus (GPa) = 55.99370 91.14420 73.56895
# Shear Modulus (GPa) = 33.59024 49.43331 41.51178
#
# Velocity S-wave (km/s) = 3.60143 4.36897 4.00364
# Velocity P-wave (km/s) = 6.23817 7.78745 7.05546
#
# Compressibility (1/GPa) = 0.01785915
#
# Stress axis : x y z
#
# Youngs Moduli (GPa) = 89.75325 93.50172 115.73248
#
# Poissons Ratio (x) = -0.17831 0.35906
# Poissons Ratio (y) = -0.17116 0.59181
# Poissons Ratio (z) = 0.27846 0.47813
#
# Static dielectric constant tensor:
#      x y z
#    x 1.798770 -0.046910 -0.332620 
#    y -0.046910 2.009470 0.135540 
#    z -0.332620 0.135540 1.932730 
# 
# From -- ./inp_files/130571.got.cif
#   From: 2010.05.17/outbox.cif.g08.bks.cpg/sg2_66_cif.got.tgz:130571.got - 2010.06.03 11:33:40.
