data_PCOD9083590
_publ_section_title
;
Structure prediction by ZEFSAII (Michael W. Deem and Ramdas Pophale) SiO2 
 PCOD9083590
Probable space group: P -1
;
_chemical_formula_sum "Si O2"
_cell_formula_units_Z 16
_cell_length_a 8.632021
_cell_length_b 7.464093
_cell_length_c 10.773008
_cell_angle_alpha 73.286476
_cell_angle_beta 85.774028
_cell_angle_gamma 72.883159
_cell_volume 635.293256
_symmetry_space_group_name_H-M "P -1"
_symmetry_group_IT_number 2
_symmetry_cell_setting 'triclinic'
loop_
_space_group_symop_operation_xyz
x,y,z
-x,-y,-z
loop_
_atom_site_type_symbol
_atom_site_label
_atom_site_fract_x
_atom_site_fract_y
_atom_site_fract_z
Si Si1 0.816203 0.280569 0.927296
Si Si2 0.530660 0.687972 0.104235
Si Si3 0.133403 0.373364 0.249319
Si Si4 0.909939 0.954282 0.199212
Si Si5 0.593608 0.925499 0.819165
Si Si6 0.788242 0.566134 0.292895
Si Si7 0.633670 0.679590 0.539194
Si Si8 0.336588 0.910736 0.623743
O O1 0.623579 0.374396 0.916951
O O2 0.888792 0.463506 0.889544
O O3 0.905237 0.155103 0.827648
O O4 0.853008 0.124514 0.066719
O O5 0.678919 0.534836 0.191230
O O6 0.456934 0.850931 0.181988
O O7 0.586931 0.801282 0.967281
O O8 0.229544 0.165119 0.231223
O O9 0.254931 0.424707 0.333143
O O10 0.961192 0.407148 0.315573
O O11 0.825086 0.777023 0.227141
O O12 0.840896 0.053805 0.313955
O O13 0.459487 0.897805 0.735775
O O14 0.696766 0.582399 0.425042
O O15 0.441828 0.735394 0.566937
O O16 0.669524 0.890280 0.487063
#
# Coordination Sequence:
#
# PCOD9083590 Si02
#       8
#     2   2   2   2   2   2   2   2
#     4  10  20  32  54  83 114 139 169 224 277 318
#     4  11  19  34  56  79 111 145 175 212 272 331
#     4  10  22  35  54  84 110 137 180 229 263 307
#     4   9  16  33  53  80 106 143 181 213 258 325
#     4  10  19  34  57  80 106 140 186 217 261 318
#     4  10  19  35  57  79 106 144 184 218 263 319
#     4   9  17  31  55  81 101 138 188 230 249 299
#     4   9  15  31  57  83  97 134 196 228 239 309
#
# _framework density 25.185223000000001
#
# number of rings (size 3 to 8) (size 9 to 14) (size 15 to 20)
#    0.000    2.250    3.750    1.125    0.000    1.000 
#    0.000    0.625    0.000    0.750    0.000    0.000 
#    0.000    0.000    0.000    0.000    0.000    0.000 
#
# Total GULP energy -89424.602355 kJ/mol
# GULP energy per Si atom -5589.037647 kJ/mol
# Density = 2.512790 g / cm^3
# Si number density = 25.185223 Si / 1000 Ang^3
#
#
#
# Elastic Constant Matrix: (Units=GPa)
#
#
# Indices 1 2 3 4 5 6 
#
# 1 43.0210 33.9683 13.6352 10.4183 -7.8274 -33.1627
# 2 33.9683 91.9599 22.4903 5.7429 -11.3920 -22.5656
# 3 13.6352 22.4903 93.2555 -0.4272 -16.5522 -12.2900
# 4 10.4183 5.7429 -0.4272 26.9407 -16.4692 -14.0483
# 5 -7.8274 -11.3920 -16.5522 -16.4692 32.3874 9.8703
# 6 -33.1627 -22.5656 -12.2900 -14.0483 9.8703 55.5411
#
#
#
# Elastic Compliance Matrix: (Units=1/GPa)
#
#
# Indices 1 2 3 4 5 6 
#
# 1 0.056196 -0.013827 -0.002241 -0.007829 -0.004406 0.026243
# 2 -0.013827 0.016142 -0.001423 0.003250 0.003832 -0.001871
# 3 -0.002241 -0.001423 0.013247 0.007728 0.009254 0.001325
# 4 -0.007829 0.003250 0.007728 0.064522 0.033344 0.008750
# 5 -0.004406 0.003832 0.009254 0.033344 0.052839 0.000017
# 6 0.026243 -0.001871 0.001325 0.008750 0.000017 0.035417
#
#
# Mechanical properties :
#
#
# Convention : Reuss Voigt Hill
#
# Bulk Modulus (GPa) = 19.76199 40.93603 30.34901
# Shear Modulus (GPa) = 17.22878 33.51667 25.37272
#
# Velocity S-wave (km/s) = 2.61834 3.65198 3.17747
# Velocity P-wave (km/s) = 4.12366 5.83711 5.05354
#
# Compressibility (1/GPa) = 0.05060220
#
# Stress axis : x y z
#
# Youngs Moduli (GPa) = 17.79499 61.94924 75.49122
#
# Poissons Ratio (x) = 0.85656 0.16921
# Poissons Ratio (y) = 0.24605 0.10742
# Poissons Ratio (z) = 0.03989 0.08815
#
# Static dielectric constant tensor:
#      x y z
#    x 1.989770 0.005760 -0.008850 
#    y 0.005760 2.020360 0.024200 
#    z -0.008850 0.024200 1.977220 
# 
# From -- ./inp_files/345310.got.cif
#   From: 2010.05.17/outbox.cif.g08.bks.cpg/sg2_173_cif.got.tgz:345310.got - 2010.06.03 11:33:40.
