data_PCOD9083003
_publ_section_title
;
Structure prediction by ZEFSAII (Michael W. Deem and Ramdas Pophale) SiO2 
 PCOD9083003
Probable space group: P -1
;
_chemical_formula_sum "Si O2"
_cell_formula_units_Z 16
_cell_length_a 11.018501
_cell_length_b 18.209110
_cell_length_c 8.484526
_cell_angle_alpha 46.205237
_cell_angle_beta 95.058100
_cell_angle_gamma 60.750466
_cell_volume 789.116069
_symmetry_space_group_name_H-M "P -1"
_symmetry_group_IT_number 2
_symmetry_cell_setting 'triclinic'
loop_
_space_group_symop_operation_xyz
x,y,z
-x,-y,-z
loop_
_atom_site_type_symbol
_atom_site_label
_atom_site_fract_x
_atom_site_fract_y
_atom_site_fract_z
Si Si1 0.533875 0.172338 0.596942
Si Si2 0.880062 0.619842 0.660201
Si Si3 0.991701 0.379814 0.816142
Si Si4 0.595094 0.923821 0.794952
Si Si5 0.421806 0.440330 0.525223
Si Si6 0.408154 0.458756 0.116718
Si Si7 0.340748 0.905611 0.936452
Si Si8 0.028298 0.248765 0.355126
O O1 0.328526 0.290239 0.478407
O O2 0.508280 0.291526 0.317041
O O3 0.575054 0.044820 0.697013
O O4 0.671504 0.095613 0.873951
O O5 0.870423 0.745441 0.509552
O O6 0.963209 0.515192 0.668708
O O7 0.000000 0.500000 0.000000
O O8 0.795413 0.456475 0.613902
O O9 0.184076 0.243539 0.945135
O O10 0.032851 0.296453 0.111810
O O11 0.479777 0.908942 0.893735
O O12 0.500000 0.000000 0.500000
O O13 0.500000 0.500000 0.500000
O O14 0.425050 0.442943 0.331362
O O15 0.564478 0.259653 0.864275
O O16 0.500000 0.500000 0.000000
O O17 0.188009 0.608154 0.830882
O O18 0.133847 0.074337 0.609866
#
# Coordination Sequence:
#
# PCOD9083003 Si02
#       8
#     2   2   2   2   2   2   2   2
#     4  11  21  39  61  87 128 161 194 253 306 364
#     4  10  15  34  64  85 117 164 194 231 317 374
#     4  10  20  39  60  90 128 162 197 251 305 373
#     4  12  23  35  62 100 130 148 206 255 309 366
#     4  10  23  46  61  81 126 168 205 252 312 352
#     4  10  22  43  64  86 114 167 222 243 283 375
#     4  11  22  40  62  89 124 162 195 254 314 364
#     4  10  19  36  65  89 119 162 200 244 313 373
#
# _framework density 20.275849999999998
#
# number of rings (size 3 to 8) (size 9 to 14) (size 15 to 20)
#    0.000    1.500    7.500    1.125    0.000    1.500 
#    4.500    2.500    0.000    0.000    0.000    0.000 
#    0.000    0.000    0.000    0.000    0.000    0.000 
#
# Total GULP energy -89254.113861 kJ/mol
# GULP energy per Si atom -5578.382116 kJ/mol
# Density = 2.022970 g / cm^3
# Si number density = 20.275850 Si / 1000 Ang^3
#
#
#
# Elastic Constant Matrix: (Units=GPa)
#
#
# Indices 1 2 3 4 5 6 
#
# 1 89.5556 28.1696 34.5482 -16.0175 -20.9371 16.0622
# 2 28.1696 74.5905 31.3125 -33.1259 -5.8526 20.0823
# 3 34.5482 31.3125 125.7049 -23.7286 -18.4381 11.4313
# 4 -16.0175 -33.1259 -23.7286 32.1611 9.7581 -4.9719
# 5 -20.9371 -5.8526 -18.4381 9.7581 26.5395 -1.3494
# 6 16.0622 20.0823 11.4313 -4.9719 -1.3494 34.2177
#
#
#
# Elastic Compliance Matrix: (Units=1/GPa)
#
#
# Indices 1 2 3 4 5 6 
#
# 1 0.016190 -0.003848 -0.001696 -0.001171 0.010947 -0.004513
# 2 -0.003848 0.031430 -0.001220 0.030320 -0.008720 -0.012170
# 3 -0.001696 -0.001220 0.010165 0.004034 0.003913 -0.001143
# 4 -0.001171 0.030320 0.004034 0.068457 -0.017079 -0.009319
# 5 0.010947 -0.008720 0.003913 -0.017079 0.053304 -0.001708
# 6 -0.004513 -0.012170 -0.001143 -0.009319 -0.001708 0.037446
#
#
# Mechanical properties :
#
#
# Convention : Reuss Voigt Hill
#
# Bulk Modulus (GPa) = 22.59609 53.10128 37.84868
# Shear Modulus (GPa) = 20.38540 31.63838 26.01189
#
# Velocity S-wave (km/s) = 3.17425 3.95447 3.58565
# Velocity P-wave (km/s) = 4.96014 6.86271 5.98748
#
# Compressibility (1/GPa) = 0.04425544
#
# Stress axis : x y z
#
# Youngs Moduli (GPa) = 61.76545 31.81700 98.38034
#
# Poissons Ratio (x) = 0.12244 0.16685
# Poissons Ratio (y) = 0.23769 0.12005
# Poissons Ratio (z) = 0.10476 0.03883
#
# Static dielectric constant tensor:
#      x y z
#    x 1.778820 0.038050 0.005030 
#    y 0.038050 1.753250 0.016900 
#    z 0.005030 0.016900 1.814390 
# 
# From -- ./inp_files/207588.got.cif
#   From: 2010.05.17/outbox.cif.g08.bks.cpg/sg2_104_cif.got.tgz:207588.got - 2010.06.03 11:33:40.
