data_PCOD9083006
_publ_section_title
;
Structure prediction by ZEFSAII (Michael W. Deem and Ramdas Pophale) SiO2 
 PCOD9083006
Probable space group: P -1
;
_chemical_formula_sum "Si O2"
_cell_formula_units_Z 16
_cell_length_a 19.886117
_cell_length_b 8.013871
_cell_length_c 28.750046
_cell_angle_alpha 119.836756
_cell_angle_beta 10.753187
_cell_angle_gamma 119.564730
_cell_volume 741.240493
_symmetry_space_group_name_H-M "P -1"
_symmetry_group_IT_number 2
_symmetry_cell_setting 'triclinic'
loop_
_space_group_symop_operation_xyz
x,y,z
-x,-y,-z
loop_
_atom_site_type_symbol
_atom_site_label
_atom_site_fract_x
_atom_site_fract_y
_atom_site_fract_z
Si Si1 0.479713 0.141594 0.898969
Si Si2 0.597716 0.443735 0.978438
Si Si3 0.329616 0.377102 0.514323
Si Si4 0.907584 0.202971 0.860935
Si Si5 0.233356 0.064094 0.415293
Si Si6 0.133302 0.720321 0.933568
Si Si7 0.150888 0.313912 0.345796
Si Si8 0.656321 0.801755 0.346849
O O1 0.369781 0.351260 0.988791
O O2 0.851685 0.157274 0.676814
O O3 0.589001 0.013383 0.763368
O O4 0.161102 0.028334 0.126910
O O5 0.276142 0.339022 0.210822
O O6 0.500000 0.500000 0.000000
O O7 0.974190 0.342244 0.718236
O O8 0.691476 0.275144 0.236259
O O9 0.411509 0.606958 0.488338
O O10 0.201765 0.295733 0.639426
O O11 0.028967 0.248031 0.836989
O O12 0.516862 0.272779 0.120147
O O13 0.517122 0.209889 0.265298
O O14 0.124660 0.867801 0.489053
O O15 0.000000 0.500000 0.000000
O O16 0.813575 0.831691 0.191954
O O17 0.000000 0.500000 0.500000
O O18 0.500000 0.000000 0.500000
#
# Coordination Sequence:
#
# PCOD9083006 Si02
#       8
#     2   2   2   2   2   2   2   2
#     4  10  19  33  60  90 116 159 205 247 310 370
#     4  11  22  36  57  89 128 162 201 254 317 377
#     4  10  23  39  58  88 128 160 207 259 312 372
#     4  10  21  37  60  90 123 160 205 258 310 369
#     4  10  19  35  60  86 123 157 205 256 306 365
#     4  10  22  39  59  87 119 161 205 252 309 365
#     4  10  21  36  59  95 127 160 208 258 309 374
#     4  11  22  40  66  88 114 166 217 257 309 370
#
# _framework density 21.585435
#
# number of rings (size 3 to 8) (size 9 to 14) (size 15 to 20)
#    0.000    1.750    2.500    1.875    0.000    2.000 
#    0.000    4.375    0.000    1.500    0.000    0.000 
#    0.000    0.000    0.000    0.000    0.000    0.000 
#
# Total GULP energy -89151.817862 kJ/mol
# GULP energy per Si atom -5571.988616 kJ/mol
# Density = 2.153631 g / cm^3
# Si number density = 21.585435 Si / 1000 Ang^3
#
#
#
# Elastic Constant Matrix: (Units=GPa)
#
#
# Indices 1 2 3 4 5 6 
#
# 1 62.1901 19.7203 22.4450 -16.0548 11.1570 -5.2473
# 2 19.7203 67.2111 52.0128 -16.6955 20.0723 5.6524
# 3 22.4450 52.0128 99.7516 -25.3597 33.4315 -1.6243
# 4 -16.0548 -16.6955 -25.3597 45.5349 5.6859 4.7112
# 5 11.1570 20.0723 33.4315 5.6859 38.8570 -10.8914
# 6 -5.2473 5.6524 -1.6243 4.7112 -10.8914 32.4519
#
#
#
# Elastic Compliance Matrix: (Units=1/GPa)
#
#
# Indices 1 2 3 4 5 6 
#
# 1 0.019588 -0.003135 0.000762 0.006753 -0.005378 0.000966
# 2 -0.003135 0.028289 -0.009621 0.006062 -0.009082 -0.009844
# 3 0.000762 -0.009621 0.025277 0.014017 -0.020707 -0.005920
# 4 0.006753 0.006062 0.014017 0.039154 -0.026764 -0.013929
# 5 -0.005378 -0.009082 -0.020707 -0.026764 0.060382 0.023826
# 6 0.000966 -0.009844 -0.005920 -0.013929 0.023826 0.042408
#
#
# Mechanical properties :
#
#
# Convention : Reuss Voigt Hill
#
# Bulk Modulus (GPa) = 20.33850 46.38991 33.36420
# Shear Modulus (GPa) = 19.57136 32.36707 25.96922
#
# Velocity S-wave (km/s) = 3.01440 3.87652 3.47232
# Velocity P-wave (km/s) = 4.64309 6.44783 5.61840
#
# Compressibility (1/GPa) = 0.04916784
#
# Stress axis : x y z
#
# Youngs Moduli (GPa) = 51.05045 35.34885 39.56163
#
# Poissons Ratio (x) = 0.11081 -0.03014
# Poissons Ratio (y) = 0.16002 0.38062
# Poissons Ratio (z) = -0.03890 0.34009
#
# Static dielectric constant tensor:
#      x y z
#    x 1.821370 0.004430 0.025490 
#    y 0.004430 1.796270 -0.005640 
#    z 0.025490 -0.005640 1.860890 
# 
# From -- ./inp_files/216667.got.cif
#   From: 2010.05.17/outbox.cif.g08.bks.cpg/sg2_109_cif.got.tgz:216667.got - 2010.06.03 11:33:40.
