data_PCOD9083833
_publ_section_title
;
Structure prediction by ZEFSAII (Michael W. Deem and Ramdas Pophale) SiO2 
 PCOD9083833
Probable space group: P -1
;
_chemical_formula_sum "Si O2"
_cell_formula_units_Z 16
_cell_length_a 9.662955
_cell_length_b 15.255309
_cell_length_c 11.511327
_cell_angle_alpha 133.206187
_cell_angle_beta 119.955815
_cell_angle_gamma 39.031480
_cell_volume 776.957249
_symmetry_space_group_name_H-M "P -1"
_symmetry_group_IT_number 2
_symmetry_cell_setting 'triclinic'
loop_
_space_group_symop_operation_xyz
x,y,z
-x,-y,-z
loop_
_atom_site_type_symbol
_atom_site_label
_atom_site_fract_x
_atom_site_fract_y
_atom_site_fract_z
Si Si1 0.028641 0.007410 0.153926
Si Si2 0.328896 0.474991 0.886533
Si Si3 0.675309 0.927658 0.668231
Si Si4 0.225782 0.591561 0.195142
Si Si5 0.191557 0.139751 0.595239
Si Si6 0.632067 0.387966 0.341996
Si Si7 0.240592 0.836285 0.298254
Si Si8 0.955347 0.388992 0.337577
O O1 0.246914 0.975966 0.216864
O O2 0.811193 0.192918 0.268936
O O3 0.090842 0.878989 0.161591
O O4 0.000000 0.000000 0.000000
O O5 0.503404 0.286386 0.742976
O O6 0.146548 0.575740 0.800865
O O7 0.500000 0.500000 0.000000
O O8 0.220944 0.519833 0.008235
O O9 0.763725 0.837540 0.496932
O O10 0.814442 0.797557 0.711924
O O11 0.417029 0.044755 0.672527
O O12 0.451013 0.443767 0.222020
O O13 0.230354 0.731793 0.289215
O O14 0.016259 0.689023 0.278843
O O15 0.161745 0.009334 0.461394
O O16 0.500000 0.500000 0.500000
O O17 0.777061 0.418570 0.374092
O O18 0.000000 0.500000 0.500000
#
# Coordination Sequence:
#
# PCOD9083833 Si02
#       8
#     2   2   2   2   2   2   2   2
#     4  10  21  36  59  84 117 154 200 242 300 363
#     4  10  20  36  59  89 121 158 199 250 307 357
#     4   9  21  36  59  81 119 160 198 242 306 362
#     4  11  21  35  62  88 119 156 203 252 301 356
#     4  10  20  39  57  86 118 158 199 248 300 364
#     4  11  22  39  61  92 122 156 205 262 304 353
#     4  10  19  34  58  86 112 156 197 240 295 360
#     4  11  21  38  62  91 122 163 207 249 303 375
#
# _framework density 20.593154999999999
#
# number of rings (size 3 to 8) (size 9 to 14) (size 15 to 20)
#    0.000    1.750    2.500    4.125    5.250    0.000 
#    0.000    1.875    0.000   12.000    0.000    0.000 
#    0.000    0.000    0.000    0.000    0.000    0.000 
#
# Total GULP energy -89234.676985 kJ/mol
# GULP energy per Si atom -5577.167312 kJ/mol
# Density = 2.054628 g / cm^3
# Si number density = 20.593155 Si / 1000 Ang^3
#
#
#
# Elastic Constant Matrix: (Units=GPa)
#
#
# Indices 1 2 3 4 5 6 
#
# 1 31.5107 23.3175 9.9141 -3.7261 -1.7886 -20.8877
# 2 23.3175 140.7675 16.3194 -30.7065 1.0443 -13.1761
# 3 9.9141 16.3194 58.6384 -14.5185 -6.8141 -17.2070
# 4 -3.7261 -30.7065 -14.5185 41.1090 -8.2836 -0.1871
# 5 -1.7886 1.0443 -6.8141 -8.2836 18.3372 4.0711
# 6 -20.8877 -13.1761 -17.2070 -0.1871 4.0711 31.0262
#
#
#
# Elastic Compliance Matrix: (Units=1/GPa)
#
#
# Indices 1 2 3 4 5 6 
#
# 1 0.063649 -0.006499 0.004091 0.002517 -0.000177 0.042398
# 2 -0.006499 0.009665 0.000367 0.007219 0.002285 -0.000323
# 3 0.004091 0.000367 0.025074 0.011922 0.011672 0.015357
# 4 0.002517 0.007219 0.011922 0.038123 0.019478 0.009047
# 5 -0.000177 0.002285 0.011672 0.019478 0.067847 -0.001460
# 6 0.042398 -0.000323 0.015357 0.009047 -0.001460 0.069400
#
#
# Mechanical properties :
#
#
# Convention : Reuss Voigt Hill
#
# Bulk Modulus (GPa) = 10.60348 36.66875 23.63612
# Shear Modulus (GPa) = 16.16679 30.18552 23.17616
#
# Velocity S-wave (km/s) = 2.80493 3.83274 3.35838
# Velocity P-wave (km/s) = 3.95605 6.11812 5.15178
#
# Compressibility (1/GPa) = 0.09430863
#
# Stress axis : x y z
#
# Youngs Moduli (GPa) = 15.71104 103.46211 39.88134
#
# Poissons Ratio (x) = 0.67236 -0.16317
# Poissons Ratio (y) = 0.10210 -0.01463
# Poissons Ratio (z) = -0.06428 -0.03796
#
# Static dielectric constant tensor:
#      x y z
#    x 1.753710 -0.002510 -0.035630 
#    y -0.002510 1.632710 -0.152770 
#    z -0.035630 -0.152770 1.700880 
# 
# From -- ./inp_files/436912.got.cif
#   From: 2010.05.17/outbox.cif.g08.bks.cpg/sg2_219_cif.got.tgz:436912.got - 2010.06.03 11:33:40.
