data_PCOD9083681
_publ_section_title
;
Structure prediction by ZEFSAII (Michael W. Deem and Ramdas Pophale) SiO2 
 PCOD9083681
Probable space group: P -1
;
_chemical_formula_sum "Si O2"
_cell_formula_units_Z 14
_cell_length_a 7.747819
_cell_length_b 11.796478
_cell_length_c 8.945099
_cell_angle_alpha 95.560287
_cell_angle_beta 48.809933
_cell_angle_gamma 75.433309
_cell_volume 555.431573
_symmetry_space_group_name_H-M "P -1"
_symmetry_group_IT_number 2
_symmetry_cell_setting 'triclinic'
loop_
_space_group_symop_operation_xyz
x,y,z
-x,-y,-z
loop_
_atom_site_type_symbol
_atom_site_label
_atom_site_fract_x
_atom_site_fract_y
_atom_site_fract_z
Si Si1 0.815004 0.796197 0.007979
Si Si2 0.652792 0.870642 0.775715
Si Si3 0.802699 0.614953 0.536563
Si Si4 0.358998 0.951404 0.450147
Si Si5 0.895998 0.124866 0.901021
Si Si6 0.650908 0.406205 0.034198
Si Si7 0.232873 0.516092 0.728832
O O1 0.718845 0.858209 0.910131
O O2 0.010528 0.653982 0.844940
O O3 0.969396 0.858998 0.021834
O O4 0.571089 0.816648 0.255769
O O5 0.826733 0.738883 0.584074
O O6 0.687500 0.972441 0.667416
O O7 0.366210 0.884534 0.923746
O O8 0.541695 0.623061 0.753342
O O9 0.823425 0.585533 0.346039
O O10 0.000000 0.500000 0.500000
O O11 0.085125 0.000962 0.688466
O O12 0.500000 0.000000 0.500000
O O13 0.835339 0.260642 0.871479
O O14 0.744399 0.484453 0.105622
O O15 0.500000 0.500000 0.000000
O O16 0.500000 0.500000 0.500000
#
# Coordination Sequence:
#
# PCOD9083681 Si02
#       7
#     2   2   2   2   2   2   2
#     4  10  20  39  62  89 121 160 207 251 301 368
#     4  11  22  40  66  90 121 164 205 249 307 366
#     4  10  19  34  57  86 114 151 197 239 297 361
#     4  10  23  41  63  91 122 161 207 255 303 361
#     4   9  22  41  59  89 126 158 203 254 306 357
#     4   9  19  34  56  84 118 154 194 246 302 355
#     4   9  18  35  58  85 119 155 197 250 301 363
#
# _framework density 25.205624
#
# number of rings (size 3 to 8) (size 9 to 14) (size 15 to 20)
#    0.000    2.286    1.429    1.286    2.000    2.857 
#    0.000    9.286    0.000    0.000    0.000    0.000 
#    0.000    0.000    0.000    0.000    0.000    0.000 
#
# Total GULP energy -78204.871550 kJ/mol
# GULP energy per Si atom -5586.062254 kJ/mol
# Density = 2.514825 g / cm^3
# Si number density = 25.205624 Si / 1000 Ang^3
#
#
#
# Elastic Constant Matrix: (Units=GPa)
#
#
# Indices 1 2 3 4 5 6 
#
# 1 93.5054 14.4690 16.1118 -7.8077 21.3083 -22.1922
# 2 14.4690 68.0231 28.5991 17.7412 8.2703 -15.9130
# 3 16.1118 28.5991 165.0151 13.6468 -1.5022 -1.5292
# 4 -7.8077 17.7412 13.6468 46.7648 -4.5990 5.8029
# 5 21.3083 8.2703 -1.5022 -4.5990 47.7869 -1.6190
# 6 -22.1922 -15.9130 -1.5292 5.8029 -1.6190 38.7872
#
#
#
# Elastic Compliance Matrix: (Units=1/GPa)
#
#
# Indices 1 2 3 4 5 6 
#
# 1 0.014246 -0.000310 -0.001438 0.001398 -0.005955 0.007510
# 2 -0.000310 0.020943 -0.002826 -0.008747 -0.004097 0.009441
# 3 -0.001438 -0.002826 0.006755 -0.000829 0.001210 -0.001541
# 4 0.001398 -0.008747 -0.000829 0.026311 0.003172 -0.006625
# 5 -0.005955 -0.004097 0.001210 0.003172 0.024482 -0.004493
# 6 0.007510 0.009441 -0.001541 -0.006625 -0.004493 0.034695
#
#
# Mechanical properties :
#
#
# Convention : Reuss Voigt Hill
#
# Bulk Modulus (GPa) = 30.48941 49.43372 39.96157
# Shear Modulus (GPa) = 33.89574 44.49203 39.19389
#
# Velocity S-wave (km/s) = 3.67109 4.20594 3.94758
# Velocity P-wave (km/s) = 5.48559 6.57582 6.05529
#
# Compressibility (1/GPa) = 0.03279827
#
# Stress axis : x y z
#
# Youngs Moduli (GPa) = 70.19371 47.74910 148.02828
#
# Poissons Ratio (x) = 0.01479 0.21280
# Poissons Ratio (y) = 0.02174 0.41831
# Poissons Ratio (z) = 0.10091 0.13493
#
# Static dielectric constant tensor:
#      x y z
#    x 2.042520 0.056840 -0.036200 
#    y 0.056840 1.982370 0.007360 
#    z -0.036200 0.007360 1.994710 
# 
# From -- ./inp_files/202403.got.cif
#   From: 2010.05.17/outbox.cif.g08.bks.cpg/sg2_102_cif.got.tgz:202403.got - 2010.06.03 11:33:40.
