data_PCOD9083072
_publ_section_title
;
Structure prediction by ZEFSAII (Michael W. Deem and Ramdas Pophale) SiO2 
 PCOD9083072
Probable space group: P -1
;
_chemical_formula_sum "Si O2"
_cell_formula_units_Z 16
_cell_length_a 8.223278
_cell_length_b 7.763477
_cell_length_c 16.267769
_cell_angle_alpha 111.424180
_cell_angle_beta 86.171651
_cell_angle_gamma 51.079545
_cell_volume 686.381745
_symmetry_space_group_name_H-M "P -1"
_symmetry_group_IT_number 2
_symmetry_cell_setting 'triclinic'
loop_
_space_group_symop_operation_xyz
x,y,z
-x,-y,-z
loop_
_atom_site_type_symbol
_atom_site_label
_atom_site_fract_x
_atom_site_fract_y
_atom_site_fract_z
Si Si1 0.685839 0.643277 0.986041
Si Si2 0.735425 0.523357 0.144758
Si Si3 0.221290 0.321302 0.403194
Si Si4 0.783684 0.077053 0.741482
Si Si5 0.714507 0.873187 0.322125
Si Si6 0.089583 0.776597 0.394568
Si Si7 0.107362 0.047219 0.823105
Si Si8 0.216785 0.020838 0.997286
O O1 0.732231 0.640756 0.080046
O O2 0.428469 0.776582 0.000736
O O3 0.737222 0.794987 0.966286
O O4 0.877816 0.350531 0.898153
O O5 0.474315 0.662567 0.178786
O O6 0.954042 0.215556 0.070698
O O7 0.762264 0.631537 0.242077
O O8 0.458825 0.097448 0.403189
O O9 0.242383 0.501031 0.387134
O O10 0.000000 0.500000 0.500000
O O11 0.210724 0.146820 0.315977
O O12 0.820278 0.174843 0.676446
O O13 0.991646 0.954233 0.775234
O O14 0.746904 0.977201 0.258613
O O15 0.890359 0.805690 0.370508
O O16 0.000000 0.000000 0.500000
O O17 0.237206 0.948058 0.888201
#
# Coordination Sequence:
#
# PCOD9083072 Si02
#       8
#     2   2   2   2   2   2   2   2
#     4  10  19  33  61  92 134 175 222 271 315 394
#     4  10  19  40  58  94 134 177 213 274 326 374
#     4  11  24  47  70  98 132 172 217 278 339 397
#     4  10  24  43  68  98 138 170 224 279 326 398
#     4  10  22  39  68  96 134 176 220 269 332 400
#     4  11  24  47  70  98 132 172 217 278 339 397
#     4  10  19  40  58  94 134 177 213 274 326 374
#     4  10  19  33  63  96 134 175 227 263 326 389
#
# _framework density 23.310642000000001
#
# number of rings (size 3 to 8) (size 9 to 14) (size 15 to 20)
#    0.000    1.750    3.750    0.750    0.000    7.000 
#    0.000    7.500    0.000    0.000    0.000    0.000 
#    0.000    0.000    0.000    0.000    0.000    0.000 
#
# Total GULP energy -89402.034712 kJ/mol
# GULP energy per Si atom -5587.627169 kJ/mol
# Density = 2.325759 g / cm^3
# Si number density = 23.310642 Si / 1000 Ang^3
#
#
#
# Elastic Constant Matrix: (Units=GPa)
#
#
# Indices 1 2 3 4 5 6 
#
# 1 45.9906 5.7215 15.2692 9.0489 -0.1994 -3.8516
# 2 5.7215 78.4762 30.0356 10.3789 2.7391 0.2460
# 3 15.2692 30.0356 81.5428 15.9126 -6.5903 -11.8744
# 4 9.0489 10.3789 15.9126 29.5676 -2.4845 1.8728
# 5 -0.1994 2.7391 -6.5903 -2.4845 45.9953 8.7937
# 6 -3.8516 0.2460 -11.8744 1.8728 8.7937 43.5161
#
#
#
# Elastic Compliance Matrix: (Units=1/GPa)
#
#
# Indices 1 2 3 4 5 6 
#
# 1 0.024103 0.000324 -0.003319 -0.005897 -0.001032 0.001688
# 2 0.000324 0.015205 -0.005452 -0.002568 -0.001612 -0.001109
# 3 -0.003319 -0.005452 0.016873 -0.006291 0.001567 0.004295
# 4 -0.005897 -0.002568 -0.006291 0.040382 0.002252 -0.004417
# 5 -0.001032 -0.001612 0.001567 0.002252 0.023021 -0.004404
# 6 0.001688 -0.001109 0.004295 -0.004417 -0.004404 0.025388
#
#
# Mechanical properties :
#
#
# Convention : Reuss Voigt Hill
#
# Bulk Modulus (GPa) = 25.45453 34.22913 29.84183
# Shear Modulus (GPa) = 28.57773 34.14802 31.36287
#
# Velocity S-wave (km/s) = 3.50516 3.83157 3.67199
# Velocity P-wave (km/s) = 5.22732 5.85580 5.55046
#
# Compressibility (1/GPa) = 0.03928573
#
# Stress axis : x y z
#
# Youngs Moduli (GPa) = 41.48939 65.76744 59.26579
#
# Poissons Ratio (x) = -0.02130 0.19672
# Poissons Ratio (y) = -0.01344 0.32312
# Poissons Ratio (z) = 0.13772 0.35856
#
# Static dielectric constant tensor:
#      x y z
#    x 1.964230 0.033870 0.009020 
#    y 0.033870 1.903650 -0.004290 
#    z 0.009020 -0.004290 1.859180 
# 
# From -- ./inp_files/557465.got.cif
#   From: 2010.05.17/outbox.cif.g08.bks.cpg/sg2_279_cif.got.tgz:557465.got - 2010.06.03 11:33:40.
