data_PCOD9083989
_publ_section_title
;
Structure prediction by ZEFSAII (Michael W. Deem and Ramdas Pophale) SiO2 
 PCOD9083989
Probable space group: P -1
;
_chemical_formula_sum "Si O2"
_cell_formula_units_Z 15
_cell_length_a 13.482927
_cell_length_b 12.093695
_cell_length_c 7.819250
_cell_angle_alpha 95.715381
_cell_angle_beta 99.839283
_cell_angle_gamma 30.821768
_cell_volume 640.843830
_symmetry_space_group_name_H-M "P -1"
_symmetry_group_IT_number 2
_symmetry_cell_setting 'triclinic'
loop_
_space_group_symop_operation_xyz
x,y,z
-x,-y,-z
loop_
_atom_site_type_symbol
_atom_site_label
_atom_site_fract_x
_atom_site_fract_y
_atom_site_fract_z
Si Si1 0.000000 0.500000 0.500000
Si Si2 0.606673 0.461950 0.186047
Si Si3 0.092439 0.741387 0.991797
Si Si4 0.521656 0.026452 0.778851
Si Si5 0.358349 0.289467 0.435359
Si Si6 0.349867 0.878587 0.024460
Si Si7 0.901574 0.522172 0.122783
Si Si8 0.443276 0.420854 0.286389
O O1 0.138041 0.472365 0.460230
O O2 0.967689 0.597480 0.685913
O O3 0.826430 0.276373 0.158148
O O4 0.494774 0.684866 0.176174
O O5 0.565188 0.420464 0.325059
O O6 0.500000 0.500000 0.000000
O O7 0.130658 0.573274 0.958008
O O8 0.230969 0.648013 0.174116
O O9 0.864173 0.970173 0.993084
O O10 0.492303 0.111869 0.598156
O O11 0.649178 0.991296 0.920549
O O12 0.304169 0.231694 0.830136
O O13 0.595815 0.832332 0.734601
O O14 0.404415 0.373100 0.420729
O O15 0.435946 0.766125 0.848025
O O16 0.000000 0.500000 0.000000
#
# Coordination Sequence:
#
# PCOD9083989 Si02
#       8
#     1   2   2   2   2   2   2   2
#     4  10  22  36  56  82 120 158 190 250 302 350
#     4   8  18  35  55  84 118 149 196 244 297 350
#     4  10  19  34  59  88 116 153 194 244 301 352
#     4  10  21  39  58  81 120 157 195 240 309 361
#     4  10  22  39  57  83 118 158 192 250 302 356
#     4  10  19  34  61  83 115 154 189 244 294 362
#     4  11  21  35  58  89 121 155 205 245 298 370
#     4  10  21  37  58  88 115 149 204 246 292 357
#
# _framework density 23.406639999999999
#
# number of rings (size 3 to 8) (size 9 to 14) (size 15 to 20)
#    0.000    2.400    2.667    1.600    1.867    5.333 
#    2.400    0.667    0.000    0.800    0.000    0.000 
#    0.000    0.000    0.000    0.000    0.000    0.000 
#
# Total GULP energy -83522.208152 kJ/mol
# GULP energy per Si atom -5568.147210 kJ/mol
# Density = 2.335337 g / cm^3
# Si number density = 23.406640 Si / 1000 Ang^3
#
#
#
# Elastic Constant Matrix: (Units=GPa)
#
#
# Indices 1 2 3 4 5 6 
#
# 1 155.9458 23.5570 17.4309 0.0636 -48.4108 3.4855
# 2 23.5570 65.9430 9.0585 10.1908 -17.1497 -16.9165
# 3 17.4309 9.0585 52.6887 12.2621 -26.8941 3.3678
# 4 0.0636 10.1908 12.2621 22.6164 2.1330 -0.9259
# 5 -48.4108 -17.1497 -26.8941 2.1330 45.5572 6.7469
# 6 3.4855 -16.9165 3.3678 -0.9259 6.7469 49.0734
#
#
#
# Elastic Compliance Matrix: (Units=1/GPa)
#
#
# Indices 1 2 3 4 5 6 
#
# 1 0.010652 -0.000971 0.005410 -0.004074 0.014869 -0.003584
# 2 -0.000971 0.020445 0.003488 -0.011674 0.008457 0.005495
# 3 0.005410 0.003488 0.040120 -0.026740 0.033032 -0.006981
# 4 -0.004074 -0.011674 -0.026740 0.066768 -0.028113 0.003225
# 5 0.014869 0.008457 0.033032 -0.028113 0.063175 -0.009624
# 6 -0.003584 0.005495 -0.006981 0.003225 -0.009624 0.024389
#
#
# Mechanical properties :
#
#
# Convention : Reuss Voigt Hill
#
# Bulk Modulus (GPa) = 11.48489 41.63005 26.55747
# Shear Modulus (GPa) = 20.94503 38.41813 29.68158
#
# Velocity S-wave (km/s) = 2.99462 4.05573 3.56488
# Velocity P-wave (km/s) = 4.10784 6.30525 5.32121
#
# Compressibility (1/GPa) = 0.08707094
#
# Stress axis : x y z
#
# Youngs Moduli (GPa) = 93.87878 48.91125 24.92528
#
# Poissons Ratio (x) = 0.04750 -0.13484
# Poissons Ratio (y) = 0.09117 -0.08695
# Poissons Ratio (z) = -0.50786 -0.17062
#
# Static dielectric constant tensor:
#      x y z
#    x 1.864500 0.068960 0.035850 
#    y 0.068960 1.873080 -0.063010 
#    z 0.035850 -0.063010 1.967190 
# 
# From -- ./inp_files/254238.got.cif
#   From: 2010.05.17/outbox.cif.g08.bks.cpg/sg2_128_cif.got.tgz:254238.got - 2010.06.03 11:33:40.
