data_PCOD9083334
_publ_section_title
;
Structure prediction by ZEFSAII (Michael W. Deem and Ramdas Pophale) SiO2 
 PCOD9083334
Probable space group: P -1
;
_chemical_formula_sum "Si O2"
_cell_formula_units_Z 12
_cell_length_a 17.364514
_cell_length_b 7.221396
_cell_length_c 8.617950
_cell_angle_alpha 53.827357
_cell_angle_beta 32.368571
_cell_angle_gamma 56.578560
_cell_volume 463.595469
_symmetry_space_group_name_H-M "P -1"
_symmetry_group_IT_number 2
_symmetry_cell_setting 'triclinic'
loop_
_space_group_symop_operation_xyz
x,y,z
-x,-y,-z
loop_
_atom_site_type_symbol
_atom_site_label
_atom_site_fract_x
_atom_site_fract_y
_atom_site_fract_z
Si Si1 0.469070 0.120240 0.687671
Si Si2 0.169625 0.638457 0.824052
Si Si3 0.344489 0.500522 0.908397
Si Si4 0.078551 0.615264 0.514722
Si Si5 0.271386 0.173903 0.723431
Si Si6 0.960625 0.013454 0.331977
O O1 0.416457 0.241866 0.876519
O O2 0.534927 0.324928 0.376748
O O3 0.332902 0.076825 0.835167
O O4 0.597396 0.911185 0.573259
O O5 0.261513 0.590562 0.846157
O O6 0.230752 0.446350 0.687579
O O7 0.146470 0.894520 0.668296
O O8 0.009919 0.574691 0.167602
O O9 0.232309 0.526372 0.225561
O O10 0.086295 0.813715 0.531586
O O11 0.974341 0.750786 0.493395
O O12 0.126194 0.059948 0.993193
#
# Coordination Sequence:
#
# PCOD9083334 Si02
#       6
#     2   2   2   2   2   2
#     4   9  18  31  55  80 109 149 190 217 264 332
#     4  10  21  35  59  86 113 139 178 234 284 321
#     4  10  19  34  54  86 111 144 185 227 275 323
#     4  10  19  34  56  87 110 143 184 223 278 326
#     4   9  16  33  54  81 104 147 189 216 264 332
#     4  10  20  35  59  86 110 142 182 230 278 326
#
# _framework density 25.884636
#
# number of rings (size 3 to 8) (size 9 to 14) (size 15 to 20)
#    0.000    2.333    1.667    2.500    0.000    0.667 
#    0.000    0.000    0.000   20.000    0.000    0.000 
#    0.000    0.000    0.000    0.000    0.000    0.000 
#
# Total GULP energy -67181.388985 kJ/mol
# GULP energy per Si atom -5598.449082 kJ/mol
# Density = 2.582572 g / cm^3
# Si number density = 25.884636 Si / 1000 Ang^3
#
#
#
# Elastic Constant Matrix: (Units=GPa)
#
#
# Indices 1 2 3 4 5 6 
#
# 1 61.3090 14.2515 14.6325 -0.4352 -7.0758 -6.3507
# 2 14.2515 127.5930 60.8961 36.0758 21.1821 -5.8638
# 3 14.6325 60.8961 92.6377 43.6237 -6.3528 -13.4257
# 4 -0.4352 36.0758 43.6237 59.8717 7.3366 8.9054
# 5 -7.0758 21.1821 -6.3528 7.3366 22.9400 4.4449
# 6 -6.3507 -5.8638 -13.4257 8.9054 4.4449 31.9245
#
#
#
# Elastic Compliance Matrix: (Units=1/GPa)
#
#
# Indices 1 2 3 4 5 6 
#
# 1 0.018310 -0.003433 -0.000619 0.001498 0.007929 0.001230
# 2 -0.003433 0.017752 -0.013661 0.002000 -0.021738 -0.000698
# 3 -0.000619 -0.013661 0.033991 -0.021836 0.026084 0.014122
# 4 0.001498 0.002000 -0.021836 0.035770 -0.015711 -0.016308
# 5 0.007929 -0.021738 0.026084 -0.015711 0.077955 0.002083
# 6 0.001230 -0.000698 0.014122 -0.016308 0.002083 0.041638
#
#
# Mechanical properties :
#
#
# Convention : Reuss Voigt Hill
#
# Bulk Modulus (GPa) = 28.87921 51.23331 40.05626
# Shear Modulus (GPa) = 18.35652 35.73121 27.04387
#
# Velocity S-wave (km/s) = 2.66591 3.71941 3.23582
# Velocity P-wave (km/s) = 4.54502 6.18718 5.42856
#
# Compressibility (1/GPa) = 0.03462699
#
# Stress axis : x y z
#
# Youngs Moduli (GPa) = 54.61598 56.33145 29.41980
#
# Poissons Ratio (x) = 0.19339 0.01820
# Poissons Ratio (y) = 0.18750 0.40190
# Poissons Ratio (z) = 0.03380 0.76953
#
# Static dielectric constant tensor:
#      x y z
#    x 2.088290 0.023740 0.018740 
#    y 0.023740 2.037860 0.047910 
#    z 0.018740 0.047910 2.005600 
# 
# From -- ./inp_files/147285.got.cif
#   From: 2010.05.17/outbox.cif.g08.bks.cpg/sg2_74_cif.got.tgz:147285.got - 2010.06.03 11:33:40.
