data_PCOD9083545
_publ_section_title
;
Structure prediction by ZEFSAII (Michael W. Deem and Ramdas Pophale) SiO2 
 PCOD9083545
Probable space group: P -1
;
_chemical_formula_sum "Si O2"
_cell_formula_units_Z 16
_cell_length_a 22.289360
_cell_length_b 13.974775
_cell_length_c 16.330343
_cell_angle_alpha 154.795042
_cell_angle_beta 157.040320
_cell_angle_gamma 30.580221
_cell_volume 833.084175
_symmetry_space_group_name_H-M "P -1"
_symmetry_group_IT_number 2
_symmetry_cell_setting 'triclinic'
loop_
_space_group_symop_operation_xyz
x,y,z
-x,-y,-z
loop_
_atom_site_type_symbol
_atom_site_label
_atom_site_fract_x
_atom_site_fract_y
_atom_site_fract_z
Si Si1 0.500881 0.406367 0.042004
Si Si2 0.685979 0.724970 0.431482
Si Si3 0.731043 0.329599 0.770841
Si Si4 0.698077 0.132815 0.413348
Si Si5 0.050135 0.602975 0.775122
Si Si6 0.768063 0.160821 0.940687
Si Si7 0.501346 0.277903 0.128472
Si Si8 0.918570 0.896693 0.618030
O O1 0.438347 0.236204 0.768360
O O2 0.356460 0.617309 0.025575
O O3 0.641442 0.514448 0.263941
O O4 0.533688 0.312505 0.101112
O O5 0.865825 0.663840 0.583239
O O6 0.681293 0.950591 0.653273
O O7 0.677922 0.334776 0.613007
O O8 0.601224 0.487292 0.783424
O O9 0.792116 0.055075 0.639213
O O10 0.888148 0.413132 0.066251
O O11 0.649123 0.219995 0.329598
O O12 0.872398 0.006025 0.555624
O O13 0.593543 0.935059 0.147697
O O14 0.137629 0.781753 0.977042
O O15 0.103722 0.362650 0.612100
O O16 0.905682 0.099470 0.131896
#
# Coordination Sequence:
#
# PCOD9083545 Si02
#       8
#     2   2   2   2   2   2   2   2
#     4  11  25  39  57  83 127 154 188 231 284 363
#     4  11  25  39  55  87 119 162 186 227 297 346
#     4  10  19  34  56  87 112 144 185 244 286 334
#     4   9  21  33  56  89 117 141 194 242 285 335
#     4  12  21  34  61  87 116 146 196 245 284 335
#     4  12  22  36  61  86 113 150 196 244 283 341
#     4  11  20  37  56  83 120 154 185 237 288 338
#     4  10  21  33  55  88 114 142 185 248 287 329
#
# _framework density 19.205742000000001
#
# number of rings (size 3 to 8) (size 9 to 14) (size 15 to 20)
#    0.750    0.500    5.000    1.500    3.500    0.000 
#    0.000    0.000    0.000    3.750    0.000    0.000 
#    0.000    0.000    0.000    0.000    0.000    0.000 
#
# Total GULP energy -89105.860591 kJ/mol
# GULP energy per Si atom -5569.116287 kJ/mol
# Density = 1.916203 g / cm^3
# Si number density = 19.205742 Si / 1000 Ang^3
#
#
#
# Elastic Constant Matrix: (Units=GPa)
#
#
# Indices 1 2 3 4 5 6 
#
# 1 52.8644 25.5596 27.3117 -9.4318 -7.7697 24.4381
# 2 25.5596 85.9431 34.1039 -21.1776 -8.5833 20.4668
# 3 27.3117 34.1039 117.5957 -13.6294 -26.9004 18.3243
# 4 -9.4318 -21.1776 -13.6294 31.9409 3.4483 -14.5735
# 5 -7.7697 -8.5833 -26.9004 3.4483 31.9255 -8.7381
# 6 24.4381 20.4668 18.3243 -14.5735 -8.7381 28.9691
#
#
#
# Elastic Compliance Matrix: (Units=1/GPa)
#
#
# Indices 1 2 3 4 5 6 
#
# 1 0.033970 -0.003876 -0.003878 -0.006472 -0.002896 -0.027594
# 2 -0.003876 0.016286 -0.002594 0.007173 -0.000374 -0.003100
# 3 -0.003878 -0.002594 0.012217 0.001829 0.008708 0.000923
# 4 -0.006472 0.007173 0.001829 0.045014 0.003293 0.022873
# 5 -0.002896 -0.000374 0.008708 0.003293 0.040532 0.011082
# 6 -0.027594 -0.003100 0.000923 0.022873 0.011082 0.074253
#
#
# Mechanical properties :
#
#
# Convention : Reuss Voigt Hill
#
# Bulk Modulus (GPa) = 23.93719 47.81706 35.87713
# Shear Modulus (GPa) = 19.46330 29.86229 24.66279
#
# Velocity S-wave (km/s) = 3.18686 3.94745 3.58737
# Velocity P-wave (km/s) = 5.10217 6.76224 5.98999
#
# Compressibility (1/GPa) = 0.04177599
#
# Stress axis : x y z
#
# Youngs Moduli (GPa) = 29.43774 61.40217 81.85503
#
# Poissons Ratio (x) = 0.23802 0.31744
# Poissons Ratio (y) = 0.11411 0.21233
# Poissons Ratio (z) = 0.11416 0.15928
#
# Static dielectric constant tensor:
#      x y z
#    x 1.712230 0.010520 -0.048440 
#    y 0.010520 1.721650 -0.007960 
#    z -0.048440 -0.007960 1.693140 
# 
# From -- ./inp_files/540907.got.cif
#   From: 2010.05.17/outbox.cif.g08.bks.cpg/sg2_271_cif.got.tgz:540907.got - 2010.06.03 11:33:40.
