data_PCOD9083889
_publ_section_title
;
Structure prediction by ZEFSAII (Michael W. Deem and Ramdas Pophale) SiO2 
 PCOD9083889
Probable space group: P -1
;
_chemical_formula_sum "Si O2"
_cell_formula_units_Z 14
_cell_length_a 12.836635
_cell_length_b 12.432750
_cell_length_c 8.952132
_cell_angle_alpha 129.660733
_cell_angle_beta 32.570769
_cell_angle_gamma 128.196133
_cell_volume 580.832959
_symmetry_space_group_name_H-M "P -1"
_symmetry_group_IT_number 2
_symmetry_cell_setting 'triclinic'
loop_
_space_group_symop_operation_xyz
x,y,z
-x,-y,-z
loop_
_atom_site_type_symbol
_atom_site_label
_atom_site_fract_x
_atom_site_fract_y
_atom_site_fract_z
Si Si1 0.282531 0.742887 0.033520
Si Si2 0.603516 0.852777 0.546104
Si Si3 0.771239 0.591130 0.258296
Si Si4 0.025777 0.939904 0.578477
Si Si5 0.723533 0.814567 0.053309
Si Si6 0.479307 0.365609 0.121705
Si Si7 0.113296 0.407222 0.176684
O O1 0.394058 0.851393 0.872989
O O2 0.266735 0.580917 0.855191
O O3 0.418898 0.752131 0.023270
O O4 0.075811 0.783306 0.356392
O O5 0.655805 0.703380 0.413471
O O6 0.781085 0.969215 0.497879
O O7 0.601631 0.861133 0.377892
O O8 0.699576 0.613317 0.533692
O O9 0.952726 0.615103 0.938163
O O10 0.839348 0.930082 0.902539
O O11 0.000000 0.000000 0.500000
O O12 0.596162 0.692633 0.997749
O O13 0.885650 0.742767 0.880371
O O14 0.659504 0.501330 0.018025
O O15 0.000000 0.500000 0.500000
#
# Coordination Sequence:
#
# PCOD9083889 Si02
#       7
#     2   2   2   2   2   2   2
#     4  10  20  40  65  88 117 157 201 250 303 361
#     4  10  21  40  63  89 122 158 199 251 303 355
#     4   9  18  37  64  89 117 154 196 243 299 358
#     4  12  25  42  60  86 121 164 206 249 301 365
#     4  11  22  38  59  87 123 162 201 248 300 358
#     4  10  19  37  63  92 122 159 198 245 304 365
#     4  10  19  34  58  91 125 156 195 250 304 350
#
# _framework density 24.103316
#
# number of rings (size 3 to 8) (size 9 to 14) (size 15 to 20)
#    0.000    1.714    0.000    9.429    0.000    0.000 
#    0.000   16.429    0.000    0.000    0.000    0.000 
#    0.000    0.000    0.000    0.000    0.000    0.000 
#
# Total GULP energy -77989.954798 kJ/mol
# GULP energy per Si atom -5570.711057 kJ/mol
# Density = 2.404846 g / cm^3
# Si number density = 24.103316 Si / 1000 Ang^3
#
#
#
# Elastic Constant Matrix: (Units=GPa)
#
#
# Indices 1 2 3 4 5 6 
#
# 1 71.5306 28.4800 40.0559 -3.4248 33.2444 0.6973
# 2 28.4800 67.9609 13.7121 -11.0312 7.6978 0.9985
# 3 40.0559 13.7121 105.5515 -11.2516 34.5856 -2.1880
# 4 -3.4248 -11.0312 -11.2516 33.5834 -16.6725 7.8513
# 5 33.2444 7.6978 34.5856 -16.6725 35.6967 -1.4892
# 6 0.6973 0.9985 -2.1880 7.8513 -1.4892 31.9632
#
#
#
# Elastic Compliance Matrix: (Units=1/GPa)
#
#
# Indices 1 2 3 4 5 6 
#
# 1 0.039996 -0.015476 -0.001352 -0.023899 -0.043624 0.003356
# 2 -0.015476 0.021888 -0.001248 0.014700 0.017633 -0.003221
# 3 -0.001352 -0.001248 0.014335 -0.002752 -0.013601 0.001092
# 4 -0.023899 0.014700 -0.002752 0.058107 0.048387 -0.012145
# 5 -0.043624 0.017633 -0.013601 0.048387 0.100292 -0.007743
# 6 0.003356 -0.003221 0.001092 -0.012145 -0.007743 0.034011
#
#
# Mechanical properties :
#
#
# Convention : Reuss Voigt Hill
#
# Bulk Modulus (GPa) = 24.95782 45.50435 35.23108
# Shear Modulus (GPa) = 15.71663 31.10167 23.40915
#
# Velocity S-wave (km/s) = 2.55630 3.59604 3.11979
# Velocity P-wave (km/s) = 4.36920 6.01347 5.25603
#
# Compressibility (1/GPa) = 0.04006760
#
# Stress axis : x y z
#
# Youngs Moduli (GPa) = 25.00239 45.68810 69.76002
#
# Poissons Ratio (x) = 0.70705 0.09430
# Poissons Ratio (y) = 0.38693 0.08707
# Poissons Ratio (z) = 0.03380 0.05702
#
# Static dielectric constant tensor:
#      x y z
#    x 2.040490 0.023060 0.038930 
#    y 0.023060 1.955260 0.004950 
#    z 0.038930 0.004950 1.977500 
# 
# From -- ./inp_files/315784.got.cif
#   From: 2010.05.17/outbox.cif.g08.bks.cpg/sg2_158_cif.got.tgz:315784.got - 2010.06.03 11:33:40.
