data_PCOD9083954
_publ_section_title
;
Structure prediction by ZEFSAII (Michael W. Deem and Ramdas Pophale) SiO2 
 PCOD9083954
Probable space group: P -1
;
_chemical_formula_sum "Si O2"
_cell_formula_units_Z 16
_cell_length_a 17.555156
_cell_length_b 13.402757
_cell_length_c 11.186756
_cell_angle_alpha 136.027666
_cell_angle_beta 154.254337
_cell_angle_gamma 33.439840
_cell_volume 624.403430
_symmetry_space_group_name_H-M "P -1"
_symmetry_group_IT_number 2
_symmetry_cell_setting 'triclinic'
loop_
_space_group_symop_operation_xyz
x,y,z
-x,-y,-z
loop_
_atom_site_type_symbol
_atom_site_label
_atom_site_fract_x
_atom_site_fract_y
_atom_site_fract_z
Si Si1 0.110131 0.832830 0.776564
Si Si2 0.935436 0.228705 0.867907
Si Si3 0.796503 0.397157 0.063565
Si Si4 0.234173 0.312091 0.136982
Si Si5 0.587679 0.045955 0.272024
Si Si6 0.701371 0.728337 0.308431
Si Si7 0.650982 0.784547 0.540092
Si Si8 0.072440 0.798033 0.429275
O O1 0.226879 0.695244 0.934369
O O2 0.171284 0.734048 0.648234
O O3 0.841763 0.953888 0.523727
O O4 0.111402 0.005675 0.928237
O O5 0.819026 0.282651 0.619011
O O6 0.094949 0.286728 0.150839
O O7 0.795056 0.312534 0.863717
O O8 0.655895 0.615929 0.061928
O O9 0.044100 0.342961 0.384993
O O10 0.404476 0.259887 0.225992
O O11 0.382442 0.269890 0.427331
O O12 0.000000 0.500000 0.000000
O O13 0.140084 0.200044 0.876088
O O14 0.586839 0.933802 0.284548
O O15 0.500000 0.000000 0.000000
O O16 0.633219 0.709848 0.327709
O O17 0.500000 0.000000 0.500000
O O18 0.000000 0.000000 0.500000
#
# Coordination Sequence:
#
# PCOD9083954 Si02
#       8
#     2   2   2   2   2   2   2   2
#     4  10  19  34  59  85 115 154 197 240 299 356
#     4   9  19  34  56  84 116 157 193 238 298 361
#     4   9  18  32  56  83 112 146 190 240 290 354
#     4  11  23  36  60  90 118 154 201 250 296 357
#     4  11  21  35  58  86 117 151 196 247 295 351
#     4   9  19  33  55  82 113 149 188 240 298 344
#     4  10  19  36  60  80 112 152 196 239 294 351
#     4   9  19  36  57  79 116 155 195 232 296 361
#
# _framework density 25.624459000000002
#
# number of rings (size 3 to 8) (size 9 to 14) (size 15 to 20)
#    0.000    2.250    2.500    0.375    1.750    3.000 
#    0.000    0.000    2.750    5.250    0.000    0.000 
#    0.000    0.000    0.000    0.000    0.000    0.000 
#
# Total GULP energy -89170.017359 kJ/mol
# GULP energy per Si atom -5573.126085 kJ/mol
# Density = 2.556614 g / cm^3
# Si number density = 25.624459 Si / 1000 Ang^3
#
#
#
# Elastic Constant Matrix: (Units=GPa)
#
#
# Indices 1 2 3 4 5 6 
#
# 1 118.6779 21.5021 52.5277 8.6975 -56.2901 -0.0955
# 2 21.5021 53.7027 18.0007 6.5639 -2.4554 -13.7275
# 3 52.5277 18.0007 95.7198 18.3817 -10.0616 -10.0011
# 4 8.6975 6.5639 18.3817 29.3115 -7.7693 -3.0120
# 5 -56.2901 -2.4554 -10.0616 -7.7693 55.3114 7.7349
# 6 -0.0955 -13.7275 -10.0011 -3.0120 7.7349 27.8695
#
#
#
# Elastic Compliance Matrix: (Units=1/GPa)
#
#
# Indices 1 2 3 4 5 6 
#
# 1 0.034755 -0.013340 -0.017069 0.010765 0.036185 -0.021457
# 2 -0.013340 0.027518 0.003753 -0.006695 -0.015178 0.018344
# 3 -0.017069 0.003753 0.020986 -0.012101 -0.016862 0.012693
# 4 0.010765 -0.006695 -0.012101 0.043392 0.015564 -0.007234
# 5 0.036185 -0.015178 -0.016862 0.015564 0.057210 -0.027599
# 6 -0.021457 0.018344 0.012693 -0.007234 -0.027599 0.056277
#
#
# Mechanical properties :
#
#
# Convention : Reuss Voigt Hill
#
# Bulk Modulus (GPa) = 33.39391 50.24017 41.81704
# Shear Modulus (GPa) = 16.47810 34.23649 25.35729
#
# Velocity S-wave (km/s) = 2.53862 3.65922 3.14916
# Velocity P-wave (km/s) = 4.65329 6.12389 5.43853
#
# Compressibility (1/GPa) = 0.02994558
#
# Stress axis : x y z
#
# Youngs Moduli (GPa) = 28.77283 36.33983 47.65069
#
# Poissons Ratio (x) = 0.48478 0.81336
# Poissons Ratio (y) = 0.38384 -0.17882
# Poissons Ratio (z) = 0.49113 -0.13637
#
# Static dielectric constant tensor:
#      x y z
#    x 2.148200 0.017050 -0.002710 
#    y 0.017050 2.185140 -0.032800 
#    z -0.002710 -0.032800 1.985480 
# 
# From -- ./inp_files/279960.got.cif
#   From: 2010.05.17/outbox.cif.g08.bks.cpg/sg2_140_cif.got.tgz:279960.got - 2010.06.03 11:33:40.
