data_PCOD9083364
_publ_section_title
;
Structure prediction by ZEFSAII (Michael W. Deem and Ramdas Pophale) SiO2 
 PCOD9083364
Probable space group: P -1
;
_chemical_formula_sum "Si O2"
_cell_formula_units_Z 14
_cell_length_a 11.735379
_cell_length_b 15.312087
_cell_length_c 16.092738
_cell_angle_alpha 24.080408
_cell_angle_beta 136.047631
_cell_angle_gamma 149.884369
_cell_volume 556.513700
_symmetry_space_group_name_H-M "P -1"
_symmetry_group_IT_number 2
_symmetry_cell_setting 'triclinic'
loop_
_space_group_symop_operation_xyz
x,y,z
-x,-y,-z
loop_
_atom_site_type_symbol
_atom_site_label
_atom_site_fract_x
_atom_site_fract_y
_atom_site_fract_z
Si Si1 0.182989 0.802860 0.210531
Si Si2 0.280202 0.535278 0.816138
Si Si3 0.017167 0.853298 0.840302
Si Si4 0.244215 0.993369 0.256163
Si Si5 0.738590 0.671774 0.303533
Si Si6 0.240577 0.286485 0.329301
Si Si7 0.594753 0.087249 0.068356
O O1 0.893448 0.511183 0.299717
O O2 0.280312 0.908904 0.262218
O O3 0.355567 0.819380 0.230633
O O4 0.220310 0.080534 0.949998
O O5 0.552343 0.862304 0.694546
O O6 0.288657 0.292988 0.006078
O O7 0.131962 0.404119 0.940375
O O8 0.179468 0.856423 0.865268
O O9 0.824271 0.784697 0.740021
O O10 0.205307 0.185963 0.698347
O O11 0.956165 0.717624 0.361374
O O12 0.464689 0.353709 0.415429
O O13 0.310071 0.592954 0.127963
O O14 0.000000 0.000000 0.500000
O O15 0.500000 0.000000 0.000000
#
# Coordination Sequence:
#
# PCOD9083364 Si02
#       7
#     2   2   2   2   2   2   2
#     4   9  16  26  46  72 106 129 165 213 260 299
#     4   9  15  25  45  73 103 129 167 208 265 305
#     4  10  19  34  55  77 107 140 170 217 267 305
#     4   9  16  25  42  72 104 133 161 213 263 299
#     4   9  18  32  48  71 111 133 170 216 266 300
#     4  11  23  35  53  80 107 140 179 211 259 318
#     4  11  18  37  54  78 112 137 170 220 262 306
#
# _framework density 25.156614000000001
#
# number of rings (size 3 to 8) (size 9 to 14) (size 15 to 20)
#    0.000    2.571    4.286    3.857    0.000    2.857 
#    0.000    0.000    0.000    0.000    0.000    5.000 
#    0.000    0.000    0.000    0.000    0.000    0.000 
#
# Total GULP energy -78292.972127 kJ/mol
# GULP energy per Si atom -5592.355152 kJ/mol
# Density = 2.509936 g / cm^3
# Si number density = 25.156614 Si / 1000 Ang^3
#
#
#
# Elastic Constant Matrix: (Units=GPa)
#
#
# Indices 1 2 3 4 5 6 
#
# 1 119.1711 38.3026 3.8490 -6.2039 3.9490 12.2353
# 2 38.3026 204.0215 24.3561 -13.0907 14.1810 15.1872
# 3 3.8490 24.3561 49.1961 -22.7747 1.3937 11.5179
# 4 -6.2039 -13.0907 -22.7747 48.4096 17.0700 -2.7603
# 5 3.9490 14.1810 1.3937 17.0700 26.0889 0.7521
# 6 12.2353 15.1872 11.5179 -2.7603 0.7521 52.7084
#
#
#
# Elastic Compliance Matrix: (Units=1/GPa)
#
#
# Indices 1 2 3 4 5 6 
#
# 1 0.009188 -0.001494 0.001459 0.002034 -0.001933 -0.001887
# 2 -0.001494 0.005855 -0.001463 0.002160 -0.004267 -0.000847
# 3 0.001459 -0.001463 0.031395 0.018946 -0.013338 -0.005595
# 4 0.002034 0.002160 0.018946 0.040444 -0.028879 -0.002704
# 5 -0.001933 -0.004267 -0.013338 -0.028879 0.060486 0.002217
# 6 -0.001887 -0.000847 -0.005595 -0.002704 0.002217 0.020704
#
#
# Mechanical properties :
#
#
# Convention : Reuss Voigt Hill
#
# Bulk Modulus (GPa) = 23.01876 56.15603 39.58740
# Shear Modulus (GPa) = 26.94719 45.83343 36.39031
#
# Velocity S-wave (km/s) = 3.27643 4.27303 3.80748
# Velocity P-wave (km/s) = 4.84597 6.83492 5.92450
#
# Compressibility (1/GPa) = 0.04344282
#
# Stress axis : x y z
#
# Youngs Moduli (GPa) = 108.83799 170.80324 31.85188
#
# Poissons Ratio (x) = 0.25514 -0.04647
# Poissons Ratio (y) = 0.16258 0.04659
# Poissons Ratio (z) = -0.15877 0.24982
#
# Static dielectric constant tensor:
#      x y z
#    x 1.937450 0.053990 -0.023700 
#    y 0.053990 1.974390 0.027880 
#    z -0.023700 0.027880 2.200520 
# 
# From -- ./inp_files/296681.got.cif
#   From: 2010.05.17/outbox.cif.g08.bks.cpg/sg2_149_cif.got.tgz:296681.got - 2010.06.03 11:33:40.
