data_PCOD9083828
_publ_section_title
;
Structure prediction by ZEFSAII (Michael W. Deem and Ramdas Pophale) SiO2 
 PCOD9083828
Probable space group: P -1
;
_chemical_formula_sum "Si O2"
_cell_formula_units_Z 16
_cell_length_a 18.688076
_cell_length_b 8.927080
_cell_length_c 19.764474
_cell_angle_alpha 139.355705
_cell_angle_beta 23.119044
_cell_angle_gamma 142.149531
_cell_volume 787.118403
_symmetry_space_group_name_H-M "P -1"
_symmetry_group_IT_number 2
_symmetry_cell_setting 'triclinic'
loop_
_space_group_symop_operation_xyz
x,y,z
-x,-y,-z
loop_
_atom_site_type_symbol
_atom_site_label
_atom_site_fract_x
_atom_site_fract_y
_atom_site_fract_z
Si Si1 0.417698 0.301649 0.321120
Si Si2 0.814274 0.346337 0.169386
Si Si3 0.832051 0.399176 0.950497
Si Si4 0.977477 0.007037 0.367958
Si Si5 0.604478 0.234132 0.444247
Si Si6 0.113962 0.275805 0.466977
Si Si7 0.012724 0.665100 0.768699
Si Si8 0.963325 0.885907 0.186706
O O1 0.243737 0.104365 0.447973
O O2 0.480298 0.554443 0.395459
O O3 0.319590 0.344673 0.350695
O O4 0.615461 0.259599 0.118433
O O5 0.640929 0.210706 0.325325
O O6 0.019337 0.436089 0.065153
O O7 0.809107 0.608723 0.238956
O O8 0.847614 0.175266 0.023411
O O9 0.923259 0.198489 0.778192
O O10 0.828899 0.567478 0.945781
O O11 0.980149 0.025841 0.291260
O O12 0.099358 0.240752 0.387165
O O13 0.817517 0.331088 0.326091
O O14 0.500000 0.000000 0.500000
O O15 0.012948 0.465352 0.644031
O O16 0.000000 0.000000 0.500000
O O17 0.064021 0.932858 0.783897
#
# Coordination Sequence:
#
# PCOD9083828 Si02
#       8
#     2   2   2   2   2   2   2   2
#     4  10  19  34  58  86 106 142 192 231 277 328
#     4   9  20  39  53  77 120 155 177 228 280 327
#     4  10  19  34  60  82 110 143 189 229 277 328
#     4  10  19  41  56  79 117 146 185 234 275 335
#     4  10  20  35  55  83 114 144 185 240 272 321
#     4   9  17  37  60  80 112 140 184 248 278 313
#     4  10  20  35  55  88 108 143 194 227 279 336
#     4  10  20  35  57  77 113 158 184 216 284 341
#
# _framework density 20.327310000000001
#
# number of rings (size 3 to 8) (size 9 to 14) (size 15 to 20)
#    0.000    2.250    6.250    0.000    3.500    2.000 
#    0.000    5.000    0.000    0.750    0.000    0.000 
#    0.000    0.000    0.000    0.000    0.000    0.000 
#
# Total GULP energy -89077.079462 kJ/mol
# GULP energy per Si atom -5567.317466 kJ/mol
# Density = 2.028104 g / cm^3
# Si number density = 20.327310 Si / 1000 Ang^3
#
#
#
# Elastic Constant Matrix: (Units=GPa)
#
#
# Indices 1 2 3 4 5 6 
#
# 1 76.6150 9.7161 31.9076 -0.4719 16.9785 -4.7198
# 2 9.7161 53.9866 29.0276 -2.1156 4.4917 -18.8805
# 3 31.9076 29.0276 88.4781 -16.9410 12.3048 0.2593
# 4 -0.4719 -2.1156 -16.9410 22.8516 -3.1509 0.9112
# 5 16.9785 4.4917 12.3048 -3.1509 28.9302 0.6982
# 6 -4.7198 -18.8805 0.2593 0.9112 0.6982 32.7542
#
#
#
# Elastic Compliance Matrix: (Units=1/GPa)
#
#
# Indices 1 2 3 4 5 6 
#
# 1 0.017933 0.002855 -0.007414 -0.006234 -0.008605 0.004646
# 2 0.002855 0.031103 -0.012338 -0.007299 -0.002503 0.018695
# 3 -0.007414 -0.012338 0.020936 0.014456 -0.000853 -0.008730
# 4 -0.006234 -0.007299 0.014456 0.054602 0.004755 -0.006840
# 5 -0.008605 -0.002503 -0.000853 0.004755 0.040974 -0.003682
# 6 0.004646 0.018695 -0.008730 -0.006840 -0.003682 0.042314
#
#
# Mechanical properties :
#
#
# Convention : Reuss Voigt Hill
#
# Bulk Modulus (GPa) = 27.64110 40.04248 33.84179
# Shear Modulus (GPa) = 19.70712 26.80242 23.25477
#
# Velocity S-wave (km/s) = 3.11704 3.63511 3.38600
# Velocity P-wave (km/s) = 5.15579 6.11231 5.65431
#
# Compressibility (1/GPa) = 0.03617802
#
# Stress axis : x y z
#
# Youngs Moduli (GPa) = 55.76389 32.15076 47.76457
#
# Poissons Ratio (x) = -0.09181 0.35414
# Poissons Ratio (y) = -0.15923 0.58933
# Poissons Ratio (z) = 0.41345 0.39669
#
# Static dielectric constant tensor:
#      x y z
#    x 1.811380 -0.016400 0.034090 
#    y -0.016400 1.762280 -0.038360 
#    z 0.034090 -0.038360 1.816580 
# 
# From -- ./inp_files/220285.got.cif
#   From: 2010.05.17/outbox.cif.g08.bks.cpg/sg2_111_cif.got.tgz:220285.got - 2010.06.03 11:33:40.
