data_PCOD9083537
_publ_section_title
;
Structure prediction by ZEFSAII (Michael W. Deem and Ramdas Pophale) SiO2 
 PCOD9083537
Probable space group: P -1
;
_chemical_formula_sum "Si O2"
_cell_formula_units_Z 16
_cell_length_a 19.710226
_cell_length_b 12.300092
_cell_length_c 15.002966
_cell_angle_alpha 28.721568
_cell_angle_beta 151.367402
_cell_angle_gamma 133.807521
_cell_volume 788.743986
_symmetry_space_group_name_H-M "P -1"
_symmetry_group_IT_number 2
_symmetry_cell_setting 'triclinic'
loop_
_space_group_symop_operation_xyz
x,y,z
-x,-y,-z
loop_
_atom_site_type_symbol
_atom_site_label
_atom_site_fract_x
_atom_site_fract_y
_atom_site_fract_z
Si Si1 0.404789 0.345020 0.964421
Si Si2 0.659356 0.494693 0.420195
Si Si3 0.320605 0.091343 0.732432
Si Si4 0.067677 0.648985 0.406167
Si Si5 0.515061 0.182567 0.582578
Si Si6 0.011161 0.807389 0.030866
Si Si7 0.780703 0.693586 0.723162
Si Si8 0.669255 0.295055 0.838364
O O1 0.408295 0.352326 0.855559
O O2 0.236479 0.482398 0.701691
O O3 0.500000 0.500000 0.000000
O O4 0.459784 0.068699 0.256050
O O5 0.712621 0.660295 0.430776
O O6 0.537271 0.390260 0.397084
O O7 0.810464 0.280682 0.719835
O O8 0.256761 0.129443 0.531984
O O9 0.500000 0.000000 0.000000
O O10 0.288264 0.887544 0.899508
O O11 0.000000 0.500000 0.500000
O O12 0.055860 0.904642 0.251264
O O13 0.990716 0.713868 0.173448
O O14 0.358334 0.245235 0.410581
O O15 0.649875 0.151010 0.832596
O O16 0.924959 0.702146 0.935378
O O17 0.784104 0.440395 0.866896
O O18 0.500000 0.500000 0.500000
#
# Coordination Sequence:
#
# PCOD9083537 Si02
#       8
#     2   2   2   2   2   2   2   2
#     4  11  23  38  62  93 116 150 207 258 299 350
#     4  11  23  39  61  85 124 163 193 247 305 354
#     4  12  19  36  61  86 122 160 199 240 303 350
#     4  10  22  43  66  82 120 165 198 248 309 359
#     4  11  20  37  61  88 120 155 200 249 298 350
#     4  10  24  42  59  90 123 159 203 246 301 358
#     4  11  22  37  61  91 123 160 204 244 289 364
#     4  10  19  34  56  86 117 156 191 240 295 352
#
# _framework density 20.285416999999999
#
# number of rings (size 3 to 8) (size 9 to 14) (size 15 to 20)
#    0.000    1.250    5.000    2.250    0.000    3.000 
#    0.000    0.625    0.000    0.000    0.000    0.000 
#    0.000    0.000    0.000    0.000    0.000    0.000 
#
# Total GULP energy -89325.889839 kJ/mol
# GULP energy per Si atom -5582.868115 kJ/mol
# Density = 2.023925 g / cm^3
# Si number density = 20.285417 Si / 1000 Ang^3
#
#
#
# Elastic Constant Matrix: (Units=GPa)
#
#
# Indices 1 2 3 4 5 6 
#
# 1 89.8441 9.8083 23.5754 -7.0587 -22.8977 11.6974
# 2 9.8083 95.2941 12.0245 -0.6209 -13.3067 1.2288
# 3 23.5754 12.0245 33.3878 -17.9696 -11.4885 11.4202
# 4 -7.0587 -0.6209 -17.9696 35.5534 -1.1258 -2.7516
# 5 -22.8977 -13.3067 -11.4885 -1.1258 25.9788 -14.3206
# 6 11.6974 1.2288 11.4202 -2.7516 -14.3206 22.2854
#
#
#
# Elastic Compliance Matrix: (Units=1/GPa)
#
#
# Indices 1 2 3 4 5 6 
#
# 1 0.016161 0.001307 -0.009227 -0.000644 0.013398 0.004704
# 2 0.001307 0.012160 -0.005451 -0.001481 0.008667 0.006823
# 3 -0.009227 -0.005451 0.062933 0.028708 0.007993 -0.018426
# 4 -0.000644 -0.001481 0.028708 0.042827 0.012794 -0.000783
# 5 0.013398 0.008667 0.007993 0.012794 0.082542 0.043015
# 6 0.004704 0.006823 -0.018426 -0.000783 0.043015 0.079014
#
#
# Mechanical properties :
#
#
# Convention : Reuss Voigt Hill
#
# Bulk Modulus (GPa) = 15.50111 34.37137 24.93624
# Shear Modulus (GPa) = 14.53983 28.30470 21.42226
#
# Velocity S-wave (km/s) = 2.68015 3.73945 3.25321
# Velocity P-wave (km/s) = 4.15159 5.96870 5.14106
#
# Compressibility (1/GPa) = 0.06451151
#
# Stress axis : x y z
#
# Youngs Moduli (GPa) = 61.87907 82.23880 15.88983
#
# Poissons Ratio (x) = -0.10749 0.14662
# Poissons Ratio (y) = -0.08088 0.08661
# Poissons Ratio (z) = 0.57099 0.44825
#
# Static dielectric constant tensor:
#      x y z
#    x 1.672150 -0.211280 0.197220 
#    y -0.211280 1.465840 0.229490 
#    z 0.197220 0.229490 1.450580 
# 
# From -- ./inp_files/541061.got.cif
#   From: 2010.05.17/outbox.cif.g08.bks.cpg/sg2_271_cif.got.tgz:541061.got - 2010.06.03 11:33:40.
