data_PCOD9083346
_publ_section_title
;
Structure prediction by ZEFSAII (Michael W. Deem and Ramdas Pophale) SiO2 
 PCOD9083346
Probable space group: P -1
;
_chemical_formula_sum "Si O2"
_cell_formula_units_Z 16
_cell_length_a 9.184519
_cell_length_b 5.563366
_cell_length_c 14.604966
_cell_angle_alpha 122.051481
_cell_angle_beta 89.247614
_cell_angle_gamma 101.187669
_cell_volume 616.863344
_symmetry_space_group_name_H-M "P -1"
_symmetry_group_IT_number 2
_symmetry_cell_setting 'triclinic'
loop_
_space_group_symop_operation_xyz
x,y,z
-x,-y,-z
loop_
_atom_site_type_symbol
_atom_site_label
_atom_site_fract_x
_atom_site_fract_y
_atom_site_fract_z
Si Si1 0.597669 0.236940 0.186467
Si Si2 0.383190 0.684925 0.077984
Si Si3 0.907018 0.778174 0.850189
Si Si4 0.301561 0.955428 0.327804
Si Si5 0.847429 0.328539 0.055882
Si Si6 0.625760 0.488578 0.663538
Si Si7 0.150388 0.862633 0.725526
Si Si8 0.033596 0.172798 0.628041
O O1 0.721409 0.351432 0.134557
O O2 0.527023 0.477072 0.282322
O O3 0.681513 0.073419 0.226309
O O4 0.458641 0.002545 0.101851
O O5 0.353194 0.782357 0.203490
O O6 0.500000 0.500000 0.000000
O O7 0.221056 0.553826 0.009498
O O8 0.772215 0.635684 0.754796
O O9 0.997585 0.590403 0.874018
O O10 0.038025 0.956972 0.819090
O O11 0.847671 0.998909 0.960316
O O12 0.366819 0.843557 0.396555
O O13 0.124956 0.881708 0.329459
O O14 0.353751 0.298986 0.379849
O O15 0.096240 0.508886 0.664203
O O16 0.133332 0.017204 0.661805
O O17 0.000000 0.000000 0.500000
#
# Coordination Sequence:
#
# PCOD9083346 Si02
#       8
#     2   2   2   2   2   2   2   2
#     4  10  23  37  61  90 138 174 217 260 324 381
#     4  11  22  35  59  95 131 184 218 263 309 378
#     4  10  19  35  60  87 126 172 213 268 307 364
#     4  11  22  40  65  91 126 163 219 260 321 376
#     4  10  19  34  54  88 128 167 231 258 300 359
#     4  11  21  40  63  87 123 177 209 255 323 373
#     4  11  24  43  66  98 131 163 210 268 332 388
#     4  12  24  44  74  99 123 160 214 274 333 393
#
# _framework density 25.937677000000001
#
# number of rings (size 3 to 8) (size 9 to 14) (size 15 to 20)
#    0.000    1.250    5.000    1.500    1.750    4.000 
#    0.000    0.625    0.000   10.500    0.000    0.000 
#    0.000    0.000    0.000    0.000    0.000    0.000 
#
# Total GULP energy -89311.243356 kJ/mol
# GULP energy per Si atom -5581.952710 kJ/mol
# Density = 2.587864 g / cm^3
# Si number density = 25.937677 Si / 1000 Ang^3
#
#
#
# Elastic Constant Matrix: (Units=GPa)
#
#
# Indices 1 2 3 4 5 6 
#
# 1 142.1439 24.7921 27.1944 -18.5018 -5.4916 -15.0144
# 2 24.7921 161.0832 29.3098 -19.3176 8.8809 -16.2097
# 3 27.1944 29.3098 68.8039 -9.5185 9.0383 5.5700
# 4 -18.5018 -19.3176 -9.5185 22.1234 -3.4037 5.7275
# 5 -5.4916 8.8809 9.0383 -3.4037 19.3977 -8.6134
# 6 -15.0144 -16.2097 5.5700 5.7275 -8.6134 45.2513
#
#
#
# Elastic Compliance Matrix: (Units=1/GPa)
#
#
# Indices 1 2 3 4 5 6 
#
# 1 0.009383 0.000081 -0.004243 0.006140 0.007598 0.004334
# 2 0.000081 0.007524 -0.002737 0.004801 -0.000235 0.002407
# 3 -0.004243 -0.002737 0.019948 0.002723 -0.012091 -0.007490
# 4 0.006140 0.004801 0.002723 0.057455 0.007256 -0.002469
# 5 0.007598 -0.000235 -0.012091 0.007256 0.067782 0.015908
# 6 0.004334 0.002407 -0.007490 -0.002469 0.015908 0.028661
#
#
# Mechanical properties :
#
#
# Convention : Reuss Voigt Hill
#
# Bulk Modulus (GPa) = 43.36776 59.40262 51.38519
# Shear Modulus (GPa) = 23.55845 36.73681 30.14763
#
# Velocity S-wave (km/s) = 3.01702 3.76752 3.41297
# Velocity P-wave (km/s) = 5.37521 6.47128 5.94854
#
# Compressibility (1/GPa) = 0.02305861
#
# Stress axis : x y z
#
# Youngs Moduli (GPa) = 106.57452 132.90022 50.12936
#
# Poissons Ratio (x) = -0.01081 0.21269
# Poissons Ratio (y) = -0.00867 0.13722
# Poissons Ratio (z) = 0.45218 0.36378
#
# Static dielectric constant tensor:
#      x y z
#    x 2.036890 0.016410 0.004440 
#    y 0.016410 2.199870 -0.014680 
#    z 0.004440 -0.014680 2.052230 
# 
# From -- ./inp_files/488668.got.cif
#   From: 2010.05.17/outbox.cif.g08.bks.cpg/sg2_245_cif.got.tgz:488668.got - 2010.06.03 11:33:40.
