data_PCOD9083752
_publ_section_title
;
Structure prediction by ZEFSAII (Michael W. Deem and Ramdas Pophale) SiO2 
 PCOD9083752
Probable space group: P -1
;
_chemical_formula_sum "Si O2"
_cell_formula_units_Z 14
_cell_length_a 8.705163
_cell_length_b 16.578730
_cell_length_c 5.521903
_cell_angle_alpha 67.149805
_cell_angle_beta 77.929561
_cell_angle_gamma 112.102166
_cell_volume 618.732420
_symmetry_space_group_name_H-M "P -1"
_symmetry_group_IT_number 2
_symmetry_cell_setting 'triclinic'
loop_
_space_group_symop_operation_xyz
x,y,z
-x,-y,-z
loop_
_atom_site_type_symbol
_atom_site_label
_atom_site_fract_x
_atom_site_fract_y
_atom_site_fract_z
Si Si1 0.619093 0.195406 0.296175
Si Si2 0.757974 0.042874 0.564478
Si Si3 0.507890 0.765838 0.196316
Si Si4 0.150997 0.969168 0.946489
Si Si5 0.987912 0.634040 0.921616
Si Si6 0.101004 0.205689 0.062473
Si Si7 0.145079 0.571819 0.561986
O O1 0.667934 0.110377 0.457643
O O2 0.521078 0.211343 0.543222
O O3 0.535385 0.179500 0.073509
O O4 0.816367 0.300981 0.084596
O O5 0.723461 0.002623 0.893650
O O6 0.979891 0.119542 0.401874
O O7 0.738170 0.982445 0.394272
O O8 0.353673 0.647878 0.343917
O O9 0.708903 0.784924 0.068103
O O10 0.037069 0.848484 0.057179
O O11 0.000000 0.000000 0.000000
O O12 0.867967 0.514295 0.150213
O O13 0.884248 0.692126 0.964512
O O14 0.062315 0.638429 0.621595
O O15 0.000000 0.500000 0.500000
#
# Coordination Sequence:
#
# PCOD9083752 Si02
#       7
#     2   2   2   2   2   2   2
#     4  10  20  36  58  81 113 155 198 227 278 345
#     4   9  20  36  61  86 110 153 195 229 276 350
#     4  11  22  35  56  85 119 151 188 243 289 327
#     4  10  20  37  64  91 113 146 191 238 282 342
#     4   9  19  37  54  83 109 155 201 234 277 343
#     4   9  23  35  59  87 118 148 190 239 295 335
#     4  10  19  34  58  78 113 155 199 237 277 334
#
# _framework density 22.626902999999999
#
# number of rings (size 3 to 8) (size 9 to 14) (size 15 to 20)
#    0.857    1.429    1.429    1.286    2.000    1.714 
#    0.000    0.714    0.000    5.143    0.000    0.000 
#    0.000    0.000    0.000    0.000    0.000    0.000 
#
# Total GULP energy -78048.409739 kJ/mol
# GULP energy per Si atom -5574.886410 kJ/mol
# Density = 2.257540 g / cm^3
# Si number density = 22.626903 Si / 1000 Ang^3
#
#
#
# Elastic Constant Matrix: (Units=GPa)
#
#
# Indices 1 2 3 4 5 6 
#
# 1 96.4281 34.9673 35.9356 12.0262 -9.0708 4.6903
# 2 34.9673 105.5992 18.4924 22.3267 7.5054 4.7095
# 3 35.9356 18.4924 92.7141 0.9872 7.3975 3.8480
# 4 12.0262 22.3267 0.9872 39.3871 7.3263 -1.5748
# 5 -9.0708 7.5054 7.3975 7.3263 39.2280 9.4808
# 6 4.6903 4.7095 3.8480 -1.5748 9.4808 40.4967
#
#
#
# Elastic Compliance Matrix: (Units=1/GPa)
#
#
# Indices 1 2 3 4 5 6 
#
# 1 0.014856 -0.003537 -0.005424 -0.003685 0.006412 -0.002438
# 2 -0.003537 0.012095 -0.000811 -0.005451 -0.001789 -0.000713
# 3 -0.005424 -0.000811 0.013337 0.002590 -0.004230 0.000546
# 4 -0.003685 -0.005451 0.002590 0.030981 -0.006966 0.003650
# 5 0.006412 -0.001789 -0.004230 -0.006966 0.031283 -0.007727
# 6 -0.002438 -0.000713 0.000546 0.003650 -0.007727 0.026958
#
#
# Mechanical properties :
#
#
# Convention : Reuss Voigt Hill
#
# Bulk Modulus (GPa) = 48.20784 52.61466 50.41125
# Shear Modulus (GPa) = 32.05795 37.51210 34.78503
#
# Velocity S-wave (km/s) = 3.76813 4.07609 3.92513
# Velocity P-wave (km/s) = 6.34693 6.74213 6.54751
#
# Compressibility (1/GPa) = 0.02074351
#
# Stress axis : x y z
#
# Youngs Moduli (GPa) = 67.31406 82.68178 74.97926
#
# Poissons Ratio (x) = 0.29247 0.40666
# Poissons Ratio (y) = 0.23811 0.06080
# Poissons Ratio (z) = 0.36509 0.06705
#
# Static dielectric constant tensor:
#      x y z
#    x 1.837350 0.052470 0.017770 
#    y 0.052470 1.901590 -0.009840 
#    z 0.017770 -0.009840 1.954670 
# 
# From -- ./inp_files/41728.got.cif
#   From: 2010.05.17/outbox.cif.g08.bks.cpg/sg2_21_cif.got.tgz:41728.got - 2010.06.03 11:33:40.
