data_PCOD9083868
_publ_section_title
;
Structure prediction by ZEFSAII (Michael W. Deem and Ramdas Pophale) SiO2 
 PCOD9083868
Probable space group: P -1
;
_chemical_formula_sum "Si O2"
_cell_formula_units_Z 16
_cell_length_a 12.851936
_cell_length_b 5.598922
_cell_length_c 14.467891
_cell_angle_alpha 90.000032
_cell_angle_beta 138.675122
_cell_angle_gamma 77.418685
_cell_volume 648.965144
_symmetry_space_group_name_H-M "P -1"
_symmetry_group_IT_number 2
_symmetry_cell_setting 'triclinic'
loop_
_space_group_symop_operation_xyz
x,y,z
-x,-y,-z
loop_
_atom_site_type_symbol
_atom_site_label
_atom_site_fract_x
_atom_site_fract_y
_atom_site_fract_z
Si Si1 0.650991 0.174504 0.913232
Si Si2 0.508716 0.245642 0.559533
Si Si3 0.892480 0.053760 0.833714
Si Si4 0.642383 0.678808 0.814608
Si Si5 0.263409 0.868296 0.624104
Si Si6 0.396653 0.801674 0.920751
Si Si7 0.897049 0.551475 0.835047
Si Si8 0.718333 0.640834 0.411997
O O1 0.699498 0.406091 0.902306
O O2 0.446929 0.276535 0.766157
O O3 0.699498 0.894410 0.902306
O O4 0.711235 0.144382 0.058319
O O5 0.500000 0.500000 0.500000
O O6 0.696207 0.151896 0.726200
O O7 0.367448 0.316276 0.544284
O O8 0.500000 0.000000 0.500000
O O9 0.924478 0.287355 0.804276
O O10 0.924478 0.788166 0.804276
O O11 0.000000 0.000000 0.000000
O O12 0.442378 0.778811 0.688527
O O13 0.714624 0.642688 0.760304
O O14 0.307760 0.846120 0.762357
O O15 0.186209 0.653547 0.543899
O O16 0.186209 0.160244 0.543899
O O17 0.500000 0.500000 0.000000
O O18 0.500000 0.000000 0.000000
O O19 0.000000 0.500000 0.000000
#
# Coordination Sequence:
#
# PCOD9083868 Si02
#       8
#     2   2   2   2   2   2   2   2
#     4  10  18  26  42  62  87 127 163 206 243 314
#     4  12  24  37  53  76 106 139 186 240 275 312
#     4  10  20  36  55  74  97 131 179 226 278 330
#     4  10  16  25  37  58  86 117 158 196 249 295
#     4  10  17  26  44  61  89 126 165 208 244 315
#     4  12  16  27  38  65  93 117 172 207 250 302
#     4  10  19  31  50  72  94 126 177 227 261 311
#     4  10  18  30  43  62  88 129 172 202 257 307
#
# _framework density 24.654640000000001
#
# number of rings (size 3 to 8) (size 9 to 14) (size 15 to 20)
#    0.000    1.500    5.000    5.250    0.000    0.000 
#    0.000    0.000    0.000    0.000    0.000    0.000 
#    0.000    0.000    0.000    0.000    0.000  870.000 
#
# Total GULP energy -89310.363633 kJ/mol
# GULP energy per Si atom -5581.897727 kJ/mol
# Density = 2.459852 g / cm^3
# Si number density = 24.654640 Si / 1000 Ang^3
#
#
#
# Elastic Constant Matrix: (Units=GPa)
#
#
# Indices 1 2 3 4 5 6 
#
# 1 30.3576 43.5645 12.6541 -4.0058 -18.0049 12.4824
# 2 43.5645 324.0143 32.6557 18.2481 -31.6641 47.5378
# 3 12.6541 32.6557 60.9230 1.7350 -6.8289 3.3408
# 4 -4.0058 18.2481 1.7350 27.2083 -2.2188 -18.0294
# 5 -18.0049 -31.6641 -6.8289 -2.2188 33.9347 -7.2021
# 6 12.4824 47.5378 3.3408 -18.0294 -7.2021 31.1536
#
#
#
# Elastic Compliance Matrix: (Units=1/GPa)
#
#
# Indices 1 2 3 4 5 6 
#
# 1 0.062825 -0.006101 -0.007222 0.016627 0.027461 0.000884
# 2 -0.006101 0.008832 -0.001677 -0.023371 -0.002141 -0.024872
# 3 -0.007222 -0.001677 0.018456 0.001672 -0.000664 0.004288
# 4 0.016627 -0.023371 0.001672 0.126750 0.018218 0.106385
# 5 0.027461 -0.002141 -0.000664 0.018218 0.045965 0.013504
# 6 0.000884 -0.024872 0.004288 0.106385 0.013504 0.133927
#
#
# Mechanical properties :
#
#
# Convention : Reuss Voigt Hill
#
# Bulk Modulus (GPa) = 16.63595 65.89369 41.26482
# Shear Modulus (GPa) = 11.19082 40.22070 25.70576
#
# Velocity S-wave (km/s) = 2.13281 4.04340 3.23249
# Velocity P-wave (km/s) = 3.58154 6.97018 5.54125
#
# Compressibility (1/GPa) = 0.06011077
#
# Stress axis : x y z
#
# Youngs Moduli (GPa) = 15.91723 113.22775 54.18241
#
# Poissons Ratio (x) = 0.69085 0.39133
# Poissons Ratio (y) = 0.09712 0.09087
# Poissons Ratio (z) = 0.11496 0.18990
#
# Static dielectric constant tensor:
#      x y z
#    x 1.980160 0.020570 0.070970 
#    y 0.020570 2.090180 -0.014020 
#    z 0.070970 -0.014020 2.119480 
# 
# From -- ./inp_files/118305.got.cif
#   From: 2010.05.17/outbox.cif.g08.bks.cpg/sg2_60_cif.got.tgz:118305.got - 2010.06.03 11:33:40.
