data_PCOD9083101
_publ_section_title
;
Structure prediction by ZEFSAII (Michael W. Deem and Ramdas Pophale) SiO2 
 PCOD9083101
Probable space group: P -1
;
_chemical_formula_sum "Si O2"
_cell_formula_units_Z 14
_cell_length_a 11.060597
_cell_length_b 16.270594
_cell_length_c 7.462049
_cell_angle_alpha 86.953670
_cell_angle_beta 127.574535
_cell_angle_gamma 54.863993
_cell_volume 680.521061
_symmetry_space_group_name_H-M "P -1"
_symmetry_group_IT_number 2
_symmetry_cell_setting 'triclinic'
loop_
_space_group_symop_operation_xyz
x,y,z
-x,-y,-z
loop_
_atom_site_type_symbol
_atom_site_label
_atom_site_fract_x
_atom_site_fract_y
_atom_site_fract_z
Si Si1 0.678158 0.987291 0.421328
Si Si2 0.273380 0.361912 0.263242
Si Si3 0.053880 0.852697 0.270326
Si Si4 0.558420 0.202268 0.205267
Si Si5 0.482230 0.898475 0.335621
Si Si6 0.800586 0.235119 0.210307
Si Si7 0.383937 0.631991 0.316824
O O1 0.619098 0.915920 0.357540
O O2 0.955715 0.889688 0.653352
O O3 0.553810 0.107908 0.171554
O O4 0.580592 0.049493 0.522453
O O5 0.339843 0.317266 0.119662
O O6 0.356516 0.249065 0.471145
O O7 0.429937 0.372851 0.473605
O O8 0.000000 0.500000 0.000000
O O9 0.220489 0.863842 0.453148
O O10 0.112120 0.775962 0.511392
O O11 0.150375 0.758380 0.203705
O O12 0.783880 0.994602 0.998908
O O13 0.622641 0.232705 0.091499
O O14 0.675262 0.348533 0.948966
O O15 0.500000 0.500000 0.500000
#
# Coordination Sequence:
#
# PCOD9083101 Si02
#       7
#     2   2   2   2   2   2   2
#     4  10  19  33  62  94 126 159 201 248 314 364
#     4  10  23  41  59  89 130 166 205 253 311 364
#     4   9  21  40  61  95 121 155 209 256 305 359
#     4   8  20  37  61  90 125 154 204 258 300 368
#     4  10  21  36  62  94 128 162 201 259 307 366
#     4  10  21  38  64  95 124 156 206 260 299 367
#     4  11  24  40  67  87 122 172 206 246 311 366
#
# _framework density 20.572471
#
# number of rings (size 3 to 8) (size 9 to 14) (size 15 to 20)
#    0.857    1.429    1.429    0.429    4.000    4.000 
#    0.000    0.714    0.000    0.000    0.000    0.000 
#    0.000    0.000    0.000    0.000    0.000    0.000 
#
# Total GULP energy -77942.717583 kJ/mol
# GULP energy per Si atom -5567.336970 kJ/mol
# Density = 2.052565 g / cm^3
# Si number density = 20.572471 Si / 1000 Ang^3
#
#
#
# Elastic Constant Matrix: (Units=GPa)
#
#
# Indices 1 2 3 4 5 6 
#
# 1 117.4469 48.0232 54.6579 -32.0260 -20.9060 0.6820
# 2 48.0232 65.9170 45.7083 -16.1008 -5.2365 7.5441
# 3 54.6579 45.7083 119.9247 -28.9616 -15.8196 -7.2756
# 4 -32.0260 -16.1008 -28.9616 27.2725 -13.6680 -4.6984
# 5 -20.9060 -5.2365 -15.8196 -13.6680 16.7691 -6.7956
# 6 0.6820 7.5441 -7.2756 -4.6984 -6.7956 26.9526
#
#
#
# Elastic Compliance Matrix: (Units=1/GPa)
#
#
# Indices 1 2 3 4 5 6 
#
# 1 0.005185 -0.002161 -0.009200 -0.017445 -0.021335 -0.010430
# 2 -0.002161 0.023468 -0.003082 0.013916 0.012337 -0.001810
# 3 -0.009200 -0.003082 0.007926 -0.013539 -0.017414 -0.003516
# 4 -0.017445 0.013916 -0.013539 -0.026012 -0.062479 -0.027396
# 5 -0.021335 0.012337 -0.017414 -0.062479 -0.042285 -0.029167
# 6 -0.010430 -0.001810 -0.003516 -0.027396 -0.029167 0.024794
#
#
# Mechanical properties :
#
#
# Convention : Reuss Voigt Hill
#
# Bulk Modulus (GPa) = 129.95262 66.67416 98.31339
# Shear Modulus (GPa) = 203.86990 24.52545 114.19767
#
# Velocity S-wave (km/s) = 9.96562 3.45650 7.45858
# Velocity P-wave (km/s) = 13.99012 6.95770 11.04837
#
# Compressibility (1/GPa) = 0.00769511
#
# Stress axis : x y z
#
# Youngs Moduli (GPa) = 192.85122 42.61178 126.16669
#
# Poissons Ratio (x) = 0.09206 1.16071
# Poissons Ratio (y) = 0.41666 0.38880
# Poissons Ratio (z) = 1.77419 0.13131
#
# Static dielectric constant tensor:
#      x y z
#    x 1.788360 -0.012220 -0.009980 
#    y -0.012220 1.753720 0.036970 
#    z -0.009980 0.036970 1.754220 
# 
# From -- ./inp_files/277859.got.cif
#   From: 2010.05.17/outbox.cif.g08.bks.cpg/sg2_139_cif.got.tgz:277859.got - 2010.06.03 11:33:40.
