data_PCOD9083295
_publ_section_title
;
Structure prediction by ZEFSAII (Michael W. Deem and Ramdas Pophale) SiO2 
 PCOD9083295
Probable space group: P -1
;
_chemical_formula_sum "Si O2"
_cell_formula_units_Z 14
_cell_length_a 13.137666
_cell_length_b 10.801012
_cell_length_c 19.582738
_cell_angle_alpha 28.896992
_cell_angle_beta 151.612836
_cell_angle_gamma 149.365579
_cell_volume 587.125582
_symmetry_space_group_name_H-M "P -1"
_symmetry_group_IT_number 2
_symmetry_cell_setting 'triclinic'
loop_
_space_group_symop_operation_xyz
x,y,z
-x,-y,-z
loop_
_atom_site_type_symbol
_atom_site_label
_atom_site_fract_x
_atom_site_fract_y
_atom_site_fract_z
Si Si1 0.359343 0.396160 0.375492
Si Si2 0.015720 0.359360 0.697168
Si Si3 0.273808 0.090682 0.613432
Si Si4 0.330193 0.183592 0.215816
Si Si5 0.455214 0.262636 0.006100
Si Si6 0.085920 0.708918 0.012752
Si Si7 0.190572 0.835638 0.477059
O O1 0.363662 0.232332 0.525334
O O2 0.601173 0.656457 0.381544
O O3 0.174471 0.541891 0.201092
O O4 0.276259 0.163002 0.381422
O O5 0.970711 0.256490 0.640037
O O6 0.082444 0.680533 0.560202
O O7 0.793126 0.151334 0.707943
O O8 0.232226 0.309399 0.882484
O O9 0.377076 0.856499 0.799256
O O10 0.000000 0.000000 0.500000
O O11 0.580631 0.227483 0.373086
O O12 0.395931 0.428425 0.081474
O O13 0.133311 0.237633 0.115666
O O14 0.309335 0.003771 0.992966
O O15 0.000000 0.500000 0.000000
#
# Coordination Sequence:
#
# PCOD9083295 Si02
#       7
#     2   2   2   2   2   2   2
#     4  10  21  37  59  84 113 145 186 235 280 326
#     4   9  19  35  57  83 117 146 176 225 280 336
#     4  10  21  38  58  80 109 148 193 237 276 323
#     4  10  19  34  54  79 114 149 179 219 272 332
#     4   9  19  35  55  79 108 146 187 228 277 327
#     4  10  20  35  56  85 116 145 180 227 282 338
#     4  10  20  36  58  87 114 146 184 225 280 339
#
# _framework density 23.844984
#
# number of rings (size 3 to 8) (size 9 to 14) (size 15 to 20)
#    0.000    2.286    0.000    3.000    0.000    2.857 
#    0.000   11.429    0.000   24.857    0.000    0.000 
#    0.000    0.000    0.000    0.000    0.000    0.000 
#
# Total GULP energy -77971.901638 kJ/mol
# GULP energy per Si atom -5569.421546 kJ/mol
# Density = 2.379071 g / cm^3
# Si number density = 23.844984 Si / 1000 Ang^3
#
#
#
# Elastic Constant Matrix: (Units=GPa)
#
#
# Indices 1 2 3 4 5 6 
#
# 1 24.6349 30.1662 19.8520 4.8512 2.7557 5.1448
# 2 30.1662 143.4506 42.0161 -12.4048 1.0123 13.4393
# 3 19.8520 42.0161 190.2548 -1.1997 -5.1384 20.9071
# 4 4.8512 -12.4048 -1.1997 41.8960 10.9021 6.6309
# 5 2.7557 1.0123 -5.1384 10.9021 29.3767 -6.2075
# 6 5.1448 13.4393 20.9071 6.6309 -6.2075 41.5192
#
#
#
# Elastic Compliance Matrix: (Units=1/GPa)
#
#
# Indices 1 2 3 4 5 6 
#
# 1 0.061471 -0.012693 -0.003701 -0.010359 -0.002199 -0.000319
# 2 -0.012693 0.010594 -0.000741 0.005500 -0.001904 -0.002646
# 3 -0.003701 -0.000741 0.006087 0.000564 0.000732 -0.002347
# 4 -0.010359 0.005500 0.000564 0.031104 -0.012264 -0.007582
# 5 -0.002199 -0.001904 0.000732 -0.012264 0.040805 0.008580
# 6 -0.000319 -0.002646 -0.002347 -0.007582 0.008580 0.028657
#
#
# Mechanical properties :
#
#
# Convention : Reuss Voigt Hill
#
# Bulk Modulus (GPa) = 22.78817 60.26766 41.52792
# Shear Modulus (GPa) = 21.96690 40.31210 31.13950
#
# Velocity S-wave (km/s) = 3.03848 4.11614 3.61766
# Velocity P-wave (km/s) = 4.67839 6.92241 5.90793
#
# Compressibility (1/GPa) = 0.04388242
#
# Stress axis : x y z
#
# Youngs Moduli (GPa) = 16.26795 94.39055 164.27879
#
# Poissons Ratio (x) = 1.19811 0.60793
# Poissons Ratio (y) = 0.20649 0.12176
# Poissons Ratio (z) = 0.06020 0.06996
#
# Static dielectric constant tensor:
#      x y z
#    x 1.923530 -0.044090 -0.024820 
#    y -0.044090 2.101470 -0.068080 
#    z -0.024820 -0.068080 1.939220 
# 
# From -- ./inp_files/433279.got.cif
#   From: 2010.05.17/outbox.cif.g08.bks.cpg/sg2_217_cif.got.tgz:433279.got - 2010.06.03 11:33:40.
