data_PCOD9083058
_publ_section_title
;
Structure prediction by ZEFSAII (Michael W. Deem and Ramdas Pophale) SiO2 
 PCOD9083058
Probable space group: P -1
;
_chemical_formula_sum "Si O2"
_cell_formula_units_Z 16
_cell_length_a 12.842619
_cell_length_b 12.320811
_cell_length_c 8.261181
_cell_angle_alpha 38.749294
_cell_angle_beta 109.132084
_cell_angle_gamma 96.902133
_cell_volume 752.443491
_symmetry_space_group_name_H-M "P -1"
_symmetry_group_IT_number 2
_symmetry_cell_setting 'triclinic'
loop_
_space_group_symop_operation_xyz
x,y,z
-x,-y,-z
loop_
_atom_site_type_symbol
_atom_site_label
_atom_site_fract_x
_atom_site_fract_y
_atom_site_fract_z
Si Si1 0.940357 0.031013 0.606187
Si Si2 0.687616 0.407965 0.748975
Si Si3 0.459524 0.447306 0.774384
Si Si4 0.582439 0.258315 0.335917
Si Si5 0.870716 0.534416 0.330866
Si Si6 0.793926 0.413753 0.120661
Si Si7 0.839234 0.162287 0.881583
Si Si8 0.757758 0.928878 0.836568
O O1 0.895683 0.240441 0.362903
O O2 0.831208 0.955167 0.684540
O O3 0.000000 0.000000 0.500000
O O4 0.035756 0.937601 0.888774
O O5 0.573981 0.383108 0.805995
O O6 0.640039 0.535307 0.425934
O O7 0.762031 0.224225 0.928293
O O8 0.757790 0.476794 0.846548
O O9 0.448388 0.644020 0.620541
O O10 0.476911 0.321713 0.086922
O O11 0.685047 0.347379 0.217077
O O12 0.630905 0.046805 0.608754
O O13 0.840304 0.542457 0.114770
O O14 0.839390 0.351162 0.580691
O O15 0.000000 0.500000 0.500000
O O16 0.796674 0.721681 0.138504
O O17 0.794798 0.038988 0.876158
#
# Coordination Sequence:
#
# PCOD9083058 Si02
#       8
#     2   2   2   2   2   2   2   2
#     4  11  20  35  58  85 119 153 195 241 293 353
#     4  10  19  33  61  89 118 156 192 251 308 356
#     4   9  17  32  60  96 109 148 211 240 306 359
#     4   9  17  34  62  88 115 153 199 254 289 357
#     4  12  23  38  61  87 123 163 205 241 282 360
#     4  10  20  36  57  87 123 157 196 242 307 347
#     4  12  21  39  61  86 123 162 196 245 298 349
#     4  11  22  38  62  89 117 160 204 240 293 359
#
# _framework density 21.264054000000002
#
# number of rings (size 3 to 8) (size 9 to 14) (size 15 to 20)
#    0.000    1.500    6.250    1.125    0.000    0.000 
#    0.000    3.750    0.000   13.500    0.000    0.000 
#    0.000    0.000    0.000    0.000    0.000    0.000 
#
# Total GULP energy -89166.993022 kJ/mol
# GULP energy per Si atom -5572.937064 kJ/mol
# Density = 2.121566 g / cm^3
# Si number density = 21.264054 Si / 1000 Ang^3
#
#
#
# Elastic Constant Matrix: (Units=GPa)
#
#
# Indices 1 2 3 4 5 6 
#
# 1 41.9354 33.4425 14.6806 -10.3340 10.4765 -20.0121
# 2 33.4425 135.7523 60.7786 -1.2059 3.6217 -1.9468
# 3 14.6806 60.7786 141.0159 -0.4987 35.8420 16.5276
# 4 -10.3340 -1.2059 -0.4987 43.3591 -3.4639 7.8172
# 5 10.4765 3.6217 35.8420 -3.4639 31.6408 -1.2195
# 6 -20.0121 -1.9468 16.5276 7.8172 -1.2195 29.3267
#
#
#
# Elastic Compliance Matrix: (Units=1/GPa)
#
#
# Indices 1 2 3 4 5 6 
#
# 1 0.056187 -0.012348 -0.001247 0.005403 -0.013791 0.036210
# 2 -0.012348 0.012928 -0.006325 -0.001309 0.009505 -0.003259
# 3 -0.001247 -0.006325 0.015474 0.000307 -0.016773 -0.010771
# 4 0.005403 -0.001309 0.000307 0.024944 0.000621 -0.003196
# 5 -0.013791 0.009505 -0.016773 0.000621 0.054258 0.002764
# 6 0.036210 -0.003259 -0.010771 -0.003196 0.002764 0.065628
#
#
# Mechanical properties :
#
#
# Convention : Reuss Voigt Hill
#
# Bulk Modulus (GPa) = 22.34693 59.61189 40.97941
# Shear Modulus (GPa) = 17.59474 34.85211 26.22342
#
# Velocity S-wave (km/s) = 2.87965 4.05287 3.51554
# Velocity P-wave (km/s) = 4.64635 7.07078 5.98266
#
# Compressibility (1/GPa) = 0.04474887
#
# Stress axis : x y z
#
# Youngs Moduli (GPa) = 17.79778 77.35029 64.62411
#
# Poissons Ratio (x) = 0.95513 0.08058
# Poissons Ratio (y) = 0.21977 0.40875
# Poissons Ratio (z) = 0.02219 0.48925
#
# Static dielectric constant tensor:
#      x y z
#    x 1.815390 -0.028500 0.003520 
#    y -0.028500 1.813010 0.050710 
#    z 0.003520 0.050710 1.823870 
# 
# From -- ./inp_files/306285.got.cif
#   From: 2010.05.17/outbox.cif.g08.bks.cpg/sg2_154_cif.got.tgz:306285.got - 2010.06.03 11:33:40.
