data_PCOD9083667
_publ_section_title
;
Structure prediction by ZEFSAII (Michael W. Deem and Ramdas Pophale) SiO2 
 PCOD9083667
Probable space group: P -1
;
_chemical_formula_sum "Si O2"
_cell_formula_units_Z 12
_cell_length_a 7.483527
_cell_length_b 15.750579
_cell_length_c 5.496078
_cell_angle_alpha 124.934670
_cell_angle_beta 118.252016
_cell_angle_gamma 54.582115
_cell_volume 422.992168
_symmetry_space_group_name_H-M "P -1"
_symmetry_group_IT_number 2
_symmetry_cell_setting 'triclinic'
loop_
_space_group_symop_operation_xyz
x,y,z
-x,-y,-z
loop_
_atom_site_type_symbol
_atom_site_label
_atom_site_fract_x
_atom_site_fract_y
_atom_site_fract_z
Si Si1 0.712005 0.847973 0.167649
Si Si2 0.253247 0.582683 0.732458
Si Si3 0.138021 0.416821 0.166844
Si Si4 0.399862 0.757128 0.324549
Si Si5 0.239888 0.896345 0.943154
Si Si6 0.148349 0.210047 0.338724
O O1 0.799926 0.864779 0.510026
O O2 0.738500 0.717927 0.013821
O O3 0.453038 0.926253 0.087115
O O4 0.849210 0.846714 0.014561
O O5 0.322882 0.462237 0.443522
O O6 0.063370 0.576032 0.775821
O O7 0.092232 0.683267 0.612914
O O8 0.399311 0.634141 0.057890
O O9 0.000000 0.500000 0.000000
O O10 0.269240 0.818187 0.588561
O O11 0.650630 0.749713 0.501892
O O12 0.299394 0.832381 0.139973
O O13 0.000000 0.000000 0.000000
#
# Coordination Sequence:
#
# PCOD9083667 Si02
#       6
#     2   2   2   2   2   2
#     4   9  18  34  56  80 111 152 193 226 288 345
#     4  10  21  35  58  87 121 158 195 235 289 352
#     4  10  19  34  57  84 121 162 189 235 292 342
#     4  10  22  37  63  90 114 153 199 241 291 356
#     4  10  21  40  63  85 116 154 194 249 303 341
#     4   9  18  35  54  79 117 151 184 237 287 329
#
# _framework density 28.369319999999998
#
# number of rings (size 3 to 8) (size 9 to 14) (size 15 to 20)
#    0.000    2.333    1.667    0.500    2.333    0.000 
#    0.000   16.667    0.000   38.000    0.000    0.000 
#    0.000    0.000    0.000    0.000    0.000    0.000 
#
# Total GULP energy -67115.841207 kJ/mol
# GULP energy per Si atom -5592.986767 kJ/mol
# Density = 2.830475 g / cm^3
# Si number density = 28.369320 Si / 1000 Ang^3
#
#
#
# Elastic Constant Matrix: (Units=GPa)
#
#
# Indices 1 2 3 4 5 6 
#
# 1 105.5904 -2.5160 37.0711 -4.1235 10.8010 -2.2684
# 2 -2.5160 94.4243 50.2640 -16.5774 -8.2460 -10.9673
# 3 37.0711 50.2640 192.4580 -9.7618 -7.2104 6.7805
# 4 -4.1235 -16.5774 -9.7618 50.1058 3.5623 -15.7586
# 5 10.8010 -8.2460 -7.2104 3.5623 63.7134 -3.6123
# 6 -2.2684 -10.9673 6.7805 -15.7586 -3.6123 33.6732
#
#
#
# Elastic Compliance Matrix: (Units=1/GPa)
#
#
# Indices 1 2 3 4 5 6 
#
# 1 0.010817 0.002294 -0.002742 0.002134 -0.001806 0.002833
# 2 0.002294 0.015552 -0.004422 0.007443 0.001259 0.009728
# 3 -0.002742 -0.004422 0.006952 -0.001532 0.000556 -0.003682
# 4 0.002134 0.007443 -0.001532 0.027216 -0.000210 0.015590
# 5 -0.001806 0.001259 0.000556 -0.000210 0.016343 0.001831
# 6 0.002833 0.009728 -0.003682 0.015590 0.001831 0.041290
#
#
# Mechanical properties :
#
#
# Convention : Reuss Voigt Hill
#
# Bulk Modulus (GPa) = 42.40678 62.45677 52.43177
# Shear Modulus (GPa) = 36.82737 50.00872 43.41804
#
# Velocity S-wave (km/s) = 3.60688 4.20310 3.91635
# Velocity P-wave (km/s) = 5.68566 6.75412 6.24279
#
# Compressibility (1/GPa) = 0.02358114
#
# Stress axis : x y z
#
# Youngs Moduli (GPa) = 92.44932 64.30110 143.84990
#
# Poissons Ratio (x) = -0.14749 0.39440
# Poissons Ratio (y) = -0.21206 0.63604
# Poissons Ratio (z) = 0.25348 0.28431
#
# Static dielectric constant tensor:
#      x y z
#    x 2.191810 -0.017470 -0.028410 
#    y -0.017470 2.227750 0.049030 
#    z -0.028410 0.049030 2.442580 
# 
# From -- ./inp_files/19824.got.cif
#   From: 2010.05.17/outbox.cif.g08.bks.cpg/sg2_10_cif.got.tgz:19824.got - 2010.06.03 11:33:40.
