data_PCOD9083734
_publ_section_title
;
Structure prediction by ZEFSAII (Michael W. Deem and Ramdas Pophale) SiO2 
 PCOD9083734
Probable space group: P -1
;
_chemical_formula_sum "Si O2"
_cell_formula_units_Z 16
_cell_length_a 17.502022
_cell_length_b 11.547888
_cell_length_c 10.228313
_cell_angle_alpha 102.902416
_cell_angle_beta 137.829076
_cell_angle_gamma 45.654738
_cell_volume 783.436986
_symmetry_space_group_name_H-M "P -1"
_symmetry_group_IT_number 2
_symmetry_cell_setting 'triclinic'
loop_
_space_group_symop_operation_xyz
x,y,z
-x,-y,-z
loop_
_atom_site_type_symbol
_atom_site_label
_atom_site_fract_x
_atom_site_fract_y
_atom_site_fract_z
Si Si1 0.165805 0.010982 0.756312
Si Si2 0.139455 0.048510 0.244649
Si Si3 0.963857 0.421136 0.241901
Si Si4 0.530930 0.688957 0.766319
Si Si5 0.923721 0.428195 0.495431
Si Si6 0.980244 0.080305 0.786409
Si Si7 0.516654 0.119499 0.004463
Si Si8 0.620395 0.357019 0.244142
O O1 0.331249 0.972476 0.937515
O O2 0.224004 0.867304 0.683260
O O3 0.969729 0.254706 0.548263
O O4 0.142826 0.964410 0.852212
O O5 0.098651 0.218568 0.278147
O O6 0.371901 0.819265 0.482757
O O7 0.040304 0.103876 0.995281
O O8 0.046096 0.033427 0.226048
O O9 0.988251 0.542871 0.293041
O O10 0.007981 0.366556 0.439007
O O11 0.742516 0.562562 0.972450
O O12 0.532944 0.568817 0.827137
O O13 0.430447 0.860662 0.788788
O O14 0.694097 0.651323 0.248298
O O15 0.770030 0.299451 0.514143
O O16 0.500000 0.000000 0.000000
O O17 0.500000 0.500000 0.000000
#
# Coordination Sequence:
#
# PCOD9083734 Si02
#       8
#     2   2   2   2   2   2   2   2
#     4  11  22  36  59  88 120 154 186 251 306 343
#     4  10  21  42  55  82 120 160 202 238 275 354
#     4  10  19  34  62  85 113 157 189 244 290 348
#     4   9  19  33  55  84 112 147 193 235 289 349
#     4  10  20  34  59  93 119 145 197 247 305 352
#     4  10  23  39  59  82 120 162 197 234 295 353
#     4  10  19  34  57  91 119 149 189 246 298 345
#     4  10  22  37  57  90 120 148 191 250 301 352
#
# _framework density 20.422827999999999
#
# number of rings (size 3 to 8) (size 9 to 14) (size 15 to 20)
#    0.000    2.000    0.000    5.625    7.000    0.000 
#    2.250    2.500    0.000    5.250    0.000    0.000 
#    0.000    0.000    0.000    0.000    0.000    0.000 
#
# Total GULP energy -89122.575438 kJ/mol
# GULP energy per Si atom -5570.160965 kJ/mol
# Density = 2.037634 g / cm^3
# Si number density = 20.422828 Si / 1000 Ang^3
#
#
#
# Elastic Constant Matrix: (Units=GPa)
#
#
# Indices 1 2 3 4 5 6 
#
# 1 51.9871 -5.6727 26.5459 -5.3096 4.9157 -3.0246
# 2 -5.6727 59.3806 29.4569 -11.1432 -6.2205 7.7158
# 3 26.5459 29.4569 145.6283 -6.8086 -0.7529 4.2590
# 4 -5.3096 -11.1432 -6.8086 26.4665 -0.8872 2.0155
# 5 4.9157 -6.2205 -0.7529 -0.8872 21.0669 -1.1241
# 6 -3.0246 7.7158 4.2590 2.0155 -1.1241 17.3882
#
#
#
# Elastic Compliance Matrix: (Units=1/GPa)
#
#
# Indices 1 2 3 4 5 6 
#
# 1 0.023438 0.005080 -0.005141 0.005221 -0.003814 0.002230
# 2 0.005080 0.023507 -0.004890 0.010546 0.005534 -0.009215
# 3 -0.005141 -0.004890 0.008780 -0.000772 -0.000005 -0.000786
# 4 0.005221 0.010546 -0.000772 0.043825 0.003263 -0.008451
# 5 -0.003814 0.005534 -0.000005 0.003263 0.050115 -0.000256
# 6 0.002230 -0.009215 -0.000786 -0.008451 -0.000256 0.063143
#
#
# Mechanical properties :
#
#
# Convention : Reuss Voigt Hill
#
# Bulk Modulus (GPa) = 21.82274 39.73960 30.78117
# Shear Modulus (GPa) = 21.00966 26.76203 23.88584
#
# Velocity S-wave (km/s) = 3.21087 3.62387 3.42360
# Velocity P-wave (km/s) = 4.94519 6.08363 5.54371
#
# Compressibility (1/GPa) = 0.04582375
#
# Stress axis : x y z
#
# Youngs Moduli (GPa) = 42.66489 42.53982 113.89715
#
# Poissons Ratio (x) = -0.21609 0.58553
# Poissons Ratio (y) = -0.21672 0.55693
# Poissons Ratio (z) = 0.21933 0.20801
#
# Static dielectric constant tensor:
#      x y z
#    x 1.802850 0.064820 0.049370 
#    y 0.064820 1.791240 -0.014590 
#    z 0.049370 -0.014590 1.783210 
# 
# From -- ./inp_files/333451.got.cif
#   From: 2010.05.17/outbox.cif.g08.bks.cpg/sg2_167_cif.got.tgz:333451.got - 2010.06.03 11:33:40.
