data_PCOD9083597
_publ_section_title
;
Structure prediction by ZEFSAII (Michael W. Deem and Ramdas Pophale) SiO2 
 PCOD9083597
Probable space group: P -1
;
_chemical_formula_sum "Si O2"
_cell_formula_units_Z 14
_cell_length_a 9.443903
_cell_length_b 7.646085
_cell_length_c 14.108989
_cell_angle_alpha 54.612511
_cell_angle_beta 100.563895
_cell_angle_gamma 62.999014
_cell_volume 583.926294
_symmetry_space_group_name_H-M "P -1"
_symmetry_group_IT_number 2
_symmetry_cell_setting 'triclinic'
loop_
_space_group_symop_operation_xyz
x,y,z
-x,-y,-z
loop_
_atom_site_type_symbol
_atom_site_label
_atom_site_fract_x
_atom_site_fract_y
_atom_site_fract_z
Si Si1 0.741832 0.495270 0.729086
Si Si2 0.705850 0.794626 0.341915
Si Si3 0.901082 0.293924 0.288138
Si Si4 0.978565 0.207968 0.670604
Si Si5 0.042064 0.347972 0.950492
Si Si6 0.481806 0.855885 0.131485
Si Si7 0.694116 0.021966 0.468932
O O1 0.516301 0.642879 0.640773
O O2 0.890907 0.238146 0.751328
O O3 0.854405 0.402738 0.872063
O O4 0.710031 0.777729 0.602809
O O5 0.875162 0.738744 0.317901
O O6 0.518482 0.944213 0.206421
O O7 0.798962 0.482173 0.495692
O O8 0.673508 0.978711 0.370219
O O9 0.926069 0.486365 0.170326
O O10 0.687493 0.509040 0.248004
O O11 0.913469 0.093941 0.275276
O O12 0.096695 0.084795 0.445624
O O13 0.000000 0.500000 0.000000
O O14 0.255986 0.001381 0.070040
O O15 0.500000 0.000000 0.000000
#
# Coordination Sequence:
#
# PCOD9083597 Si02
#       7
#     2   2   2   2   2   2   2
#     4   9  18  35  55  77 110 146 180 222 278 320
#     4  10  19  34  57  81 107 146 185 222 279 329
#     4  10  21  36  55  85 114 140 182 231 278 318
#     4  10  20  35  56  82 113 142 181 236 276 319
#     4  10  20  38  61  80 108 151 188 218 266 337
#     4  10  20  36  56  81 113 148 182 221 272 331
#     4   9  18  33  55  81 108 141 181 230 274 319
#
# _framework density 23.975629000000001
#
# number of rings (size 3 to 8) (size 9 to 14) (size 15 to 20)
#    0.000    2.286    0.000    5.143    0.000    4.000 
#    0.000    8.571    0.000    1.714    0.000    0.000 
#    0.000    0.000    0.000    0.000    0.000    0.000 
#
# Total GULP energy -78225.336762 kJ/mol
# GULP energy per Si atom -5587.524054 kJ/mol
# Density = 2.392106 g / cm^3
# Si number density = 23.975629 Si / 1000 Ang^3
#
#
#
# Elastic Constant Matrix: (Units=GPa)
#
#
# Indices 1 2 3 4 5 6 
#
# 1 65.2291 3.9229 35.1219 2.2208 15.5267 -12.8499
# 2 3.9229 133.5321 50.5645 -6.6246 24.3999 -13.1845
# 3 35.1219 50.5645 112.3291 1.1421 30.8818 -7.8991
# 4 2.2208 -6.6246 1.1421 36.4939 -2.7680 3.1501
# 5 15.5267 24.3999 30.8818 -2.7680 36.8674 -6.6498
# 6 -12.8499 -13.1845 -7.8991 3.1501 -6.6498 31.1969
#
#
#
# Elastic Compliance Matrix: (Units=1/GPa)
#
#
# Indices 1 2 3 4 5 6 
#
# 1 0.021167 0.003274 -0.006287 -0.001506 -0.004539 0.007694
# 2 0.003274 0.010123 -0.004314 0.001178 -0.003723 0.003622
# 3 -0.006287 -0.004314 0.014669 -0.001227 -0.007259 -0.002122
# 4 -0.001506 0.001178 -0.001227 0.028172 0.002502 -0.002744
# 5 -0.004539 -0.003723 -0.007259 0.002502 0.038241 0.002617
# 6 0.007694 0.003622 -0.002122 -0.002744 0.002617 0.037052
#
#
# Mechanical properties :
#
#
# Convention : Reuss Voigt Hill
#
# Bulk Modulus (GPa) = 31.94608 54.47875 43.21242
# Shear Modulus (GPa) = 28.65112 35.67703 32.16408
#
# Velocity S-wave (km/s) = 3.46064 3.86172 3.66667
# Velocity P-wave (km/s) = 5.41492 6.53113 5.99904
#
# Compressibility (1/GPa) = 0.03130274
#
# Stress axis : x y z
#
# Youngs Moduli (GPa) = 47.24418 98.78957 68.16990
#
# Poissons Ratio (x) = -0.32339 0.42861
# Poissons Ratio (y) = -0.15465 0.29408
# Poissons Ratio (z) = 0.29704 0.42618
#
# Static dielectric constant tensor:
#      x y z
#    x 1.991470 -0.025010 -0.025940 
#    y -0.025010 1.899860 -0.048480 
#    z -0.025940 -0.048480 1.951770 
# 
# From -- ./inp_files/515384.got.cif
#   From: 2010.05.17/outbox.cif.g08.bks.cpg/sg2_258_cif.got.tgz:515384.got - 2010.06.03 11:33:40.
