data_PCOD9083310
_publ_section_title
;
Structure prediction by ZEFSAII (Michael W. Deem and Ramdas Pophale) SiO2 
 PCOD9083310
Probable space group: P -1
;
_chemical_formula_sum "Si O2"
_cell_formula_units_Z 16
_cell_length_a 15.058907
_cell_length_b 15.238275
_cell_length_c 15.212356
_cell_angle_alpha 28.265848
_cell_angle_beta 31.384640
_cell_angle_gamma 28.517160
_cell_volume 738.452736
_symmetry_space_group_name_H-M "P -1"
_symmetry_group_IT_number 2
_symmetry_cell_setting 'triclinic'
loop_
_space_group_symop_operation_xyz
x,y,z
-x,-y,-z
loop_
_atom_site_type_symbol
_atom_site_label
_atom_site_fract_x
_atom_site_fract_y
_atom_site_fract_z
Si Si1 0.518773 0.430501 0.745435
Si Si2 0.892778 0.066519 0.642650
Si Si3 0.221171 0.610722 0.976985
Si Si4 0.863680 0.709656 0.066530
Si Si5 0.392934 0.184643 0.651911
Si Si6 0.996992 0.484157 0.620476
Si Si7 0.178088 0.052731 0.555936
Si Si8 0.281013 0.574814 0.654711
O O1 0.709585 0.225910 0.723387
O O2 0.435121 0.440233 0.905062
O O3 0.564814 0.622999 0.533279
O O4 0.329735 0.504677 0.775763
O O5 0.837520 0.181335 0.494114
O O6 0.081355 0.050963 0.545758
O O7 0.894920 0.845210 0.846010
O O8 0.189910 0.850413 0.777978
O O9 0.051372 0.607168 0.063579
O O10 0.171039 0.560969 0.159105
O O11 0.680716 0.859279 0.155114
O O12 0.816008 0.543034 0.208754
O O13 0.208584 0.288909 0.648673
O O14 0.599088 0.997825 0.603641
O O15 0.000000 0.500000 0.500000
O O16 0.951342 0.713716 0.496561
O O17 0.500000 0.500000 0.500000
#
# Coordination Sequence:
#
# PCOD9083310 Si02
#       8
#     2   2   2   2   2   2   2   2
#     4  10  19  37  59  79 121 162 192 247 290 333
#     4  10  19  35  59  81 115 164 201 233 290 335
#     4   9  22  39  58  90 116 151 204 235 290 364
#     4  10  19  35  55  84 117 158 203 241 280 343
#     4  10  20  40  61  86 123 153 197 242 289 358
#     4  11  23  42  67  91 116 149 189 244 305 362
#     4  10  21  40  63  87 120 160 191 239 301 349
#     4  10  19  34  54  82 123 158 199 252 282 315
#
# _framework density 21.666924000000002
#
# number of rings (size 3 to 8) (size 9 to 14) (size 15 to 20)
#    0.000    2.000    3.750    0.750    1.750    3.500 
#    0.000    8.125    0.000    0.000    0.000    0.000 
#    0.000    0.000    0.000    0.000    0.000    0.000 
#
# Total GULP energy -89341.439614 kJ/mol
# GULP energy per Si atom -5583.839976 kJ/mol
# Density = 2.161761 g / cm^3
# Si number density = 21.666924 Si / 1000 Ang^3
#
#
#
# Elastic Constant Matrix: (Units=GPa)
#
#
# Indices 1 2 3 4 5 6 
#
# 1 49.3045 8.1646 25.0789 7.0604 18.4047 2.1078
# 2 8.1646 71.8237 -0.5681 14.4141 -4.0886 -16.0507
# 3 25.0789 -0.5681 87.5516 17.1434 16.9850 1.5276
# 4 7.0604 14.4141 17.1434 35.8307 6.4006 -0.9107
# 5 18.4047 -4.0886 16.9850 6.4006 34.3646 2.7288
# 6 2.1078 -16.0507 1.5276 -0.9107 2.7288 21.1869
#
#
#
# Elastic Compliance Matrix: (Units=1/GPa)
#
#
# Indices 1 2 3 4 5 6 
#
# 1 0.029192 -0.005534 -0.006066 0.001611 -0.013207 -0.004889
# 2 -0.005534 0.019724 0.002199 -0.008360 0.004639 0.014378
# 3 -0.006066 0.002199 0.014927 -0.006299 -0.002796 0.001283
# 4 0.001611 -0.008360 -0.006299 0.034745 -0.004905 -0.003914
# 5 -0.013207 0.004639 -0.002796 -0.004905 0.039037 -0.000209
# 6 -0.004889 0.014378 0.001283 -0.003914 -0.000209 0.058344
#
#
# Mechanical properties :
#
#
# Convention : Reuss Voigt Hill
#
# Bulk Modulus (GPa) = 22.20149 30.44784 26.32467
# Shear Modulus (GPa) = 21.75943 30.01006 25.88475
#
# Velocity S-wave (km/s) = 3.17246 3.72568 3.46014
# Velocity P-wave (km/s) = 4.86706 5.70883 5.30467
#
# Compressibility (1/GPa) = 0.04504202
#
# Stress axis : x y z
#
# Youngs Moduli (GPa) = 34.25567 50.69886 66.99166
#
# Poissons Ratio (x) = 0.28058 0.40637
# Poissons Ratio (y) = 0.18958 -0.14734
# Poissons Ratio (z) = 0.20780 -0.11150
#
# Static dielectric constant tensor:
#      x y z
#    x 1.758270 -0.000250 0.035200 
#    y -0.000250 1.867730 0.037110 
#    z 0.035200 0.037110 1.823210 
# 
# From -- ./inp_files/312259.got.cif
#   From: 2010.05.17/outbox.cif.g08.bks.cpg/sg2_157_cif.got.tgz:312259.got - 2010.06.03 11:33:40.
