data_PCOD9083592
_publ_section_title
;
Structure prediction by ZEFSAII (Michael W. Deem and Ramdas Pophale) SiO2 
 PCOD9083592
Probable space group: P -1
;
_chemical_formula_sum "Si O2"
_cell_formula_units_Z 14
_cell_length_a 11.487701
_cell_length_b 11.695596
_cell_length_c 14.805601
_cell_angle_alpha 26.843899
_cell_angle_beta 128.145412
_cell_angle_gamma 131.081494
_cell_volume 674.204394
_symmetry_space_group_name_H-M "P -1"
_symmetry_group_IT_number 2
_symmetry_cell_setting 'triclinic'
loop_
_space_group_symop_operation_xyz
x,y,z
-x,-y,-z
loop_
_atom_site_type_symbol
_atom_site_label
_atom_site_fract_x
_atom_site_fract_y
_atom_site_fract_z
Si Si1 0.082179 0.061498 0.611751
Si Si2 0.996138 0.188776 0.783206
Si Si3 0.211229 0.445297 0.561479
Si Si4 0.122873 0.198328 0.155761
Si Si5 0.435911 0.740500 0.334236
Si Si6 0.703674 0.283134 0.054075
Si Si7 0.829539 0.415236 0.824914
O O1 0.188980 0.215312 0.638556
O O2 0.105635 0.281148 0.391582
O O3 0.151422 0.830295 0.779106
O O4 0.918555 0.943546 0.666425
O O5 0.924640 0.418597 0.616894
O O6 0.164087 0.315814 0.727562
O O7 0.883688 0.016582 0.772865
O O8 0.000000 0.000000 0.000000
O O9 0.372157 0.658476 0.462814
O O10 0.269594 0.455515 0.056457
O O11 0.973572 0.299652 0.988837
O O12 0.500000 0.500000 0.500000
O O13 0.288022 0.728850 0.208802
O O14 0.556560 0.030292 0.178990
O O15 0.729331 0.373892 0.897808
#
# Coordination Sequence:
#
# PCOD9083592 Si02
#       7
#     2   2   2   2   2   2   2
#     4   9  17  34  52  80 112 143 180 222 274 319
#     4  10  19  37  59  80 102 143 198 234 266 316
#     4   9  19  34  57  78 105 144 186 232 264 317
#     4  10  22  34  55  84 114 141 187 238 275 321
#     4  11  20  38  56  83 119 150 179 223 278 341
#     4  11  21  34  52  85 120 144 177 228 282 339
#     4  10  19  34  57  80 112 154 185 218 271 337
#
# _framework density 20.765215999999999
#
# number of rings (size 3 to 8) (size 9 to 14) (size 15 to 20)
#    0.000    2.000    2.857    3.857    0.000    2.286 
#    2.571    0.714    0.000    0.857    0.000    0.000 
#    0.000    0.000    0.000    0.000    0.000    0.000 
#
# Total GULP energy -78099.225420 kJ/mol
# GULP energy per Si atom -5578.516101 kJ/mol
# Density = 2.071795 g / cm^3
# Si number density = 20.765216 Si / 1000 Ang^3
#
#
#
# Elastic Constant Matrix: (Units=GPa)
#
#
# Indices 1 2 3 4 5 6 
#
# 1 64.6427 16.2537 32.0603 -2.7579 -32.0474 -1.1546
# 2 16.2537 82.7807 26.5845 -24.2567 -17.8867 3.6640
# 3 32.0603 26.5845 134.0705 -10.3497 -45.0279 1.6888
# 4 -2.7579 -24.2567 -10.3497 38.7675 0.5014 -4.0663
# 5 -32.0474 -17.8867 -45.0279 0.5014 46.0527 -6.0594
# 6 -1.1546 3.6640 1.6888 -4.0663 -6.0594 17.5781
#
#
#
# Elastic Compliance Matrix: (Units=1/GPa)
#
#
# Indices 1 2 3 4 5 6 
#
# 1 0.024897 -0.000803 0.000515 0.002073 0.018633 0.008656
# 2 -0.000803 0.016491 -0.000515 0.010133 0.005330 0.000740
# 3 0.000515 -0.000515 0.011674 0.003083 0.012050 0.003886
# 4 0.002073 0.010133 0.003083 0.033902 0.009172 0.008732
# 5 0.018633 0.005330 0.012050 0.009172 0.050882 0.018617
# 6 0.008656 0.000740 0.003886 0.008732 0.018617 0.065367
#
#
# Mechanical properties :
#
#
# Convention : Reuss Voigt Hill
#
# Bulk Modulus (GPa) = 19.43477 47.92122 33.67799
# Shear Modulus (GPa) = 22.52529 34.25268 28.38899
#
# Velocity S-wave (km/s) = 3.29714 4.06584 3.70150
# Velocity P-wave (km/s) = 4.88615 6.72080 5.87553
#
# Compressibility (1/GPa) = 0.05145418
#
# Stress axis : x y z
#
# Youngs Moduli (GPa) = 40.16553 60.63869 85.66158
#
# Poissons Ratio (x) = 0.04871 -0.04408
# Poissons Ratio (y) = 0.03227 0.04412
# Poissons Ratio (z) = -0.02067 0.03123
#
# Static dielectric constant tensor:
#      x y z
#    x 1.761680 0.003250 -0.047360 
#    y 0.003250 1.792510 -0.008070 
#    z -0.047360 -0.008070 1.797000 
# 
# From -- ./inp_files/399574.got.cif
#   From: 2010.05.17/outbox.cif.g08.bks.cpg/sg2_200_cif.got.tgz:399574.got - 2010.06.03 11:33:40.
