data_PCOD9083470
_publ_section_title
;
Structure prediction by ZEFSAII (Michael W. Deem and Ramdas Pophale) SiO2 
 PCOD9083470
Probable space group: P -1
;
_chemical_formula_sum "Si O2"
_cell_formula_units_Z 14
_cell_length_a 23.073151
_cell_length_b 8.585410
_cell_length_c 23.331195
_cell_angle_alpha 135.999639
_cell_angle_beta 12.514037
_cell_angle_gamma 134.568374
_cell_volume 695.653826
_symmetry_space_group_name_H-M "P -1"
_symmetry_group_IT_number 2
_symmetry_cell_setting 'triclinic'
loop_
_space_group_symop_operation_xyz
x,y,z
-x,-y,-z
loop_
_atom_site_type_symbol
_atom_site_label
_atom_site_fract_x
_atom_site_fract_y
_atom_site_fract_z
Si Si1 0.734567 0.610659 0.839951
Si Si2 0.723597 0.437428 0.220765
Si Si3 0.307827 0.103930 0.665776
Si Si4 0.749200 0.982422 0.119145
Si Si5 0.274283 0.211540 0.324227
Si Si6 0.761122 0.525671 0.920843
Si Si7 0.949770 0.839210 0.593032
O O1 0.666203 0.624755 0.976781
O O2 0.829629 0.828722 0.770174
O O3 0.959790 0.417340 0.571125
O O4 0.500000 0.500000 0.000000
O O5 0.500000 0.500000 0.500000
O O6 0.686604 0.626180 0.258513
O O7 0.744212 0.171169 0.123420
O O8 0.000000 0.500000 0.000000
O O9 0.500000 0.000000 0.500000
O O10 0.467703 0.027070 0.434052
O O11 0.999482 0.033810 0.934097
O O12 0.778024 0.734477 0.002117
O O13 0.244664 0.122353 0.263438
O O14 0.041721 0.396701 0.608632
O O15 0.550863 0.340775 0.096590
O O16 0.194933 0.007331 0.388928
#
# Coordination Sequence:
#
# PCOD9083470 Si02
#       7
#     2   2   2   2   2   2   2
#     4  10  19  34  56  81 108 147 200 240 279 328
#     4   8  16  31  54  80 104 139 181 215 263 338
#     4  10  19  35  61  86 109 144 188 233 275 342
#     4  10  20  36  56  82 116 148 184 229 289 346
#     4  10  21  35  56  80 108 152 192 235 291 334
#     4  11  22  36  56  80 116 153 186 235 292 339
#     4   9  20  34  54  80 106 143 202 248 270 333
#
# _framework density 20.124952
#
# number of rings (size 3 to 8) (size 9 to 14) (size 15 to 20)
#    0.000    2.286    1.429    1.286    2.000    1.714 
#    0.000    1.429    3.143    3.429    0.000    0.000 
#    0.000    0.000    0.000    0.000    0.000    0.000 
#
# Total GULP energy -77939.493135 kJ/mol
# GULP energy per Si atom -5567.106653 kJ/mol
# Density = 2.007915 g / cm^3
# Si number density = 20.124952 Si / 1000 Ang^3
#
#
#
# Elastic Constant Matrix: (Units=GPa)
#
#
# Indices 1 2 3 4 5 6 
#
# 1 38.1582 27.2033 -5.4730 -5.6240 -0.5690 -17.4285
# 2 27.2033 120.2784 9.5825 -1.5864 6.4417 -11.2491
# 3 -5.4730 9.5825 86.8576 -4.6716 -7.7799 0.9373
# 4 -5.6240 -1.5864 -4.6716 30.6624 -6.8469 0.7710
# 5 -0.5690 6.4417 -7.7799 -6.8469 23.9315 2.8954
# 6 -17.4285 -11.2491 0.9373 0.7710 2.8954 33.5261
#
#
#
# Elastic Compliance Matrix: (Units=1/GPa)
#
#
# Indices 1 2 3 4 5 6 
#
# 1 0.042674 -0.008403 0.004322 0.008680 0.004912 0.018620
# 2 -0.008403 0.010564 -0.002207 -0.002301 -0.004379 -0.000331
# 3 0.004322 -0.002207 0.012763 0.003927 0.005903 0.000549
# 4 0.008680 -0.002301 0.003927 0.037460 0.012617 0.001679
# 5 0.004912 -0.004379 0.005903 0.012617 0.049046 -0.003607
# 6 0.018620 -0.000331 0.000549 0.001679 -0.003607 0.039654
#
#
# Mechanical properties :
#
#
# Convention : Reuss Voigt Hill
#
# Bulk Modulus (GPa) = 18.71819 34.21330 26.46574
# Shear Modulus (GPa) = 22.46732 31.88945 27.17838
#
# Velocity S-wave (km/s) = 3.34487 3.98499 3.67888
# Velocity P-wave (km/s) = 4.92328 6.18149 5.58791
#
# Compressibility (1/GPa) = 0.05342398
#
# Stress axis : x y z
#
# Youngs Moduli (GPa) = 23.43328 94.66444 78.35152
#
# Poissons Ratio (x) = 0.79547 -0.33863
# Poissons Ratio (y) = 0.19691 0.17294
# Poissons Ratio (z) = -0.10128 0.20895
#
# Static dielectric constant tensor:
#      x y z
#    x 1.764280 -0.075100 0.015680 
#    y -0.075100 1.769600 -0.010470 
#    z 0.015680 -0.010470 1.762550 
# 
# From -- ./inp_files/50568.got.cif
#   From: 2010.05.17/outbox.cif.g08.bks.cpg/sg2_26_cif.got.tgz:50568.got - 2010.06.03 11:33:40.
