data_PCOD9083416
_publ_section_title
;
Structure prediction by ZEFSAII (Michael W. Deem and Ramdas Pophale) SiO2 
 PCOD9083416
Probable space group: P -1
;
_chemical_formula_sum "Si O2"
_cell_formula_units_Z 12
_cell_length_a 6.676183
_cell_length_b 7.218021
_cell_length_c 17.603308
_cell_angle_alpha 39.273979
_cell_angle_beta 63.566127
_cell_angle_gamma 60.066467
_cell_volume 462.668283
_symmetry_space_group_name_H-M "P -1"
_symmetry_group_IT_number 2
_symmetry_cell_setting 'triclinic'
loop_
_space_group_symop_operation_xyz
x,y,z
-x,-y,-z
loop_
_atom_site_type_symbol
_atom_site_label
_atom_site_fract_x
_atom_site_fract_y
_atom_site_fract_z
Si Si1 0.349595 0.241098 0.036481
Si Si2 0.842157 0.775569 0.082596
Si Si3 0.573791 0.160707 0.227873
Si Si4 0.728464 0.213094 0.552238
Si Si5 0.062725 0.950015 0.272656
Si Si6 0.086782 0.419575 0.708749
O O1 0.156688 0.277979 0.990625
O O2 0.447599 0.533089 0.912884
O O3 0.219841 0.174443 0.154455
O O4 0.569166 0.948829 0.082904
O O5 0.929959 0.541090 0.210942
O O6 0.000000 0.000000 0.000000
O O7 0.790119 0.126941 0.259876
O O8 0.363289 0.088849 0.332326
O O9 0.683593 0.870683 0.247721
O O10 0.500000 0.500000 0.500000
O O11 0.134857 0.704309 0.568141
O O12 0.864099 0.210435 0.609059
O O13 0.088667 0.709992 0.273375
#
# Coordination Sequence:
#
# PCOD9083416 Si02
#       6
#     2   2   2   2   2   2
#     4  11  22  36  59  85 112 145 186 228 279 327
#     4  11  22  40  56  81 113 150 186 226 276 332
#     4   9  21  35  56  88 112 144 178 234 277 323
#     4  10  19  34  55  85 113 146 183 223 275 328
#     4  10  20  34  59  86 111 142 183 234 271 325
#     4   9  20  36  57  83 112 147 183 225 273 325
#
# _framework density 25.936509000000001
#
# number of rings (size 3 to 8) (size 9 to 14) (size 15 to 20)
#    1.000    1.000    1.667    3.000    0.000    4.000 
#    0.000    0.833    0.000    2.000    0.000    0.000 
#    0.000    0.000    0.000    0.000    0.000    0.000 
#
# Total GULP energy -67032.065460 kJ/mol
# GULP energy per Si atom -5586.005455 kJ/mol
# Density = 2.587748 g / cm^3
# Si number density = 25.936509 Si / 1000 Ang^3
#
#
#
# Elastic Constant Matrix: (Units=GPa)
#
#
# Indices 1 2 3 4 5 6 
#
# 1 115.7971 13.6596 61.1623 17.3192 6.9378 20.7094
# 2 13.6596 67.5499 46.0764 16.2547 6.0968 15.0717
# 3 61.1623 46.0764 228.1625 35.5541 3.0312 22.4169
# 4 17.3192 16.2547 35.5541 46.0032 6.9686 10.3501
# 5 6.9378 6.0968 3.0312 6.9686 69.0386 -5.2676
# 6 20.7094 15.0717 22.4169 10.3501 -5.2676 41.0284
#
#
#
# Elastic Compliance Matrix: (Units=1/GPa)
#
#
# Indices 1 2 3 4 5 6 
#
# 1 0.010866 0.000862 -0.002437 -0.001357 -0.001251 -0.004288
# 2 0.000862 0.018731 -0.002988 -0.003237 -0.001670 -0.005081
# 3 -0.002437 -0.002988 0.006085 -0.002752 0.000501 -0.000238
# 4 -0.001357 -0.003237 -0.002752 0.026715 -0.002434 -0.003674
# 5 -0.001251 -0.001670 0.000501 -0.002434 0.015252 0.003543
# 6 -0.004288 -0.005081 -0.000238 -0.003674 0.003543 0.029916
#
#
# Mechanical properties :
#
#
# Convention : Reuss Voigt Hill
#
# Bulk Modulus (GPa) = 37.65717 72.58956 55.12336
# Shear Modulus (GPa) = 39.82652 50.58812 45.20732
#
# Velocity S-wave (km/s) = 3.92285 4.42119 4.17945
# Velocity P-wave (km/s) = 5.92189 7.35600 6.67756
#
# Compressibility (1/GPa) = 0.02655537
#
# Stress axis : x y z
#
# Youngs Moduli (GPa) = 92.02664 53.38715 164.33343
#
# Poissons Ratio (x) = -0.04599 0.40056
# Poissons Ratio (y) = -0.07928 0.49098
# Poissons Ratio (z) = 0.22431 0.15951
#
# Static dielectric constant tensor:
#      x y z
#    x 2.043830 0.000170 -0.020880 
#    y 0.000170 2.163580 -0.058150 
#    z -0.020880 -0.058150 2.007200 
# 
# From -- ./inp_files/581792.got.cif
#   From: 2010.05.17/outbox.cif.g08.bks.cpg/sg2_291_cif.got.tgz:581792.got - 2010.06.03 11:33:40.
