data_PCOD9083712
_publ_section_title
;
Structure prediction by ZEFSAII (Michael W. Deem and Ramdas Pophale) SiO2 
 PCOD9083712
Probable space group: P -1
;
_chemical_formula_sum "Si O2"
_cell_formula_units_Z 16
_cell_length_a 13.779481
_cell_length_b 24.271208
_cell_length_c 15.891558
_cell_angle_alpha 158.682561
_cell_angle_beta 32.748298
_cell_angle_gamma 156.089286
_cell_volume 781.097441
_symmetry_space_group_name_H-M "P -1"
_symmetry_group_IT_number 2
_symmetry_cell_setting 'triclinic'
loop_
_space_group_symop_operation_xyz
x,y,z
-x,-y,-z
loop_
_atom_site_type_symbol
_atom_site_label
_atom_site_fract_x
_atom_site_fract_y
_atom_site_fract_z
Si Si1 0.657550 0.782504 0.803370
Si Si2 0.450969 0.207360 0.294261
Si Si3 0.826275 0.250300 0.177836
Si Si4 0.849681 0.608066 0.336655
Si Si5 0.041223 0.660555 0.083764
Si Si6 0.588340 0.072119 0.277816
Si Si7 0.220672 0.232142 0.644126
Si Si8 0.392165 0.592646 0.248624
O O1 0.553125 0.760090 0.754362
O O2 0.856904 0.767334 0.612974
O O3 0.437556 0.587632 0.738572
O O4 0.711835 0.980530 0.083171
O O5 0.710002 0.314935 0.296821
O O6 0.318381 0.259193 0.517929
O O7 0.281593 0.965486 0.087644
O O8 0.721568 0.195880 0.270990
O O9 0.109743 0.409042 0.202662
O O10 0.965637 0.666867 0.243089
O O11 0.959486 0.521443 0.178803
O O12 0.878455 0.652653 0.121879
O O13 0.312690 0.872958 0.178025
O O14 0.583064 0.225776 0.552916
O O15 0.442851 0.311150 0.651902
O O16 0.000000 0.000000 0.500000
O O17 0.500000 0.500000 0.000000
#
# Coordination Sequence:
#
# PCOD9083712 Si02
#       8
#     2   2   2   2   2   2   2   2
#     4   9  18  33  55  88 112 148 195 250 296 327
#     4  10  19  34  60  83 116 154 190 244 285 345
#     4  10  21  37  55  85 120 154 195 228 290 359
#     4   9  18  32  55  88 119 140 203 254 280 337
#     4  10  19  34  57  88 119 154 190 247 291 332
#     4  10  20  34  54  79 118 154 189 234 288 343
#     4  12  21  35  56  86 124 153 192 232 291 351
#     4  12  25  36  53  84 125 162 191 232 287 362
#
# _framework density 20.483999000000001
#
# number of rings (size 3 to 8) (size 9 to 14) (size 15 to 20)
#    0.000    1.750    3.750    1.125    0.000    3.000 
#    0.000    0.000    0.000    0.000    0.000   82.250 
#    0.000    0.000    0.000    0.000    0.000    0.000 
#
# Total GULP energy -89109.886371 kJ/mol
# GULP energy per Si atom -5569.367898 kJ/mol
# Density = 2.043738 g / cm^3
# Si number density = 20.483999 Si / 1000 Ang^3
#
#
#
# Elastic Constant Matrix: (Units=GPa)
#
#
# Indices 1 2 3 4 5 6 
#
# 1 41.7521 40.5524 18.4360 3.1840 -23.7099 15.5429
# 2 40.5524 128.5511 32.0645 -7.3958 -6.1935 14.4716
# 3 18.4360 32.0645 137.9519 -26.5928 -36.6021 15.1243
# 4 3.1840 -7.3958 -26.5928 28.7835 6.9839 -0.4309
# 5 -23.7099 -6.1935 -36.6021 6.9839 34.4730 -10.0099
# 6 15.5429 14.4716 15.1243 -0.4309 -10.0099 30.4804
#
#
#
# Elastic Compliance Matrix: (Units=1/GPa)
#
#
# Indices 1 2 3 4 5 6 
#
# 1 0.098899 -0.029730 0.009812 -0.027645 0.073648 -0.017389
# 2 -0.029730 0.017571 -0.004842 0.009138 -0.023842 0.001520
# 3 0.009812 -0.004842 0.013222 0.005509 0.017834 -0.003331
# 4 -0.027645 0.009138 0.005509 0.050479 -0.021557 0.000659
# 5 0.073648 -0.023842 0.017834 -0.021557 0.097724 -0.003297
# 6 -0.017389 0.001520 -0.003331 0.000659 -0.003297 0.041533
#
#
# Mechanical properties :
#
#
# Convention : Reuss Voigt Hill
#
# Bulk Modulus (GPa) = 12.47337 54.48454 33.47896
# Shear Modulus (GPa) = 12.63672 33.22753 22.93212
#
# Velocity S-wave (km/s) = 2.48646 4.03193 3.34954
# Velocity P-wave (km/s) = 3.78759 6.95209 5.59810
#
# Compressibility (1/GPa) = 0.08017080
#
# Stress axis : x y z
#
# Youngs Moduli (GPa) = 10.11134 56.91096 75.63157
#
# Poissons Ratio (x) = 1.69198 -0.74206
# Poissons Ratio (y) = 0.30061 0.36621
# Poissons Ratio (z) = -0.09921 0.27556
#
# Static dielectric constant tensor:
#      x y z
#    x 1.752570 -0.016160 -0.011330 
#    y -0.016160 1.717040 -0.064910 
#    z -0.011330 -0.064910 1.888320 
# 
# From -- ./inp_files/285039.got.cif
#   From: 2010.05.17/outbox.cif.g08.bks.cpg/sg2_143_cif.got.tgz:285039.got - 2010.06.03 11:33:40.
