data_PCOD9083707
_publ_section_title
;
Structure prediction by ZEFSAII (Michael W. Deem and Ramdas Pophale) SiO2 
 PCOD9083707
Probable space group: P -1
;
_chemical_formula_sum "Si O2"
_cell_formula_units_Z 12
_cell_length_a 7.310651
_cell_length_b 17.489026
_cell_length_c 13.649188
_cell_angle_alpha 152.320382
_cell_angle_beta 42.017290
_cell_angle_gamma 128.785895
_cell_volume 539.827043
_symmetry_space_group_name_H-M "P -1"
_symmetry_group_IT_number 2
_symmetry_cell_setting 'triclinic'
loop_
_space_group_symop_operation_xyz
x,y,z
-x,-y,-z
loop_
_atom_site_type_symbol
_atom_site_label
_atom_site_fract_x
_atom_site_fract_y
_atom_site_fract_z
Si Si1 0.331357 0.532572 0.947826
Si Si2 0.178745 0.080859 0.104728
Si Si3 0.207630 0.916450 0.110983
Si Si4 0.796861 0.373524 0.685737
Si Si5 0.911952 0.794465 0.368295
Si Si6 0.670808 0.860765 0.339092
O O1 0.157544 0.545077 0.134691
O O2 0.216642 0.698864 0.126603
O O3 0.649473 0.506592 0.820016
O O4 0.264763 0.363138 0.731590
O O5 0.489923 0.123176 0.008723
O O6 0.019058 0.248140 0.402029
O O7 0.218835 0.947287 0.025737
O O8 0.000000 0.000000 0.000000
O O9 0.897069 0.907335 0.597319
O O10 0.960741 0.807093 0.109442
O O11 0.550955 0.264256 0.690749
O O12 0.781744 0.899179 0.447293
O O13 0.500000 0.000000 0.500000
#
# Coordination Sequence:
#
# PCOD9083707 Si02
#       6
#     2   2   2   2   2   2
#     4   9  18  33  57  85 110 150 195 241 269 341
#     4  11  22  38  56  85 120 159 190 232 292 346
#     4  11  23  36  58  91 120 149 190 238 300 349
#     4  10  19  36  59  85 113 150 197 233 285 342
#     4  10  19  34  57  88 115 147 193 240 289 334
#     4  11  20  34  57  88 123 148 183 246 300 340
#
# _framework density 22.229343
#
# number of rings (size 3 to 8) (size 9 to 14) (size 15 to 20)
#    0.000    1.667    3.333    2.500    0.000    0.000 
#    0.000    0.000    0.000   10.000    0.000    0.000 
#    0.000    0.000    0.000    0.000    0.000    0.000 
#
# Total GULP energy -66841.623551 kJ/mol
# GULP energy per Si atom -5570.135296 kJ/mol
# Density = 2.217875 g / cm^3
# Si number density = 22.229343 Si / 1000 Ang^3
#
#
#
# Elastic Constant Matrix: (Units=GPa)
#
#
# Indices 1 2 3 4 5 6 
#
# 1 156.0916 35.1885 23.9876 3.7647 -15.5248 -6.1749
# 2 35.1885 61.5793 15.0881 -7.8997 -10.2558 13.5962
# 3 23.9876 15.0881 90.1704 0.6841 -22.2014 11.4557
# 4 3.7647 -7.8997 0.6841 26.8659 5.8641 -10.2368
# 5 -15.5248 -10.2558 -22.2014 5.8641 48.0988 -0.7978
# 6 -6.1749 13.5962 11.4557 -10.2368 -0.7978 41.7184
#
#
#
# Elastic Compliance Matrix: (Units=1/GPa)
#
#
# Indices 1 2 3 4 5 6 
#
# 1 0.007975 -0.004856 -0.001356 -0.001724 0.001169 0.002735
# 2 -0.004856 0.021540 -0.001061 0.004190 0.001919 -0.006382
# 3 -0.001356 -0.001061 0.013683 -0.003433 0.005998 -0.004340
# 4 -0.001724 0.004190 -0.003433 0.043998 -0.006446 0.009995
# 5 0.001169 0.001919 0.005998 -0.006446 0.025079 -0.003202
# 6 0.002735 -0.006382 -0.004340 0.009995 -0.003202 0.030038
#
#
# Mechanical properties :
#
#
# Convention : Reuss Voigt Hill
#
# Bulk Modulus (GPa) = 34.89959 50.70774 42.80366
# Shear Modulus (GPa) = 30.04644 38.90842 34.47743
#
# Velocity S-wave (km/s) = 3.68048 4.18822 3.94253
# Velocity P-wave (km/s) = 5.81335 6.80066 6.32629
#
# Compressibility (1/GPa) = 0.02865363
#
# Stress axis : x y z
#
# Youngs Moduli (GPa) = 125.38491 46.42485 73.08537
#
# Poissons Ratio (x) = 0.22542 0.09909
# Poissons Ratio (y) = 0.60881 0.07754
# Poissons Ratio (z) = 0.17000 0.04926
#
# Static dielectric constant tensor:
#      x y z
#    x 1.958750 -0.006650 -0.016230 
#    y -0.006650 1.900570 0.054450 
#    z -0.016230 0.054450 1.868320 
# 
# From -- ./inp_files/506367.got.cif
#   From: 2010.05.17/outbox.cif.g08.bks.cpg/sg2_254_cif.got.tgz:506367.got - 2010.06.03 11:33:40.
