data_PCOD9083222
_publ_section_title
;
Structure prediction by ZEFSAII (Michael W. Deem and Ramdas Pophale) SiO2 
 PCOD9083222
Probable space group: P -1
;
_chemical_formula_sum "Si O2"
_cell_formula_units_Z 16
_cell_length_a 5.486263
_cell_length_b 26.362534
_cell_length_c 6.573874
_cell_angle_alpha 53.622589
_cell_angle_beta 101.387315
_cell_angle_gamma 123.064999
_cell_volume 630.223895
_symmetry_space_group_name_H-M "P -1"
_symmetry_group_IT_number 2
_symmetry_cell_setting 'triclinic'
loop_
_space_group_symop_operation_xyz
x,y,z
-x,-y,-z
loop_
_atom_site_type_symbol
_atom_site_label
_atom_site_fract_x
_atom_site_fract_y
_atom_site_fract_z
Si Si1 0.276880 0.182608 0.820736
Si Si2 0.912714 0.428023 0.525694
Si Si3 0.061777 0.994118 0.763626
Si Si4 0.348342 0.424263 0.287509
Si Si5 0.084377 0.745121 0.395616
Si Si6 0.396767 0.725547 0.935848
Si Si7 0.005660 0.228360 0.157079
Si Si8 0.675427 0.054045 0.590779
O O1 0.561019 0.211122 0.657932
O O2 0.412561 0.219385 0.975796
O O3 0.061675 0.209934 0.659824
O O4 0.092692 0.093868 0.020558
O O5 0.614648 0.411188 0.404200
O O6 0.813293 0.357850 0.820267
O O7 0.000000 0.500000 0.500000
O O8 0.182608 0.439412 0.406458
O O9 0.416267 0.040468 0.731421
O O10 0.000000 0.000000 0.500000
O O11 0.895174 0.029395 0.759994
O O12 0.083524 0.342402 0.361573
O O13 0.500000 0.500000 0.000000
O O14 0.013873 0.742404 0.140674
O O15 0.191009 0.754957 0.768732
O O16 0.650298 0.729465 0.832980
O O17 0.858869 0.139448 0.343747
O O18 0.500000 0.000000 0.500000
#
# Coordination Sequence:
#
# PCOD9083222 Si02
#       8
#     2   2   2   2   2   2   2   2
#     4  10  16  25  43  57  92 126 176 210 246 307
#     4  12  23  40  59  84 111 142 184 240 283 334
#     4  10  16  22  31  54  84 122 168 206 242 294
#     4  12  23  40  59  84 111 142 184 240 283 334
#     4  10  16  29  44  65  88 124 175 213 245 312
#     4  10  16  29  44  65  88 124 175 213 245 312
#     4  10  16  25  43  57  92 126 176 210 246 307
#     4  10  16  22  31  54  84 122 168 206 242 294
#
# _framework density 25.387803000000002
#
# number of rings (size 3 to 8) (size 9 to 14) (size 15 to 20)
#    0.000    1.500    5.000    8.250    0.000    0.000 
#    0.000    0.000    0.000    0.000    0.000    0.000 
#    0.000    0.000    0.000    0.000    0.000  305.000 
#
# Total GULP energy -89591.620559 kJ/mol
# GULP energy per Si atom -5599.476285 kJ/mol
# Density = 2.533002 g / cm^3
# Si number density = 25.387803 Si / 1000 Ang^3
#
#
#
# Elastic Constant Matrix: (Units=GPa)
#
#
# Indices 1 2 3 4 5 6 
#
# 1 252.5505 -1.9180 82.1832 -10.8005 -1.6903 -1.7847
# 2 -1.9180 66.7352 39.5652 -24.8797 -1.6580 -9.6185
# 3 82.1832 39.5652 176.8791 -53.7810 -2.5763 2.8450
# 4 -10.8005 -24.8797 -53.7810 49.5210 0.7987 2.3227
# 5 -1.6903 -1.6580 -2.5763 0.7987 63.4364 0.2696
# 6 -1.7847 -9.6185 2.8450 2.3227 0.2696 34.6768
#
#
#
# Elastic Compliance Matrix: (Units=1/GPa)
#
#
# Indices 1 2 3 4 5 6 
#
# 1 0.004935 0.001561 -0.003147 -0.001607 0.000060 0.001052
# 2 0.001561 0.020288 -0.003323 0.006660 0.000330 0.005532
# 3 -0.003147 -0.003323 0.010784 0.009476 0.000159 -0.002604
# 4 -0.001607 0.006660 0.009476 0.033537 0.000099 -0.001260
# 5 0.000060 0.000330 0.000159 0.000099 0.015779 -0.000048
# 6 0.001052 0.005532 -0.002604 -0.001260 -0.000048 0.030725
#
#
# Mechanical properties :
#
#
# Convention : Reuss Voigt Hill
#
# Bulk Modulus (GPa) = 38.18160 81.75841 59.97001
# Shear Modulus (GPa) = 37.14867 54.61581 45.88224
#
# Velocity S-wave (km/s) = 3.82939 4.64320 4.25579
# Velocity P-wave (km/s) = 5.88424 7.81150 6.91534
#
# Compressibility (1/GPa) = 0.02619062
#
# Stress axis : x y z
#
# Youngs Moduli (GPa) = 202.65284 49.29072 92.72771
#
# Poissons Ratio (x) = -0.07697 0.29178
# Poissons Ratio (y) = -0.31643 0.30811
# Poissons Ratio (z) = 0.63768 0.16378
#
# Static dielectric constant tensor:
#      x y z
#    x 2.100150 -0.017640 -0.027090 
#    y -0.017640 2.027200 0.142430 
#    z -0.027090 0.142430 1.999640 
# 
# From -- ./inp_files/143371.got.cif
#   From: 2010.05.17/outbox.cif.g08.bks.cpg/sg2_72_cif.got.tgz:143371.got - 2010.06.03 11:33:40.
