data_PCOD9083302
_publ_section_title
;
Structure prediction by ZEFSAII (Michael W. Deem and Ramdas Pophale) SiO2 
 PCOD9083302
Probable space group: P -1
;
_chemical_formula_sum "Si O2"
_cell_formula_units_Z 16
_cell_length_a 5.076914
_cell_length_b 5.653176
_cell_length_c 21.558735
_cell_angle_alpha 78.322108
_cell_angle_beta 97.989703
_cell_angle_gamma 92.336233
_cell_volume 600.010271
_symmetry_space_group_name_H-M "P -1"
_symmetry_group_IT_number 2
_symmetry_cell_setting 'triclinic'
loop_
_space_group_symop_operation_xyz
x,y,z
-x,-y,-z
loop_
_atom_site_type_symbol
_atom_site_label
_atom_site_fract_x
_atom_site_fract_y
_atom_site_fract_z
Si Si1 0.502794 0.000400 0.896534
Si Si2 0.968148 0.374258 0.127563
Si Si3 0.028953 0.007300 0.573783
Si Si4 0.555056 0.205149 0.630547
Si Si5 0.736752 0.691493 0.013341
Si Si6 0.041634 0.434771 0.332194
Si Si7 0.288139 0.377072 0.782266
Si Si8 0.676379 0.824914 0.753208
O O1 0.375361 0.151154 0.941405
O O2 0.486522 0.183082 0.828205
O O3 0.293934 0.788918 0.882490
O O4 0.754979 0.874419 0.945603
O O5 0.986735 0.547866 0.058661
O O6 0.910976 0.563381 0.171070
O O7 0.186190 0.198293 0.173682
O O8 0.262111 0.188287 0.594069
O O9 0.754875 0.080325 0.594479
O O10 0.103652 0.740891 0.615363
O O11 0.000000 0.000000 0.500000
O O12 0.688774 0.463377 0.634458
O O13 0.568952 0.062534 0.704299
O O14 0.500000 0.500000 0.000000
O O15 0.886162 0.657288 0.283632
O O16 0.111050 0.266646 0.285110
O O17 0.451720 0.619210 0.759716
#
# Coordination Sequence:
#
# PCOD9083302 Si02
#       8
#     2   2   2   2   2   2   2   2
#     4   9  16  29  53  76 103 150 197 242 309 374
#     4   9  18  32  51  77 109 149 191 249 307 366
#     4  11  25  44  65  97 132 165 213 263 307 374
#     4  11  24  41  68  93 127 173 210 258 319 371
#     4   8  15  29  50  75 106 145 194 248 307 364
#     4  10  23  40  63  90 125 163 207 255 314 373
#     4  10  19  34  54  81 115 148 197 251 304 363
#     4  10  21  37  56  86 122 154 201 259 305 372
#
# _framework density 26.666212000000002
#
# number of rings (size 3 to 8) (size 9 to 14) (size 15 to 20)
#    0.000    2.250    1.250    1.125    1.750    2.000 
#    0.000    0.625    0.000   25.500    0.000    0.000 
#    0.000    0.000    0.000    0.000    0.000    0.000 
#
# Total GULP energy -89537.003457 kJ/mol
# GULP energy per Si atom -5596.062716 kJ/mol
# Density = 2.660552 g / cm^3
# Si number density = 26.666212 Si / 1000 Ang^3
#
#
#
# Elastic Constant Matrix: (Units=GPa)
#
#
# Indices 1 2 3 4 5 6 
#
# 1 81.3820 13.5482 30.4757 -0.9164 10.4370 -2.2208
# 2 13.5482 69.7752 21.7479 3.7154 6.1612 3.7210
# 3 30.4757 21.7479 202.2025 21.6198 -12.6849 1.5511
# 4 -0.9164 3.7154 21.6198 25.5089 7.5550 3.9217
# 5 10.4370 6.1612 -12.6849 7.5550 35.2768 0.1730
# 6 -2.2208 3.7210 1.5511 3.9217 0.1730 49.6138
#
#
#
# Elastic Compliance Matrix: (Units=1/GPa)
#
#
# Indices 1 2 3 4 5 6 
#
# 1 0.014517 -0.001656 -0.002932 0.004987 -0.006130 0.000493
# 2 -0.001656 0.015452 -0.001581 0.000034 -0.002779 -0.001177
# 3 -0.002932 -0.001581 0.006622 -0.007025 0.005027 0.000318
# 4 0.004987 0.000034 -0.007025 0.050233 -0.014748 -0.003479
# 5 -0.006130 -0.002779 0.005027 -0.014748 0.035609 0.000818
# 6 0.000493 -0.001177 0.000318 -0.003479 0.000818 0.020528
#
#
# Mechanical properties :
#
#
# Convention : Reuss Voigt Hill
#
# Bulk Modulus (GPa) = 41.23050 53.87814 47.55432
# Shear Modulus (GPa) = 30.60308 41.25243 35.92776
#
# Velocity S-wave (km/s) = 3.39135 3.93745 3.67456
# Velocity P-wave (km/s) = 5.55250 6.39686 5.98958
#
# Compressibility (1/GPa) = 0.02425389
#
# Stress axis : x y z
#
# Youngs Moduli (GPa) = 68.88504 64.71471 151.02287
#
# Poissons Ratio (x) = 0.10714 0.44272
# Poissons Ratio (y) = 0.11404 0.23884
# Poissons Ratio (z) = 0.20194 0.10234
#
# Static dielectric constant tensor:
#      x y z
#    x 2.166480 -0.128830 0.033310 
#    y -0.128830 2.114180 -0.029430 
#    z 0.033310 -0.029430 2.088710 
# 
# From -- ./inp_files/10072.got.cif
#   From: 2010.05.17/outbox.cif.g08.bks.cpg/sg2_6_cif.got.tgz:10072.got - 2010.06.03 11:33:40.
