data_PCOD9083988
_publ_section_title
;
Structure prediction by ZEFSAII (Michael W. Deem and Ramdas Pophale) SiO2 
 PCOD9083988
Probable space group: P -1
;
_chemical_formula_sum "Si O2"
_cell_formula_units_Z 16
_cell_length_a 9.198323
_cell_length_b 12.646501
_cell_length_c 14.905268
_cell_angle_alpha 76.106315
_cell_angle_beta 51.873540
_cell_angle_gamma 43.379060
_cell_volume 864.141892
_symmetry_space_group_name_H-M "P -1"
_symmetry_group_IT_number 2
_symmetry_cell_setting 'triclinic'
loop_
_space_group_symop_operation_xyz
x,y,z
-x,-y,-z
loop_
_atom_site_type_symbol
_atom_site_label
_atom_site_fract_x
_atom_site_fract_y
_atom_site_fract_z
Si Si1 0.032996 0.742474 0.643083
Si Si2 0.195164 0.506768 0.887314
Si Si3 0.457108 0.597728 0.375185
Si Si4 0.121943 0.591428 0.366948
Si Si5 0.650217 0.374318 0.885531
Si Si6 0.025922 0.006093 0.882285
Si Si7 0.319458 0.253699 0.353920
Si Si8 0.828504 0.876714 0.883544
O O1 0.196409 0.745202 0.508378
O O2 0.286992 0.558334 0.628202
O O3 0.821963 0.757382 0.667118
O O4 0.884582 0.865319 0.758360
O O5 0.399949 0.382230 0.751861
O O6 0.398182 0.451653 0.900710
O O7 0.008615 0.692125 0.886615
O O8 0.000000 0.500000 0.000000
O O9 0.332068 0.557015 0.366430
O O10 0.152328 0.639135 0.251090
O O11 0.216535 0.424805 0.350810
O O12 0.816018 0.727422 0.504307
O O13 0.821664 0.194442 0.891832
O O14 0.500000 0.500000 0.000000
O O15 0.344783 0.894343 0.754752
O O16 0.933318 0.936152 0.883503
O O17 0.000000 0.000000 0.000000
O O18 0.500000 0.000000 0.000000
#
# Coordination Sequence:
#
# PCOD9083988 Si02
#       8
#     2   2   2   2   2   2   2   2
#     4   9  17  31  55  82 109 141 181 223 269 327
#     4  10  20  36  57  82 112 146 186 231 280 335
#     4   8  16  32  53  79 110 144 182 224 267 324
#     4   9  19  36  58  84 116 149 187 231 283 343
#     4  11  23  39  58  80 110 149 191 239 290 340
#     4  12  24  39  58  81 113 149 192 242 291 341
#     4  10  19  34  59  88 115 148 186 230 283 341
#     4  11  22  37  58  84 113 147 187 232 284 340
#
# _framework density 18.515478999999999
#
# number of rings (size 3 to 8) (size 9 to 14) (size 15 to 20)
#    0.000    2.000    0.000    5.250    0.000    4.500 
#    0.000    0.000    0.000   13.500    0.000    0.000 
#    0.000    0.000    0.000    0.000    0.000    0.000 
#
# Total GULP energy -89235.537457 kJ/mol
# GULP energy per Si atom -5577.221091 kJ/mol
# Density = 1.847334 g / cm^3
# Si number density = 18.515479 Si / 1000 Ang^3
#
#
#
# Elastic Constant Matrix: (Units=GPa)
#
#
# Indices 1 2 3 4 5 6 
#
# 1 91.4955 30.8474 90.3961 4.3162 5.1817 -0.8081
# 2 30.8474 82.0584 61.2579 -1.9995 3.2047 -1.3811
# 3 90.3961 61.2579 212.9490 -2.5304 2.0039 1.2543
# 4 4.3162 -1.9995 -2.5304 34.7534 -3.4180 -4.9937
# 5 5.1817 3.2047 2.0039 -3.4180 38.0667 2.9599
# 6 -0.8081 -1.3811 1.2543 -4.9937 2.9599 25.9274
#
#
#
# Elastic Compliance Matrix: (Units=1/GPa)
#
#
# Indices 1 2 3 4 5 6 
#
# 1 0.019496 -0.001414 -0.007888 -0.003236 -0.002455 0.000571
# 2 -0.001414 0.015715 -0.003909 0.000883 -0.000943 0.001260
# 3 -0.007888 -0.003909 0.009180 0.001424 0.001106 -0.000750
# 4 -0.003236 0.000883 0.001424 0.030366 0.002596 0.005430
# 5 -0.002455 -0.000943 0.001106 0.002596 0.027074 -0.002771
# 6 0.000571 0.001260 -0.000750 0.005430 -0.002771 0.040052
#
#
# Mechanical properties :
#
#
# Convention : Reuss Voigt Hill
#
# Bulk Modulus (GPa) = 55.64763 83.50063 69.57413
# Shear Modulus (GPa) = 28.68707 33.34961 31.01834
#
# Velocity S-wave (km/s) = 3.94046 4.24863 4.09744
# Velocity P-wave (km/s) = 7.12901 8.32247 7.74875
#
# Compressibility (1/GPa) = 0.01797022
#
# Stress axis : x y z
#
# Youngs Moduli (GPa) = 51.29207 63.63201 108.93552
#
# Poissons Ratio (x) = 0.08996 0.85929
# Poissons Ratio (y) = 0.07252 0.42579
# Poissons Ratio (z) = 0.40460 0.24871
#
# Static dielectric constant tensor:
#      x y z
#    x 1.606730 -0.005820 0.012770 
#    y -0.005820 1.611340 0.000370 
#    z 0.012770 0.000370 1.702310 
# 
# From -- ./inp_files/226283.got.cif
#   From: 2010.05.17/outbox.cif.g08.bks.cpg/sg2_114_cif.got.tgz:226283.got - 2010.06.03 11:33:40.
