data_PCOD9083080
_publ_section_title
;
Structure prediction by ZEFSAII (Michael W. Deem and Ramdas Pophale) SiO2 
 PCOD9083080
Probable space group: P -1
;
_chemical_formula_sum "Si O2"
_cell_formula_units_Z 13
_cell_length_a 12.238775
_cell_length_b 19.336168
_cell_length_c 7.793780
_cell_angle_alpha 41.710032
_cell_angle_beta 35.133020
_cell_angle_gamma 31.050684
_cell_volume 540.890924
_symmetry_space_group_name_H-M "P -1"
_symmetry_group_IT_number 2
_symmetry_cell_setting 'triclinic'
loop_
_space_group_symop_operation_xyz
x,y,z
-x,-y,-z
loop_
_atom_site_type_symbol
_atom_site_label
_atom_site_fract_x
_atom_site_fract_y
_atom_site_fract_z
Si Si1 0.559416 0.723007 0.804447
Si Si2 0.906829 0.064532 0.194075
Si Si3 0.789064 0.215196 0.542832
Si Si4 0.000000 0.500000 0.500000
Si Si5 0.034568 0.659115 0.713155
Si Si6 0.327125 0.392492 0.612210
Si Si7 0.771551 0.861321 0.366337
O O1 0.724672 0.770799 0.494384
O O2 0.778291 0.563001 0.812679
O O3 0.368902 0.803083 0.744544
O O4 0.400489 0.762064 0.107697
O O5 0.971034 0.943360 0.454356
O O6 0.072317 0.100896 0.983994
O O7 0.000000 0.000000 0.000000
O O8 0.620201 0.275163 0.480439
O O9 0.865640 0.303895 0.332563
O O10 0.207456 0.453164 0.469003
O O11 0.922079 0.778044 0.497087
O O12 0.239527 0.517686 0.615939
O O13 0.809571 0.663822 0.044470
O O14 0.500000 0.000000 0.500000
#
# Coordination Sequence:
#
# PCOD9083080 Si02
#       7
#     2   2   2   1   2   2   2
#     4  11  21  38  60  93 126 157 204 245 304 368
#     4  10  19  33  62 100 118 146 200 261 308 348
#     4  11  20  39  67  96 116 151 209 270 302 344
#     4  12  26  42  58  82 132 180 198 236 310 384
#     4  11  20  37  62  93 117 154 210 259 304 344
#     4  11  23  40  57  86 125 164 207 249 302 367
#     4  12  17  33  64  97 120 149 197 261 306 345
#
# _framework density 24.034420000000001
#
# number of rings (size 3 to 8) (size 9 to 14) (size 15 to 20)
#    0.000    0.923    9.231    1.385    0.000    0.000 
#    0.000    7.692    0.000    6.462    0.000    0.000 
#    0.000    0.000    0.000    0.000    0.000    0.000 
#
# Total GULP energy -72414.430232 kJ/mol
# GULP energy per Si atom -5570.340787 kJ/mol
# Density = 2.397972 g / cm^3
# Si number density = 24.034420 Si / 1000 Ang^3
#
#
#
# Elastic Constant Matrix: (Units=GPa)
#
#
# Indices 1 2 3 4 5 6 
#
# 1 115.4974 30.1842 24.4051 -12.4223 -5.8263 -43.5025
# 2 30.1842 98.2825 28.8692 3.8663 -5.3278 -40.6138
# 3 24.4051 28.8692 42.4319 -19.0842 -29.0243 14.7841
# 4 -12.4223 3.8663 -19.0842 37.0500 2.6105 -2.8198
# 5 -5.8263 -5.3278 -29.0243 2.6105 36.6434 5.2381
# 6 -43.5025 -40.6138 14.7841 -2.8198 5.2381 31.4866
#
#
#
# Elastic Compliance Matrix: (Units=1/GPa)
#
#
# Indices 1 2 3 4 5 6 
#
# 1 0.008253 -0.006934 0.010802 0.008184 0.008754 -0.003337
# 2 -0.006934 0.005153 0.011859 0.001750 0.010354 -0.010067
# 3 0.010802 0.011859 -0.005350 0.002623 -0.005834 0.033938
# 4 0.008184 0.001750 0.002623 0.032131 -0.000851 0.015352
# 5 0.008754 0.010354 -0.005834 -0.000851 0.022135 0.024431
# 6 -0.003337 -0.010067 0.033938 0.015352 0.024431 -0.004460
#
#
# Mechanical properties :
#
#
# Convention : Reuss Voigt Hill
#
# Bulk Modulus (GPa) = 25.30950 47.01431 36.16191
# Shear Modulus (GPa) = 126.33175 32.55288 79.44232
#
# Velocity S-wave (km/s) = 7.25789 3.68425 5.75546
# Velocity P-wave (km/s) = 8.98829 6.14019 7.69712
#
# Compressibility (1/GPa) = 0.03951085
#
# Stress axis : x y z
#
# Youngs Moduli (GPa) = 121.17052 194.04906 -186.92291
#
# Poissons Ratio (x) = 1.34548 2.01912
# Poissons Ratio (y) = 0.84016 2.21673
# Poissons Ratio (z) = -1.30887 -2.30123
#
# Static dielectric constant tensor:
#      x y z
#    x 2.083640 0.270670 -0.143520 
#    y 0.270670 2.247860 -0.217890 
#    z -0.143520 -0.217890 2.049440 
# 
# From -- ./inp_files/280812.got.cif
#   From: 2010.05.17/outbox.cif.g08.bks.cpg/sg2_141_cif.got.tgz:280812.got - 2010.06.03 11:33:40.
