data_PCOD9083513
_publ_section_title
;
Structure prediction by ZEFSAII (Michael W. Deem and Ramdas Pophale) SiO2 
 PCOD9083513
Probable space group: P -1
;
_chemical_formula_sum "Si O2"
_cell_formula_units_Z 16
_cell_length_a 14.863375
_cell_length_b 11.176061
_cell_length_c 9.007635
_cell_angle_alpha 86.139101
_cell_angle_beta 25.490079
_cell_angle_gamma 83.369641
_cell_volume 637.244389
_symmetry_space_group_name_H-M "P -1"
_symmetry_group_IT_number 2
_symmetry_cell_setting 'triclinic'
loop_
_space_group_symop_operation_xyz
x,y,z
-x,-y,-z
loop_
_atom_site_type_symbol
_atom_site_label
_atom_site_fract_x
_atom_site_fract_y
_atom_site_fract_z
Si Si1 0.837097 0.273656 0.072315
Si Si2 0.398517 0.023298 0.908627
Si Si3 0.186754 0.475814 0.028669
Si Si4 0.909971 0.110242 0.230773
Si Si5 0.180347 0.801170 0.227146
Si Si6 0.304756 0.553059 0.179280
Si Si7 0.737339 0.891940 0.598518
Si Si8 0.220138 0.211746 0.976453
O O1 0.086857 0.218728 0.688439
O O2 0.788942 0.417413 0.131318
O O3 0.767947 0.235816 0.016149
O O4 0.774344 0.206618 0.319216
O O5 0.381718 0.113734 0.068549
O O6 0.402520 0.105494 0.751901
O O7 0.217976 0.938982 0.160765
O O8 0.590005 0.922550 0.674256
O O9 0.283023 0.505143 0.044654
O O10 0.288974 0.342415 0.844642
O O11 0.931814 0.468246 0.411806
O O12 0.080818 0.177989 0.050946
O O13 0.816538 0.024506 0.495452
O O14 0.000000 0.000000 0.000000
O O15 0.311023 0.698209 0.143104
O O16 0.943211 0.787605 0.638794
O O17 0.500000 0.500000 0.000000
#
# Coordination Sequence:
#
# PCOD9083513 Si02
#       8
#     2   2   2   2   2   2   2   2
#     4  10  20  39  58  78 116 150 191 234 279 357
#     4  11  20  31  57  85 114 140 185 248 282 338
#     4   9  21  36  56  86 115 157 194 232 288 346
#     4  10  21  38  58  81 112 154 192 233 289 347
#     4  10  19  34  56  85 109 152 186 234 292 336
#     4   9  19  33  57  87 122 148 190 246 287 334
#     4  10  21  33  54  88 111 142 190 240 289 336
#     4  11  20  37  57  83 115 148 195 235 283 348
#
# _framework density 25.108107
#
# number of rings (size 3 to 8) (size 9 to 14) (size 15 to 20)
#    0.000    2.000    2.500    2.625    1.750    1.500 
#    0.000    5.625    0.000    0.750    0.000    0.000 
#    0.000    0.000    0.000    0.000    0.000    0.000 
#
# Total GULP energy -89203.458831 kJ/mol
# GULP energy per Si atom -5575.216177 kJ/mol
# Density = 2.505096 g / cm^3
# Si number density = 25.108107 Si / 1000 Ang^3
#
#
#
# Elastic Constant Matrix: (Units=GPa)
#
#
# Indices 1 2 3 4 5 6 
#
# 1 120.3777 62.5244 22.8875 -1.8330 -15.6250 -32.2890
# 2 62.5244 171.0225 11.9495 -7.9947 -14.7405 -25.4880
# 3 22.8875 11.9495 53.2675 2.4514 -8.1050 -4.3363
# 4 -1.8330 -7.9947 2.4514 24.2563 -7.3856 -7.5637
# 5 -15.6250 -14.7405 -8.1050 -7.3856 35.8762 8.0086
# 6 -32.2890 -25.4880 -4.3363 -7.5637 8.0086 46.5050
#
#
#
# Elastic Compliance Matrix: (Units=1/GPa)
#
#
# Indices 1 2 3 4 5 6 
#
# 1 0.012921 -0.003008 -0.004064 0.003384 0.002597 0.007047
# 2 -0.003008 0.007648 -0.000091 0.003654 0.002042 0.002338
# 3 -0.004064 -0.000091 0.020932 -0.002125 0.002877 -0.001761
# 4 0.003384 0.003654 -0.002125 0.049284 0.010321 0.010392
# 5 0.002597 0.002042 0.002877 0.010321 0.032792 -0.000778
# 6 0.007047 0.002338 -0.001761 0.010392 -0.000778 0.029337
#
#
# Mechanical properties :
#
#
# Convention : Reuss Voigt Hill
#
# Bulk Modulus (GPa) = 36.79584 59.93225 48.36405
# Shear Modulus (GPa) = 28.36119 37.81460 33.08789
#
# Velocity S-wave (km/s) = 3.36454 3.88502 3.63411
# Velocity P-wave (km/s) = 5.45713 6.63672 6.07562
#
# Compressibility (1/GPa) = 0.02717698
#
# Stress axis : x y z
#
# Youngs Moduli (GPa) = 77.39439 130.74879 47.77400
#
# Poissons Ratio (x) = 0.39323 0.19415
# Poissons Ratio (y) = 0.23277 0.00433
# Poissons Ratio (z) = 0.31452 0.01184
#
# Static dielectric constant tensor:
#      x y z
#    x 2.021410 -0.035560 -0.008370 
#    y -0.035560 1.985100 -0.038380 
#    z -0.008370 -0.038380 2.245750 
# 
# From -- ./inp_files/257814.got.cif
#   From: 2010.05.17/outbox.cif.g08.bks.cpg/sg2_129_cif.got.tgz:257814.got - 2010.06.03 11:33:40.
