data_PCOD9083151
_publ_section_title
;
Structure prediction by ZEFSAII (Michael W. Deem and Ramdas Pophale) SiO2 
 PCOD9083151
Probable space group: P -1
;
_chemical_formula_sum "Si O2"
_cell_formula_units_Z 16
_cell_length_a 10.380547
_cell_length_b 7.805473
_cell_length_c 9.620720
_cell_angle_alpha 82.325014
_cell_angle_beta 74.902097
_cell_angle_gamma 57.364304
_cell_volume 633.764335
_symmetry_space_group_name_H-M "P -1"
_symmetry_group_IT_number 2
_symmetry_cell_setting 'triclinic'
loop_
_space_group_symop_operation_xyz
x,y,z
-x,-y,-z
loop_
_atom_site_type_symbol
_atom_site_label
_atom_site_fract_x
_atom_site_fract_y
_atom_site_fract_z
Si Si1 0.130650 0.125149 0.833168
Si Si2 0.615248 0.130821 0.808066
Si Si3 0.241361 0.258714 0.551897
Si Si4 0.399387 0.701772 0.806012
Si Si5 0.946116 0.913804 0.839381
Si Si6 0.666533 0.560296 0.966596
Si Si7 0.440958 0.772830 0.488442
Si Si8 0.844860 0.680596 0.734644
O O1 0.313067 0.944430 0.825493
O O2 0.055033 0.006543 0.794659
O O3 0.131876 0.285101 0.710403
O O4 0.057617 0.177786 0.000786
O O5 0.455822 0.245893 0.926278
O O6 0.599909 0.242649 0.655831
O O7 0.766737 0.101929 0.847617
O O8 0.675578 0.897203 0.781609
O O9 0.376887 0.299179 0.548315
O O10 0.158094 0.366905 0.420065
O O11 0.333934 0.016010 0.521123
O O12 0.301059 0.621349 0.920338
O O13 0.408963 0.674766 0.640432
O O14 0.563521 0.583048 0.855947
O O15 0.964610 0.752184 0.735193
O O16 0.820464 0.546916 0.867452
#
# Coordination Sequence:
#
# PCOD9083151 Si02
#       8
#     2   2   2   2   2   2   2   2
#     4  10  19  34  50  73  97 128 163 196 244 281
#     4   9  19  30  51  74  99 123 155 210 239 281
#     4   9  17  28  50  71 101 121 153 204 244 287
#     4  10  20  32  49  72 102 130 158 193 242 296
#     4   9  20  32  50  75  96 125 162 205 235 281
#     4  11  19  31  51  74  99 128 159 197 246 288
#     4   9  17  30  46  76  99 124 155 196 251 284
#     4   9  18  32  48  77  97 122 164 199 243 279
#
# _framework density 25.245978000000001
#
# number of rings (size 3 to 8) (size 9 to 14) (size 15 to 20)
#    0.750    1.750    2.500    0.375    3.500    1.000 
#    0.000    0.625    0.000    0.000    0.000    2.625 
#    0.000    0.000    0.000    0.000    0.000    0.000 
#
# Total GULP energy -89375.787990 kJ/mol
# GULP energy per Si atom -5585.986749 kJ/mol
# Density = 2.518852 g / cm^3
# Si number density = 25.245978 Si / 1000 Ang^3
#
#
#
# Elastic Constant Matrix: (Units=GPa)
#
#
# Indices 1 2 3 4 5 6 
#
# 1 80.9565 6.8371 51.4582 5.5766 4.1388 -7.7869
# 2 6.8371 44.5112 18.9616 -1.8831 -3.7812 -12.3180
# 3 51.4582 18.9616 202.4705 -19.3468 7.0320 -3.9696
# 4 5.5766 -1.8831 -19.3468 32.7813 -6.1387 -10.3667
# 5 4.1388 -3.7812 7.0320 -6.1387 34.8940 2.1427
# 6 -7.7869 -12.3180 -3.9696 -10.3667 2.1427 22.8773
#
#
#
# Elastic Compliance Matrix: (Units=1/GPa)
#
#
# Indices 1 2 3 4 5 6 
#
# 1 0.015810 -0.000278 -0.004338 -0.004868 -0.002039 0.002464
# 2 -0.000278 0.028830 -0.001730 0.007051 0.003642 0.017983
# 3 -0.004338 -0.001730 0.006694 0.004855 -0.000228 0.000975
# 4 -0.004868 0.007051 0.004855 0.042697 0.006541 0.021717
# 5 -0.002039 0.003642 -0.000228 0.006541 0.030409 0.001343
# 6 0.002464 0.017983 0.000975 0.021717 0.001343 0.064117
#
#
# Mechanical properties :
#
#
# Convention : Reuss Voigt Hill
#
# Bulk Modulus (GPa) = 25.87764 53.60578 39.74171
# Shear Modulus (GPa) = 23.35050 34.82261 29.08655
#
# Velocity S-wave (km/s) = 3.04455 3.71797 3.39798
# Velocity P-wave (km/s) = 4.75726 6.30163 5.58310
#
# Compressibility (1/GPa) = 0.03864341
#
# Stress axis : x y z
#
# Youngs Moduli (GPa) = 63.25191 34.68632 149.37672
#
# Poissons Ratio (x) = 0.00963 0.64802
# Poissons Ratio (y) = 0.01756 0.25835
# Poissons Ratio (z) = 0.27440 0.05999
#
# Static dielectric constant tensor:
#      x y z
#    x 1.975940 0.007870 -0.004540 
#    y 0.007870 2.115080 0.002490 
#    z -0.004540 0.002490 1.957360 
# 
# From -- ./inp_files/249783.got.cif
#   From: 2010.05.17/outbox.cif.g08.bks.cpg/sg2_125_cif.got.tgz:249783.got - 2010.06.03 11:33:40.
