data_PCOD9083757
_publ_section_title
;
Structure prediction by ZEFSAII (Michael W. Deem and Ramdas Pophale) SiO2 
 PCOD9083757
Probable space group: P -1
;
_chemical_formula_sum "Si O2"
_cell_formula_units_Z 16
_cell_length_a 12.412301
_cell_length_b 27.692584
_cell_length_c 11.537769
_cell_angle_alpha 29.844599
_cell_angle_beta 131.188149
_cell_angle_gamma 153.704715
_cell_volume 735.759259
_symmetry_space_group_name_H-M "P -1"
_symmetry_group_IT_number 2
_symmetry_cell_setting 'triclinic'
loop_
_space_group_symop_operation_xyz
x,y,z
-x,-y,-z
loop_
_atom_site_type_symbol
_atom_site_label
_atom_site_fract_x
_atom_site_fract_y
_atom_site_fract_z
Si Si1 0.119677 0.710144 0.768177
Si Si2 0.794366 0.735679 0.718836
Si Si3 0.524051 0.734403 0.240189
Si Si4 0.344293 0.944855 0.120377
Si Si5 0.287160 0.893462 0.749826
Si Si6 0.427535 0.195002 0.608519
Si Si7 0.938653 0.418140 0.343637
Si Si8 0.943067 0.816996 0.385536
O O1 0.151526 0.753491 0.838892
O O2 0.968185 0.716657 0.594481
O O3 0.440402 0.892811 0.562062
O O4 0.961165 0.514903 0.061975
O O5 0.722408 0.802519 0.565578
O O6 0.913756 0.813156 0.511017
O O7 0.048184 0.825480 0.773738
O O8 0.500000 0.500000 0.000000
O O9 0.468484 0.705385 0.399451
O O10 0.674562 0.719596 0.348289
O O11 0.238636 0.584657 0.277481
O O12 0.765953 0.957835 0.917121
O O13 0.138416 0.733595 0.442911
O O14 0.580588 0.091560 0.084378
O O15 0.500000 0.000000 0.000000
O O16 0.226279 0.982768 0.933481
O O17 0.691365 0.309708 0.481962
#
# Coordination Sequence:
#
# PCOD9083757 Si02
#       8
#     2   2   2   2   2   2   2   2
#     4  10  19  35  62  84 107 141 187 234 273 323
#     4  10  20  33  56  86 110 134 182 238 276 321
#     4  10  19  34  58  80 110 144 184 232 270 324
#     4  10  23  38  52  77 116 153 184 219 272 333
#     4  10  20  38  59  83 112 145 180 228 284 323
#     4  10  20  36  55  79 112 147 182 227 277 321
#     4  11  21  34  53  83 110 144 190 223 264 329
#     4   9  19  33  53  86 111 135 177 235 290 315
#
# _framework density 21.746244000000001
#
# number of rings (size 3 to 8) (size 9 to 14) (size 15 to 20)
#    0.000    2.000    0.000    5.625    0.000    5.500 
#    0.000    3.750    0.000   14.250    0.000    3.500 
#    0.000    0.000    0.000    0.000    0.000    0.000 
#
# Total GULP energy -89331.991253 kJ/mol
# GULP energy per Si atom -5583.249453 kJ/mol
# Density = 2.169675 g / cm^3
# Si number density = 21.746244 Si / 1000 Ang^3
#
#
#
# Elastic Constant Matrix: (Units=GPa)
#
#
# Indices 1 2 3 4 5 6 
#
# 1 99.4115 44.6031 37.2420 -2.6561 12.8567 18.6554
# 2 44.6031 41.8253 18.6830 11.5899 14.0569 23.2563
# 3 37.2420 18.6830 125.4764 8.4914 39.5199 21.0673
# 4 -2.6561 11.5899 8.4914 15.7533 4.9430 -0.9973
# 5 12.8567 14.0569 39.5199 4.9430 42.7749 17.4628
# 6 18.6554 23.2563 21.0673 -0.9973 17.4628 40.8400
#
#
#
# Elastic Compliance Matrix: (Units=1/GPa)
#
#
# Indices 1 2 3 4 5 6 
#
# 1 0.061637 -0.114881 -0.017519 0.106134 0.003862 0.047241
# 2 -0.114881 0.266245 0.032799 -0.238170 -0.007260 -0.118768
# 3 -0.017519 0.032799 0.016479 -0.033647 -0.010523 -0.015498
# 4 0.106134 -0.238170 -0.033647 0.282039 -0.000741 0.111705
# 5 0.003862 -0.007260 -0.010523 -0.000741 0.037840 -0.008400
# 6 0.047241 -0.118768 -0.015498 0.111705 -0.008400 0.084853
#
#
# Mechanical properties :
#
#
# Convention : Reuss Voigt Hill
#
# Bulk Modulus (GPa) = 6.88898 51.97440 29.43169
# Shear Modulus (GPa) = 5.01665 30.95264 17.98465
#
# Velocity S-wave (km/s) = 1.52050 3.77683 2.87892
# Velocity P-wave (km/s) = 2.50146 6.55527 4.96129
#
# Compressibility (1/GPa) = 0.14515932
#
# Stress axis : x y z
#
# Youngs Moduli (GPa) = 16.22400 3.75594 60.68320
#
# Poissons Ratio (x) = 0.43149 1.06313
# Poissons Ratio (y) = 1.86382 -1.99036
# Poissons Ratio (z) = 0.28423 -0.12319
#
# Static dielectric constant tensor:
#      x y z
#    x 1.842240 0.013840 0.035730 
#    y 0.013840 1.791050 0.037030 
#    z 0.035730 0.037030 1.863670 
# 
# From -- ./inp_files/439550.got.cif
#   From: 2010.05.17/outbox.cif.g08.bks.cpg/sg2_220_cif.got.tgz:439550.got - 2010.06.03 11:33:40.
