data_PCOD9083043
_publ_section_title
;
Structure prediction by ZEFSAII (Michael W. Deem and Ramdas Pophale) SiO2 
 PCOD9083043
Probable space group: P -1
;
_chemical_formula_sum "Si O2"
_cell_formula_units_Z 14
_cell_length_a 9.529248
_cell_length_b 7.689621
_cell_length_c 14.352271
_cell_angle_alpha 49.949305
_cell_angle_beta 129.151016
_cell_angle_gamma 133.786467
_cell_volume 547.225734
_symmetry_space_group_name_H-M "P -1"
_symmetry_group_IT_number 2
_symmetry_cell_setting 'triclinic'
loop_
_space_group_symop_operation_xyz
x,y,z
-x,-y,-z
loop_
_atom_site_type_symbol
_atom_site_label
_atom_site_fract_x
_atom_site_fract_y
_atom_site_fract_z
Si Si1 0.707173 0.357680 0.558348
Si Si2 0.859620 0.242310 0.361511
Si Si3 0.843751 0.962456 0.742295
Si Si4 0.810994 0.101922 0.187780
Si Si5 0.360529 0.558470 0.058517
Si Si6 0.233329 0.344317 0.871140
Si Si7 0.463433 0.275476 0.655137
O O1 0.657164 0.312762 0.663937
O O2 0.553252 0.465912 0.427555
O O3 0.932618 0.600630 0.549464
O O4 0.716370 0.108615 0.609151
O O5 0.913750 0.274257 0.263675
O O6 0.730075 0.396619 0.259777
O O7 0.724629 0.934600 0.418430
O O8 0.994969 0.136973 0.829609
O O9 0.022942 0.983519 0.741954
O O10 0.707508 0.667883 0.817198
O O11 0.597026 0.879401 0.220375
O O12 0.757469 0.275182 0.037255
O O13 0.606033 0.730593 0.084070
O O14 0.289023 0.412895 0.978113
#
# Coordination Sequence:
#
# PCOD9083043 Si02
#       7
#     2   2   2   2   2   2   2
#     4  10  19  33  61  74  96 137 181 204 250 294
#     4   8  17  35  52  76 102 135 166 211 249 306
#     4  11  21  34  52  83 101 134 169 215 250 310
#     4   9  21  36  50  75 115 130 163 210 269 290
#     4  10  19  36  53  73 106 139 167 211 246 308
#     4   9  19  33  55  78  98 136 177 206 250 290
#     4   9  19  36  54  77 101 134 173 213 245 308
#
# _framework density 25.583590999999998
#
# number of rings (size 3 to 8) (size 9 to 14) (size 15 to 20)
#    0.857    1.714    0.000    2.143    2.000    1.143 
#    2.571    0.000    0.000    1.714    0.000    0.000 
#    0.000    0.000    0.000    0.000    0.000    0.000 
#
# Total GULP energy -78100.577040 kJ/mol
# GULP energy per Si atom -5578.612646 kJ/mol
# Density = 2.552536 g / cm^3
# Si number density = 25.583591 Si / 1000 Ang^3
#
#
#
# Elastic Constant Matrix: (Units=GPa)
#
#
# Indices 1 2 3 4 5 6 
#
# 1 90.4739 18.3868 47.4255 -9.4051 30.2065 3.3879
# 2 18.3868 75.5951 38.1963 -18.7946 -0.4502 14.1905
# 3 47.4255 38.1963 105.1822 -37.7032 25.1739 2.9568
# 4 -9.4051 -18.7946 -37.7032 40.0706 -5.3121 2.6446
# 5 30.2065 -0.4502 25.1739 -5.3121 41.4070 -11.7962
# 6 3.3879 14.1905 2.9568 2.6446 -11.7962 29.8250
#
#
#
# Elastic Compliance Matrix: (Units=1/GPa)
#
#
# Indices 1 2 3 4 5 6 
#
# 1 0.018128 -0.001297 -0.005922 -0.003112 -0.011498 -0.005127
# 2 -0.001297 0.018630 -0.004908 0.004658 0.002555 -0.007632
# 3 -0.005922 -0.004908 0.021641 0.015865 -0.007899 -0.003669
# 4 -0.003112 0.004658 0.015865 0.041321 -0.004560 -0.008903
# 5 -0.011498 0.002555 -0.007899 -0.004560 0.041865 0.017836
# 6 -0.005127 -0.007632 -0.003669 -0.008903 0.017836 0.045950
#
#
# Mechanical properties :
#
#
# Convention : Reuss Voigt Hill
#
# Bulk Modulus (GPa) = 29.28714 53.25205 41.26960
# Shear Modulus (GPa) = 22.40449 33.41002 27.90726
#
# Velocity S-wave (km/s) = 2.96250 3.61767 3.30635
# Velocity P-wave (km/s) = 4.81397 6.18952 5.54457
#
# Compressibility (1/GPa) = 0.03414467
#
# Stress axis : x y z
#
# Youngs Moduli (GPa) = 55.16293 53.67781 46.20960
#
# Poissons Ratio (x) = 0.06959 0.27367
# Poissons Ratio (y) = 0.07152 0.22680
# Poissons Ratio (z) = 0.32669 0.26345
#
# Static dielectric constant tensor:
#      x y z
#    x 1.989950 -0.057590 -0.006650 
#    y -0.057590 2.091750 0.019090 
#    z -0.006650 0.019090 2.011330 
# 
# From -- ./inp_files/84916.got.cif
#   From: 2010.05.17/outbox.cif.g08.bks.cpg/sg2_43_cif.got.tgz:84916.got - 2010.06.03 11:33:40.
