data_PCOD9083995
_publ_section_title
;
Structure prediction by ZEFSAII (Michael W. Deem and Ramdas Pophale) SiO2 
 PCOD9083995
Probable space group: P -1
;
_chemical_formula_sum "Si O2"
_cell_formula_units_Z 16
_cell_length_a 20.049975
_cell_length_b 11.821732
_cell_length_c 7.793718
_cell_angle_alpha 99.777882
_cell_angle_beta 135.395157
_cell_angle_gamma 43.751341
_cell_volume 632.301295
_symmetry_space_group_name_H-M "P -1"
_symmetry_group_IT_number 2
_symmetry_cell_setting 'triclinic'
loop_
_space_group_symop_operation_xyz
x,y,z
-x,-y,-z
loop_
_atom_site_type_symbol
_atom_site_label
_atom_site_fract_x
_atom_site_fract_y
_atom_site_fract_z
Si Si1 0.342426 0.170154 0.468554
Si Si2 0.110862 0.406342 0.453925
Si Si3 0.171381 0.703390 0.841056
Si Si4 0.137774 0.115984 0.900460
Si Si5 0.579477 0.532745 0.076009
Si Si6 0.004572 0.915934 0.154126
Si Si7 0.309233 0.332561 0.113405
Si Si8 0.663584 0.024199 0.097274
O O1 0.219637 0.279984 0.440370
O O2 0.247805 0.329764 0.171061
O O3 0.465801 0.930940 0.572301
O O4 0.502938 0.095915 0.797958
O O5 0.935309 0.676858 0.156123
O O6 0.143401 0.246031 0.559607
O O7 0.216172 0.374005 0.783801
O O8 0.346012 0.560765 0.004727
O O9 0.025458 0.784015 0.477067
O O10 0.256581 0.519985 0.079277
O O11 0.058136 0.924398 0.777758
O O12 0.136407 0.044540 0.056479
O O13 0.302655 0.948518 0.015506
O O14 0.775919 0.357200 0.492741
O O15 0.500000 0.500000 0.000000
O O16 0.421042 0.796862 0.877664
O O17 0.000000 0.000000 0.000000
#
# Coordination Sequence:
#
# PCOD9083995 Si02
#       8
#     2   2   2   2   2   2   2   2
#     4  10  19  34  59  88 122 152 202 246 303 354
#     4  10  20  37  63  88 120 163 201 242 312 366
#     4  10  20  38  61  79 115 156 201 241 306 361
#     4  10  21  39  60  85 119 160 198 244 306 366
#     4  11  22  40  63  90 116 156 208 256 301 364
#     4  11  24  40  60  85 120 164 202 248 308 365
#     4   9  19  33  57  88 115 154 196 248 295 356
#     4  11  20  35  63  90 120 152 201 253 301 361
#
# _framework density 25.304392
#
# number of rings (size 3 to 8) (size 9 to 14) (size 15 to 20)
#    0.000    1.750    0.000    7.875    3.500    0.000 
#    2.250    1.250    5.500    8.250    0.000    0.000 
#    0.000    0.000    0.000    0.000    0.000    0.000 
#
# Total GULP energy -89446.313690 kJ/mol
# GULP energy per Si atom -5590.394606 kJ/mol
# Density = 2.524680 g / cm^3
# Si number density = 25.304392 Si / 1000 Ang^3
#
#
#
# Elastic Constant Matrix: (Units=GPa)
#
#
# Indices 1 2 3 4 5 6 
#
# 1 162.7280 39.3215 9.1487 0.0263 -16.5014 -10.7583
# 2 39.3215 116.5070 27.9681 -25.1172 -4.5943 0.9850
# 3 9.1487 27.9681 64.1302 -13.1668 -21.7222 6.0623
# 4 0.0263 -25.1172 -13.1668 30.4680 2.4308 -16.8532
# 5 -16.5014 -4.5943 -21.7222 2.4308 40.2093 -2.3638
# 6 -10.7583 0.9850 6.0623 -16.8532 -2.3638 44.3222
#
#
#
# Elastic Compliance Matrix: (Units=1/GPa)
#
#
# Indices 1 2 3 4 5 6 
#
# 1 0.007203 -0.002856 0.000895 -0.001525 0.003281 0.001284
# 2 -0.002856 0.012758 -0.004044 0.010962 -0.002349 0.003619
# 3 0.000895 -0.004044 0.022257 0.005302 0.011603 -0.000102
# 4 -0.001525 0.010962 0.005302 0.054888 0.001325 0.019602
# 5 0.003281 -0.002349 0.011603 0.001325 0.032223 0.001484
# 6 0.001284 0.003619 -0.000102 0.019602 0.001484 0.030340
#
#
# Mechanical properties :
#
#
# Convention : Reuss Voigt Hill
#
# Bulk Modulus (GPa) = 33.10364 55.13797 44.12080
# Shear Modulus (GPa) = 27.51060 40.79501 34.15281
#
# Velocity S-wave (km/s) = 3.30083 4.01954 3.67778
# Velocity P-wave (km/s) = 5.25717 6.58631 5.95891
#
# Compressibility (1/GPa) = 0.03020816
#
# Stress axis : x y z
#
# Youngs Moduli (GPa) = 138.83257 78.38388 44.92886
#
# Poissons Ratio (x) = 0.22387 -0.04020
# Poissons Ratio (y) = 0.39652 0.18167
# Poissons Ratio (z) = -0.12421 0.31695
#
# Static dielectric constant tensor:
#      x y z
#    x 2.048940 0.018500 -0.004490 
#    y 0.018500 1.919900 0.038820 
#    z -0.004490 0.038820 2.190170 
# 
# From -- ./inp_files/215831.got.cif
#   From: 2010.05.17/outbox.cif.g08.bks.cpg/sg2_108_cif.got.tgz:215831.got - 2010.06.03 11:33:40.
