data_PCOD9083037
_publ_section_title
;
Structure prediction by ZEFSAII (Michael W. Deem and Ramdas Pophale) SiO2 
 PCOD9083037
Probable space group: P -1
;
_chemical_formula_sum "Si O2"
_cell_formula_units_Z 14
_cell_length_a 8.293315
_cell_length_b 16.169114
_cell_length_c 11.571643
_cell_angle_alpha 59.702970
_cell_angle_beta 122.084170
_cell_angle_gamma 151.892037
_cell_volume 616.887166
_symmetry_space_group_name_H-M "P -1"
_symmetry_group_IT_number 2
_symmetry_cell_setting 'triclinic'
loop_
_space_group_symop_operation_xyz
x,y,z
-x,-y,-z
loop_
_atom_site_type_symbol
_atom_site_label
_atom_site_fract_x
_atom_site_fract_y
_atom_site_fract_z
Si Si1 0.852077 0.837800 0.100290
Si Si2 0.355688 0.372293 0.263775
Si Si3 0.102319 0.329569 0.421473
Si Si4 0.395090 0.200095 0.500930
Si Si5 0.831638 0.515350 0.008036
Si Si6 0.116561 0.776511 0.344826
Si Si7 0.682585 0.375512 0.734818
O O1 0.623922 0.746990 0.197854
O O2 0.154618 0.888211 0.205597
O O3 0.575085 0.685172 0.006254
O O4 0.000000 0.000000 0.000000
O O5 0.091941 0.264062 0.349154
O O6 0.430735 0.290541 0.344075
O O7 0.728231 0.575380 0.300613
O O8 0.185822 0.380408 0.110225
O O9 0.500000 0.500000 0.500000
O O10 0.064973 0.424736 0.305905
O O11 0.885692 0.200503 0.536407
O O12 0.630347 0.205540 0.579490
O O13 0.524530 0.301526 0.599567
O O14 0.000000 0.000000 0.500000
O O15 0.065346 0.605162 0.147533
O O16 0.000000 0.500000 0.000000
#
# Coordination Sequence:
#
# PCOD9083037 Si02
#       7
#     2   2   2   2   2   2   2
#     4  10  20  39  63  95 125 150 197 258 308 356
#     4  10  18  38  65  90 118 152 206 251 295 366
#     4  10  15  34  70  88 109 147 214 258 286 340
#     4  12  26  40  56  88 130 165 200 251 310 354
#     4   9  18  35  63  92 112 154 204 239 302 352
#     4  10  20  39  62  89 116 165 205 242 298 365
#     4  11  20  40  63  89 121 161 202 250 297 363
#
# _framework density 22.694588
#
# number of rings (size 3 to 8) (size 9 to 14) (size 15 to 20)
#    0.000    1.714    8.571    0.429    0.000    2.286 
#    2.571    7.143    0.000    0.000    0.000    0.000 
#    0.000    0.000    0.000    0.000    0.000    0.000 
#
# Total GULP energy -78013.562377 kJ/mol
# GULP energy per Si atom -5572.397313 kJ/mol
# Density = 2.264293 g / cm^3
# Si number density = 22.694588 Si / 1000 Ang^3
#
#
#
# Elastic Constant Matrix: (Units=GPa)
#
#
# Indices 1 2 3 4 5 6 
#
# 1 61.9146 8.8163 40.7021 0.8978 36.5660 4.0400
# 2 8.8163 43.7693 40.4904 -7.9569 18.5688 -5.6541
# 3 40.7021 40.4904 172.2271 -7.0996 68.9391 -1.1040
# 4 0.8978 -7.9569 -7.0996 32.3687 -5.9172 13.5447
# 5 36.5660 18.5688 68.9391 -5.9172 49.6583 -0.3091
# 6 4.0400 -5.6541 -1.1040 13.5447 -0.3091 14.5634
#
#
#
# Elastic Compliance Matrix: (Units=1/GPa)
#
#
# Indices 1 2 3 4 5 6 
#
# 1 0.030966 0.001256 0.003811 -0.002405 -0.028887 -0.006190
# 2 0.001256 0.031358 -0.005797 0.001436 -0.004370 0.009958
# 3 0.003811 -0.005797 0.014701 -0.001780 -0.021266 -0.000989
# 4 -0.002405 0.001436 -0.001780 0.052636 0.009680 -0.047659
# 5 -0.028887 -0.004370 -0.021266 0.009680 0.073701 -0.002734
# 6 -0.006190 0.009958 -0.000989 -0.047659 -0.002734 0.118442
#
#
# Mechanical properties :
#
#
# Convention : Reuss Voigt Hill
#
# Bulk Modulus (GPa) = 13.23375 50.88096 32.05736
# Shear Modulus (GPa) = 14.34909 31.84488 23.09699
#
# Velocity S-wave (km/s) = 2.51722 3.74999 3.19365
# Velocity P-wave (km/s) = 3.78054 6.42015 5.26834
#
# Compressibility (1/GPa) = 0.07556439
#
# Stress axis : x y z
#
# Youngs Moduli (GPa) = 32.29299 31.88971 68.02226
#
# Poissons Ratio (x) = -0.04004 -0.25921
# Poissons Ratio (y) = -0.04055 0.39432
# Poissons Ratio (z) = -0.12306 0.18486
#
# Static dielectric constant tensor:
#      x y z
#    x 1.985230 -0.015020 0.038670 
#    y -0.015020 1.871230 -0.029240 
#    z 0.038670 -0.029240 1.950130 
# 
# From -- ./inp_files/403045.got.cif
#   From: 2010.05.17/outbox.cif.g08.bks.cpg/sg2_202_cif.got.tgz:403045.got - 2010.06.03 11:33:40.
