data_PCOD9083381
_publ_section_title
;
Structure prediction by ZEFSAII (Michael W. Deem and Ramdas Pophale) SiO2 
 PCOD9083381
Probable space group: P -1
;
_chemical_formula_sum "Si O2"
_cell_formula_units_Z 14
_cell_length_a 13.530679
_cell_length_b 7.489265
_cell_length_c 9.706424
_cell_angle_alpha 126.863930
_cell_angle_beta 105.086617
_cell_angle_gamma 46.259151
_cell_volume 547.858109
_symmetry_space_group_name_H-M "P -1"
_symmetry_group_IT_number 2
_symmetry_cell_setting 'triclinic'
loop_
_space_group_symop_operation_xyz
x,y,z
-x,-y,-z
loop_
_atom_site_type_symbol
_atom_site_label
_atom_site_fract_x
_atom_site_fract_y
_atom_site_fract_z
Si Si1 0.789402 0.362212 0.432620
Si Si2 0.709982 0.041192 0.403045
Si Si3 0.479089 0.295560 0.653833
Si Si4 0.347347 0.134483 0.981886
Si Si5 0.937923 0.248511 0.826069
Si Si6 0.292197 0.032294 0.201002
Si Si7 0.997773 0.419902 0.199366
O O1 0.758144 0.215831 0.463548
O O2 0.689767 0.435102 0.302442
O O3 0.739527 0.670119 0.617302
O O4 0.955490 0.106404 0.341122
O O5 0.571875 0.259792 0.548142
O O6 0.672262 0.961496 0.213677
O O7 0.849356 0.697747 0.351268
O O8 0.500000 0.000000 0.500000
O O9 0.565009 0.246283 0.795498
O O10 0.230913 0.506900 0.122792
O O11 0.320196 0.005505 0.036817
O O12 0.500000 0.000000 0.000000
O O13 0.972745 0.400424 0.801231
O O14 0.976168 0.269009 0.003492
O O15 0.137776 0.151449 0.213575
#
# Coordination Sequence:
#
# PCOD9083381 Si02
#       7
#     2   2   2   2   2   2   2
#     4  10  19  34  55  80 108 139 179 220 260 311
#     4  10  20  36  58  77 104 142 180 218 260 314
#     4  10  21  35  52  77 111 145 171 215 275 315
#     4  10  19  34  56  80 104 138 181 218 258 317
#     4   8  16  31  52  77 105 138 173 218 264 305
#     4  10  20  34  56  81 109 140 175 219 267 312
#     4   8  16  32  53  77 105 139 176 213 263 318
#
# _framework density 25.554062999999999
#
# number of rings (size 3 to 8) (size 9 to 14) (size 15 to 20)
#    0.000    2.571    0.000    4.714    0.000    5.714 
#    0.000    2.857    0.000   28.286    0.000    0.000 
#    0.000    2.286    0.000    0.000    0.000    0.000 
#
# Total GULP energy -78288.553162 kJ/mol
# GULP energy per Si atom -5592.039512 kJ/mol
# Density = 2.549590 g / cm^3
# Si number density = 25.554063 Si / 1000 Ang^3
#
#
#
# Elastic Constant Matrix: (Units=GPa)
#
#
# Indices 1 2 3 4 5 6 
#
# 1 69.5230 27.3046 13.1028 9.2014 -7.3314 -29.9394
# 2 27.3046 125.4097 37.6335 -17.3657 -4.4659 -38.3694
# 3 13.1028 37.6335 77.2553 1.5715 9.2234 -13.4449
# 4 9.2014 -17.3657 1.5715 39.7523 -5.7357 4.3165
# 5 -7.3314 -4.4659 9.2234 -5.7357 18.8736 2.0571
# 6 -29.9394 -38.3694 -13.4449 4.3165 2.0571 42.8225
#
#
#
# Elastic Compliance Matrix: (Units=1/GPa)
#
#
# Indices 1 2 3 4 5 6 
#
# 1 0.023011 -0.000437 -0.001573 -0.006277 0.006002 0.015547
# 2 -0.000437 0.013829 -0.006022 0.006387 0.006982 0.009215
# 3 -0.001573 -0.006022 0.017712 -0.004733 -0.012144 0.000126
# 4 -0.006277 0.006387 -0.004733 0.031658 0.011431 -0.003892
# 5 0.006002 0.006982 -0.012144 0.011431 0.066124 0.002311
# 6 0.015547 0.009215 0.000126 -0.003892 0.002311 0.042800
#
#
# Mechanical properties :
#
#
# Convention : Reuss Voigt Hill
#
# Bulk Modulus (GPa) = 25.98210 47.58556 36.78383
# Shear Modulus (GPa) = 22.31880 33.23282 27.77581
#
# Velocity S-wave (km/s) = 2.95853 3.61014 3.30046
# Velocity P-wave (km/s) = 4.67548 6.00329 5.38050
#
# Compressibility (1/GPa) = 0.03848804
#
# Stress axis : x y z
#
# Youngs Moduli (GPa) = 43.45816 72.31431 56.45756
#
# Poissons Ratio (x) = 0.03157 0.08882
# Poissons Ratio (y) = 0.01897 0.33999
# Poissons Ratio (z) = 0.06837 0.43548
#
# Static dielectric constant tensor:
#      x y z
#    x 2.081490 -0.005860 -0.036820 
#    y -0.005860 2.109460 0.017510 
#    z -0.036820 0.017510 2.012460 
# 
# From -- ./inp_files/393110.got.cif
#   From: 2010.05.17/outbox.cif.g08.bks.cpg/sg2_197_cif.got.tgz:393110.got - 2010.06.03 11:33:40.
