data_PCOD9083067
_publ_section_title
;
Structure prediction by ZEFSAII (Michael W. Deem and Ramdas Pophale) SiO2 
 PCOD9083067
Probable space group: P -1
;
_chemical_formula_sum "Si O2"
_cell_formula_units_Z 16
_cell_length_a 8.736890
_cell_length_b 8.564234
_cell_length_c 20.881953
_cell_angle_alpha 41.958868
_cell_angle_beta 47.871807
_cell_angle_gamma 61.885292
_cell_volume 773.579049
_symmetry_space_group_name_H-M "P -1"
_symmetry_group_IT_number 2
_symmetry_cell_setting 'triclinic'
loop_
_space_group_symop_operation_xyz
x,y,z
-x,-y,-z
loop_
_atom_site_type_symbol
_atom_site_label
_atom_site_fract_x
_atom_site_fract_y
_atom_site_fract_z
Si Si1 0.387093 0.008481 0.722671
Si Si2 0.232265 0.256741 0.882242
Si Si3 0.567447 0.620874 0.857613
Si Si4 0.229443 0.717301 0.026315
Si Si5 0.060411 0.230924 0.071578
Si Si6 0.338768 0.118065 0.555968
Si Si7 0.127102 0.040638 0.250381
Si Si8 0.405963 0.641157 0.335220
O O1 0.401024 0.096119 0.619644
O O2 0.488388 0.198225 0.686147
O O3 0.502308 0.764327 0.770830
O O4 0.147558 0.936972 0.829255
O O5 0.419967 0.402676 0.753545
O O6 0.012236 0.350058 0.893986
O O7 0.222960 0.221049 0.971646
O O8 0.248685 0.995044 0.931181
O O9 0.666270 0.371861 0.910651
O O10 0.744257 0.782847 0.793579
O O11 0.366121 0.621357 0.959706
O O12 0.140409 0.146281 0.143017
O O13 0.000000 0.500000 0.000000
O O14 0.325245 0.391204 0.459996
O O15 0.111466 0.991354 0.653589
O O16 0.500000 0.000000 0.500000
O O17 0.234789 0.795494 0.303373
#
# Coordination Sequence:
#
# PCOD9083067 Si02
#       8
#     2   2   2   2   2   2   2   2
#     4  10  21  43  65  91 120 168 216 245 315 380
#     4  11  20  36  60  96 126 160 211 242 304 390
#     4  10  19  38  63  91 121 168 199 252 313 370
#     4  10  19  33  61  91 128 154 201 251 295 375
#     4  11  23  36  61  97 136 167 194 257 323 376
#     4  11  26  44  66  91 121 164 215 272 319 361
#     4  10  23  42  62  90 127 166 206 255 323 363
#     4  11  23  43  68  88 123 172 213 262 303 371
#
# _framework density 20.683084000000001
#
# number of rings (size 3 to 8) (size 9 to 14) (size 15 to 20)
#    0.000    1.500    3.750    2.250    7.000    0.500 
#    2.250    2.500    2.750    0.000    0.000    0.000 
#    0.000    0.000    0.000    0.000    0.000    0.000 
#
# Total GULP energy -89357.966465 kJ/mol
# GULP energy per Si atom -5584.872904 kJ/mol
# Density = 2.063601 g / cm^3
# Si number density = 20.683084 Si / 1000 Ang^3
#
#
#
# Elastic Constant Matrix: (Units=GPa)
#
#
# Indices 1 2 3 4 5 6 
#
# 1 97.2960 28.4331 51.6978 3.4606 11.0944 -16.3734
# 2 28.4331 67.5861 39.9830 0.6244 7.4570 -14.4159
# 3 51.6978 39.9830 129.5871 8.2148 19.9264 -8.2568
# 4 3.4606 0.6244 8.2148 38.2083 -8.5444 3.8431
# 5 11.0944 7.4570 19.9264 -8.5444 40.0567 -5.6569
# 6 -16.3734 -14.4159 -8.2568 3.8431 -5.6569 31.4841
#
#
#
# Elastic Compliance Matrix: (Units=1/GPa)
#
#
# Indices 1 2 3 4 5 6 
#
# 1 0.014321 -0.002120 -0.004541 -0.000990 -0.000780 0.005267
# 2 -0.002120 0.020040 -0.004982 0.000334 0.000365 0.006792
# 3 -0.004541 -0.004982 0.011826 -0.002875 -0.004596 -0.002016
# 4 -0.000990 0.000334 -0.002875 0.028847 0.007327 -0.003321
# 5 -0.000780 0.000365 -0.004596 0.007327 0.029377 0.002940
# 6 0.005267 0.006792 -0.002016 -0.003321 0.002940 0.038016
#
#
# Mechanical properties :
#
#
# Convention : Reuss Voigt Hill
#
# Bulk Modulus (GPa) = 43.66501 59.41078 51.53790
# Shear Modulus (GPa) = 28.84403 33.57351 31.20877
#
# Velocity S-wave (km/s) = 3.73845 4.03331 3.88867
# Velocity P-wave (km/s) = 6.30809 7.10470 6.71821
#
# Compressibility (1/GPa) = 0.02290163
#
# Stress axis : x y z
#
# Youngs Moduli (GPa) = 69.82957 49.89908 84.55957
#
# Poissons Ratio (x) = 0.10577 0.38396
# Poissons Ratio (y) = 0.14802 0.42130
# Poissons Ratio (z) = 0.31707 0.24861
#
# Static dielectric constant tensor:
#      x y z
#    x 1.790040 0.010180 0.011970 
#    y 0.010180 1.781010 -0.017160 
#    z 0.011970 -0.017160 1.731280 
# 
# From -- ./inp_files/217650.got.cif
#   From: 2010.05.17/outbox.cif.g08.bks.cpg/sg2_109_cif.got.tgz:217650.got - 2010.06.03 11:33:40.
