data_PCOD9083314
_publ_section_title
;
Structure prediction by ZEFSAII (Michael W. Deem and Ramdas Pophale) SiO2 
 PCOD9083314
Probable space group: P -1
;
_chemical_formula_sum "Si O2"
_cell_formula_units_Z 14
_cell_length_a 14.170522
_cell_length_b 9.274988
_cell_length_c 7.077792
_cell_angle_alpha 98.749106
_cell_angle_beta 33.458548
_cell_angle_gamma 97.237845
_cell_volume 506.906286
_symmetry_space_group_name_H-M "P -1"
_symmetry_group_IT_number 2
_symmetry_cell_setting 'triclinic'
loop_
_space_group_symop_operation_xyz
x,y,z
-x,-y,-z
loop_
_atom_site_type_symbol
_atom_site_label
_atom_site_fract_x
_atom_site_fract_y
_atom_site_fract_z
Si Si1 0.607118 0.903118 0.080302
Si Si2 0.111934 0.348809 0.515762
Si Si3 0.230369 0.921221 0.614351
Si Si4 0.582668 0.707500 0.410822
Si Si5 0.083308 0.243739 0.945828
Si Si6 0.409938 0.527593 0.956681
Si Si7 0.140030 0.875923 0.198995
O O1 0.431108 0.895805 0.260792
O O2 0.576395 0.861015 0.344593
O O3 0.740087 0.776100 0.774724
O O4 0.701432 0.057322 0.939266
O O5 0.069792 0.346269 0.807282
O O6 0.948540 0.281510 0.667773
O O7 0.209256 0.493363 0.316157
O O8 0.177749 0.089336 0.702810
O O9 0.183730 0.887959 0.905379
O O10 0.102243 0.814625 0.694619
O O11 0.783415 0.684564 0.118967
O O12 0.475004 0.671407 0.769887
O O13 0.522996 0.596254 0.326254
O O14 0.500000 0.500000 0.000000
O O15 0.000000 0.000000 0.500000
#
# Coordination Sequence:
#
# PCOD9083314 Si02
#       7
#     2   2   2   2   2   2   2
#     4  10  19  34  55  85 116 146 187 229 280 333
#     4   9  19  33  54  81 112 148 182 234 276 328
#     4  10  20  32  55  82 119 155 177 226 284 337
#     4  10  20  33  59  86 107 147 195 231 277 337
#     4  10  19  34  54  83 115 149 189 218 282 347
#     4  10  19  35  58  84 106 146 196 238 275 326
#     4   9  17  30  50  79 109 143 182 221 275 334
#
# _framework density 27.618516
#
# number of rings (size 3 to 8) (size 9 to 14) (size 15 to 20)
#    0.000    2.286    2.857    0.429    0.000    0.571 
#    0.000    0.000    0.000   11.143    0.000    0.000 
#    0.000    0.000    0.000    0.000    0.000    0.000 
#
# Total GULP energy -78375.368407 kJ/mol
# GULP energy per Si atom -5598.240601 kJ/mol
# Density = 2.755566 g / cm^3
# Si number density = 27.618516 Si / 1000 Ang^3
#
#
#
# Elastic Constant Matrix: (Units=GPa)
#
#
# Indices 1 2 3 4 5 6 
#
# 1 153.8288 59.2271 67.5151 -28.0134 -11.3549 7.9457
# 2 59.2271 103.6903 54.1516 -23.9971 -8.7132 -5.6324
# 3 67.5151 54.1516 147.1662 -49.5730 -13.0239 -11.6830
# 4 -28.0134 -23.9971 -49.5730 51.1634 -3.2370 6.4604
# 5 -11.3549 -8.7132 -13.0239 -3.2370 58.4796 -16.2944
# 6 7.9457 -5.6324 -11.6830 6.4604 -16.2944 35.1352
#
#
#
# Elastic Compliance Matrix: (Units=1/GPa)
#
#
# Indices 1 2 3 4 5 6 
#
# 1 0.009752 -0.004026 -0.003036 0.001018 -0.000521 -0.004289
# 2 -0.004026 0.013841 -0.002249 0.001859 0.001666 0.002812
# 3 -0.003036 -0.002249 0.012890 0.009426 0.003755 0.004620
# 4 0.001018 0.001859 0.009426 0.030429 0.004124 -0.000480
# 5 -0.000521 0.001666 0.003755 0.004124 0.021309 0.010758
# 6 -0.004289 0.002812 0.004620 -0.000480 0.010758 0.036496
#
#
# Mechanical properties :
#
#
# Convention : Reuss Voigt Hill
#
# Bulk Modulus (GPa) = 55.99043 85.16362 70.57703
# Shear Modulus (GPa) = 33.49126 43.87507 38.68317
#
# Velocity S-wave (km/s) = 3.48607 3.99006 3.74655
# Velocity P-wave (km/s) = 6.04321 7.22012 6.65772
#
# Compressibility (1/GPa) = 0.01786019
#
# Stress axis : x y z
#
# Youngs Moduli (GPa) = 102.54584 72.24822 77.57998
#
# Poissons Ratio (x) = 0.29085 0.23555
# Poissons Ratio (y) = 0.41282 0.17451
# Poissons Ratio (z) = 0.31135 0.16252
#
# Static dielectric constant tensor:
#      x y z
#    x 2.126130 0.068520 0.041500 
#    y 0.068520 2.193380 0.005450 
#    z 0.041500 0.005450 2.227950 
# 
# From -- ./inp_files/203570.got.cif
#   From: 2010.05.17/outbox.cif.g08.bks.cpg/sg2_102_cif.got.tgz:203570.got - 2010.06.03 11:33:40.
