data_PCOD9083835
_publ_section_title
;
Structure prediction by ZEFSAII (Michael W. Deem and Ramdas Pophale) SiO2 
 PCOD9083835
Probable space group: P -1
;
_chemical_formula_sum "Si O2"
_cell_formula_units_Z 16
_cell_length_a 10.069929
_cell_length_b 12.306166
_cell_length_c 8.530961
_cell_angle_alpha 121.762054
_cell_angle_beta 59.645404
_cell_angle_gamma 95.045531
_cell_volume 752.444219
_symmetry_space_group_name_H-M "P -1"
_symmetry_group_IT_number 2
_symmetry_cell_setting 'triclinic'
loop_
_space_group_symop_operation_xyz
x,y,z
-x,-y,-z
loop_
_atom_site_type_symbol
_atom_site_label
_atom_site_fract_x
_atom_site_fract_y
_atom_site_fract_z
Si Si1 0.796055 0.536643 0.333204
Si Si2 0.016026 0.851288 0.929190
Si Si3 0.507222 0.049464 0.790890
Si Si4 0.086993 0.402083 0.239428
Si Si5 0.589255 0.785171 0.740385
Si Si6 0.726204 0.919456 0.321172
Si Si7 0.637898 0.332960 0.433371
Si Si8 0.351048 0.361945 0.824947
O O1 0.759096 0.684315 0.538106
O O2 0.686441 0.462330 0.442295
O O3 0.742492 0.550890 0.195882
O O4 0.971831 0.450762 0.195275
O O5 0.198250 0.777350 0.747524
O O6 0.927161 0.745890 0.825009
O O7 0.915567 0.876579 0.170287
O O8 0.000000 0.000000 0.000000
O O9 0.356118 0.038731 0.767313
O O10 0.569747 0.923630 0.769006
O O11 0.648817 0.036826 0.572702
O O12 0.459882 0.177286 0.024048
O O13 0.000000 0.500000 0.500000
O O14 0.261315 0.405199 0.075745
O O15 0.470681 0.714596 0.667184
O O16 0.668183 0.787877 0.298181
O O17 0.534336 0.355445 0.671599
#
# Coordination Sequence:
#
# PCOD9083835 Si02
#       8
#     2   2   2   2   2   2   2   2
#     4  10  20  37  61  82 120 153 197 242 302 352
#     4  10  22  38  58  83 123 158 188 237 307 352
#     4  10  20  33  57  89 115 146 198 247 276 346
#     4  10  23  40  59  91 117 152 203 254 289 350
#     4  10  19  34  58  86 114 149 194 241 290 332
#     4  10  20  36  58  87 116 157 200 236 291 355
#     4  10  20  39  59  84 116 158 197 238 293 366
#     4  10  19  37  62  82 111 159 200 236 296 353
#
# _framework density 21.264035
#
# number of rings (size 3 to 8) (size 9 to 14) (size 15 to 20)
#    0.000    2.000    2.500    2.625    5.250    0.000 
#    0.000    5.625    0.000    0.000    0.000    0.000 
#    0.000    0.000    0.000    0.000    0.000    0.000 
#
# Total GULP energy -89115.781770 kJ/mol
# GULP energy per Si atom -5569.736361 kJ/mol
# Density = 2.121564 g / cm^3
# Si number density = 21.264035 Si / 1000 Ang^3
#
#
#
# Elastic Constant Matrix: (Units=GPa)
#
#
# Indices 1 2 3 4 5 6 
#
# 1 38.1361 11.5541 28.8514 -7.6746 -21.3399 -1.7492
# 2 11.5541 109.4657 27.6174 3.8015 -17.2015 -6.8727
# 3 28.8514 27.6174 169.1738 -11.0577 -18.1869 4.3747
# 4 -7.6746 3.8015 -11.0577 33.8468 5.4729 -11.9672
# 5 -21.3399 -17.2015 -18.1869 5.4729 39.4553 0.5442
# 6 -1.7492 -6.8727 4.3747 -11.9672 0.5442 19.5840
#
#
#
# Elastic Compliance Matrix: (Units=1/GPa)
#
#
# Indices 1 2 3 4 5 6 
#
# 1 0.043125 0.000119 -0.004947 0.008314 0.019811 0.009529
# 2 0.000119 0.010356 -0.001433 -0.001141 0.004033 0.003156
# 3 -0.004947 -0.001433 0.007074 0.000604 -0.000094 -0.002153
# 4 0.008314 -0.001141 0.000604 0.040985 -0.001756 0.025301
# 5 0.019811 0.004033 -0.000094 -0.001756 0.038004 0.001077
# 6 0.009529 0.003156 -0.002153 0.025301 0.001077 0.068932
#
#
# Mechanical properties :
#
#
# Convention : Reuss Voigt Hill
#
# Bulk Modulus (GPa) = 20.81986 50.31349 35.56667
# Shear Modulus (GPa) = 21.09620 35.16073 28.12846
#
# Velocity S-wave (km/s) = 3.15319 4.07077 3.64100
# Velocity P-wave (km/s) = 4.80304 6.76813 5.86842
#
# Compressibility (1/GPa) = 0.04803107
#
# Stress axis : x y z
#
# Youngs Moduli (GPa) = 23.18863 96.56317 141.36574
#
# Poissons Ratio (x) = -0.01149 0.69936
# Poissons Ratio (y) = -0.00276 0.20264
# Poissons Ratio (z) = 0.11472 0.13842
#
# Static dielectric constant tensor:
#      x y z
#    x 1.821610 -0.034590 -0.021270 
#    y -0.034590 1.799390 -0.019620 
#    z -0.021270 -0.019620 1.847490 
# 
# From -- ./inp_files/259827.got.cif
#   From: 2010.05.17/outbox.cif.g08.bks.cpg/sg2_130_cif.got.tgz:259827.got - 2010.06.03 11:33:40.
