data_PCOD9083881
_publ_section_title
;
Structure prediction by ZEFSAII (Michael W. Deem and Ramdas Pophale) SiO2 
 PCOD9083881
Probable space group: P -1
;
_chemical_formula_sum "Si O2"
_cell_formula_units_Z 14
_cell_length_a 9.764293
_cell_length_b 7.559944
_cell_length_c 10.769273
_cell_angle_alpha 57.568750
_cell_angle_beta 94.307157
_cell_angle_gamma 112.079734
_cell_volume 613.582748
_symmetry_space_group_name_H-M "P -1"
_symmetry_group_IT_number 2
_symmetry_cell_setting 'triclinic'
loop_
_space_group_symop_operation_xyz
x,y,z
-x,-y,-z
loop_
_atom_site_type_symbol
_atom_site_label
_atom_site_fract_x
_atom_site_fract_y
_atom_site_fract_z
Si Si1 0.103320 0.683562 0.836519
Si Si2 0.213593 0.220679 0.677497
Si Si3 0.990705 0.231159 0.468043
Si Si4 0.556840 0.160701 0.132535
Si Si5 0.323945 0.897092 0.425186
Si Si6 0.439872 0.284489 0.842480
Si Si7 0.550150 0.702088 0.538350
O O1 0.034953 0.641868 0.705959
O O2 0.275363 0.703537 0.854370
O O3 0.122990 0.944395 0.771671
O O4 0.000000 0.500000 0.000000
O O5 0.274855 0.277582 0.801247
O O6 0.372218 0.291208 0.588780
O O7 0.127151 0.323761 0.539868
O O8 0.850723 0.183431 0.567801
O O9 0.000000 0.000000 0.500000
O O10 0.432630 0.057465 0.268712
O O11 0.560895 0.945627 0.134694
O O12 0.492156 0.290027 0.983941
O O13 0.355305 0.048349 0.494136
O O14 0.385684 0.701834 0.520192
O O15 0.558915 0.514546 0.702040
#
# Coordination Sequence:
#
# PCOD9083881 Si02
#       7
#     2   2   2   2   2   2   2
#     4  10  19  34  58  90 121 151 197 251 308 350
#     4  10  20  39  58  89 117 163 207 240 301 377
#     4  10  20  38  60  87 124 160 200 255 308 355
#     4  10  22  40  62  94 126 158 210 255 300 370
#     4  11  20  38  63  94 121 155 213 267 290 355
#     4  10  22  39  61  91 125 168 200 244 316 374
#     4  11  20  36  65  88 122 156 213 255 300 358
#
# _framework density 22.816808000000002
#
# number of rings (size 3 to 8) (size 9 to 14) (size 15 to 20)
#    0.000    1.714    5.714    1.286    2.000    0.571 
#    0.000    4.286    0.000    1.714    0.000    0.000 
#    0.000    0.000    0.000    0.000    0.000    0.000 
#
# Total GULP energy -78022.203084 kJ/mol
# GULP energy per Si atom -5573.014506 kJ/mol
# Density = 2.276488 g / cm^3
# Si number density = 22.816808 Si / 1000 Ang^3
#
#
#
# Elastic Constant Matrix: (Units=GPa)
#
#
# Indices 1 2 3 4 5 6 
#
# 1 129.0482 13.1330 61.6552 17.1876 21.2145 24.0827
# 2 13.1330 61.7780 14.8731 -0.9282 16.6223 -0.1115
# 3 61.6552 14.8731 196.2112 7.4236 21.3481 23.8647
# 4 17.1876 -0.9282 7.4236 27.9059 15.6874 4.4482
# 5 21.2145 16.6223 21.3481 15.6874 41.6534 14.1724
# 6 24.0827 -0.1115 23.8647 4.4482 14.1724 26.7154
#
#
#
# Elastic Compliance Matrix: (Units=1/GPa)
#
#
# Indices 1 2 3 4 5 6 
#
# 1 0.011057 -0.002211 -0.002294 -0.005717 0.001163 -0.007593
# 2 -0.002211 0.020264 -0.000775 0.007846 -0.012223 0.007948
# 3 -0.002294 -0.000775 0.006344 0.000753 -0.000963 -0.003217
# 4 -0.005717 0.007846 0.000753 0.050757 -0.022430 0.007961
# 5 0.001163 -0.012223 -0.000963 -0.022430 0.043984 -0.019838
# 6 -0.007593 0.007948 -0.003217 0.007961 -0.019838 0.056381
#
#
# Mechanical properties :
#
#
# Convention : Reuss Voigt Hill
#
# Bulk Modulus (GPa) = 36.89192 62.92888 49.91040
# Shear Modulus (GPa) = 23.99450 39.07999 31.53725
#
# Velocity S-wave (km/s) = 3.24638 4.14305 3.72182
# Velocity P-wave (km/s) = 5.50053 7.10820 6.35540
#
# Compressibility (1/GPa) = 0.02710621
#
# Stress axis : x y z
#
# Youngs Moduli (GPa) = 90.43990 49.34739 157.64075
#
# Poissons Ratio (x) = 0.10910 0.36156
# Poissons Ratio (y) = 0.19995 0.12217
# Poissons Ratio (z) = 0.20743 0.03824
#
# Static dielectric constant tensor:
#      x y z
#    x 1.889800 0.003160 0.060370 
#    y 0.003160 1.944160 -0.008920 
#    z 0.060370 -0.008920 1.905520 
# 
# From -- ./inp_files/380665.got.cif
#   From: 2010.05.17/outbox.cif.g08.bks.cpg/sg2_191_cif.got.tgz:380665.got - 2010.06.03 11:33:40.
