data_PCOD9083775
_publ_section_title
;
Structure prediction by ZEFSAII (Michael W. Deem and Ramdas Pophale) SiO2 
 PCOD9083775
Probable space group: P -1
;
_chemical_formula_sum "Si O2"
_cell_formula_units_Z 14
_cell_length_a 7.462082
_cell_length_b 15.338266
_cell_length_c 9.071261
_cell_angle_alpha 66.642628
_cell_angle_beta 124.531090
_cell_angle_gamma 133.174780
_cell_volume 623.705083
_symmetry_space_group_name_H-M "P -1"
_symmetry_group_IT_number 2
_symmetry_cell_setting 'triclinic'
loop_
_space_group_symop_operation_xyz
x,y,z
-x,-y,-z
loop_
_atom_site_type_symbol
_atom_site_label
_atom_site_fract_x
_atom_site_fract_y
_atom_site_fract_z
Si Si1 0.370110 0.004187 0.666946
Si Si2 0.066058 0.628560 0.970317
Si Si3 0.714761 0.355769 0.659632
Si Si4 0.818043 0.869442 0.311316
Si Si5 0.403927 0.143135 0.077680
Si Si6 0.820154 0.592428 0.602984
Si Si7 0.344569 0.781576 0.554139
O O1 0.300441 0.063011 0.720718
O O2 0.585831 0.109479 0.585871
O O3 0.490766 0.937925 0.828059
O O4 0.093810 0.921771 0.495257
O O5 0.352367 0.727336 0.960040
O O6 0.858467 0.628037 0.769262
O O7 0.099283 0.661210 0.134897
O O8 0.000000 0.500000 0.000000
O O9 0.415693 0.270199 0.657932
O O10 0.876034 0.496950 0.649491
O O11 0.665607 0.306632 0.507084
O O12 0.835145 0.893308 0.126159
O O13 0.421945 0.167649 0.245163
O O14 0.500000 0.500000 0.500000
O O15 0.046290 0.708039 0.538691
#
# Coordination Sequence:
#
# PCOD9083775 Si02
#       7
#     2   2   2   2   2   2   2
#     4  10  20  36  57  82 117 148 189 232 278 332
#     4   8  17  34  55  81 106 145 184 225 277 328
#     4   9  18  36  58  77 113 144 183 233 278 334
#     4   9  20  35  58  86 109 151 191 227 277 338
#     4  10  19  34  58  81 115 150 187 228 279 339
#     4  10  20  34  59  82 104 144 191 231 280 336
#     4  10  21  35  54  83 113 148 180 231 287 327
#
# _framework density 22.446504000000001
#
# number of rings (size 3 to 8) (size 9 to 14) (size 15 to 20)
#    0.000    2.571    0.000    1.286    4.000    0.571 
#    0.000    0.714    9.429    0.000    0.000    0.000 
#    0.000    0.000    0.000    0.000    0.000    0.000 
#
# Total GULP energy -77936.958255 kJ/mol
# GULP energy per Si atom -5566.925590 kJ/mol
# Density = 2.239541 g / cm^3
# Si number density = 22.446504 Si / 1000 Ang^3
#
#
#
# Elastic Constant Matrix: (Units=GPa)
#
#
# Indices 1 2 3 4 5 6 
#
# 1 39.4531 9.7253 25.9009 -2.1372 -12.9862 -0.6405
# 2 9.7253 118.6069 20.3302 -12.7241 -0.6460 5.4138
# 3 25.9009 20.3302 95.6387 15.5747 -18.7540 15.6135
# 4 -2.1372 -12.7241 15.5747 40.0921 0.1008 -0.3174
# 5 -12.9862 -0.6460 -18.7540 0.1008 29.3118 12.7580
# 6 -0.6405 5.4138 15.6135 -0.3174 12.7580 32.7586
#
#
#
# Elastic Compliance Matrix: (Units=1/GPa)
#
#
# Indices 1 2 3 4 5 6 
#
# 1 0.034337 -0.000903 -0.008199 0.004714 0.009456 0.001091
# 2 -0.000903 0.009427 -0.003108 0.004165 -0.002615 0.000964
# 3 -0.008199 -0.003108 0.020828 -0.009685 0.016697 -0.016170
# 4 0.004714 0.004165 -0.009685 0.030352 -0.007222 0.007127
# 5 0.009456 -0.002615 0.016697 -0.007222 0.062831 -0.031881
# 6 0.001091 0.000964 -0.016170 0.007127 -0.031881 0.050580
#
#
# Mechanical properties :
#
#
# Convention : Reuss Voigt Hill
#
# Bulk Modulus (GPa) = 24.89247 40.62350 32.75798
# Shear Modulus (GPa) = 20.31155 33.61534 26.96345
#
# Velocity S-wave (km/s) = 3.01140 3.87405 3.46964
# Velocity P-wave (km/s) = 4.81717 6.17643 5.53865
#
# Compressibility (1/GPa) = 0.04017280
#
# Stress axis : x y z
#
# Youngs Moduli (GPa) = 29.12304 106.08389 48.01199
#
# Poissons Ratio (x) = 0.09577 0.39365
# Poissons Ratio (y) = 0.02629 0.14921
# Poissons Ratio (z) = 0.23878 0.32968
#
# Static dielectric constant tensor:
#      x y z
#    x 1.911110 -0.021690 0.030960 
#    y -0.021690 1.880030 -0.028420 
#    z 0.030960 -0.028420 1.973750 
# 
# From -- ./inp_files/169253.got.cif
#   From: 2010.05.17/outbox.cif.g08.bks.cpg/sg2_85_cif.got.tgz:169253.got - 2010.06.03 11:33:40.
