data_PCOD9083643
_publ_section_title
;
Structure prediction by ZEFSAII (Michael W. Deem and Ramdas Pophale) SiO2 
 PCOD9083643
Probable space group: P -1
;
_chemical_formula_sum "Si O2"
_cell_formula_units_Z 16
_cell_length_a 11.429305
_cell_length_b 11.896291
_cell_length_c 10.787559
_cell_angle_alpha 109.175773
_cell_angle_beta 38.167986
_cell_angle_gamma 124.773298
_cell_volume 723.455292
_symmetry_space_group_name_H-M "P -1"
_symmetry_group_IT_number 2
_symmetry_cell_setting 'triclinic'
loop_
_space_group_symop_operation_xyz
x,y,z
-x,-y,-z
loop_
_atom_site_type_symbol
_atom_site_label
_atom_site_fract_x
_atom_site_fract_y
_atom_site_fract_z
Si Si1 0.195306 0.652711 0.849762
Si Si2 0.498259 0.567813 0.157728
Si Si3 0.379666 0.164543 0.981647
Si Si4 0.900565 0.442714 0.374298
Si Si5 0.617307 0.364164 0.071827
Si Si6 0.283737 0.835265 0.467716
Si Si7 0.704658 0.936409 0.330086
Si Si8 0.955688 0.126536 0.955786
O O1 0.231536 0.623257 0.668652
O O2 0.107175 0.758110 0.965208
O O3 0.379065 0.693083 0.816745
O O4 0.000000 0.500000 0.000000
O O5 0.636131 0.733745 0.069858
O O6 0.256446 0.531044 0.396083
O O7 0.500000 0.500000 0.000000
O O8 0.589571 0.498048 0.149076
O O9 0.426127 0.240854 0.101534
O O10 0.602910 0.169002 0.754381
O O11 0.181046 0.004558 0.072261
O O12 0.918690 0.319314 0.381918
O O13 0.144568 0.571528 0.176926
O O14 0.469159 0.869130 0.432726
O O15 0.268190 0.971244 0.539026
O O16 0.865672 0.056564 0.140274
O O17 0.790099 0.832980 0.247400
#
# Coordination Sequence:
#
# PCOD9083643 Si02
#       8
#     2   2   2   2   2   2   2   2
#     4  10  22  37  58  82 112 158 203 227 282 348
#     4   9  20  37  57  90 115 142 195 234 289 355
#     4   9  20  35  56  86 111 148 192 234 294 348
#     4  10  20  36  60  84 117 153 190 240 291 333
#     4  10  22  39  57  81 123 160 192 240 273 343
#     4   9  17  31  54  87 111 140 189 230 298 350
#     4   9  18  31  55  86 114 138 183 246 291 335
#     4  10  19  34  57  83 115 148 187 241 291 333
#
# _framework density 22.116087
#
# number of rings (size 3 to 8) (size 9 to 14) (size 15 to 20)
#    0.000    2.500    1.250    0.000    1.750   10.500 
#    2.250    1.250    0.000    0.750    0.000    0.000 
#    0.000    0.000    0.000    0.000    0.000    0.000 
#
# Total GULP energy -89211.652670 kJ/mol
# GULP energy per Si atom -5575.728292 kJ/mol
# Density = 2.206575 g / cm^3
# Si number density = 22.116087 Si / 1000 Ang^3
#
#
#
# Elastic Constant Matrix: (Units=GPa)
#
#
# Indices 1 2 3 4 5 6 
#
# 1 68.1067 37.0744 3.2290 22.1001 -4.7220 1.1592
# 2 37.0744 102.3598 25.1256 26.9015 -4.1757 -3.4028
# 3 3.2290 25.1256 59.7115 14.4316 -6.4199 -0.2164
# 4 22.1001 26.9015 14.4316 35.5486 2.0636 -4.9865
# 5 -4.7220 -4.1757 -6.4199 2.0636 18.2450 7.0142
# 6 1.1592 -3.4028 -0.2164 -4.9865 7.0142 38.5803
#
#
#
# Elastic Compliance Matrix: (Units=1/GPa)
#
#
# Indices 1 2 3 4 5 6 
#
# 1 0.022577 -0.005843 0.005403 -0.013013 0.009647 -0.004599
# 2 -0.005843 0.014444 -0.004366 -0.005479 0.000646 0.000599
# 3 0.005403 -0.004366 0.021853 -0.010057 0.010632 -0.003658
# 4 -0.013013 -0.005479 -0.010057 0.046686 -0.016884 0.008955
# 5 0.009647 0.000646 0.010632 -0.016884 0.068821 -0.014868
# 6 -0.004599 0.000599 -0.003658 0.008955 -0.014868 0.029951
#
#
# Mechanical properties :
#
#
# Convention : Reuss Voigt Hill
#
# Bulk Modulus (GPa) = 20.29946 40.11510 30.20728
# Shear Modulus (GPa) = 21.70490 29.45806 25.58148
#
# Velocity S-wave (km/s) = 3.13614 3.65358 3.40471
# Velocity P-wave (km/s) = 4.72360 5.99800 5.39854
#
# Compressibility (1/GPa) = 0.04926238
#
# Stress axis : x y z
#
# Youngs Moduli (GPa) = 44.29256 69.23457 45.76110
#
# Poissons Ratio (x) = 0.40454 -0.24727
# Poissons Ratio (y) = 0.25881 0.19979
# Poissons Ratio (z) = -0.23933 0.30227
#
# Static dielectric constant tensor:
#      x y z
#    x 1.901770 0.040040 -0.029970 
#    y 0.040040 1.864590 0.010690 
#    z -0.029970 0.010690 1.893500 
# 
# From -- ./inp_files/423862.got.cif
#   From: 2010.05.17/outbox.cif.g08.bks.cpg/sg2_212_cif.got.tgz:423862.got - 2010.06.03 11:33:40.
