data_PCOD9083670
_publ_section_title
;
Structure prediction by ZEFSAII (Michael W. Deem and Ramdas Pophale) SiO2 
 PCOD9083670
Probable space group: P -1
;
_chemical_formula_sum "Si O2"
_cell_formula_units_Z 16
_cell_length_a 12.486863
_cell_length_b 19.830724
_cell_length_c 19.711580
_cell_angle_alpha 19.286714
_cell_angle_beta 39.318343
_cell_angle_gamma 32.311614
_cell_volume 853.697617
_symmetry_space_group_name_H-M "P -1"
_symmetry_group_IT_number 2
_symmetry_cell_setting 'triclinic'
loop_
_space_group_symop_operation_xyz
x,y,z
-x,-y,-z
loop_
_atom_site_type_symbol
_atom_site_label
_atom_site_fract_x
_atom_site_fract_y
_atom_site_fract_z
Si Si1 0.513996 0.036438 0.604640
Si Si2 0.136813 0.031352 0.815694
Si Si3 0.823622 0.706624 0.131594
Si Si4 0.276194 0.411428 0.156727
Si Si5 0.241756 0.515911 0.495687
Si Si6 0.383333 0.017323 0.825257
Si Si7 0.410371 0.490628 0.157069
Si Si8 0.465367 0.763237 0.166926
O O1 0.297381 0.074680 0.657639
O O2 0.542539 0.943343 0.756293
O O3 0.482208 0.296758 0.365756
O O4 0.676605 0.839975 0.659719
O O5 0.189976 0.044858 0.855303
O O6 0.920128 0.241326 0.696527
O O7 0.215070 0.754393 0.022093
O O8 0.850690 0.535649 0.344478
O O9 0.672755 0.696480 0.162960
O O10 0.039557 0.612924 0.083048
O O11 0.709679 0.984305 0.951043
O O12 0.358097 0.387765 0.215174
O O13 0.409338 0.478178 0.982820
O O14 0.322620 0.278703 0.634954
O O15 0.415007 0.558629 0.392947
O O16 0.458872 0.831722 0.026240
#
# Coordination Sequence:
#
# PCOD9083670 Si02
#       8
#     2   2   2   2   2   2   2   2
#     4   9  20  35  52  79 118 143 175 221 272 328
#     4   9  20  33  53  86 115 138 176 224 272 329
#     4  10  22  39  57  82 110 141 185 235 270 312
#     4  10  20  34  56  83 110 142 183 226 273 320
#     4  11  20  35  59  82 110 148 182 221 276 329
#     4   9  22  36  53  82 117 146 176 227 271 321
#     4  10  19  34  57  85 110 148 176 220 280 331
#     4  10  22  39  58  79 109 146 188 226 269 322
#
# _framework density 18.741999
#
# number of rings (size 3 to 8) (size 9 to 14) (size 15 to 20)
#    0.750    1.500    0.000    2.625    1.750    4.500 
#    0.000    0.625    0.000    1.500    0.000    0.000 
#    0.000    0.000    0.000    0.000    0.000    0.000 
#
# Total GULP energy -89218.101816 kJ/mol
# GULP energy per Si atom -5576.131363 kJ/mol
# Density = 1.869934 g / cm^3
# Si number density = 18.741999 Si / 1000 Ang^3
#
#
#
# Elastic Constant Matrix: (Units=GPa)
#
#
# Indices 1 2 3 4 5 6 
#
# 1 73.4337 20.4173 10.4738 -5.6080 0.3106 8.6506
# 2 20.4173 54.2896 11.0614 -9.1330 -3.5638 -1.4549
# 3 10.4738 11.0614 51.5644 -1.8630 -5.3664 12.0892
# 4 -5.6080 -9.1330 -1.8630 14.4830 -0.0898 1.8610
# 5 0.3106 -3.5638 -5.3664 -0.0898 20.1764 -5.0887
# 6 8.6506 -1.4549 12.0892 1.8610 -5.0887 19.5158
#
#
#
# Elastic Compliance Matrix: (Units=1/GPa)
#
#
# Indices 1 2 3 4 5 6 
#
# 1 0.016708 -0.006093 -0.000213 0.003738 -0.003653 -0.009037
# 2 -0.006093 0.024130 -0.004815 0.011276 0.005075 0.007731
# 3 -0.000213 -0.004815 0.024244 0.001937 0.001829 -0.014991
# 4 0.003738 0.011276 0.001937 0.079070 0.000419 -0.009447
# 5 -0.003653 0.005075 0.001829 0.000419 0.054817 0.015118
# 6 -0.009037 0.007731 -0.014991 -0.009447 0.015118 0.069952
#
#
# Mechanical properties :
#
#
# Convention : Reuss Voigt Hill
#
# Bulk Modulus (GPa) = 23.34345 29.24362 26.29354
# Shear Modulus (GPa) = 16.36967 19.99073 18.18020
#
# Velocity S-wave (km/s) = 2.95858 3.26947 3.11790
# Velocity P-wave (km/s) = 4.91458 5.46715 5.19821
#
# Compressibility (1/GPa) = 0.04283856
#
# Stress axis : x y z
#
# Youngs Moduli (GPa) = 59.85244 41.44294 41.24669
#
# Poissons Ratio (x) = 0.25252 0.00878
# Poissons Ratio (y) = 0.36469 0.19862
# Poissons Ratio (z) = 0.01275 0.19957
#
# Static dielectric constant tensor:
#      x y z
#    x 1.654410 0.009730 -0.011120 
#    y 0.009730 1.651160 0.011720 
#    z -0.011120 0.011720 1.649180 
# 
# From -- ./inp_files/596218.got.cif
#   From: 2010.05.17/outbox.cif.g08.bks.cpg/sg2_299_cif.got.tgz:596218.got - 2010.06.03 11:33:40.
