data_PCOD9083095
_publ_section_title
;
Structure prediction by ZEFSAII (Michael W. Deem and Ramdas Pophale) SiO2 
 PCOD9083095
Probable space group: P -1
;
_chemical_formula_sum "Si O2"
_cell_formula_units_Z 16
_cell_length_a 5.143267
_cell_length_b 15.922160
_cell_length_c 12.793226
_cell_angle_alpha 119.364758
_cell_angle_beta 45.501877
_cell_angle_gamma 112.024463
_cell_volume 650.430237
_symmetry_space_group_name_H-M "P -1"
_symmetry_group_IT_number 2
_symmetry_cell_setting 'triclinic'
loop_
_space_group_symop_operation_xyz
x,y,z
-x,-y,-z
loop_
_atom_site_type_symbol
_atom_site_label
_atom_site_fract_x
_atom_site_fract_y
_atom_site_fract_z
Si Si1 0.136337 0.915919 0.784078
Si Si2 0.924206 0.289530 0.072246
Si Si3 0.600795 0.887274 0.101755
Si Si4 0.588266 0.390134 0.640917
Si Si5 0.349969 0.605032 0.598785
Si Si6 0.187786 0.564804 0.169402
Si Si7 0.011054 0.734179 0.192488
Si Si8 0.309552 0.207307 0.312747
O O1 0.023428 0.860280 0.675893
O O2 0.420469 0.855671 0.733787
O O3 0.771041 0.922528 0.963802
O O4 0.317199 0.023063 0.789861
O O5 0.510538 0.244170 0.171876
O O6 0.921212 0.366963 0.214533
O O7 0.984481 0.318057 0.953548
O O8 0.167311 0.202167 0.982800
O O9 0.189277 0.840754 0.191187
O O10 0.232732 0.453943 0.758735
O O11 0.804940 0.386916 0.469855
O O12 0.774295 0.432086 0.715890
O O13 0.395237 0.285553 0.660252
O O14 0.500000 0.500000 0.500000
O O15 0.673650 0.691166 0.567315
O O16 0.247583 0.671918 0.167257
O O17 0.500000 0.500000 0.000000
#
# Coordination Sequence:
#
# PCOD9083095 Si02
#       8
#     2   2   2   2   2   2   2   2
#     4  10  20  35  59  93 127 156 208 260 329 359
#     4   9  20  36  62  96 126 162 211 264 312 367
#     4  10  19  33  62  93 125 163 202 269 318 375
#     4  10  24  42  61  92 121 173 204 258 313 376
#     4  10  23  42  67  92 131 174 212 255 313 380
#     4  10  23  40  65  87 125 163 217 262 310 365
#     4  10  21  37  63  92 129 157 215 255 322 361
#     4   9  21  38  57  92 127 163 200 267 305 378
#
# _framework density 24.599101999999998
#
# number of rings (size 3 to 8) (size 9 to 14) (size 15 to 20)
#    1.500    0.750    1.250    1.125    3.500    3.500 
#    2.250    1.250    0.000    1.500    0.000    0.000 
#    0.000    0.000    0.000    0.000    0.000    0.000 
#
# Total GULP energy -89285.431147 kJ/mol
# GULP energy per Si atom -5580.339447 kJ/mol
# Density = 2.454311 g / cm^3
# Si number density = 24.599102 Si / 1000 Ang^3
#
#
#
# Elastic Constant Matrix: (Units=GPa)
#
#
# Indices 1 2 3 4 5 6 
#
# 1 101.4620 28.1102 44.1680 12.7552 27.5988 2.4989
# 2 28.1102 130.6046 38.2531 25.7234 6.7681 18.7805
# 3 44.1680 38.2531 108.6956 7.6851 28.2202 -4.1782
# 4 12.7552 25.7234 7.6851 41.8204 -3.2558 5.4155
# 5 27.5988 6.7681 28.2202 -3.2558 42.7149 2.1316
# 6 2.4989 18.7805 -4.1782 5.4155 2.1316 33.8599
#
#
#
# Elastic Compliance Matrix: (Units=1/GPa)
#
#
# Indices 1 2 3 4 5 6 
#
# 1 0.013875 -0.000996 -0.003221 -0.003587 -0.006959 0.000143
# 2 -0.000996 0.010564 -0.003502 -0.004741 0.001198 -0.005535
# 3 -0.003221 -0.003502 0.013666 -0.000457 -0.006645 0.004358
# 4 -0.003587 -0.004741 -0.000457 0.028720 0.005665 -0.002112
# 5 -0.006959 0.001198 -0.006645 0.005665 0.032736 -0.003938
# 6 0.000143 -0.005535 0.004358 -0.002112 -0.003938 0.033717
#
#
# Mechanical properties :
#
#
# Convention : Reuss Voigt Hill
#
# Bulk Modulus (GPa) = 44.11765 62.42496 53.27131
# Shear Modulus (GPa) = 31.99539 39.02774 35.51156
#
# Velocity S-wave (km/s) = 3.61040 3.98747 3.80361
# Velocity P-wave (km/s) = 5.94589 6.82876 6.40256
#
# Compressibility (1/GPa) = 0.02266666
#
# Stress axis : x y z
#
# Youngs Moduli (GPa) = 72.07398 94.65828 73.17220
#
# Poissons Ratio (x) = 0.09429 0.23572
# Poissons Ratio (y) = 0.07179 0.25623
# Poissons Ratio (z) = 0.23218 0.33147
#
# Static dielectric constant tensor:
#      x y z
#    x 2.035050 0.063350 -0.029630 
#    y 0.063350 2.024940 -0.006300 
#    z -0.029630 -0.006300 1.964390 
# 
# From -- ./inp_files/97127.got.cif
#   From: 2010.05.17/outbox.cif.g08.bks.cpg/sg2_49_cif.got.tgz:97127.got - 2010.06.03 11:33:40.
