data_PCOD9083594
_publ_section_title
;
Structure prediction by ZEFSAII (Michael W. Deem and Ramdas Pophale) SiO2 
 PCOD9083594
Probable space group: P -1
;
_chemical_formula_sum "Si O2"
_cell_formula_units_Z 16
_cell_length_a 12.035645
_cell_length_b 11.125998
_cell_length_c 6.861473
_cell_angle_alpha 99.337943
_cell_angle_beta 79.793215
_cell_angle_gamma 91.409947
_cell_volume 892.278399
_symmetry_space_group_name_H-M "P -1"
_symmetry_group_IT_number 2
_symmetry_cell_setting 'triclinic'
loop_
_space_group_symop_operation_xyz
x,y,z
-x,-y,-z
loop_
_atom_site_type_symbol
_atom_site_label
_atom_site_fract_x
_atom_site_fract_y
_atom_site_fract_z
Si Si1 0.630823 0.522849 0.402066
Si Si2 0.140008 0.086897 0.319952
Si Si3 0.882946 0.125422 0.421568
Si Si4 0.272148 0.019787 0.873780
Si Si5 0.423649 0.613035 0.978894
Si Si6 0.324634 0.193182 0.557179
Si Si7 0.456792 0.821337 0.733453
Si Si8 0.697999 0.319865 0.574872
O O1 0.500000 0.500000 0.500000
O O2 0.653977 0.450743 0.176316
O O3 0.649254 0.664386 0.403864
O O4 0.703328 0.457108 0.528048
O O5 0.210884 0.170803 0.466342
O O6 0.014457 0.136681 0.335088
O O7 0.127435 0.958938 0.405327
O O8 0.210199 0.066596 0.096950
O O9 0.815730 0.249560 0.514465
O O10 0.817101 0.055703 0.250488
O O11 0.314830 0.128880 0.751549
O O12 0.376594 0.929288 0.861786
O O13 0.482646 0.721789 0.867503
O O14 0.500000 0.500000 0.000000
O O15 0.358203 0.672111 0.194296
O O16 0.428010 0.133977 0.387929
O O17 0.385470 0.753188 0.566158
#
# Coordination Sequence:
#
# PCOD9083594 Si02
#       8
#     2   2   2   2   2   2   2   2
#     4  11  20  37  52  78 112 143 178 218 261 321
#     4  10  21  37  57  81 105 144 182 220 271 318
#     4   9  20  39  59  78 107 137 184 232 261 310
#     4  10  21  35  57  80 107 147 177 219 272 322
#     4  11  18  30  56  80 104 146 180 213 264 321
#     4  11  21  35  51  79 117 142 172 220 273 319
#     4  10  20  34  50  81 117 137 174 223 265 322
#     4  10  19  34  57  81 103 141 184 222 263 312
#
# _framework density 17.931622000000001
#
# number of rings (size 3 to 8) (size 9 to 14) (size 15 to 20)
#    0.000    1.750    3.750    1.500    0.000    3.500 
#    0.000    0.625    0.000    1.500    0.000    0.000 
#    0.000    0.000    0.000    0.000    0.000    0.000 
#
# Total GULP energy -89285.688579 kJ/mol
# GULP energy per Si atom -5580.355536 kJ/mol
# Density = 1.789081 g / cm^3
# Si number density = 17.931622 Si / 1000 Ang^3
#
#
#
# Elastic Constant Matrix: (Units=GPa)
#
#
# Indices 1 2 3 4 5 6 
#
# 1 68.3678 36.9152 3.9089 -7.8959 -12.0323 -9.9372
# 2 36.9152 94.9058 31.4802 -6.9176 -13.1117 -5.3518
# 3 3.9089 31.4802 99.7170 -12.4619 -16.5991 -2.6342
# 4 -7.8959 -6.9176 -12.4619 21.8638 -2.8168 -2.8120
# 5 -12.0323 -13.1117 -16.5991 -2.8168 19.5038 -1.5117
# 6 -9.9372 -5.3518 -2.6342 -2.8120 -1.5117 23.5871
#
#
#
# Elastic Compliance Matrix: (Units=1/GPa)
#
#
# Indices 1 2 3 4 5 6 
#
# 1 0.025334 -0.007645 0.006834 0.014762 0.019423 0.012707
# 2 -0.007645 0.015139 -0.004191 -0.000139 0.001862 -0.000151
# 3 0.006834 -0.004191 0.015760 0.013160 0.017205 0.006360
# 4 0.014762 -0.000139 0.013160 0.064740 0.030908 0.017356
# 5 0.019423 0.001862 0.017205 0.030908 0.085138 0.019668
# 6 0.012707 -0.000151 0.006360 0.017356 0.019668 0.051755
#
#
# Mechanical properties :
#
#
# Convention : Reuss Voigt Hill
#
# Bulk Modulus (GPa) = 21.63125 45.28880 33.46002
# Shear Modulus (GPa) = 17.65039 25.70335 21.67687
#
# Velocity S-wave (km/s) = 3.14079 3.79015 3.48064
# Velocity P-wave (km/s) = 5.02415 6.66820 5.90368
#
# Compressibility (1/GPa) = 0.04622941
#
# Stress axis : x y z
#
# Youngs Moduli (GPa) = 39.47253 66.05339 63.45099
#
# Poissons Ratio (x) = 0.50499 -0.43363
# Poissons Ratio (y) = 0.30177 0.26593
# Poissons Ratio (z) = -0.26976 0.27684
#
# Static dielectric constant tensor:
#      x y z
#    x 1.612210 -0.006890 0.018400 
#    y -0.006890 1.634000 -0.006290 
#    z 0.018400 -0.006290 1.624210 
# 
# From -- ./inp_files/71170.got.cif
#   From: 2010.05.17/outbox.cif.g08.bks.cpg/sg2_36_cif.got.tgz:71170.got - 2010.06.03 11:33:40.
