data_PCOD9083761
_publ_section_title
;
Structure prediction by ZEFSAII (Michael W. Deem and Ramdas Pophale) SiO2 
 PCOD9083761
Probable space group: P -1
;
_chemical_formula_sum "Si O2"
_cell_formula_units_Z 10
_cell_length_a 9.335630
_cell_length_b 6.341843
_cell_length_c 18.148881
_cell_angle_alpha 124.449434
_cell_angle_beta 141.592936
_cell_angle_gamma 64.293890
_cell_volume 550.368211
_symmetry_space_group_name_H-M "P -1"
_symmetry_group_IT_number 2
_symmetry_cell_setting 'triclinic'
loop_
_space_group_symop_operation_xyz
x,y,z
-x,-y,-z
loop_
_atom_site_type_symbol
_atom_site_label
_atom_site_fract_x
_atom_site_fract_y
_atom_site_fract_z
Si Si1 0.469441 0.571808 0.916700
Si Si2 0.202071 0.082024 0.695433
Si Si3 0.655485 0.866464 0.597478
Si Si4 0.735381 0.293223 0.479853
Si Si5 0.154556 0.036780 0.843012
O O1 0.385442 0.308493 0.793556
O O2 0.269846 0.780440 0.869414
O O3 0.500000 0.500000 0.000000
O O4 0.703969 0.721875 0.018334
O O5 0.254125 0.827818 0.620741
O O6 0.198860 0.040093 0.773319
O O7 0.952951 0.182390 0.589860
O O8 0.743158 0.598935 0.546398
O O9 0.495398 0.798285 0.589033
O O10 0.500000 0.000000 0.500000
O O11 0.881501 0.030692 0.742480
#
# Coordination Sequence:
#
# PCOD9083761 Si02
#       5
#     2   2   2   2   2
#     4   9  19  34  57  80 106 141 184 226 259 314
#     4  10  19  36  54  83 109 140 181 226 262 316
#     4  11  21  36  53  82 112 147 174 218 272 328
#     4  10  22  33  54  81 116 141 173 223 275 314
#     4  10  19  34  58  81 105 144 186 214 266 321
#
# _framework density 18.169651999999999
#
# number of rings (size 3 to 8) (size 9 to 14) (size 15 to 20)
#    0.000    2.000    4.000    0.000    0.000    2.400 
#    0.000    1.000    0.000   12.000    0.000    0.000 
#    0.000    0.000    0.000    0.000    0.000    0.000 
#
# Total GULP energy -55763.176133 kJ/mol
# GULP energy per Si atom -5576.317613 kJ/mol
# Density = 1.812830 g / cm^3
# Si number density = 18.169652 Si / 1000 Ang^3
#
#
#
# Elastic Constant Matrix: (Units=GPa)
#
#
# Indices 1 2 3 4 5 6 
#
# 1 38.7327 17.8729 21.9334 9.3741 10.4832 -5.7911
# 2 17.8729 57.6465 16.6859 -3.7078 6.8652 -2.5510
# 3 21.9334 16.6859 91.3009 3.5684 26.0529 4.4599
# 4 9.3741 -3.7078 3.5684 36.1157 9.8853 -0.6941
# 5 10.4832 6.8652 26.0529 9.8853 33.0988 4.3695
# 6 -5.7911 -2.5510 4.4599 -0.6941 4.3695 25.2480
#
#
#
# Elastic Compliance Matrix: (Units=1/GPa)
#
#
# Indices 1 2 3 4 5 6 
#
# 1 0.038690 -0.009851 -0.006594 -0.009266 -0.003493 0.009394
# 2 -0.009851 0.021372 -0.001187 0.005452 -0.002089 0.000621
# 3 -0.006594 -0.001187 0.015797 0.002891 -0.010633 -0.002503
# 4 -0.009266 0.005452 0.002891 0.033251 -0.010488 0.000644
# 5 -0.003493 -0.002089 -0.010633 -0.010488 0.044187 -0.007070
# 6 0.009394 0.000621 -0.002503 0.000644 -0.007070 0.043508
#
#
# Mechanical properties :
#
#
# Convention : Reuss Voigt Hill
#
# Bulk Modulus (GPa) = 24.63346 33.40718 29.02032
# Shear Modulus (GPa) = 20.35826 27.63836 23.99831
#
# Velocity S-wave (km/s) = 3.35095 3.90439 3.63821
# Velocity P-wave (km/s) = 5.34404 6.22510 5.80132
#
# Compressibility (1/GPa) = 0.04059520
#
# Stress axis : x y z
#
# Youngs Moduli (GPa) = 25.84622 46.79064 63.30272
#
# Poissons Ratio (x) = 0.46095 0.41743
# Poissons Ratio (y) = 0.25462 0.07511
# Poissons Ratio (z) = 0.17044 0.05552
#
# Static dielectric constant tensor:
#      x y z
#    x 1.598870 0.027320 0.022920 
#    y 0.027320 1.631790 0.030900 
#    z 0.022920 0.030900 1.636050 
# 
# From -- ./inp_files/228355.got.cif
#   From: 2010.05.17/outbox.cif.g08.bks.cpg/sg2_115_cif.got.tgz:228355.got - 2010.06.03 11:33:40.
