data_PCOD9083998
_publ_section_title
;
Structure prediction by ZEFSAII (Michael W. Deem and Ramdas Pophale) SiO2 
 PCOD9083998
Probable space group: P -1
;
_chemical_formula_sum "Si O2"
_cell_formula_units_Z 16
_cell_length_a 14.392244
_cell_length_b 8.043685
_cell_length_c 11.885701
_cell_angle_alpha 107.831084
_cell_angle_beta 148.503539
_cell_angle_gamma 85.447169
_cell_volume 637.021551
_symmetry_space_group_name_H-M "P -1"
_symmetry_group_IT_number 2
_symmetry_cell_setting 'triclinic'
loop_
_space_group_symop_operation_xyz
x,y,z
-x,-y,-z
loop_
_atom_site_type_symbol
_atom_site_label
_atom_site_fract_x
_atom_site_fract_y
_atom_site_fract_z
Si Si1 0.283999 0.793935 0.638282
Si Si2 0.158060 0.340795 0.843148
Si Si3 0.460517 0.934921 0.614749
Si Si4 0.140726 0.317857 0.182631
Si Si5 0.254373 0.636877 0.176845
Si Si6 0.872516 0.980681 0.073155
Si Si7 0.293220 0.249283 0.541987
Si Si8 0.602853 0.759322 0.114052
O O1 0.361157 0.804606 0.592534
O O2 0.060748 0.675545 0.393688
O O3 0.315413 0.011896 0.742397
O O4 0.409419 0.723071 0.837238
O O5 0.153214 0.173544 0.888270
O O6 0.249439 0.302171 0.816759
O O7 0.275679 0.539679 0.063582
O O8 0.424136 0.808930 0.440136
O O9 0.356716 0.081224 0.531740
O O10 0.684298 0.030942 0.889552
O O11 0.211546 0.474458 0.192593
O O12 0.280625 0.364502 0.443369
O O13 0.122185 0.126937 0.059861
O O14 0.933020 0.308605 0.005999
O O15 0.071176 0.149833 0.329824
O O16 0.412587 0.322978 0.793521
#
# Coordination Sequence:
#
# PCOD9083998 Si02
#       8
#     2   2   2   2   2   2   2   2
#     4  10  19  34  59  88 123 155 200 257 286 357
#     4  11  20  37  60  91 119 160 206 245 299 357
#     4  11  21  38  63  97 119 154 210 248 306 357
#     4  10  21  41  62  88 124 163 197 248 317 355
#     4  10  22  41  66  88 120 165 203 248 301 371
#     4  11  21  35  64  94 120 158 197 254 306 359
#     4  11  23  40  62  90 130 156 196 260 309 351
#     4  10  21  34  58  89 121 160 203 246 298 356
#
# _framework density 25.116890999999999
#
# number of rings (size 3 to 8) (size 9 to 14) (size 15 to 20)
#    0.000    1.500    5.000    2.250    0.000    2.500 
#    2.250    0.625    0.000    3.000    0.000    0.000 
#    0.000    0.000    0.000    0.000    0.000    0.000 
#
# Total GULP energy -89746.523475 kJ/mol
# GULP energy per Si atom -5609.157717 kJ/mol
# Density = 2.505972 g / cm^3
# Si number density = 25.116891 Si / 1000 Ang^3
#
#
#
# Elastic Constant Matrix: (Units=GPa)
#
#
# Indices 1 2 3 4 5 6 
#
# 1 125.3819 22.9602 39.7379 -8.4197 -21.4950 -4.8123
# 2 22.9602 66.6239 26.4960 -15.6582 -8.0970 11.0441
# 3 39.7379 26.4960 137.8663 -26.1695 -1.8013 3.1724
# 4 -8.4197 -15.6582 -26.1695 43.9429 -0.2378 -6.8283
# 5 -21.4950 -8.0970 -1.8013 -0.2378 52.1770 -2.4266
# 6 -4.8123 11.0441 3.1724 -6.8283 -2.4266 27.1577
#
#
#
# Elastic Compliance Matrix: (Units=1/GPa)
#
#
# Indices 1 2 3 4 5 6 
#
# 1 0.009999 -0.002577 -0.002392 0.000133 0.003799 0.003472
# 2 -0.002577 0.018932 -0.001952 0.004045 0.001512 -0.006775
# 3 -0.002392 -0.001952 0.009118 0.004319 -0.000939 0.000307
# 4 0.000133 0.004045 0.004319 0.027565 0.001186 0.004911
# 5 0.003799 0.001512 -0.000939 0.001186 0.021047 0.002347
# 6 0.003472 -0.006775 0.000307 0.004911 0.002347 0.041601
#
#
# Mechanical properties :
#
#
# Convention : Reuss Voigt Hill
#
# Bulk Modulus (GPa) = 41.31036 56.47337 48.89187
# Shear Modulus (GPa) = 33.29463 40.70071 36.99767
#
# Velocity S-wave (km/s) = 3.64481 4.02985 3.84216
# Velocity P-wave (km/s) = 5.84772 6.64725 6.26026
#
# Compressibility (1/GPa) = 0.02420700
#
# Stress axis : x y z
#
# Youngs Moduli (GPa) = 100.00900 52.82138 109.66775
#
# Poissons Ratio (x) = 0.13614 0.26230
# Poissons Ratio (y) = 0.25776 0.21408
# Poissons Ratio (z) = 0.23919 0.10311
#
# Static dielectric constant tensor:
#      x y z
#    x 1.938300 0.031550 -0.012190 
#    y 0.031550 2.013940 0.031430 
#    z -0.012190 0.031430 1.951880 
# 
# From -- ./inp_files/447965.got.cif
#   From: 2010.05.17/outbox.cif.g08.bks.cpg/sg2_224_cif.got.tgz:447965.got - 2010.06.03 11:33:40.
