data_PCOD9083959
_publ_section_title
;
Structure prediction by ZEFSAII (Michael W. Deem and Ramdas Pophale) SiO2 
 PCOD9083959
Probable space group: P -1
;
_chemical_formula_sum "Si O2"
_cell_formula_units_Z 14
_cell_length_a 18.254475
_cell_length_b 9.764594
_cell_length_c 9.504674
_cell_angle_alpha 149.441864
_cell_angle_beta 137.001881
_cell_angle_gamma 45.562729
_cell_volume 575.203443
_symmetry_space_group_name_H-M "P -1"
_symmetry_group_IT_number 2
_symmetry_cell_setting 'triclinic'
loop_
_space_group_symop_operation_xyz
x,y,z
-x,-y,-z
loop_
_atom_site_type_symbol
_atom_site_label
_atom_site_fract_x
_atom_site_fract_y
_atom_site_fract_z
Si Si1 0.893685 0.774674 0.246122
Si Si2 0.151542 0.305321 0.337690
Si Si3 0.019596 0.875764 0.762705
Si Si4 0.477875 0.432041 0.068729
Si Si5 0.665593 0.031983 0.516845
Si Si6 0.149988 0.641714 0.383338
Si Si7 0.427008 0.768772 0.706434
O O1 0.914243 0.831404 0.488093
O O2 0.020964 0.703330 0.306888
O O3 0.828781 0.056232 0.337391
O O4 0.841077 0.526490 0.898373
O O5 0.095655 0.571076 0.587557
O O6 0.226377 0.086700 0.348740
O O7 0.208011 0.444321 0.414086
O O8 0.072578 0.122536 0.990177
O O9 0.000000 0.000000 0.000000
O O10 0.579877 0.319207 0.218477
O O11 0.404177 0.703883 0.271046
O O12 0.500000 0.500000 0.000000
O O13 0.404830 0.202791 0.774182
O O14 0.672649 0.118425 0.439917
O O15 0.500000 0.500000 0.500000
O O16 0.500000 0.000000 0.000000
#
# Coordination Sequence:
#
# PCOD9083959 Si02
#       7
#     2   2   2   2   2   2   2
#     4   9  16  29  49  71  94 124 174 226 251 310
#     4  11  21  34  55  78 106 141 179 230 270 321
#     4  11  22  35  53  76 103 142 189 226 271 317
#     4  10  19  34  59  86 112 143 181 223 267 323
#     4  10  20  35  56  83 113 145 184 221 271 330
#     4   9  16  28  49  74  92 124 174 216 265 301
#     4   8  16  31  53  80 104 143 184 208 251 332
#
# _framework density 24.339213000000001
#
# number of rings (size 3 to 8) (size 9 to 14) (size 15 to 20)
#    0.000    2.286    0.000    6.000    0.000    0.000 
#    0.000    0.000    9.429    0.000    0.000    0.000 
#    0.000    0.000    0.000    0.000    0.000    0.000 
#
# Total GULP energy -78157.339474 kJ/mol
# GULP energy per Si atom -5582.667105 kJ/mol
# Density = 2.428382 g / cm^3
# Si number density = 24.339213 Si / 1000 Ang^3
#
#
#
# Elastic Constant Matrix: (Units=GPa)
#
#
# Indices 1 2 3 4 5 6 
#
# 1 57.4876 46.8890 29.0192 -6.0126 -11.8053 15.1742
# 2 46.8890 209.5736 49.0938 -8.9511 -20.4205 16.1846
# 3 29.0192 49.0938 167.1501 25.1139 -31.8519 1.7385
# 4 -6.0126 -8.9511 25.1139 55.5735 14.2954 -10.0753
# 5 -11.8053 -20.4205 -31.8519 14.2954 20.8549 -4.2771
# 6 15.1742 16.1846 1.7385 -10.0753 -4.2771 39.1980
#
#
#
# Elastic Compliance Matrix: (Units=1/GPa)
#
#
# Indices 1 2 3 4 5 6 
#
# 1 0.024678 -0.003954 -0.002133 0.000383 0.005107 -0.007170
# 2 -0.003954 0.006109 -0.000584 0.000000 0.002715 -0.000670
# 3 -0.002133 -0.000584 0.014590 -0.014809 0.030647 -0.000043
# 4 0.000383 0.000000 -0.014809 0.037808 -0.047279 0.005068
# 5 0.005107 0.002715 0.030647 -0.047279 0.132269 -0.002177
# 6 -0.007170 -0.000670 -0.000043 0.005068 -0.002177 0.029631
#
#
# Mechanical properties :
#
#
# Convention : Reuss Voigt Hill
#
# Bulk Modulus (GPa) = 31.21450 76.02393 53.61921
# Shear Modulus (GPa) = 18.58005 43.73923 31.15964
#
# Velocity S-wave (km/s) = 2.76593 4.24378 3.58190
# Velocity P-wave (km/s) = 4.80137 7.43747 6.25975
#
# Compressibility (1/GPa) = 0.03203639
#
# Stress axis : x y z
#
# Youngs Moduli (GPa) = 40.52149 163.68730 68.54031
#
# Poissons Ratio (x) = 0.64722 0.14619
# Poissons Ratio (y) = 0.16022 0.04000
# Poissons Ratio (z) = 0.08643 0.09552
#
# Static dielectric constant tensor:
#      x y z
#    x 2.085960 0.005850 0.041600 
#    y 0.005850 2.021960 -0.093550 
#    z 0.041600 -0.093550 1.910650 
# 
# From -- ./inp_files/352524.got.cif
#   From: 2010.05.17/outbox.cif.g08.bks.cpg/sg2_177_cif.got.tgz:352524.got - 2010.06.03 11:33:40.
