data_PCOD9083466
_publ_section_title
;
Structure prediction by ZEFSAII (Michael W. Deem and Ramdas Pophale) SiO2 
 PCOD9083466
Probable space group: P -1
;
_chemical_formula_sum "Si O2"
_cell_formula_units_Z 16
_cell_length_a 7.403552
_cell_length_b 14.127813
_cell_length_c 15.846193
_cell_angle_alpha 36.038202
_cell_angle_beta 114.531994
_cell_angle_gamma 90.981756
_cell_volume 712.790095
_symmetry_space_group_name_H-M "P -1"
_symmetry_group_IT_number 2
_symmetry_cell_setting 'triclinic'
loop_
_space_group_symop_operation_xyz
x,y,z
-x,-y,-z
loop_
_atom_site_type_symbol
_atom_site_label
_atom_site_fract_x
_atom_site_fract_y
_atom_site_fract_z
Si Si1 0.583606 0.195552 0.307423
Si Si2 0.611904 0.906658 0.790348
Si Si3 0.019526 0.235946 0.636180
Si Si4 0.128391 0.564509 0.178050
Si Si5 0.053439 0.589745 0.342662
Si Si6 0.626515 0.429855 0.279285
Si Si7 0.520485 0.848426 0.991206
Si Si8 0.251373 0.210980 0.373041
O O1 0.493497 0.211352 0.183623
O O2 0.646847 0.331978 0.263933
O O3 0.349103 0.241950 0.283691
O O4 0.795514 0.955087 0.532785
O O5 0.485702 0.090373 0.569682
O O6 0.525560 0.962263 0.829076
O O7 0.904154 0.775679 0.945390
O O8 0.103490 0.380458 0.528512
O O9 0.858480 0.336440 0.618154
O O10 0.856282 0.271865 0.497330
O O11 0.246898 0.004970 0.860150
O O12 0.137198 0.573911 0.273958
O O13 0.380924 0.488356 0.237402
O O14 0.067937 0.411936 0.243792
O O15 0.755018 0.766097 0.155808
O O16 0.590795 0.637997 0.122463
#
# Coordination Sequence:
#
# PCOD9083466 Si02
#       8
#     2   2   2   2   2   2   2   2
#     4   8  17  35  49  77 109 137 176 213 246 310
#     4   9  18  33  55  75 101 139 184 208 247 299
#     4  10  20  38  56  77 104 140 167 219 268 304
#     4  10  19  34  56  81 103 136 174 223 252 304
#     4   9  20  37  61  77  97 133 187 214 252 314
#     4  10  22  34  49  81 116 132 170 212 266 312
#     4  10  20  36  54  77 107 139 172 213 258 317
#     4   8  16  32  51  76 106 131 181 210 246 304
#
# _framework density 22.447002000000001
#
# number of rings (size 3 to 8) (size 9 to 14) (size 15 to 20)
#    0.750    2.000    0.000    1.125    0.000    5.000 
#    2.250    1.250    0.000    0.000    0.000    0.000 
#    0.000    0.000    0.000    0.000    0.000    0.000 
#
# Total GULP energy -89086.244993 kJ/mol
# GULP energy per Si atom -5567.890312 kJ/mol
# Density = 2.239591 g / cm^3
# Si number density = 22.447002 Si / 1000 Ang^3
#
#
#
# Elastic Constant Matrix: (Units=GPa)
#
#
# Indices 1 2 3 4 5 6 
#
# 1 13.4113 -8.3643 -2.7851 -1.1701 5.8185 -2.4291
# 2 -8.3643 51.8091 17.0915 6.6012 2.1922 -7.6213
# 3 -2.7851 17.0915 78.1746 3.6130 -3.9612 -22.0302
# 4 -1.1701 6.6012 3.6130 34.6322 -13.9368 -7.3835
# 5 5.8185 2.1922 -3.9612 -13.9368 19.2313 6.4819
# 6 -2.4291 -7.6213 -22.0302 -7.3835 6.4819 30.7363
#
#
#
# Elastic Compliance Matrix: (Units=1/GPa)
#
#
# Indices 1 2 3 4 5 6 
#
# 1 0.125054 0.028695 0.003852 -0.022123 -0.065898 0.028342
# 2 0.028695 0.029006 -0.003381 -0.012125 -0.024611 0.009314
# 3 0.003852 -0.003381 0.016982 0.001456 -0.000288 0.012048
# 4 -0.022123 -0.012125 0.001456 0.047356 0.043180 -0.001442
# 5 -0.065898 -0.024611 -0.000288 0.043180 0.114498 -0.025291
# 6 0.028342 0.009314 0.012048 -0.001442 -0.025291 0.050707
#
#
# Mechanical properties :
#
#
# Convention : Reuss Voigt Hill
#
# Bulk Modulus (GPa) = 4.35973 17.25323 10.80648
# Shear Modulus (GPa) = 12.44620 26.08348 19.26484
#
# Velocity S-wave (km/s) = 2.35727 3.41251 2.93275
# Velocity P-wave (km/s) = 3.05867 4.81974 4.03642
#
# Compressibility (1/GPa) = 0.22937214
#
# Stress axis : x y z
#
# Youngs Moduli (GPa) = 7.99658 34.47554 58.88670
#
# Poissons Ratio (x) = -0.98927 -0.22683
# Poissons Ratio (y) = -0.22946 0.19911
# Poissons Ratio (z) = -0.03080 0.11657
#
# Static dielectric constant tensor:
#      x y z
#    x 1.870370 0.045270 -0.010640 
#    y 0.045270 1.899050 -0.055860 
#    z -0.010640 -0.055860 1.824340 
# 
# From -- ./inp_files/560788.got.cif
#   From: 2010.05.17/outbox.cif.g08.bks.cpg/sg2_281_cif.got.tgz:560788.got - 2010.06.03 11:33:40.
