data_PCOD9083468
_publ_section_title
;
Structure prediction by ZEFSAII (Michael W. Deem and Ramdas Pophale) SiO2 
 PCOD9083468
Probable space group: P -1
;
_chemical_formula_sum "Si O2"
_cell_formula_units_Z 14
_cell_length_a 13.201659
_cell_length_b 7.049483
_cell_length_c 7.234007
_cell_angle_alpha 57.329024
_cell_angle_beta 77.004357
_cell_angle_gamma 73.966288
_cell_volume 542.275959
_symmetry_space_group_name_H-M "P -1"
_symmetry_group_IT_number 2
_symmetry_cell_setting 'triclinic'
loop_
_space_group_symop_operation_xyz
x,y,z
-x,-y,-z
loop_
_atom_site_type_symbol
_atom_site_label
_atom_site_fract_x
_atom_site_fract_y
_atom_site_fract_z
Si Si1 0.848999 0.429948 0.078484
Si Si2 0.315569 0.108913 0.526851
Si Si3 0.239259 0.786508 0.436308
Si Si4 0.106790 0.381933 0.415102
Si Si5 0.503462 0.163670 0.192002
Si Si6 0.539541 0.306676 0.730827
Si Si7 0.941472 0.866357 0.783279
O O1 0.772108 0.381803 0.299322
O O2 0.939014 0.198304 0.164917
O O3 0.836564 0.482424 0.837049
O O4 0.891171 0.659999 0.004029
O O5 0.207483 0.267146 0.558928
O O6 0.413317 0.220160 0.354577
O O7 0.273059 0.999637 0.419533
O O8 0.378060 0.906742 0.737386
O O9 0.335386 0.707428 0.302568
O O10 0.134889 0.889093 0.307995
O O11 0.060476 0.203702 0.394971
O O12 0.000000 0.500000 0.500000
O O13 0.486073 0.925699 0.227103
O O14 0.489764 0.338459 0.936509
O O15 0.500000 0.500000 0.500000
#
# Coordination Sequence:
#
# PCOD9083468 Si02
#       7
#     2   2   2   2   2   2   2
#     4   9  18  33  55  76 107 146 176 221 264 320
#     4   9  19  38  58  76 110 152 179 215 282 328
#     4  10  19  34  56  81 107 141 182 224 270 322
#     4   9  18  33  52  79 106 137 182 218 264 322
#     4   9  20  41  57  76 112 147 178 228 272 325
#     4  10  22  36  56  86 107 134 187 232 270 321
#     4   8  18  35  52  76 107 150 178 209 270 331
#
# _framework density 25.817114
#
# number of rings (size 3 to 8) (size 9 to 14) (size 15 to 20)
#    0.857    2.000    0.000    0.429    2.000    2.286 
#    5.143    5.000    0.000    0.000    0.000    0.000 
#    0.000    0.000    0.000    0.000    0.000    0.000 
#
# Total GULP energy -78047.362397 kJ/mol
# GULP energy per Si atom -5574.811600 kJ/mol
# Density = 2.575835 g / cm^3
# Si number density = 25.817114 Si / 1000 Ang^3
#
#
#
# Elastic Constant Matrix: (Units=GPa)
#
#
# Indices 1 2 3 4 5 6 
#
# 1 61.9726 18.0707 3.2874 -8.4560 16.5614 -15.2124
# 2 18.0707 77.1184 20.1096 7.8009 14.8443 -15.2979
# 3 3.2874 20.1096 119.9942 -16.5986 3.1418 -8.7932
# 4 -8.4560 7.8009 -16.5986 32.2157 -2.8506 9.2073
# 5 16.5614 14.8443 3.1418 -2.8506 28.4557 -12.4336
# 6 -15.2124 -15.2979 -8.7932 9.2073 -12.4336 39.7952
#
#
#
# Elastic Compliance Matrix: (Units=1/GPa)
#
#
# Indices 1 2 3 4 5 6 
#
# 1 0.020847 -0.003486 0.001192 0.005319 -0.008615 0.002970
# 2 -0.003486 0.017687 -0.003598 -0.008976 -0.005502 0.005029
# 3 0.001192 -0.003598 0.009753 0.006272 0.000737 0.000007
# 4 0.005319 -0.008976 0.006272 0.040530 0.000976 -0.009103
# 5 -0.008615 -0.005502 0.000737 0.000976 0.047080 0.009238
# 6 0.002970 0.005029 0.000007 -0.009103 0.009238 0.033191
#
#
# Mechanical properties :
#
#
# Convention : Reuss Voigt Hill
#
# Bulk Modulus (GPa) = 27.39530 38.00228 32.69879
# Shear Modulus (GPa) = 25.90158 34.60115 30.25137
#
# Velocity S-wave (km/s) = 3.17088 3.66490 3.42681
# Velocity P-wave (km/s) = 4.90309 5.71493 5.32451
#
# Compressibility (1/GPa) = 0.03650262
#
# Stress axis : x y z
#
# Youngs Moduli (GPa) = 47.96941 56.53968 102.53440
#
# Poissons Ratio (x) = 0.19712 -0.12224
# Poissons Ratio (y) = 0.16724 0.36887
# Poissons Ratio (z) = -0.05719 0.20340
#
# Static dielectric constant tensor:
#      x y z
#    x 2.117900 -0.001840 -0.041970 
#    y -0.001840 2.183810 -0.031440 
#    z -0.041970 -0.031440 2.083990 
# 
# From -- ./inp_files/302066.got.cif
#   From: 2010.05.17/outbox.cif.g08.bks.cpg/sg2_152_cif.got.tgz:302066.got - 2010.06.03 11:33:40.
