data_PCOD9083983
_publ_section_title
;
Structure prediction by ZEFSAII (Michael W. Deem and Ramdas Pophale) SiO2 
 PCOD9083983
Probable space group: P -1
;
_chemical_formula_sum "Si O2"
_cell_formula_units_Z 16
_cell_length_a 12.158043
_cell_length_b 17.820248
_cell_length_c 9.280735
_cell_angle_alpha 103.411467
_cell_angle_beta 129.357817
_cell_angle_gamma 37.168176
_cell_volume 761.616916
_symmetry_space_group_name_H-M "P -1"
_symmetry_group_IT_number 2
_symmetry_cell_setting 'triclinic'
loop_
_space_group_symop_operation_xyz
x,y,z
-x,-y,-z
loop_
_atom_site_type_symbol
_atom_site_label
_atom_site_fract_x
_atom_site_fract_y
_atom_site_fract_z
Si Si1 0.921531 0.097965 0.650720
Si Si2 0.201016 0.131126 0.227988
Si Si3 0.041776 0.587302 0.883478
Si Si4 0.036240 0.363358 0.820841
Si Si5 0.455665 0.763978 0.862721
Si Si6 0.837953 0.155983 0.931869
Si Si7 0.790180 0.883757 0.113004
Si Si8 0.230566 0.406407 0.527017
O O1 0.069940 0.103834 0.709505
O O2 0.674147 0.185587 0.381912
O O3 0.805251 0.181357 0.743100
O O4 0.173590 0.916494 0.787531
O O5 0.013614 0.297417 0.150099
O O6 0.500000 0.000000 0.500000
O O7 0.260894 0.087599 0.088641
O O8 0.017960 0.143395 0.134068
O O9 0.795669 0.656024 0.625558
O O10 0.337896 0.405629 0.009632
O O11 0.014706 0.589170 0.034333
O O12 0.018551 0.279986 0.770011
O O13 0.838348 0.491852 0.592868
O O14 0.338039 0.258568 0.978920
O O15 0.527905 0.285672 0.791053
O O16 0.000000 0.000000 0.000000
O O17 0.500000 0.000000 0.000000
O O18 0.000000 0.500000 0.500000
#
# Coordination Sequence:
#
# PCOD9083983 Si02
#       8
#     2   2   2   2   2   2   2   2
#     4  10  21  36  59  90 122 157 203 260 311 366
#     4  10  23  42  62  89 126 171 205 258 323 380
#     4  10  21  39  63  87 125 160 210 254 316 375
#     4  10  20  37  63  86 122 161 209 249 316 365
#     4  10  19  34  59  87 122 153 201 254 307 362
#     4  11  24  40  64  86 125 165 214 249 318 380
#     4  10  20  37  60  89 121 157 207 259 304 367
#     4  11  24  40  64  93 125 167 210 264 313 371
#
# _framework density 21.007937999999999
#
# number of rings (size 3 to 8) (size 9 to 14) (size 15 to 20)
#    0.000    1.750    1.250    3.750    3.500    3.000 
#    0.000    4.375    0.000    0.000    0.000    0.000 
#    0.000    0.000    0.000    0.000    0.000    0.000 
#
# Total GULP energy -89268.420577 kJ/mol
# GULP energy per Si atom -5579.276286 kJ/mol
# Density = 2.096012 g / cm^3
# Si number density = 21.007938 Si / 1000 Ang^3
#
#
#
# Elastic Constant Matrix: (Units=GPa)
#
#
# Indices 1 2 3 4 5 6 
#
# 1 76.0561 35.6498 34.9529 -20.6559 5.4724 12.6790
# 2 35.6498 83.9833 31.3413 -15.5468 7.6314 13.0780
# 3 34.9529 31.3413 119.6031 -20.1635 12.6586 18.3605
# 4 -20.6559 -15.5468 -20.1635 24.1613 -11.4337 -1.9294
# 5 5.4724 7.6314 12.6586 -11.4337 28.6621 -1.8463
# 6 12.6790 13.0780 18.3605 -1.9294 -1.8463 41.9990
#
#
#
# Elastic Compliance Matrix: (Units=1/GPa)
#
#
# Indices 1 2 3 4 5 6 
#
# 1 0.020632 -0.005237 -0.002283 0.013966 0.003855 -0.002789
# 2 -0.005237 0.015888 -0.001473 0.003708 -0.001268 -0.002608
# 3 -0.002283 -0.001473 0.011035 0.004935 -0.002306 -0.003551
# 4 0.013966 0.003708 0.004935 0.069896 0.021833 -0.003357
# 5 0.003855 -0.001268 -0.002306 0.021833 0.044425 0.003195
# 6 -0.002789 -0.002608 -0.003551 -0.003357 0.003195 0.027003
#
#
# Mechanical properties :
#
#
# Convention : Reuss Voigt Hill
#
# Bulk Modulus (GPa) = 33.81844 53.72560 43.77202
# Shear Modulus (GPa) = 23.07113 30.81104 26.94108
#
# Velocity S-wave (km/s) = 3.31752 3.83383 3.58498
# Velocity P-wave (km/s) = 5.55045 6.72511 6.16582
#
# Compressibility (1/GPa) = 0.02956967
#
# Stress axis : x y z
#
# Youngs Moduli (GPa) = 48.46726 62.94193 90.61833
#
# Poissons Ratio (x) = 0.32963 0.20686
# Poissons Ratio (y) = 0.25382 0.13349
# Poissons Ratio (z) = 0.11064 0.09272
#
# Static dielectric constant tensor:
#      x y z
#    x 1.796570 -0.003580 -0.035260 
#    y -0.003580 1.825400 -0.039870 
#    z -0.035260 -0.039870 1.775330 
# 
# From -- ./inp_files/279560.got.cif
#   From: 2010.05.17/outbox.cif.g08.bks.cpg/sg2_140_cif.got.tgz:279560.got - 2010.06.03 11:33:40.
