data_PCOD9083203
_publ_section_title
;
Structure prediction by ZEFSAII (Michael W. Deem and Ramdas Pophale) SiO2 
 PCOD9083203
Probable space group: P -1
;
_chemical_formula_sum "Si O2"
_cell_formula_units_Z 16
_cell_length_a 7.820059
_cell_length_b 7.467193
_cell_length_c 22.376260
_cell_angle_alpha 127.358336
_cell_angle_beta 41.270132
_cell_angle_gamma 138.300477
_cell_volume 570.230796
_symmetry_space_group_name_H-M "P -1"
_symmetry_group_IT_number 2
_symmetry_cell_setting 'triclinic'
loop_
_space_group_symop_operation_xyz
x,y,z
-x,-y,-z
loop_
_atom_site_type_symbol
_atom_site_label
_atom_site_fract_x
_atom_site_fract_y
_atom_site_fract_z
Si Si1 0.958653 0.625829 0.095565
Si Si2 0.421877 0.221317 0.341806
Si Si3 0.262196 0.858335 0.869128
Si Si4 0.989721 0.502368 0.573765
Si Si5 0.266160 0.109954 0.037832
Si Si6 0.321248 0.995660 0.668393
Si Si7 0.899718 0.692385 0.376572
Si Si8 0.706744 0.567920 0.805108
O O1 0.969174 0.451658 0.110385
O O2 0.215808 0.929065 0.072034
O O3 0.614197 0.564317 0.173038
O O4 0.000000 0.500000 0.000000
O O5 0.529608 0.109071 0.344858
O O6 0.054231 0.010793 0.396393
O O7 0.529573 0.170024 0.239845
O O8 0.608825 0.530519 0.375721
O O9 0.075129 0.967042 0.908284
O O10 0.390396 0.037593 0.932363
O O11 0.611610 0.304339 0.644767
O O12 0.127732 0.384327 0.561622
O O13 0.000000 0.500000 0.500000
O O14 0.196230 0.813777 0.604877
O O15 0.385135 0.394816 0.096307
O O16 0.978599 0.853837 0.761220
O O17 0.138795 0.607322 0.272592
#
# Coordination Sequence:
#
# PCOD9083203 Si02
#       8
#     2   2   2   2   2   2   2   2
#     4  10  23  37  51  78 108 144 203 255 292 334
#     4   9  16  33  47  76 103 140 184 230 273 336
#     4  10  19  36  53  79 101 147 205 241 287 354
#     4   9  16  28  47  82 116 141 179 230 278 343
#     4  10  20  37  55  70 109 149 188 250 306 327
#     4   9  18  28  53  75 108 153 182 224 291 338
#     4   9  18  30  55  76 107 150 182 224 291 338
#     4  10  19  34  53  72 106 154 185 235 304 333
#
# _framework density 28.058814000000002
#
# number of rings (size 3 to 8) (size 9 to 14) (size 15 to 20)
#    0.000    2.750    2.500    1.125    3.500    2.000 
#    6.750    3.750    0.000    0.000    0.000    0.000 
#    0.000   56.000    0.000    0.000    0.000    0.000 
#
# Total GULP energy -89212.746076 kJ/mol
# GULP energy per Si atom -5575.796630 kJ/mol
# Density = 2.799495 g / cm^3
# Si number density = 28.058814 Si / 1000 Ang^3
#
#
#
# Elastic Constant Matrix: (Units=GPa)
#
#
# Indices 1 2 3 4 5 6 
#
# 1 103.6525 46.7212 46.2994 -9.5841 15.7004 -0.3367
# 2 46.7212 129.1655 50.9159 -10.8470 3.3886 28.4275
# 3 46.2994 50.9159 141.1470 14.0385 36.6352 11.1995
# 4 -9.5841 -10.8470 14.0385 39.8843 13.3160 2.6705
# 5 15.7004 3.3886 36.6352 13.3160 49.5606 -4.1817
# 6 -0.3367 28.4275 11.1995 2.6705 -4.1817 34.8850
#
#
#
# Elastic Compliance Matrix: (Units=1/GPa)
#
#
# Indices 1 2 3 4 5 6 
#
# 1 0.013629 -0.004251 -0.002975 0.003734 -0.002496 0.003965
# 2 -0.004251 0.012987 -0.003135 0.003978 0.000879 -0.009816
# 3 -0.002975 -0.003135 0.011328 -0.003285 -0.006472 -0.001635
# 4 0.003734 0.003978 -0.003285 0.031204 -0.007873 -0.005484
# 5 -0.002496 0.000879 -0.006472 -0.007873 0.028257 0.005327
# 6 0.003965 -0.009816 -0.001635 -0.005484 0.005327 0.038286
#
#
# Mechanical properties :
#
#
# Convention : Reuss Voigt Hill
#
# Bulk Modulus (GPa) = 58.06830 73.53757 65.80293
# Shear Modulus (GPa) = 30.83480 40.20122 35.51801
#
# Velocity S-wave (km/s) = 3.31861 3.78927 3.56173
# Velocity P-wave (km/s) = 5.95184 6.73870 6.35745
#
# Compressibility (1/GPa) = 0.01722110
#
# Stress axis : x y z
#
# Youngs Moduli (GPa) = 73.37364 77.00056 88.27545
#
# Poissons Ratio (x) = 0.32730 0.26266
# Poissons Ratio (y) = 0.31188 0.27678
# Poissons Ratio (z) = 0.21832 0.24143
#
# Static dielectric constant tensor:
#      x y z
#    x 2.202540 -0.053490 -0.093870 
#    y -0.053490 2.390070 0.057170 
#    z -0.093870 0.057170 2.302630 
# 
# From -- ./inp_files/588031.got.cif
#   From: 2010.05.17/outbox.cif.g08.bks.cpg/sg2_295_cif.got.tgz:588031.got - 2010.06.03 11:33:40.
