data_PCOD9083462
_publ_section_title
;
Structure prediction by ZEFSAII (Michael W. Deem and Ramdas Pophale) SiO2 
 PCOD9083462
Probable space group: P -1
;
_chemical_formula_sum "Si O2"
_cell_formula_units_Z 16
_cell_length_a 12.907514
_cell_length_b 12.786877
_cell_length_c 11.232602
_cell_angle_alpha 63.304852
_cell_angle_beta 96.987696
_cell_angle_gamma 147.832802
_cell_volume 740.051537
_symmetry_space_group_name_H-M "P -1"
_symmetry_group_IT_number 2
_symmetry_cell_setting 'triclinic'
loop_
_space_group_symop_operation_xyz
x,y,z
-x,-y,-z
loop_
_atom_site_type_symbol
_atom_site_label
_atom_site_fract_x
_atom_site_fract_y
_atom_site_fract_z
Si Si1 0.241514 0.603083 0.539886
Si Si2 0.327834 0.503374 0.426064
Si Si3 0.858988 0.918571 0.128070
Si Si4 0.625296 0.690692 0.562139
Si Si5 0.533495 0.793267 0.077225
Si Si6 0.731642 0.148625 0.732009
Si Si7 0.316605 0.420542 0.033473
Si Si8 0.553365 0.802862 0.677910
O O1 0.188554 0.432536 0.543608
O O2 0.331047 0.789673 0.364245
O O3 0.429233 0.759525 0.585221
O O4 0.006202 0.417870 0.657098
O O5 0.564174 0.703552 0.428611
O O6 0.242848 0.296060 0.462271
O O7 0.391111 0.653398 0.250661
O O8 0.629300 0.614220 0.278919
O O9 0.766461 0.953248 0.058448
O O10 0.000000 0.000000 0.000000
O O11 0.051175 0.116337 0.156489
O O12 0.694706 0.846695 0.599057
O O13 0.391061 0.567283 0.083456
O O14 0.594739 0.969439 0.920929
O O15 0.686402 0.010630 0.689168
O O16 0.355767 0.540000 0.861738
O O17 0.500000 0.500000 0.000000
#
# Coordination Sequence:
#
# PCOD9083462 Si02
#       8
#     2   2   2   2   2   2   2   2
#     4  10  21  39  58  79 107 140 186 229 272 315
#     4   9  19  36  53  76 114 147 173 217 269 330
#     4  11  18  31  52  79 112 145 175 219 269 313
#     4   9  18  33  54  79 109 147 179 209 271 334
#     4  10  21  35  51  79 111 140 184 220 268 325
#     4  10  22  36  59  84 101 138 190 234 266 312
#     4  11  19  29  50  82 112 141 180 219 265 319
#     4  10  19  34  56  80 112 140 174 230 273 315
#
# _framework density 21.620114000000001
#
# number of rings (size 3 to 8) (size 9 to 14) (size 15 to 20)
#    0.000    2.000    2.500    1.875    1.750    0.500 
#    0.000    7.500    0.000    0.000    0.000   20.125 
#    0.000    0.000    0.000    0.000    0.000    0.000 
#
# Total GULP energy -89294.908819 kJ/mol
# GULP energy per Si atom -5580.931801 kJ/mol
# Density = 2.157091 g / cm^3
# Si number density = 21.620114 Si / 1000 Ang^3
#
#
#
# Elastic Constant Matrix: (Units=GPa)
#
#
# Indices 1 2 3 4 5 6 
#
# 1 44.8716 5.7606 13.4749 0.9314 12.5320 6.6198
# 2 5.7606 52.1513 11.7305 0.3577 2.6052 5.7814
# 3 13.4749 11.7305 81.7123 24.7578 24.5923 11.4225
# 4 0.9314 0.3577 24.7578 28.7454 -0.4542 -2.5277
# 5 12.5320 2.6052 24.5923 -0.4542 34.1508 6.5750
# 6 6.6198 5.7814 11.4225 -2.5277 6.5750 35.4604
#
#
#
# Elastic Compliance Matrix: (Units=1/GPa)
#
#
# Indices 1 2 3 4 5 6 
#
# 1 0.025459 -0.001870 -0.001137 -0.000178 -0.007876 -0.002634
# 2 -0.001870 0.020358 -0.004047 0.003165 0.002454 -0.001896
# 3 -0.001137 -0.004047 0.026007 -0.023108 -0.017160 -0.005971
# 4 -0.000178 0.003165 -0.023108 0.055610 0.015660 0.008021
# 5 -0.007876 0.002454 -0.017160 0.015660 0.044659 -0.000567
# 6 -0.002634 -0.001896 -0.005971 0.008021 -0.000567 0.031601
#
#
# Mechanical properties :
#
#
# Convention : Reuss Voigt Hill
#
# Bulk Modulus (GPa) = 17.32601 26.74080 22.03340
# Shear Modulus (GPa) = 21.09335 29.52259 25.30797
#
# Velocity S-wave (km/s) = 3.12691 3.69930 3.42508
# Velocity P-wave (km/s) = 4.58998 5.53550 5.08477
#
# Compressibility (1/GPa) = 0.05771670
#
# Stress axis : x y z
#
# Youngs Moduli (GPa) = 39.27827 49.12176 38.45086
#
# Poissons Ratio (x) = 0.09184 0.04374
# Poissons Ratio (y) = 0.07344 0.15559
# Poissons Ratio (z) = 0.04468 0.19878
#
# Static dielectric constant tensor:
#      x y z
#    x 1.811430 -0.003600 0.006590 
#    y -0.003600 1.835450 0.009280 
#    z 0.006590 0.009280 1.827850 
# 
# From -- ./inp_files/453721.got.cif
#   From: 2010.05.17/outbox.cif.g08.bks.cpg/sg2_227_cif.got.tgz:453721.got - 2010.06.03 11:33:40.
