data_PCOD9083152
_publ_section_title
;
Structure prediction by ZEFSAII (Michael W. Deem and Ramdas Pophale) SiO2 
 PCOD9083152
Probable space group: P -1
;
_chemical_formula_sum "Si O2"
_cell_formula_units_Z 16
_cell_length_a 24.807829
_cell_length_b 14.144249
_cell_length_c 19.552393
_cell_angle_alpha 158.632726
_cell_angle_beta 165.561846
_cell_angle_gamma 27.489553
_cell_volume 614.974358
_symmetry_space_group_name_H-M "P -1"
_symmetry_group_IT_number 2
_symmetry_cell_setting 'triclinic'
loop_
_space_group_symop_operation_xyz
x,y,z
-x,-y,-z
loop_
_atom_site_type_symbol
_atom_site_label
_atom_site_fract_x
_atom_site_fract_y
_atom_site_fract_z
Si Si1 0.560444 0.635333 0.899479
Si Si2 0.976954 0.964073 0.597917
Si Si3 0.006873 0.417235 0.530848
Si Si4 0.419398 0.812592 0.465647
Si Si5 0.929205 0.507516 0.694469
Si Si6 0.537123 0.898118 0.824551
Si Si7 0.135514 0.460761 0.048835
Si Si8 0.224729 0.207953 0.413383
O O1 0.718939 0.858621 0.201376
O O2 0.742269 0.508480 0.082496
O O3 0.438960 0.814428 0.919750
O O4 0.464546 0.406711 0.576052
O O5 0.036700 0.878803 0.690720
O O6 0.079201 0.773673 0.542352
O O7 0.044108 0.264102 0.863935
O O8 0.833653 0.566248 0.456445
O O9 0.000000 0.500000 0.500000
O O10 0.507030 0.900951 0.707315
O O11 0.409122 0.059302 0.570072
O O12 0.168695 0.668456 0.073903
O O13 0.754563 0.666028 0.551501
O O14 0.949204 0.517539 0.806809
O O15 0.312502 0.717489 0.453395
O O16 0.727131 0.725981 0.953784
O O17 0.000000 0.000000 0.000000
#
# Coordination Sequence:
#
# PCOD9083152 Si02
#       8
#     2   2   2   2   2   2   2   2
#     4   9  18  33  52  81 106 132 181 227 267 308
#     4   8  17  31  51  77 106 136 179 226 267 307
#     4   9  16  27  49  81 105 125 175 223 267 314
#     4   9  16  31  52  77 109 133 178 222 265 319
#     4   8  15  28  51  76 101 134 176 218 262 309
#     4  10  21  33  53  79 106 149 181 210 266 326
#     4  10  19  34  50  74 112 144 181 214 260 328
#     4   9  13  26  49  76 101 127 168 219 272 302
#
# _framework density 26.017343
#
# number of rings (size 3 to 8) (size 9 to 14) (size 15 to 20)
#    0.750    2.250    2.500    1.125    0.000    0.500 
#    0.000   10.000    0.000   11.250    0.000    4.375 
#    0.000    0.000    0.000    0.000    0.000    0.000 
#
# Total GULP energy -89402.899056 kJ/mol
# GULP energy per Si atom -5587.681191 kJ/mol
# Density = 2.595813 g / cm^3
# Si number density = 26.017343 Si / 1000 Ang^3
#
#
#
# Elastic Constant Matrix: (Units=GPa)
#
#
# Indices 1 2 3 4 5 6 
#
# 1 114.7034 62.5860 32.0431 11.1898 -0.4131 19.7020
# 2 62.5860 109.0837 38.6275 30.2704 -4.8658 10.9582
# 3 32.0431 38.6275 96.7208 15.0239 -2.7284 4.9880
# 4 11.1898 30.2704 15.0239 35.6508 -5.2679 2.7262
# 5 -0.4131 -4.8658 -2.7284 -5.2679 21.4521 10.2849
# 6 19.7020 10.9582 4.9880 2.7262 10.2849 69.1294
#
#
#
# Elastic Compliance Matrix: (Units=1/GPa)
#
#
# Indices 1 2 3 4 5 6 
#
# 1 0.013626 -0.007848 -0.001756 0.003391 0.000388 -0.002704
# 2 -0.007848 0.017846 -0.002728 -0.011421 0.000774 -0.000060
# 3 -0.001756 -0.002728 0.012373 -0.002307 0.000314 0.000084
# 4 0.003391 -0.011421 -0.002307 0.038891 0.007519 -0.001642
# 5 0.000388 0.000774 0.000314 0.007519 0.052709 -0.008394
# 6 -0.002704 -0.000060 0.000084 -0.001642 -0.008394 0.016553
#
#
# Mechanical properties :
#
#
# Convention : Reuss Voigt Hill
#
# Bulk Modulus (GPa) = 52.13719 65.22456 58.68087
# Shear Modulus (GPa) = 27.31388 37.72989 32.52188
#
# Velocity S-wave (km/s) = 3.24363 3.81226 3.53938
# Velocity P-wave (km/s) = 5.84047 6.67097 6.26948
#
# Compressibility (1/GPa) = 0.01918017
#
# Stress axis : x y z
#
# Youngs Moduli (GPa) = 73.38965 56.03576 80.81946
#
# Poissons Ratio (x) = 0.43976 0.14194
# Poissons Ratio (y) = 0.57595 0.22049
# Poissons Ratio (z) = 0.12889 0.15288
#
# Static dielectric constant tensor:
#      x y z
#    x 2.158060 -0.028330 0.062710 
#    y -0.028330 2.057680 -0.016400 
#    z 0.062710 -0.016400 2.070050 
# 
# From -- ./inp_files/602403.got.cif
#   From: 2010.05.17/outbox.cif.g08.bks.cpg/sg2_302_cif.got.tgz:602403.got - 2010.06.03 11:33:40.
