data_PCOD9083796
_publ_section_title
;
Structure prediction by ZEFSAII (Michael W. Deem and Ramdas Pophale) SiO2 
 PCOD9083796
Probable space group: P -1
;
_chemical_formula_sum "Si O2"
_cell_formula_units_Z 16
_cell_length_a 9.590242
_cell_length_b 21.882368
_cell_length_c 22.156006
_cell_angle_alpha 166.266308
_cell_angle_beta 143.076738
_cell_angle_gamma 38.090680
_cell_volume 661.354408
_symmetry_space_group_name_H-M "P -1"
_symmetry_group_IT_number 2
_symmetry_cell_setting 'triclinic'
loop_
_space_group_symop_operation_xyz
x,y,z
-x,-y,-z
loop_
_atom_site_type_symbol
_atom_site_label
_atom_site_fract_x
_atom_site_fract_y
_atom_site_fract_z
Si Si1 0.941047 0.471001 0.382462
Si Si2 0.302005 0.142249 0.982420
Si Si3 0.240257 0.049647 0.661292
Si Si4 0.165315 0.984987 0.919221
Si Si5 0.435648 0.513927 0.219325
Si Si6 0.607607 0.860824 0.332904
Si Si7 0.620482 0.600441 0.231143
Si Si8 0.056022 0.692999 0.406275
O O1 0.999306 0.746876 0.638247
O O2 0.000000 0.500000 0.500000
O O3 0.670986 0.412239 0.233911
O O4 0.072741 0.231999 0.163788
O O5 0.579446 0.115379 0.063634
O O6 0.209936 0.423776 0.196427
O O7 0.195315 0.082668 0.954629
O O8 0.211823 0.926298 0.699538
O O9 0.383433 0.097751 0.696711
O O10 0.338600 0.786400 0.473387
O O11 0.247501 0.303370 0.947245
O O12 0.000000 0.000000 0.500000
O O13 0.526261 0.564280 0.230818
O O14 0.859248 0.762258 0.352867
O O15 0.524780 0.145040 0.599694
O O16 0.423796 0.643774 0.059906
O O17 0.887731 0.653869 0.368448
#
# Coordination Sequence:
#
# PCOD9083796 Si02
#       8
#     2   2   2   2   2   2   2   2
#     4  12  25  45  70  99 130 165 219 284 327 368
#     4  11  24  40  66  93 126 175 210 259 324 399
#     4  10  21  40  60  86 122 167 207 255 302 378
#     4  11  24  46  66  91 132 167 216 267 327 388
#     4  10  21  38  63  90 114 162 216 246 316 379
#     4  10  21  35  54  86 125 160 203 257 309 368
#     4  10  19  34  58  83 123 163 202 253 304 373
#     4  12  21  36  58  96 124 161 212 251 326 377
#
# _framework density 24.192778000000001
#
# number of rings (size 3 to 8) (size 9 to 14) (size 15 to 20)
#    0.000    1.250    0.000    6.750    0.000    4.000 
#    6.750    0.000    0.000    0.000    0.000    0.000 
#    0.000    0.000    0.000    0.000    0.000    0.000 
#
# Total GULP energy -89489.929486 kJ/mol
# GULP energy per Si atom -5593.120593 kJ/mol
# Density = 2.413771 g / cm^3
# Si number density = 24.192778 Si / 1000 Ang^3
#
#
#
# Elastic Constant Matrix: (Units=GPa)
#
#
# Indices 1 2 3 4 5 6 
#
# 1 45.3990 -3.9530 19.5126 2.5363 -9.8166 8.9606
# 2 -3.9530 115.9823 45.2754 7.2345 -9.0515 4.3978
# 3 19.5126 45.2754 154.2958 4.7119 -4.5061 6.6457
# 4 2.5363 7.2345 4.7119 39.9281 -6.7116 -1.9128
# 5 -9.8166 -9.0515 -4.5061 -6.7116 31.2512 -6.1397
# 6 8.9606 4.3978 6.6457 -1.9128 -6.1397 33.5103
#
#
#
# Elastic Compliance Matrix: (Units=1/GPa)
#
#
# Indices 1 2 3 4 5 6 
#
# 1 0.026724 0.003263 -0.003856 -0.000831 0.007529 -0.005477
# 2 0.003263 0.010373 -0.003282 -0.001234 0.003077 -0.001090
# 3 -0.003856 -0.003282 0.007922 -0.000305 -0.001151 -0.000338
# 4 -0.000831 -0.001234 -0.000305 0.026442 0.005602 0.002980
# 5 0.007529 0.003077 -0.001151 0.005602 0.037266 0.004959
# 6 -0.005477 -0.001090 -0.000338 0.002980 0.004959 0.032595
#
#
# Mechanical properties :
#
#
# Convention : Reuss Voigt Hill
#
# Bulk Modulus (GPa) = 26.83178 48.59412 37.71295
# Shear Modulus (GPa) = 30.96090 37.92739 34.44414
#
# Velocity S-wave (km/s) = 3.58125 3.96373 3.77734
# Velocity P-wave (km/s) = 5.31182 6.40922 5.88615
#
# Compressibility (1/GPa) = 0.03726924
#
# Stress axis : x y z
#
# Youngs Moduli (GPa) = 37.41976 96.40600 126.23181
#
# Poissons Ratio (x) = -0.31458 0.48674
# Poissons Ratio (y) = -0.12211 0.41428
# Poissons Ratio (z) = 0.14429 0.31639
#
# Static dielectric constant tensor:
#      x y z
#    x 1.869350 0.013960 -0.003250 
#    y 0.013960 1.910140 -0.003400 
#    z -0.003250 -0.003400 1.925290 
# 
# From -- ./inp_files/477190.got.cif
#   From: 2010.05.17/outbox.cif.g08.bks.cpg/sg2_239_cif.got.tgz:477190.got - 2010.06.03 11:33:40.
