data_PCOD9083934
_publ_section_title
;
Structure prediction by ZEFSAII (Michael W. Deem and Ramdas Pophale) SiO2 
 PCOD9083934
Probable space group: P -1
;
_chemical_formula_sum "Si O2"
_cell_formula_units_Z 16
_cell_length_a 12.582501
_cell_length_b 8.494009
_cell_length_c 13.895383
_cell_angle_alpha 69.143584
_cell_angle_beta 152.169465
_cell_angle_gamma 115.573931
_cell_volume 624.229359
_symmetry_space_group_name_H-M "P -1"
_symmetry_group_IT_number 2
_symmetry_cell_setting 'triclinic'
loop_
_space_group_symop_operation_xyz
x,y,z
-x,-y,-z
loop_
_atom_site_type_symbol
_atom_site_label
_atom_site_fract_x
_atom_site_fract_y
_atom_site_fract_z
Si Si1 0.862419 0.001855 0.539156
Si Si2 0.872233 0.324538 0.387445
Si Si3 0.408602 0.928562 0.048383
Si Si4 0.340894 0.207593 0.063875
Si Si5 0.523311 0.026235 0.625167
Si Si6 0.666732 0.476711 0.882792
Si Si7 0.269978 0.562808 0.273321
Si Si8 0.127458 0.386165 0.389821
O O1 0.638516 0.964502 0.293010
O O2 0.743623 0.037898 0.534569
O O3 0.910104 0.815963 0.624603
O O4 0.002364 0.179117 0.560773
O O5 0.602282 0.287608 0.212171
O O6 0.000000 0.500000 0.500000
O O7 0.926250 0.365530 0.311852
O O8 0.325494 0.718916 0.038091
O O9 0.252658 0.053499 0.943976
O O10 0.500000 0.000000 0.000000
O O11 0.267348 0.373652 0.013873
O O12 0.341128 0.093911 0.184998
O O13 0.645175 0.226775 0.707769
O O14 0.500000 0.000000 0.500000
O O15 0.789120 0.514438 0.865297
O O16 0.385847 0.456576 0.633210
O O17 0.500000 0.500000 0.500000
O O18 0.120863 0.499071 0.264769
#
# Coordination Sequence:
#
# PCOD9083934 Si02
#       8
#     2   2   2   2   2   2   2   2
#     4   9  19  30  42  66  93 126 155 190 223 270
#     4  10  18  28  41  63  94 128 159 178 215 273
#     4   9  18  33  48  67  92 120 158 198 239 268
#     4  10  20  31  47  69  96 126 155 189 228 276
#     4  10  16  25  40  64  94 123 151 180 225 274
#     4  10  17  31  45  68  97 118 152 194 228 278
#     4  10  16  26  43  64  94 125 151 183 227 276
#     4  10  17  28  43  65  95 131 152 174 224 279
#
# _framework density 25.631603999999999
#
# number of rings (size 3 to 8) (size 9 to 14) (size 15 to 20)
#    0.000    2.500    6.250    1.875    1.750    0.500 
#    0.000    0.000    0.000    0.000    0.000    3.500 
#    0.000    5.000    0.000    0.000    0.000    0.000 
#
# Total GULP energy -89285.585572 kJ/mol
# GULP energy per Si atom -5580.349098 kJ/mol
# Density = 2.557327 g / cm^3
# Si number density = 25.631604 Si / 1000 Ang^3
#
#
#
# Elastic Constant Matrix: (Units=GPa)
#
#
# Indices 1 2 3 4 5 6 
#
# 1 210.0585 40.3551 29.3994 -29.0555 -24.4160 5.8399
# 2 40.3551 140.7356 4.7187 -29.3910 10.0919 -4.6629
# 3 29.3994 4.7187 44.1417 -35.9995 -10.2532 0.2426
# 4 -29.0555 -29.3910 -35.9995 43.1505 1.5183 -5.2856
# 5 -24.4160 10.0919 -10.2532 1.5183 36.6679 -4.7780
# 6 5.8399 -4.6629 0.2426 -5.2856 -4.7780 55.0304
#
#
#
# Elastic Compliance Matrix: (Units=1/GPa)
#
#
# Indices 1 2 3 4 5 6 
#
# 1 0.005969 -0.001787 -0.002447 0.000582 0.003706 -0.000396
# 2 -0.001787 0.011798 0.018294 0.022491 0.000175 0.003284
# 3 -0.002447 0.018294 0.116246 0.108664 0.023132 0.013743
# 4 0.000582 0.022491 0.108664 0.130726 0.021223 0.015764
# 5 0.003706 0.000175 0.023132 0.021223 0.035890 0.004674
# 6 -0.000396 0.003284 0.013743 0.015764 0.004674 0.020351
#
#
# Mechanical properties :
#
#
# Convention : Reuss Voigt Hill
#
# Bulk Modulus (GPa) = 6.16779 60.43134 33.29957
# Shear Modulus (GPa) = 14.41323 48.33393 31.37358
#
# Velocity S-wave (km/s) = 2.37391 4.34719 3.50239
# Velocity P-wave (km/s) = 3.15047 6.98753 5.41992
#
# Compressibility (1/GPa) = 0.16213268
#
# Stress axis : x y z
#
# Youngs Moduli (GPa) = 167.54474 84.76219 8.60243
#
# Poissons Ratio (x) = 0.15146 0.02105
# Poissons Ratio (y) = 0.29938 -0.15737
# Poissons Ratio (z) = 0.40996 -1.55062
#
# Static dielectric constant tensor:
#      x y z
#    x 2.024880 0.063490 0.129120 
#    y 0.063490 2.106920 0.146400 
#    z 0.129120 0.146400 2.309330 
# 
# From -- ./inp_files/515251.got.cif
#   From: 2010.05.17/outbox.cif.g08.bks.cpg/sg2_258_cif.got.tgz:515251.got - 2010.06.03 11:33:40.
