data_PCOD9083647
_publ_section_title
;
Structure prediction by ZEFSAII (Michael W. Deem and Ramdas Pophale) SiO2 
 PCOD9083647
Probable space group: P -1
;
_chemical_formula_sum "Si O2"
_cell_formula_units_Z 14
_cell_length_a 7.460436
_cell_length_b 17.967581
_cell_length_c 11.870890
_cell_angle_alpha 32.911681
_cell_angle_beta 109.338038
_cell_angle_gamma 84.678564
_cell_volume 563.499634
_symmetry_space_group_name_H-M "P -1"
_symmetry_group_IT_number 2
_symmetry_cell_setting 'triclinic'
loop_
_space_group_symop_operation_xyz
x,y,z
-x,-y,-z
loop_
_atom_site_type_symbol
_atom_site_label
_atom_site_fract_x
_atom_site_fract_y
_atom_site_fract_z
Si Si1 0.601504 0.205551 0.579562
Si Si2 0.669834 0.672529 0.190928
Si Si3 0.368849 0.925524 0.019431
Si Si4 0.053599 0.304275 0.349374
Si Si5 0.423402 0.458386 0.876210
Si Si6 0.744836 0.892886 0.575957
Si Si7 0.722464 0.073646 0.532213
O O1 0.727193 0.108150 0.850691
O O2 0.306343 0.281123 0.433373
O O3 0.569853 0.382045 0.325830
O O4 0.760784 0.057133 0.694489
O O5 0.552219 0.741122 0.206726
O O6 0.625372 0.572426 0.220588
O O7 0.000000 0.500000 0.500000
O O8 0.486191 0.891138 0.813204
O O9 0.500000 0.000000 0.000000
O O10 0.136286 0.112135 0.658132
O O11 0.812513 0.465502 0.179827
O O12 0.038009 0.285471 0.237524
O O13 0.680744 0.243693 0.254751
O O14 0.895329 0.895887 0.704428
O O15 0.565497 0.859436 0.625480
#
# Coordination Sequence:
#
# PCOD9083647 Si02
#       7
#     2   2   2   2   2   2   2
#     4  10  20  34  55  80 112 144 175 224 271 314
#     4  10  19  34  57  84 108 137 182 225 268 325
#     4   9  18  35  56  76 106 143 174 220 274 314
#     4   9  19  37  57  79 109 142 182 224 267 317
#     4  11  22  34  56  84 108 143 183 219 267 324
#     4   8  17  34  58  78 106 148 179 221 272 311
#     4   9  18  35  55  79 110 145 184 219 263 319
#
# _framework density 24.844736000000001
#
# number of rings (size 3 to 8) (size 9 to 14) (size 15 to 20)
#    0.000    2.571    0.000    3.000    0.000    3.429 
#    0.000    2.143    0.000   27.429    0.000    0.000 
#    0.000    0.000    0.000    0.000    0.000    0.000 
#
# Total GULP energy -78068.308024 kJ/mol
# GULP energy per Si atom -5576.307716 kJ/mol
# Density = 2.478819 g / cm^3
# Si number density = 24.844736 Si / 1000 Ang^3
#
#
#
# Elastic Constant Matrix: (Units=GPa)
#
#
# Indices 1 2 3 4 5 6 
#
# 1 112.9254 54.8421 18.1034 -2.7667 -14.7973 -1.7132
# 2 54.8421 242.8660 43.5795 5.4671 -2.6137 -19.0547
# 3 18.1034 43.5795 70.7022 0.1334 -13.4644 -2.4976
# 4 -2.7667 5.4671 0.1334 37.1704 -1.6729 -4.4386
# 5 -14.7973 -2.6137 -13.4644 -1.6729 39.4858 8.6302
# 6 -1.7132 -19.0547 -2.4976 -4.4386 8.6302 24.5990
#
#
#
# Elastic Compliance Matrix: (Units=1/GPa)
#
#
# Indices 1 2 3 4 5 6 
#
# 1 0.010698 -0.002510 -0.000468 0.001054 0.004288 -0.002561
# 2 -0.002510 0.005602 -0.003157 -0.000561 -0.002695 0.004689
# 3 -0.000468 -0.003157 0.017278 0.000307 0.006137 -0.002821
# 4 0.001054 -0.000561 0.000307 0.027621 0.000667 0.004420
# 5 0.004288 -0.002695 0.006137 0.000667 0.031520 -0.012104
# 6 -0.002561 0.004689 -0.002821 0.004420 -0.012104 0.048863
#
#
# Mechanical properties :
#
#
# Convention : Reuss Voigt Hill
#
# Bulk Modulus (GPa) = 46.92993 73.28263 60.10628
# Shear Modulus (GPa) = 31.06436 40.91563 35.99000
#
# Velocity S-wave (km/s) = 3.53985 4.06255 3.81017
# Velocity P-wave (km/s) = 5.96973 7.18095 6.60317
#
# Compressibility (1/GPa) = 0.02130836
#
# Stress axis : x y z
#
# Youngs Moduli (GPa) = 93.47158 178.49737 57.87726
#
# Poissons Ratio (x) = 0.44810 0.02708
# Poissons Ratio (y) = 0.23465 0.18271
# Poissons Ratio (z) = 0.04373 0.56350
#
# Static dielectric constant tensor:
#      x y z
#    x 2.060700 -0.036110 0.095840 
#    y -0.036110 2.124460 -0.007900 
#    z 0.095840 -0.007900 2.016920 
# 
# From -- ./inp_files/401691.got.cif
#   From: 2010.05.17/outbox.cif.g08.bks.cpg/sg2_201_cif.got.tgz:401691.got - 2010.06.03 11:33:40.
