data_PCOD9083528
_publ_section_title
;
Structure prediction by ZEFSAII (Michael W. Deem and Ramdas Pophale) SiO2 
 PCOD9083528
Probable space group: P -1
;
_chemical_formula_sum "Si O2"
_cell_formula_units_Z 16
_cell_length_a 12.487884
_cell_length_b 22.982538
_cell_length_c 12.682594
_cell_angle_alpha 39.772122
_cell_angle_beta 147.249683
_cell_angle_gamma 156.767938
_cell_volume 776.583645
_symmetry_space_group_name_H-M "P -1"
_symmetry_group_IT_number 2
_symmetry_cell_setting 'triclinic'
loop_
_space_group_symop_operation_xyz
x,y,z
-x,-y,-z
loop_
_atom_site_type_symbol
_atom_site_label
_atom_site_fract_x
_atom_site_fract_y
_atom_site_fract_z
Si Si1 0.278056 0.786937 0.623756
Si Si2 0.097982 0.062253 0.154966
Si Si3 0.422329 0.443907 0.175649
Si Si4 0.089724 0.606949 0.262743
Si Si5 0.842589 0.775028 0.337952
Si Si6 0.048077 0.232849 0.789786
Si Si7 0.366608 0.557877 0.427046
Si Si8 0.567473 0.307132 0.371129
O O1 0.183869 0.843465 0.532811
O O2 0.221998 0.800809 0.437058
O O3 0.982921 0.612580 0.646437
O O4 0.626879 0.869337 0.797658
O O5 0.284928 0.157207 0.283530
O O6 0.940159 0.099586 0.935997
O O7 0.883605 0.896269 0.222183
O O8 0.713493 0.620119 0.148208
O O9 0.464759 0.435086 0.346571
O O10 0.463811 0.364907 0.258389
O O11 0.105091 0.381117 0.964783
O O12 0.306490 0.636636 0.313786
O O13 0.285709 0.698386 0.404133
O O14 0.841461 0.438189 0.332664
O O15 0.759070 0.726761 0.213576
O O16 0.586508 0.640644 0.391795
#
# Coordination Sequence:
#
# PCOD9083528 Si02
#       8
#     2   2   2   2   2   2   2   2
#     4   9  20  35  57  78 110 144 188 226 259 322
#     4  12  20  39  55  86 113 148 183 222 283 331
#     4  10  19  35  58  87 110 139 190 233 276 313
#     4  10  19  34  56  86 109 139 184 237 273 317
#     4  10  23  37  57  79 121 150 174 227 280 331
#     4   9  21  34  57  84 111 143 183 233 268 327
#     4  10  19  39  54  85 113 143 186 228 273 325
#     4  10  21  31  59  86 110 140 184 240 269 320
#
# _framework density 20.603058999999998
#
# number of rings (size 3 to 8) (size 9 to 14) (size 15 to 20)
#    0.750    1.250    2.500    1.500    1.750    0.000 
#    2.250    3.750    0.000    1.500    0.000    0.000 
#    0.000    0.000    0.000    0.000    0.000    0.000 
#
# Total GULP energy -89253.642580 kJ/mol
# GULP energy per Si atom -5578.352661 kJ/mol
# Density = 2.055617 g / cm^3
# Si number density = 20.603059 Si / 1000 Ang^3
#
#
#
# Elastic Constant Matrix: (Units=GPa)
#
#
# Indices 1 2 3 4 5 6 
#
# 1 43.5322 15.5612 10.3531 -9.8663 0.9310 -10.3047
# 2 15.5612 60.8360 15.2660 -18.0149 -0.7251 -12.3921
# 3 10.3531 15.2660 84.2937 -4.4599 15.0486 3.7783
# 4 -9.8663 -18.0149 -4.4599 24.7721 -2.0953 4.6958
# 5 0.9310 -0.7251 15.0486 -2.0953 23.3140 -3.8215
# 6 -10.3047 -12.3921 3.7783 4.6958 -3.8215 29.8877
#
#
#
# Elastic Compliance Matrix: (Units=1/GPa)
#
#
# Indices 1 2 3 4 5 6 
#
# 1 0.028320 -0.002324 -0.003605 0.007605 0.003196 0.008470
# 2 -0.002324 0.024527 -0.004959 0.014980 0.006798 0.008511
# 3 -0.003605 -0.004959 0.015374 -0.002014 -0.011156 -0.006353
# 4 0.007605 0.014980 -0.002014 0.054216 0.006565 0.001409
# 5 0.003196 0.006798 -0.011156 0.006565 0.052574 0.011021
# 6 0.008470 0.008511 -0.006353 0.001409 0.011021 0.041899
#
#
# Mechanical properties :
#
#
# Convention : Reuss Voigt Hill
#
# Bulk Modulus (GPa) = 21.53098 30.11359 25.82229
# Shear Modulus (GPa) = 19.67205 25.42687 22.54946
#
# Velocity S-wave (km/s) = 3.09336 3.51683 3.31187
# Velocity P-wave (km/s) = 4.81991 5.58020 5.21393
#
# Compressibility (1/GPa) = 0.04644471
#
# Stress axis : x y z
#
# Youngs Moduli (GPa) = 35.31087 40.77143 65.04469
#
# Poissons Ratio (x) = 0.09475 0.23450
# Poissons Ratio (y) = 0.08206 0.32256
# Poissons Ratio (z) = 0.12730 0.20219
#
# Static dielectric constant tensor:
#      x y z
#    x 1.765320 -0.030550 0.017810 
#    y -0.030550 1.730180 0.019580 
#    z 0.017810 0.019580 1.787960 
# 
# From -- ./inp_files/432347.got.cif
#   From: 2010.05.17/outbox.cif.g08.bks.cpg/sg2_217_cif.got.tgz:432347.got - 2010.06.03 11:33:40.
