data_PCOD9083329
_publ_section_title
;
Structure prediction by ZEFSAII (Michael W. Deem and Ramdas Pophale) SiO2 
 PCOD9083329
Probable space group: P -1
;
_chemical_formula_sum "Si O2"
_cell_formula_units_Z 16
_cell_length_a 14.173257
_cell_length_b 11.206495
_cell_length_c 8.330814
_cell_angle_alpha 126.046474
_cell_angle_beta 48.093213
_cell_angle_gamma 129.473078
_cell_volume 728.601229
_symmetry_space_group_name_H-M "P -1"
_symmetry_group_IT_number 2
_symmetry_cell_setting 'triclinic'
loop_
_space_group_symop_operation_xyz
x,y,z
-x,-y,-z
loop_
_atom_site_type_symbol
_atom_site_label
_atom_site_fract_x
_atom_site_fract_y
_atom_site_fract_z
Si Si1 0.331626 0.002546 0.029261
Si Si2 0.170700 0.293034 0.031125
Si Si3 0.870652 0.874547 0.738923
Si Si4 0.934084 0.211409 0.986023
Si Si5 0.113478 0.420164 0.683959
Si Si6 0.351202 0.808173 0.156091
Si Si7 0.354936 0.493308 0.718144
Si Si8 0.156473 0.581340 0.444999
O O1 0.308486 0.908344 0.149929
O O2 0.232080 0.879633 0.912391
O O3 0.268057 0.137510 0.205305
O O4 0.494216 0.079593 0.872808
O O5 0.158730 0.155510 0.060841
O O6 0.218193 0.454535 0.213225
O O7 0.023126 0.256930 0.083690
O O8 0.281332 0.342197 0.801988
O O9 0.916911 0.738356 0.516470
O O10 0.971895 0.061850 0.757115
O O11 0.992130 0.351096 0.898516
O O12 0.252013 0.466878 0.665657
O O13 0.141274 0.564878 0.640817
O O14 0.244369 0.741599 0.372540
O O15 0.360901 0.655055 0.929963
O O16 0.500000 0.500000 0.500000
O O17 0.000000 0.500000 0.500000
#
# Coordination Sequence:
#
# PCOD9083329 Si02
#       8
#     2   2   2   2   2   2   2   2
#     4   9  20  32  58  72 108 139 182 209 266 319
#     4   9  19  35  55  83 107 138 178 226 263 317
#     4   9  18  32  56  80 108 138 177 217 274 309
#     4   9  18  32  56  80 108 138 177 217 274 309
#     4  10  19  34  54  85 104 138 182 228 258 317
#     4  10  20  39  53  80 106 146 180 216 264 320
#     4  10  21  35  57  78 111 139 180 223 266 312
#     4  10  21  35  57  78 111 139 180 223 266 312
#
# _framework density 21.959886000000001
#
# number of rings (size 3 to 8) (size 9 to 14) (size 15 to 20)
#    0.750    1.750    0.000    2.250    0.000    2.000 
#    0.000    7.500    5.500    4.500    0.000    0.000 
#    0.000    0.000    0.000    0.000    0.000    0.000 
#
# Total GULP energy -89156.590104 kJ/mol
# GULP energy per Si atom -5572.286882 kJ/mol
# Density = 2.190990 g / cm^3
# Si number density = 21.959886 Si / 1000 Ang^3
#
#
#
# Elastic Constant Matrix: (Units=GPa)
#
#
# Indices 1 2 3 4 5 6 
#
# 1 95.4061 53.0040 44.0562 -36.4469 15.2976 1.0552
# 2 53.0040 121.4658 31.7995 -33.5085 13.6869 -10.1250
# 3 44.0562 31.7995 79.2349 -32.7190 19.5856 -1.8255
# 4 -36.4469 -33.5085 -32.7190 50.8361 -2.1186 9.9834
# 5 15.2976 13.6869 19.5856 -2.1186 25.2985 -5.9593
# 6 1.0552 -10.1250 -1.8255 9.9834 -5.9593 44.9152
#
#
#
# Elastic Compliance Matrix: (Units=1/GPa)
#
#
# Indices 1 2 3 4 5 6 
#
# 1 0.019292 -0.004589 -0.003551 0.009135 -0.006742 -0.004557
# 2 -0.004589 0.011808 0.000467 0.004386 -0.003283 0.001378
# 3 -0.003551 0.000467 0.023799 0.013172 -0.016355 -0.003942
# 4 0.009135 0.004386 0.013172 0.038756 -0.017104 -0.009574
# 5 -0.006742 -0.003283 -0.016355 -0.017104 0.059058 0.010391
# 6 -0.004557 0.001378 -0.003942 -0.009574 0.010391 0.026028
#
#
# Mechanical properties :
#
#
# Convention : Reuss Voigt Hill
#
# Bulk Modulus (GPa) = 25.28287 61.53627 43.40957
# Shear Modulus (GPa) = 24.12287 35.35975 29.74131
#
# Velocity S-wave (km/s) = 3.31795 4.01708 3.68414
# Velocity P-wave (km/s) = 5.12022 7.04265 6.15693
#
# Compressibility (1/GPa) = 0.03955248
#
# Stress axis : x y z
#
# Youngs Moduli (GPa) = 51.83517 84.69008 42.01874
#
# Poissons Ratio (x) = 0.38863 0.14923
# Poissons Ratio (y) = 0.23786 -0.01963
# Poissons Ratio (z) = 0.18409 -0.03957
#
# Static dielectric constant tensor:
#      x y z
#    x 1.766810 -0.022420 0.012860 
#    y -0.022420 1.863220 0.055870 
#    z 0.012860 0.055870 1.880470 
# 
# From -- ./inp_files/305653.got.cif
#   From: 2010.05.17/outbox.cif.g08.bks.cpg/sg2_153_cif.got.tgz:305653.got - 2010.06.03 11:33:40.
