data_PCOD9083565
_publ_section_title
;
Structure prediction by ZEFSAII (Michael W. Deem and Ramdas Pophale) SiO2 
 PCOD9083565
Probable space group: P -1
;
_chemical_formula_sum "Si O2"
_cell_formula_units_Z 16
_cell_length_a 9.340864
_cell_length_b 11.274050
_cell_length_c 9.628314
_cell_angle_alpha 58.146485
_cell_angle_beta 54.943381
_cell_angle_gamma 52.672611
_cell_volume 634.427462
_symmetry_space_group_name_H-M "P -1"
_symmetry_group_IT_number 2
_symmetry_cell_setting 'triclinic'
loop_
_space_group_symop_operation_xyz
x,y,z
-x,-y,-z
loop_
_atom_site_type_symbol
_atom_site_label
_atom_site_fract_x
_atom_site_fract_y
_atom_site_fract_z
Si Si1 0.944860 0.847174 0.723783
Si Si2 0.742447 0.634306 0.089137
Si Si3 0.365807 0.911259 0.089913
Si Si4 0.253128 0.034225 0.533129
Si Si5 0.549412 0.149310 0.232867
Si Si6 0.269879 0.584145 0.566239
Si Si7 0.958589 0.349637 0.626861
Si Si8 0.699767 0.509906 0.906001
O O1 0.858985 0.927256 0.573698
O O2 0.165412 0.734481 0.630516
O O3 0.849575 0.992254 0.791370
O O4 0.850795 0.734188 0.907207
O O5 0.513276 0.745273 0.169300
O O6 0.809669 0.536815 0.252583
O O7 0.752006 0.519984 0.029109
O O8 0.354079 0.881978 0.951845
O O9 0.500000 0.000000 0.000000
O O10 0.457404 0.027977 0.372625
O O11 0.135993 0.184190 0.602796
O O12 0.309041 0.885258 0.693310
O O13 0.363335 0.316854 0.228174
O O14 0.500000 0.500000 0.500000
O O15 0.193547 0.627565 0.426268
O O16 0.861012 0.370747 0.818074
O O17 0.000000 0.500000 0.500000
O O18 0.500000 0.500000 0.000000
#
# Coordination Sequence:
#
# PCOD9083565 Si02
#       8
#     2   2   2   2   2   2   2   2
#     4  10  19  38  60  88 114 155 200 253 300 361
#     4  10  20  38  58  88 120 155 206 252 301 362
#     4   9  17  32  56  86 115 147 196 250 304 348
#     4  10  19  34  58  87 124 144 200 258 297 356
#     4  10  19  34  56  90 120 152 194 252 309 358
#     4  11  24  39  58  87 127 162 200 249 309 366
#     4  11  22  39  60  92 120 160 210 256 303 360
#     4  11  21  38  60  85 124 163 199 249 309 365
#
# _framework density 25.219588999999999
#
# number of rings (size 3 to 8) (size 9 to 14) (size 15 to 20)
#    0.000    1.750    5.000    1.875    0.000    4.000 
#    0.000    1.250    0.000    3.000    0.000    0.000 
#    0.000    0.000    0.000    0.000    0.000    0.000 
#
# Total GULP energy -89362.856369 kJ/mol
# GULP energy per Si atom -5585.178523 kJ/mol
# Density = 2.516219 g / cm^3
# Si number density = 25.219589 Si / 1000 Ang^3
#
#
#
# Elastic Constant Matrix: (Units=GPa)
#
#
# Indices 1 2 3 4 5 6 
#
# 1 60.5018 26.5342 -2.0928 2.6133 -5.3691 -12.4267
# 2 26.5342 105.5799 47.1779 40.4855 12.9216 -22.9863
# 3 -2.0928 47.1779 46.7041 11.1804 4.1162 -4.1336
# 4 2.6133 40.4855 11.1804 61.9223 -12.8277 -5.2181
# 5 -5.3691 12.9216 4.1162 -12.8277 38.2747 -2.8935
# 6 -12.4267 -22.9863 -4.1336 -5.2181 -2.8935 45.5773
#
#
#
# Elastic Compliance Matrix: (Units=1/GPa)
#
#
# Indices 1 2 3 4 5 6 
#
# 1 0.027423 -0.021613 0.018985 0.012344 0.013281 0.000555
# 2 -0.021613 0.048880 -0.040703 -0.027723 -0.023662 0.010391
# 3 0.018985 -0.040703 0.056996 0.018203 0.015839 -0.007093
# 4 0.012344 -0.027723 0.018203 0.034372 0.020371 -0.003737
# 5 0.013281 -0.023662 0.015839 0.020371 0.040955 -0.001944
# 6 0.000555 0.010391 -0.007093 -0.003737 -0.001944 0.026138
#
#
# Mechanical properties :
#
#
# Convention : Reuss Voigt Hill
#
# Bulk Modulus (GPa) = 21.44178 39.55828 30.50003
# Shear Modulus (GPa) = 14.83799 38.56596 26.70197
#
# Velocity S-wave (km/s) = 2.42823 3.91475 3.25742
# Velocity P-wave (km/s) = 4.04749 6.01276 5.12521
#
# Compressibility (1/GPa) = 0.04663793
#
# Stress axis : x y z
#
# Youngs Moduli (GPa) = 36.46523 20.45826 17.54506
#
# Poissons Ratio (x) = 0.44217 -0.33309
# Poissons Ratio (y) = 0.78813 0.71413
# Poissons Ratio (z) = -0.69229 0.83270
#
# Static dielectric constant tensor:
#      x y z
#    x 2.481070 -0.541260 0.249600 
#    y -0.541260 2.896990 -0.527720 
#    z 0.249600 -0.527720 2.265240 
# 
# From -- ./inp_files/185690.got.cif
#   From: 2010.05.17/outbox.cif.g08.bks.cpg/sg2_93_cif.got.tgz:185690.got - 2010.06.03 11:33:40.
