data_PCOD9083549
_publ_section_title
;
Structure prediction by ZEFSAII (Michael W. Deem and Ramdas Pophale) SiO2 
 PCOD9083549
Probable space group: P -1
;
_chemical_formula_sum "Si O2"
_cell_formula_units_Z 16
_cell_length_a 11.346111
_cell_length_b 10.750684
_cell_length_c 9.102731
_cell_angle_alpha 64.737181
_cell_angle_beta 76.888333
_cell_angle_gamma 40.279525
_cell_volume 639.873209
_symmetry_space_group_name_H-M "P -1"
_symmetry_group_IT_number 2
_symmetry_cell_setting 'triclinic'
loop_
_space_group_symop_operation_xyz
x,y,z
-x,-y,-z
loop_
_atom_site_type_symbol
_atom_site_label
_atom_site_fract_x
_atom_site_fract_y
_atom_site_fract_z
Si Si1 0.798001 0.469987 0.285949
Si Si2 0.285675 0.192152 0.017046
Si Si3 0.823011 0.973107 0.690850
Si Si4 0.587423 0.427596 0.177967
Si Si5 0.822856 0.027415 0.148118
Si Si6 0.510300 0.877927 0.751016
Si Si7 0.796380 0.246324 0.759992
Si Si8 0.433628 0.256674 0.511904
O O1 0.665554 0.500760 0.191920
O O2 0.706110 0.551197 0.431718
O O3 0.994593 0.228550 0.343724
O O4 0.816005 0.613477 0.157280
O O5 0.202800 0.115700 0.122153
O O6 0.313401 0.247679 0.134660
O O7 0.500000 0.000000 0.000000
O O8 0.827549 0.123356 0.673569
O O9 0.640451 0.115758 0.574197
O O10 0.759034 0.179199 0.226065
O O11 0.418717 0.528668 0.280415
O O12 0.500000 0.500000 0.000000
O O13 0.661260 0.055784 0.164210
O O14 0.818371 0.122178 0.954773
O O15 0.031447 0.800208 0.237156
O O16 0.579716 0.734904 0.663333
O O17 0.426644 0.098116 0.626274
#
# Coordination Sequence:
#
# PCOD9083549 Si02
#       8
#     2   2   2   2   2   2   2   2
#     4  12  21  37  64  90 120 156 203 249 301 353
#     4  11  19  37  63  91 117 154 196 253 301 347
#     4  11  21  36  60  90 122 154 203 243 303 354
#     4  10  19  34  56  87 120 154 190 246 301 346
#     4  10  20  35  57  87 119 151 198 245 300 354
#     4  10  21  42  64  84 122 164 197 245 304 352
#     4  10  19  34  58  89 119 152 194 249 300 350
#     4  10  23  42  62  84 124 163 197 248 299 354
#
# _framework density 25.004951999999999
#
# number of rings (size 3 to 8) (size 9 to 14) (size 15 to 20)
#    0.000    1.500    5.000    2.625    0.000    0.000 
#    0.000    9.375    0.000    0.000    0.000    0.000 
#    0.000    0.000    0.000    0.000    0.000    0.000 
#
# Total GULP energy -89479.029625 kJ/mol
# GULP energy per Si atom -5592.439352 kJ/mol
# Density = 2.494804 g / cm^3
# Si number density = 25.004952 Si / 1000 Ang^3
#
#
#
# Elastic Constant Matrix: (Units=GPa)
#
#
# Indices 1 2 3 4 5 6 
#
# 1 81.3986 18.8677 1.4065 8.9145 0.0978 -3.1505
# 2 18.8677 154.8693 25.6120 30.2457 19.3116 -10.6329
# 3 1.4065 25.6120 74.5617 23.6698 -2.5784 -4.0012
# 4 8.9145 30.2457 23.6698 37.0224 5.6642 1.5246
# 5 0.0978 19.3116 -2.5784 5.6642 23.8922 4.6435
# 6 -3.1505 -10.6329 -4.0012 1.5246 4.6435 34.0375
#
#
#
# Elastic Compliance Matrix: (Units=1/GPa)
#
#
# Indices 1 2 3 4 5 6 
#
# 1 0.012951 -0.001339 0.001331 -0.003180 0.001764 0.000839
# 2 -0.001339 0.008988 -0.001457 -0.005184 -0.006904 0.003686
# 3 0.001331 -0.001457 0.017778 -0.011400 0.005498 0.001518
# 4 -0.003180 -0.005184 -0.011400 0.040357 -0.005764 -0.004275
# 5 0.001764 -0.006904 0.005498 -0.005764 0.050950 -0.008040
# 6 0.000839 0.003686 0.001518 -0.004275 -0.008040 0.032075
#
#
# Mechanical properties :
#
#
# Convention : Reuss Voigt Hill
#
# Bulk Modulus (GPa) = 27.18456 44.73358 35.95907
# Shear Modulus (GPa) = 28.04385 36.65331 32.34858
#
# Velocity S-wave (km/s) = 3.35256 3.83278 3.60069
# Velocity P-wave (km/s) = 5.08739 6.12501 5.63015
#
# Compressibility (1/GPa) = 0.03678558
#
# Stress axis : x y z
#
# Youngs Moduli (GPa) = 77.21258 111.26433 56.25043
#
# Poissons Ratio (x) = 0.14903 -0.07488
# Poissons Ratio (y) = 0.10342 0.08197
# Poissons Ratio (z) = -0.10279 0.16214
#
# Static dielectric constant tensor:
#      x y z
#    x 1.973400 0.033140 -0.046610 
#    y 0.033140 2.037910 -0.067930 
#    z -0.046610 -0.067930 2.084920 
# 
# From -- ./inp_files/258022.got.cif
#   From: 2010.05.17/outbox.cif.g08.bks.cpg/sg2_130_cif.got.tgz:258022.got - 2010.06.03 11:33:40.
