data_PCOD9083142
_publ_section_title
;
Structure prediction by ZEFSAII (Michael W. Deem and Ramdas Pophale) SiO2 
 PCOD9083142
Probable space group: P -1
;
_chemical_formula_sum "Si O2"
_cell_formula_units_Z 14
_cell_length_a 14.884215
_cell_length_b 11.555912
_cell_length_c 12.203758
_cell_angle_alpha 145.707403
_cell_angle_beta 29.282467
_cell_angle_gamma 130.639136
_cell_volume 559.857546
_symmetry_space_group_name_H-M "P -1"
_symmetry_group_IT_number 2
_symmetry_cell_setting 'triclinic'
loop_
_space_group_symop_operation_xyz
x,y,z
-x,-y,-z
loop_
_atom_site_type_symbol
_atom_site_label
_atom_site_fract_x
_atom_site_fract_y
_atom_site_fract_z
Si Si1 0.821894 0.983444 0.824040
Si Si2 0.757710 0.678660 0.161714
Si Si3 0.468086 0.839220 0.160484
Si Si4 0.760566 0.108734 0.761889
Si Si5 0.186351 0.661585 0.721515
Si Si6 0.775207 0.608777 0.327254
Si Si7 0.502307 0.251198 0.701214
O O1 0.026887 0.868737 0.468441
O O2 0.718247 0.141502 0.961079
O O3 0.677628 0.852012 0.912492
O O4 0.861834 0.117379 0.988140
O O5 0.661423 0.927876 0.484868
O O6 0.707444 0.577602 0.250918
O O7 0.673463 0.637379 0.102419
O O8 0.984789 0.627518 0.873310
O O9 0.368713 0.779488 0.111537
O O10 0.490383 0.708863 0.146271
O O11 0.753334 0.859887 0.564144
O O12 0.284569 0.493738 0.579722
O O13 0.320175 0.695374 0.507655
O O14 0.000000 0.500000 0.000000
O O15 0.500000 0.000000 0.500000
#
# Coordination Sequence:
#
# PCOD9083142 Si02
#       7
#     2   2   2   2   2   2   2
#     4  11  19  32  55  77 104 133 169 203 262 302
#     4   9  18  31  48  77 107 129 161 214 256 293
#     4  10  19  34  49  76 108 130 173 211 246 298
#     4  10  21  35  51  80 104 133 165 211 257 303
#     4  11  19  33  53  81 103 132 166 213 256 299
#     4   9  17  33  51  74 110 126 164 214 253 298
#     4  10  20  31  50  78 105 133 172 210 251 294
#
# _framework density 25.006360999999998
#
# number of rings (size 3 to 8) (size 9 to 14) (size 15 to 20)
#    0.000    2.000    7.143    0.429    0.000    4.000 
#    0.000    0.000    0.000    0.857    0.000    4.000 
#    0.000    0.000    0.000    0.000    0.000    0.000 
#
# Total GULP energy -78291.387650 kJ/mol
# GULP energy per Si atom -5592.241975 kJ/mol
# Density = 2.494945 g / cm^3
# Si number density = 25.006361 Si / 1000 Ang^3
#
#
#
# Elastic Constant Matrix: (Units=GPa)
#
#
# Indices 1 2 3 4 5 6 
#
# 1 505.0916 184.0341 -1.6387 -50.8704 -17.0567 -71.6295
# 2 184.0341 224.1959 28.3943 -41.9521 -10.8067 -53.9223
# 3 -1.6387 28.3943 104.4646 -38.0160 4.9034 -11.9872
# 4 -50.8704 -41.9521 -38.0160 53.8659 -0.2570 14.6585
# 5 -17.0567 -10.8067 4.9034 -0.2570 35.5180 -8.8339
# 6 -71.6295 -53.9223 -11.9872 14.6585 -8.8339 42.3127
#
#
#
# Elastic Compliance Matrix: (Units=1/GPa)
#
#
# Indices 1 2 3 4 5 6 
#
# 1 0.003370 -0.001570 0.001571 0.002033 0.001894 0.003841
# 2 -0.001570 0.008333 -0.000698 0.002433 0.003815 0.007717
# 3 0.001571 -0.000698 0.013720 0.010074 -0.000780 0.002005
# 4 0.002033 0.002433 0.010074 0.029716 0.000334 -0.000829
# 5 0.001894 0.003815 -0.000780 0.000334 0.034025 0.014834
# 6 0.003841 0.007717 0.002005 -0.000829 0.014834 0.043923
#
#
# Mechanical properties :
#
#
# Convention : Reuss Voigt Hill
#
# Bulk Modulus (GPa) = 41.61566 139.48127 90.54846
# Shear Modulus (GPa) = 35.09043 67.87013 51.48028
#
# Velocity S-wave (km/s) = 3.75008 5.21537 4.54220
# Velocity P-wave (km/s) = 5.95222 9.60032 7.98734
#
# Compressibility (1/GPa) = 0.02402942
#
# Stress axis : x y z
#
# Youngs Moduli (GPa) = 296.69565 120.00804 72.88844
#
# Poissons Ratio (x) = 0.18843 -0.11453
# Poissons Ratio (y) = 0.46587 0.05086
# Poissons Ratio (z) = -0.46620 0.08374
#
# Static dielectric constant tensor:
#      x y z
#    x 2.003380 0.056020 -0.001090 
#    y 0.056020 2.068790 0.059520 
#    z -0.001090 0.059520 1.997250 
# 
# From -- ./inp_files/431348.got.cif
#   From: 2010.05.17/outbox.cif.g08.bks.cpg/sg2_216_cif.got.tgz:431348.got - 2010.06.03 11:33:40.
