data_PCOD9083715
_publ_section_title
;
Structure prediction by ZEFSAII (Michael W. Deem and Ramdas Pophale) SiO2 
 PCOD9083715
Probable space group: P -1
;
_chemical_formula_sum "Si O2"
_cell_formula_units_Z 16
_cell_length_a 18.056886
_cell_length_b 22.733237
_cell_length_c 5.132865
_cell_angle_alpha 131.732930
_cell_angle_beta 48.947163
_cell_angle_gamma 149.136623
_cell_volume 786.302817
_symmetry_space_group_name_H-M "P -1"
_symmetry_group_IT_number 2
_symmetry_cell_setting 'triclinic'
loop_
_space_group_symop_operation_xyz
x,y,z
-x,-y,-z
loop_
_atom_site_type_symbol
_atom_site_label
_atom_site_fract_x
_atom_site_fract_y
_atom_site_fract_z
Si Si1 0.803810 0.996894 0.554403
Si Si2 0.635919 0.084305 0.730845
Si Si3 0.503316 0.600479 0.055859
Si Si4 0.167974 0.117096 0.506701
Si Si5 0.080467 0.842761 0.715334
Si Si6 0.525194 0.724875 0.879452
Si Si7 0.250256 0.339209 0.062360
Si Si8 0.499190 0.862516 0.054907
O O1 0.892074 0.076994 0.336996
O O2 0.813992 0.909964 0.328730
O O3 0.875362 0.089561 0.909277
O O4 0.627153 0.908388 0.698715
O O5 0.800969 0.154608 0.622446
O O6 0.633008 0.171041 0.879795
O O7 0.583383 0.984606 0.361531
O O8 0.500000 0.000000 0.000000
O O9 0.502880 0.653398 0.474125
O O10 0.364410 0.458705 0.984172
O O11 0.488224 0.651325 0.000534
O O12 0.651268 0.634306 0.841166
O O13 0.298957 0.151824 0.154348
O O14 0.201716 0.228105 0.717236
O O15 0.000000 0.000000 0.500000
O O16 0.908913 0.714403 0.703276
O O17 0.457083 0.767676 0.072973
#
# Coordination Sequence:
#
# PCOD9083715 Si02
#       8
#     2   2   2   2   2   2   2   2
#     4  10  21  34  51  85 120 154 181 221 291 362
#     4  10  19  34  57  88 121 151 183 233 302 367
#     4  10  24  42  60  84 113 163 212 237 282 330
#     4  10  20  35  56  88 122 153 185 235 299 354
#     4  11  22  35  56  82 120 153 187 235 289 348
#     4  10  23  40  62  85 115 158 200 243 284 351
#     4  10  23  39  61  84 120 159 202 248 279 344
#     4   9  20  35  57  85 120 151 187 233 293 356
#
# _framework density 20.348392
#
# number of rings (size 3 to 8) (size 9 to 14) (size 15 to 20)
#    0.000    2.000    2.500    0.000    3.500   12.000 
#    0.000    0.000    0.000    1.500    0.000    0.000 
#    0.000    0.000    0.000    0.000    0.000    0.000 
#
# Total GULP energy -89154.654659 kJ/mol
# GULP energy per Si atom -5572.165916 kJ/mol
# Density = 2.030208 g / cm^3
# Si number density = 20.348392 Si / 1000 Ang^3
#
#
#
# Elastic Constant Matrix: (Units=GPa)
#
#
# Indices 1 2 3 4 5 6 
#
# 1 133.7886 70.7498 38.6669 -7.6599 -23.7849 -20.8741
# 2 70.7498 137.4520 22.7850 4.8259 -9.3065 -3.9810
# 3 38.6669 22.7850 54.1795 -1.6589 -1.7975 2.5160
# 4 -7.6599 4.8259 -1.6589 21.8536 -1.5652 -6.0238
# 5 -23.7849 -9.3065 -1.7975 -1.5652 45.0767 -9.6822
# 6 -20.8741 -3.9810 2.5160 -6.0238 -9.6822 38.0394
#
#
#
# Elastic Compliance Matrix: (Units=1/GPa)
#
#
# Indices 1 2 3 4 5 6 
#
# 1 0.020497 -0.007811 -0.011275 0.013538 0.012783 0.016574
# 2 -0.007811 0.011031 0.000860 -0.006725 -0.003128 -0.005050
# 3 -0.011275 0.000860 0.026222 -0.005572 -0.007184 -0.010542
# 4 0.013538 -0.006725 -0.005572 0.057693 0.011659 0.019197
# 5 0.012783 -0.003128 -0.007184 0.011659 0.032092 0.017177
# 6 0.016574 -0.005050 -0.010542 0.019197 0.017177 0.042964
#
#
# Mechanical properties :
#
#
# Convention : Reuss Voigt Hill
#
# Bulk Modulus (GPa) = 46.94804 65.53596 56.24200
# Shear Modulus (GPa) = 21.36292 33.87514 27.61903
#
# Velocity S-wave (km/s) = 3.24367 4.08457 3.68816
# Velocity P-wave (km/s) = 6.09514 7.38389 6.77025
#
# Compressibility (1/GPa) = 0.02130014
#
# Stress axis : x y z
#
# Youngs Moduli (GPa) = 48.78716 90.65097 38.13534
#
# Poissons Ratio (x) = 0.70810 0.42996
# Poissons Ratio (y) = 0.38109 -0.03281
# Poissons Ratio (z) = 0.55005 -0.07799
#
# Static dielectric constant tensor:
#      x y z
#    x 1.864760 0.016910 0.006720 
#    y 0.016910 1.721970 -0.011400 
#    z 0.006720 -0.011400 1.864370 
# 
# From -- ./inp_files/92775.got.cif
#   From: 2010.05.17/outbox.cif.g08.bks.cpg/sg2_47_cif.got.tgz:92775.got - 2010.06.03 11:33:40.
