data_PCOD9083968
_publ_section_title
;
Structure prediction by ZEFSAII (Michael W. Deem and Ramdas Pophale) SiO2 
 PCOD9083968
Probable space group: P -1
;
_chemical_formula_sum "Si O2"
_cell_formula_units_Z 14
_cell_length_a 11.406156
_cell_length_b 9.480106
_cell_length_c 10.086100
_cell_angle_alpha 142.008083
_cell_angle_beta 63.070896
_cell_angle_gamma 117.858886
_cell_volume 586.310301
_symmetry_space_group_name_H-M "P -1"
_symmetry_group_IT_number 2
_symmetry_cell_setting 'triclinic'
loop_
_space_group_symop_operation_xyz
x,y,z
-x,-y,-z
loop_
_atom_site_type_symbol
_atom_site_label
_atom_site_fract_x
_atom_site_fract_y
_atom_site_fract_z
Si Si1 0.929421 0.741592 0.510976
Si Si2 0.728411 0.088928 0.877592
Si Si3 0.892899 0.957935 0.141676
Si Si4 0.165687 0.584131 0.157174
Si Si5 0.585568 0.732656 0.502933
Si Si6 0.308338 0.651292 0.663689
Si Si7 0.660502 0.051182 0.469033
O O1 0.830185 0.504314 0.431422
O O2 0.024646 0.673626 0.299135
O O3 0.837494 0.929816 0.672318
O O4 0.033074 0.861777 0.654980
O O5 0.768260 0.326185 0.949482
O O6 0.598448 0.931163 0.758840
O O7 0.718295 0.138232 0.074401
O O8 0.742836 0.014878 0.266981
O O9 0.871274 0.688958 0.997205
O O10 0.000000 0.000000 0.000000
O O11 0.269445 0.714140 0.313758
O O12 0.426680 0.675836 0.513834
O O13 0.635457 0.514973 0.379374
O O14 0.673396 0.847640 0.419906
O O15 0.500000 0.000000 0.500000
#
# Coordination Sequence:
#
# PCOD9083968 Si02
#       7
#     2   2   2   2   2   2   2
#     4  10  22  36  58  90 117 153 196 239 294 354
#     4  10  19  35  60  89 118 152 192 236 298 358
#     4  11  25  43  61  85 117 158 205 245 291 350
#     4  10  22  40  60  85 121 154 190 247 297 345
#     4   9  20  36  55  87 121 152 194 239 292 351
#     4  10  19  34  59  86 121 156 186 239 294 349
#     4  10  23  41  62  86 116 155 201 247 291 345
#
# _framework density 23.878142
#
# number of rings (size 3 to 8) (size 9 to 14) (size 15 to 20)
#    0.000    2.000    0.000    2.571    0.000   10.857 
#    0.000    2.857    0.000    0.000    0.000    0.000 
#    0.000    0.000    0.000    0.000    0.000    0.000 
#
# Total GULP energy -78147.058222 kJ/mol
# GULP energy per Si atom -5581.932730 kJ/mol
# Density = 2.382379 g / cm^3
# Si number density = 23.878142 Si / 1000 Ang^3
#
#
#
# Elastic Constant Matrix: (Units=GPa)
#
#
# Indices 1 2 3 4 5 6 
#
# 1 59.7431 5.6444 12.5630 -3.4409 -12.3626 29.0433
# 2 5.6444 110.3320 45.3610 -17.8857 7.9580 24.2189
# 3 12.5630 45.3610 88.9590 -14.7365 -8.3994 12.8412
# 4 -3.4409 -17.8857 -14.7365 25.2157 -0.6158 2.5594
# 5 -12.3626 7.9580 -8.3994 -0.6158 26.8758 -0.6434
# 6 29.0433 24.2189 12.8412 2.5594 -0.6434 40.5264
#
#
#
# Elastic Compliance Matrix: (Units=1/GPa)
#
#
# Indices 1 2 3 4 5 6 
#
# 1 0.032774 0.005245 -0.000345 0.011050 0.013022 -0.027003
# 2 0.005245 0.015641 -0.005802 0.009531 -0.004099 -0.011934
# 3 -0.000345 -0.005802 0.016024 0.005528 0.006655 -0.001607
# 4 0.011050 0.009531 0.005528 0.053166 0.004760 -0.018648
# 5 0.013022 -0.004099 0.006655 0.004760 0.046396 -0.008555
# 6 -0.027003 -0.011934 -0.001607 -0.018648 -0.008555 0.052710
#
#
# Mechanical properties :
#
#
# Convention : Reuss Voigt Hill
#
# Bulk Modulus (GPa) = 15.96552 42.90789 29.43671
# Shear Modulus (GPa) = 20.88621 31.55463 26.22042
#
# Velocity S-wave (km/s) = 2.96074 3.63917 3.31734
# Velocity P-wave (km/s) = 4.28821 5.97215 5.19881
#
# Compressibility (1/GPa) = 0.06263496
#
# Stress axis : x y z
#
# Youngs Moduli (GPa) = 30.51245 63.93527 62.40551
#
# Poissons Ratio (x) = -0.33532 0.02152
# Poissons Ratio (y) = -0.16003 0.36205
# Poissons Ratio (z) = 0.01052 0.37093
#
# Static dielectric constant tensor:
#      x y z
#    x 2.006680 -0.013430 -0.037710 
#    y -0.013430 1.970690 -0.036620 
#    z -0.037710 -0.036620 1.941970 
# 
# From -- ./inp_files/66537.got.cif
#   From: 2010.05.17/outbox.cif.g08.bks.cpg/sg2_34_cif.got.tgz:66537.got - 2010.06.03 11:33:40.
