data_PCOD9083506
_publ_section_title
;
Structure prediction by ZEFSAII (Michael W. Deem and Ramdas Pophale) SiO2 
 PCOD9083506
Probable space group: P -1
;
_chemical_formula_sum "Si O2"
_cell_formula_units_Z 12
_cell_length_a 13.056628
_cell_length_b 7.336615
_cell_length_c 8.877597
_cell_angle_alpha 36.061871
_cell_angle_beta 99.746395
_cell_angle_gamma 98.693100
_cell_volume 493.219025
_symmetry_space_group_name_H-M "P -1"
_symmetry_group_IT_number 2
_symmetry_cell_setting 'triclinic'
loop_
_space_group_symop_operation_xyz
x,y,z
-x,-y,-z
loop_
_atom_site_type_symbol
_atom_site_label
_atom_site_fract_x
_atom_site_fract_y
_atom_site_fract_z
Si Si1 0.715166 0.165842 0.703092
Si Si2 0.510826 0.167117 0.150028
Si Si3 0.821121 0.537787 0.211407
Si Si4 0.888563 0.171832 0.199215
Si Si5 0.951581 0.572337 0.705856
Si Si6 0.585542 0.527424 0.636101
O O1 0.605189 0.980522 0.778571
O O2 0.752383 0.358584 0.437543
O O3 0.689422 0.407095 0.667151
O O4 0.792478 0.890356 0.942282
O O5 0.580733 0.896761 0.422715
O O6 0.500000 0.500000 0.000000
O O7 0.554177 0.280875 0.922286
O O8 0.814042 0.354361 0.170957
O O9 0.943714 0.511540 0.297667
O O10 0.003568 0.247616 0.251709
O O11 0.880189 0.806734 0.447077
O O12 0.892080 0.286708 0.955024
O O13 0.500000 0.500000 0.500000
#
# Coordination Sequence:
#
# PCOD9083506 Si02
#       6
#     2   2   2   2   2   2
#     4  11  19  29  47  71  94 119 154 201 238 273
#     4  11  22  37  53  68  91 130 167 196 237 294
#     4  10  16  24  40  65  93 123 152 185 230 280
#     4   8  13  22  34  53  86 129 148 167 218 284
#     4   8  13  22  34  53  86 129 148 167 218 284
#     4  10  20  36  52  70  94 122 158 200 246 293
#
# _framework density 24.32996
#
# number of rings (size 3 to 8) (size 9 to 14) (size 15 to 20)
#    1.000    1.333    0.000    7.500    0.000    0.000 
#    0.000    0.000    0.000    0.000    0.000    0.000 
#    0.000    0.000    0.000  420.000    0.000    0.000 
#
# Total GULP energy -66955.014771 kJ/mol
# GULP energy per Si atom -5579.584564 kJ/mol
# Density = 2.427458 g / cm^3
# Si number density = 24.329960 Si / 1000 Ang^3
#
#
#
# Elastic Constant Matrix: (Units=GPa)
#
#
# Indices 1 2 3 4 5 6 
#
# 1 58.2695 29.5779 8.5604 2.9143 -9.1270 -7.9497
# 2 29.5779 75.4392 4.2443 -21.7922 -1.6122 -31.1447
# 3 8.5604 4.2443 144.1296 -15.8319 -27.2674 -21.3677
# 4 2.9143 -21.7922 -15.8319 39.3299 -28.6853 0.5727
# 5 -9.1270 -1.6122 -27.2674 -28.6853 32.5070 -1.0536
# 6 -7.9497 -31.1447 -21.3677 0.5727 -1.0536 38.1518
#
#
#
# Elastic Compliance Matrix: (Units=1/GPa)
#
#
# Indices 1 2 3 4 5 6 
#
# 1 0.021651 -0.005168 0.002922 0.007752 0.015186 0.002232
# 2 -0.005168 0.002176 -0.012687 -0.034580 -0.042729 -0.007067
# 3 0.002922 -0.012687 -0.001115 -0.023384 -0.021723 -0.010621
# 4 0.007752 -0.034580 -0.023384 -0.050678 -0.065195 -0.040750
# 5 0.015186 -0.042729 -0.021723 -0.065195 -0.044275 -0.044127
# 6 0.002232 -0.007067 -0.010621 -0.040750 -0.044127 0.014351
#
#
# Mechanical properties :
#
#
# Convention : Reuss Voigt Hill
#
# Bulk Modulus (GPa) = -139.76813 40.28927 -49.73943
# Shear Modulus (GPa) = -164.43079 37.69478 -63.36800
#
# Velocity S-wave (km/s) = -8.22985 3.94040 -5.10899
# Velocity P-wave (km/s) = 12.16054 6.10720 7.43576
#
# Compressibility (1/GPa) = -0.00715471
#
# Stress axis : x y z
#
# Youngs Moduli (GPa) = 46.18675 459.59646 -897.04758
#
# Poissons Ratio (x) = 2.37524 2.62082
# Poissons Ratio (y) = 0.23870 -11.38085
# Poissons Ratio (z) = -0.13494 5.83090
#
# Static dielectric constant tensor:
#      x y z
#    x 1.966210 0.068070 0.008610 
#    y 0.068070 2.084790 -0.087680 
#    z 0.008610 -0.087680 2.190580 
# 
# From -- ./inp_files/293762.got.cif
#   From: 2010.05.17/outbox.cif.g08.bks.cpg/sg2_147_cif.got.tgz:293762.got - 2010.06.03 11:33:40.
