data_PCOD9083777
_publ_section_title
;
Structure prediction by ZEFSAII (Michael W. Deem and Ramdas Pophale) SiO2 
 PCOD9083777
Probable space group: P -1
;
_chemical_formula_sum "Si O2"
_cell_formula_units_Z 16
_cell_length_a 17.077346
_cell_length_b 6.215911
_cell_length_c 10.446108
_cell_angle_alpha 104.935214
_cell_angle_beta 134.563417
_cell_angle_gamma 60.173615
_cell_volume 677.873191
_symmetry_space_group_name_H-M "P -1"
_symmetry_group_IT_number 2
_symmetry_cell_setting 'triclinic'
loop_
_space_group_symop_operation_xyz
x,y,z
-x,-y,-z
loop_
_atom_site_type_symbol
_atom_site_label
_atom_site_fract_x
_atom_site_fract_y
_atom_site_fract_z
Si Si1 0.653956 0.212628 0.010790
Si Si2 0.904035 0.289015 0.731242
Si Si3 0.968554 0.775976 0.582413
Si Si4 0.306939 0.744522 0.386996
Si Si5 0.741212 0.758323 0.446024
Si Si6 0.470009 0.790885 0.372926
Si Si7 0.912223 0.721487 0.233485
Si Si8 0.449732 0.289514 0.958290
O O1 0.571595 0.145354 0.810284
O O2 0.582456 0.278788 0.074401
O O3 0.626617 0.497638 0.991235
O O4 0.786006 0.977926 0.131262
O O5 0.827974 0.248484 0.755232
O O6 0.808325 0.551691 0.600112
O O7 0.031222 0.306027 0.849573
O O8 0.937559 0.042364 0.646271
O O9 0.844215 0.749556 0.463629
O O10 0.986682 0.755254 0.447683
O O11 0.076059 0.548641 0.751374
O O12 0.353560 0.781973 0.308214
O O13 0.411645 0.477499 0.515738
O O14 0.310824 0.965909 0.510526
O O15 0.649400 0.676178 0.259411
O O16 0.500000 0.000000 0.500000
O O17 0.500000 0.000000 0.000000
#
# Coordination Sequence:
#
# PCOD9083777 Si02
#       8
#     2   2   2   2   2   2   2   2
#     4  11  24  38  56  87 120 153 193 235 287 349
#     4  10  19  34  58  82 112 151 192 238 283 335
#     4   9  19  34  55  85 118 157 196 227 276 350
#     4  10  21  38  61  87 109 145 203 243 282 342
#     4  10  19  35  60  86 116 152 191 236 287 344
#     4  11  23  41  63  84 112 151 197 247 290 336
#     4  10  20  34  53  83 121 155 190 235 284 340
#     4  11  22  36  56  85 123 154 180 231 296 349
#
# _framework density 23.603235999999999
#
# number of rings (size 3 to 8) (size 9 to 14) (size 15 to 20)
#    0.000    1.750    0.000    4.875    0.000    8.000 
#    0.000    0.625    0.000   10.500    0.000    0.000 
#    0.000    0.000    0.000    0.000    0.000    0.000 
#
# Total GULP energy -89097.160656 kJ/mol
# GULP energy per Si atom -5568.572541 kJ/mol
# Density = 2.354951 g / cm^3
# Si number density = 23.603236 Si / 1000 Ang^3
#
#
#
# Elastic Constant Matrix: (Units=GPa)
#
#
# Indices 1 2 3 4 5 6 
#
# 1 118.8596 9.1486 -8.2238 -16.6195 12.7872 -3.3950
# 2 9.1486 181.4634 36.2205 -17.2792 11.1675 -21.6585
# 3 -8.2238 36.2205 34.9897 -7.5173 11.5246 -9.4061
# 4 -16.6195 -17.2792 -7.5173 24.9469 -7.2183 5.9851
# 5 12.7872 11.1675 11.5246 -7.2183 15.2962 -3.3959
# 6 -3.3950 -21.6585 -9.4061 5.9851 -3.3959 34.2792
#
#
#
# Elastic Compliance Matrix: (Units=1/GPa)
#
#
# Indices 1 2 3 4 5 6 
#
# 1 0.011373 -0.001018 0.009457 0.005775 -0.012991 0.000783
# 2 -0.001018 0.007440 -0.007755 0.002423 0.002925 0.002339
# 3 0.009457 -0.007755 0.054614 0.004310 -0.039956 0.006312
# 4 0.005775 0.002423 0.004310 0.051929 0.013679 -0.004426
# 5 -0.012991 0.002925 -0.039956 0.013679 0.110244 -0.001869
# 6 0.000783 0.002339 0.006312 -0.004426 -0.001869 0.033047
#
#
# Mechanical properties :
#
#
# Convention : Reuss Voigt Hill
#
# Bulk Modulus (GPa) = 13.36998 45.51149 29.44073
# Shear Modulus (GPa) = 17.11091 34.78228 25.94660
#
# Velocity S-wave (km/s) = 2.69539 3.84295 3.31914
# Velocity P-wave (km/s) = 3.91964 6.24618 5.21432
#
# Compressibility (1/GPa) = 0.07479445
#
# Stress axis : x y z
#
# Youngs Moduli (GPa) = 87.92454 134.41091 18.31044
#
# Poissons Ratio (x) = 0.13687 -0.17316
# Poissons Ratio (y) = 0.08953 0.14200
# Poissons Ratio (z) = -0.83151 1.04237
#
# Static dielectric constant tensor:
#      x y z
#    x 2.010420 -0.014380 -0.077240 
#    y -0.014380 1.907670 -0.169560 
#    z -0.077240 -0.169560 1.802640 
# 
# From -- ./inp_files/459558.got.cif
#   From: 2010.05.17/outbox.cif.g08.bks.cpg/sg2_230_cif.got.tgz:459558.got - 2010.06.03 11:33:40.
