data_PCOD9083665
_publ_section_title
;
Structure prediction by ZEFSAII (Michael W. Deem and Ramdas Pophale) SiO2 
 PCOD9083665
Probable space group: P -1
;
_chemical_formula_sum "Si O2"
_cell_formula_units_Z 16
_cell_length_a 13.513155
_cell_length_b 12.111317
_cell_length_c 15.751067
_cell_angle_alpha 26.848960
_cell_angle_beta 144.260312
_cell_angle_gamma 139.836288
_cell_volume 672.176866
_symmetry_space_group_name_H-M "P -1"
_symmetry_group_IT_number 2
_symmetry_cell_setting 'triclinic'
loop_
_space_group_symop_operation_xyz
x,y,z
-x,-y,-z
loop_
_atom_site_type_symbol
_atom_site_label
_atom_site_fract_x
_atom_site_fract_y
_atom_site_fract_z
Si Si1 0.687100 0.404137 0.461544
Si Si2 0.745442 0.438896 0.294529
Si Si3 0.696864 0.542272 0.861208
Si Si4 0.575587 0.870501 0.804799
Si Si5 0.277546 0.910763 0.704410
Si Si6 0.682195 0.599448 0.512457
Si Si7 0.062424 0.967545 0.359943
Si Si8 0.841792 0.342791 0.945604
O O1 0.787984 0.483913 0.391669
O O2 0.496203 0.425806 0.282882
O O3 0.710612 0.537843 0.476809
O O4 0.684983 0.116031 0.676736
O O5 0.565520 0.256154 0.274007
O O6 0.889690 0.293597 0.455732
O O7 0.702572 0.685249 0.050636
O O8 0.810414 0.810648 0.750362
O O9 0.694174 0.393126 0.872373
O O10 0.756288 0.366063 0.094608
O O11 0.451613 0.935839 0.751257
O O12 0.296552 0.108593 0.656680
O O13 0.125475 0.979447 0.492954
O O14 0.500000 0.500000 0.500000
O O15 0.812984 0.467108 0.751131
O O16 0.881842 0.064646 0.156614
O O17 0.000000 0.500000 0.000000
#
# Coordination Sequence:
#
# PCOD9083665 Si02
#       8
#     2   2   2   2   2   2   2   2
#     4  12  21  35  57  89 122 150 191 247 299 343
#     4  10  21  34  57  86 114 159 199 239 288 343
#     4  11  20  34  60  91 117 150 194 240 301 347
#     4  10  19  34  57  84 121 152 195 249 286 339
#     4  11  20  35  59  92 117 149 197 240 299 347
#     4  12  21  39  62  88 123 155 190 245 303 350
#     4  10  21  40  59  81 121 156 195 246 284 348
#     4  10  20  42  62  82 121 161 191 239 302 347
#
# _framework density 23.803256999999999
#
# number of rings (size 3 to 8) (size 9 to 14) (size 15 to 20)
#    0.000    1.250    8.750    0.375    0.000    1.000 
#    2.250    0.625    0.000    0.750    0.000    0.000 
#    0.000    0.000    0.000    0.000    0.000    0.000 
#
# Total GULP energy -89424.379990 kJ/mol
# GULP energy per Si atom -5589.023749 kJ/mol
# Density = 2.374908 g / cm^3
# Si number density = 23.803257 Si / 1000 Ang^3
#
#
#
# Elastic Constant Matrix: (Units=GPa)
#
#
# Indices 1 2 3 4 5 6 
#
# 1 52.6645 24.5399 19.5942 3.4149 9.6075 -30.6900
# 2 24.5399 75.8665 44.1417 2.0461 -1.0148 -21.2908
# 3 19.5942 44.1417 160.6207 -21.3686 3.2688 -10.6273
# 4 3.4149 2.0461 -21.3686 20.4526 -13.1327 0.9972
# 5 9.6075 -1.0148 3.2688 -13.1327 40.3636 -7.1856
# 6 -30.6900 -21.2908 -10.6273 0.9972 -7.1856 35.1981
#
#
#
# Elastic Compliance Matrix: (Units=1/GPa)
#
#
# Indices 1 2 3 4 5 6 
#
# 1 0.046423 -0.000948 -0.005807 -0.022935 -0.011579 0.036436
# 2 -0.000948 0.019787 -0.005772 -0.008156 0.000261 0.009684
# 3 -0.005807 -0.005772 0.010127 0.015253 0.004487 -0.005014
# 4 -0.022935 -0.008156 0.015253 0.089701 0.030232 -0.016696
# 5 -0.011579 0.000261 0.004487 0.030232 0.036662 -0.001956
# 6 0.036436 0.009684 -0.005014 -0.016696 -0.001956 0.064598
#
#
# Mechanical properties :
#
#
# Convention : Reuss Voigt Hill
#
# Bulk Modulus (GPa) = 19.49999 51.74480 35.62239
# Shear Modulus (GPa) = 16.15781 32.59460 24.37620
#
# Velocity S-wave (km/s) = 2.60822 3.70447 3.20358
# Velocity P-wave (km/s) = 4.15696 6.33113 5.35553
#
# Compressibility (1/GPa) = 0.05128209
#
# Stress axis : x y z
#
# Youngs Moduli (GPa) = 21.54090 50.53791 98.74839
#
# Poissons Ratio (x) = 0.04792 0.57348
# Poissons Ratio (y) = 0.02042 0.56997
# Poissons Ratio (z) = 0.12510 0.29170
#
# Static dielectric constant tensor:
#      x y z
#    x 2.101500 0.019960 0.081350 
#    y 0.019960 1.955170 -0.007160 
#    z 0.081350 -0.007160 1.894200 
# 
# From -- ./inp_files/455522.got.cif
#   From: 2010.05.17/outbox.cif.g08.bks.cpg/sg2_228_cif.got.tgz:455522.got - 2010.06.03 11:33:40.
