data_PCOD9083733
_publ_section_title
;
Structure prediction by ZEFSAII (Michael W. Deem and Ramdas Pophale) SiO2 
 PCOD9083733
Probable space group: P -1
;
_chemical_formula_sum "Si O2"
_cell_formula_units_Z 16
_cell_length_a 14.016429
_cell_length_b 8.671009
_cell_length_c 12.670740
_cell_angle_alpha 130.572684
_cell_angle_beta 148.008605
_cell_angle_gamma 55.688916
_cell_volume 619.432202
_symmetry_space_group_name_H-M "P -1"
_symmetry_group_IT_number 2
_symmetry_cell_setting 'triclinic'
loop_
_space_group_symop_operation_xyz
x,y,z
-x,-y,-z
loop_
_atom_site_type_symbol
_atom_site_label
_atom_site_fract_x
_atom_site_fract_y
_atom_site_fract_z
Si Si1 0.695377 0.290561 0.718554
Si Si2 0.782458 0.254945 0.006779
Si Si3 0.965800 0.763878 0.376425
Si Si4 0.747768 0.438691 0.286098
Si Si5 0.013602 0.241749 0.844643
Si Si6 0.600291 0.865991 0.753415
Si Si7 0.850746 0.873142 0.636502
Si Si8 0.437574 0.135584 0.902624
O O1 0.506597 0.301407 0.486297
O O2 0.868581 0.346774 0.835387
O O3 0.705684 0.365443 0.880434
O O4 0.723871 0.044485 0.645327
O O5 0.677531 0.049613 0.839178
O O6 0.780579 0.378159 0.168947
O O7 0.994471 0.197624 0.167479
O O8 0.006446 0.684392 0.260708
O O9 0.759511 0.773936 0.221769
O O10 0.096068 0.655444 0.534317
O O11 0.000000 0.000000 0.500000
O O12 0.748993 0.679010 0.413187
O O13 0.569161 0.321973 0.095057
O O14 0.952953 0.004374 0.700602
O O15 0.224009 0.229025 0.066207
O O16 0.466069 0.979032 0.761620
O O17 0.500000 0.000000 0.000000
#
# Coordination Sequence:
#
# PCOD9083733 Si02
#       8
#     2   2   2   2   2   2   2   2
#     4  10  21  37  65  90 120 168 205 249 312 366
#     4  10  20  39  59  92 124 160 210 253 298 379
#     4  12  20  36  63  90 123 169 200 252 315 362
#     4  11  24  40  61  94 132 157 198 267 314 355
#     4   9  21  36  62  95 121 154 213 256 296 378
#     4  10  19  34  57  91 118 153 205 262 293 350
#     4   9  21  40  59  92 129 157 199 262 314 360
#     4  11  21  35  57  91 128 156 213 249 298 376
#
# _framework density 25.830107000000002
#
# number of rings (size 3 to 8) (size 9 to 14) (size 15 to 20)
#    0.750    1.000    2.500    3.375    1.750    0.000 
#    4.500    1.250    0.000    0.750    3.250    5.250 
#    0.000    0.000    0.000    0.000    0.000    0.000 
#
# Total GULP energy -89657.413339 kJ/mol
# GULP energy per Si atom -5603.588334 kJ/mol
# Density = 2.577132 g / cm^3
# Si number density = 25.830107 Si / 1000 Ang^3
#
#
#
# Elastic Constant Matrix: (Units=GPa)
#
#
# Indices 1 2 3 4 5 6 
#
# 1 159.1231 47.7535 59.1085 -16.1827 -26.9546 19.7942
# 2 47.7535 109.6346 52.2638 0.6434 -5.1544 6.2945
# 3 59.1085 52.2638 142.7500 -21.7074 -3.5439 8.4801
# 4 -16.1827 0.6434 -21.7074 46.0010 1.1055 -5.5819
# 5 -26.9546 -5.1544 -3.5439 1.1055 36.7370 -4.3908
# 6 19.7942 6.2945 8.4801 -5.5819 -4.3908 31.2166
#
#
#
# Elastic Compliance Matrix: (Units=1/GPa)
#
#
# Indices 1 2 3 4 5 6 
#
# 1 0.009591 -0.002539 -0.002416 0.001668 0.005946 -0.003779
# 2 -0.002539 0.012048 -0.003788 -0.002883 -0.000496 -0.000376
# 3 -0.002416 -0.003788 0.009951 0.003945 -0.001452 0.000094
# 4 0.001668 -0.002883 0.003945 0.024567 0.000814 0.002959
# 5 0.005946 -0.000496 -0.001452 0.000814 0.031504 0.001301
# 6 -0.003779 -0.000376 0.000094 0.002959 0.001301 0.035193
#
#
# Mechanical properties :
#
#
# Convention : Reuss Voigt Hill
#
# Bulk Modulus (GPa) = 70.90446 81.08437 75.99442
# Shear Modulus (GPa) = 34.47301 39.61637 37.04469
#
# Velocity S-wave (km/s) = 3.65719 3.92053 3.79115
# Velocity P-wave (km/s) = 6.73374 7.20789 6.97485
#
# Compressibility (1/GPa) = 0.01410349
#
# Stress axis : x y z
#
# Youngs Moduli (GPa) = 104.26770 83.00044 100.49420
#
# Poissons Ratio (x) = 0.21074 0.24278
# Poissons Ratio (y) = 0.26474 0.38069
# Poissons Ratio (z) = 0.25190 0.31442
#
# Static dielectric constant tensor:
#      x y z
#    x 2.037240 0.001890 -0.042380 
#    y 0.001890 2.025530 0.026660 
#    z -0.042380 0.026660 2.113130 
# 
# From -- ./inp_files/614112.got.cif
#   From: 2010.05.17/outbox.cif.g08.bks.cpg/sg2_308_cif.got.tgz:614112.got - 2010.06.03 11:33:40.
