data_PCOD9083081
_publ_section_title
;
Structure prediction by ZEFSAII (Michael W. Deem and Ramdas Pophale) SiO2 
 PCOD9083081
Probable space group: P -1
;
_chemical_formula_sum "Si O2"
_cell_formula_units_Z 14
_cell_length_a 11.608726
_cell_length_b 13.692062
_cell_length_c 16.583716
_cell_angle_alpha 154.694321
_cell_angle_beta 146.998823
_cell_angle_gamma 30.809731
_cell_volume 553.312905
_symmetry_space_group_name_H-M "P -1"
_symmetry_group_IT_number 2
_symmetry_cell_setting 'triclinic'
loop_
_space_group_symop_operation_xyz
x,y,z
-x,-y,-z
loop_
_atom_site_type_symbol
_atom_site_label
_atom_site_fract_x
_atom_site_fract_y
_atom_site_fract_z
Si Si1 0.028535 0.921838 0.073993
Si Si2 0.347677 0.679915 0.949914
Si Si3 0.475375 0.609696 0.314522
Si Si4 0.201417 0.755192 0.479419
Si Si5 0.040763 0.973307 0.705382
Si Si6 0.751924 0.655608 0.925700
Si Si7 0.614893 0.838568 0.711120
O O1 0.852179 0.792385 0.861938
O O2 0.274117 0.718678 0.029554
O O3 0.012274 0.029523 0.233992
O O4 0.909500 0.169574 0.132243
O O5 0.458295 0.439757 0.777117
O O6 0.474467 0.864975 0.146955
O O7 0.447800 0.364352 0.150421
O O8 0.631714 0.682801 0.522325
O O9 0.214520 0.834590 0.335046
O O10 0.235614 0.507172 0.266632
O O11 0.431498 0.798670 0.630890
O O12 0.137712 0.748034 0.529977
O O13 0.000000 0.000000 0.500000
O O14 0.231468 0.087653 0.893423
O O15 0.000000 0.500000 0.000000
#
# Coordination Sequence:
#
# PCOD9083081 Si02
#       7
#     2   2   2   2   2   2   2
#     4   9  22  41  55  77 114 148 186 229 271 322
#     4   9  20  41  59  72 111 154 185 221 282 320
#     4  10  19  33  62  80 104 146 190 218 274 332
#     4  11  18  33  58  84 115 143 177 221 281 333
#     4  11  21  35  55  88 114 137 187 232 264 324
#     4   9  18  31  52  83 111 144 170 216 281 329
#     4   9  19  37  58  79 107 150 182 218 277 337
#
# _framework density 25.302139
#
# number of rings (size 3 to 8) (size 9 to 14) (size 15 to 20)
#    0.857    1.429    4.286    0.857    2.000    1.714 
#    2.571    2.143    0.000    0.000    0.000    0.000 
#    0.000    0.000    0.000    0.000    0.000    0.000 
#
# Total GULP energy -78176.064521 kJ/mol
# GULP energy per Si atom -5584.004609 kJ/mol
# Density = 2.524455 g / cm^3
# Si number density = 25.302139 Si / 1000 Ang^3
#
#
#
# Elastic Constant Matrix: (Units=GPa)
#
#
# Indices 1 2 3 4 5 6 
#
# 1 115.5505 14.2263 67.4770 -6.0542 -60.1965 -18.3234
# 2 14.2263 44.0096 10.1503 -11.6142 -4.8896 -11.8466
# 3 67.4770 10.1503 123.5401 -2.9405 -40.9567 -8.2397
# 4 -6.0542 -11.6142 -2.9405 23.0218 1.4854 -12.5937
# 5 -60.1965 -4.8896 -40.9567 1.4854 62.7558 -0.3038
# 6 -18.3234 -11.8466 -8.2397 -12.5937 -0.3038 34.9672
#
#
#
# Elastic Compliance Matrix: (Units=1/GPa)
#
#
# Indices 1 2 3 4 5 6 
#
# 1 0.028727 0.007065 -0.006328 0.021956 0.023573 0.024069
# 2 0.007065 0.040021 -0.001480 0.038136 0.008175 0.030718
# 3 -0.006328 -0.001480 0.012099 -0.001867 0.001747 -0.001624
# 4 0.021956 0.038136 -0.001867 0.099744 0.020744 0.060089
# 5 0.023573 0.008175 0.001747 0.020744 0.039946 0.023352
# 6 0.024069 0.030718 -0.001624 0.060089 0.023352 0.073080
#
#
# Mechanical properties :
#
#
# Convention : Reuss Voigt Hill
#
# Bulk Modulus (GPa) = 12.60066 51.86748 32.23407
# Shear Modulus (GPa) = 15.54933 36.89874 26.22404
#
# Velocity S-wave (km/s) = 2.48169 3.82294 3.22286
# Velocity P-wave (km/s) = 3.63354 6.32695 5.15911
#
# Compressibility (1/GPa) = 0.07936090
#
# Stress axis : x y z
#
# Youngs Moduli (GPa) = 34.81008 24.98688 82.65060
#
# Poissons Ratio (x) = -0.17654 0.52304
# Poissons Ratio (y) = -0.24595 0.12236
# Poissons Ratio (z) = 0.22029 0.03699
#
# Static dielectric constant tensor:
#      x y z
#    x 2.054120 0.048570 -0.026900 
#    y 0.048570 2.133870 0.008190 
#    z -0.026900 0.008190 1.954460 
# 
# From -- ./inp_files/453532.got.cif
#   From: 2010.05.17/outbox.cif.g08.bks.cpg/sg2_227_cif.got.tgz:453532.got - 2010.06.03 11:33:40.
