data_PCOD9083227
_publ_section_title
;
Structure prediction by ZEFSAII (Michael W. Deem and Ramdas Pophale) SiO2 
 PCOD9083227
Probable space group: P -1
;
_chemical_formula_sum "Si O2"
_cell_formula_units_Z 16
_cell_length_a 15.362687
_cell_length_b 5.445550
_cell_length_c 16.617946
_cell_angle_alpha 70.154161
_cell_angle_beta 37.538988
_cell_angle_gamma 55.693991
_cell_volume 683.589112
_symmetry_space_group_name_H-M "P -1"
_symmetry_group_IT_number 2
_symmetry_cell_setting 'triclinic'
loop_
_space_group_symop_operation_xyz
x,y,z
-x,-y,-z
loop_
_atom_site_type_symbol
_atom_site_label
_atom_site_fract_x
_atom_site_fract_y
_atom_site_fract_z
Si Si1 0.047212 0.034387 0.870612
Si Si2 0.791609 0.463263 0.636312
Si Si3 0.904141 0.761581 0.658190
Si Si4 0.398169 0.758537 0.896551
Si Si5 0.954637 0.461543 0.129243
Si Si6 0.444850 0.576469 0.623751
Si Si7 0.405049 0.057108 0.705655
Si Si8 0.660403 0.793856 0.963157
O O1 0.980744 0.386595 0.873878
O O2 0.987902 0.885989 0.864701
O O3 0.246830 0.819254 0.745836
O O4 0.000000 0.000000 0.000000
O O5 0.827339 0.663667 0.651054
O O6 0.596421 0.606567 0.754574
O O7 0.897927 0.433485 0.481968
O O8 0.857163 0.113892 0.653910
O O9 0.822259 0.706907 0.801281
O O10 0.355540 0.495196 0.968252
O O11 0.331475 0.943588 0.841978
O O12 0.352927 0.988856 0.978012
O O13 0.754617 0.678009 0.254571
O O14 0.000000 0.500000 0.000000
O O15 0.500000 0.500000 0.500000
O O16 0.482199 0.249236 0.665775
O O17 0.511803 0.765119 0.602755
O O18 0.500000 0.000000 0.000000
#
# Coordination Sequence:
#
# PCOD9083227 Si02
#       8
#     2   2   2   2   2   2   2   2
#     4   8  14  25  45  71  94 120 157 209 247 298
#     4  10  19  34  53  79 105 151 180 227 277 328
#     4  10  20  33  54  78 109 138 196 229 264 323
#     4  12  22  35  57  81 118 150 182 237 291 325
#     4   8  14  27  47  68  95 126 165 211 243 311
#     4  10  19  34  55  76 103 132 179 227 267 324
#     4  10  21  34  52  82 108 141 180 223 286 338
#     4  12  21  35  56  86 113 145 193 240 269 322
#
# _framework density 23.405871999999999
#
# number of rings (size 3 to 8) (size 9 to 14) (size 15 to 20)
#    0.000    2.000    2.500    2.250    0.000    0.000 
#    0.000    0.000    0.000   18.000    0.000    0.000 
#    0.000    0.000    0.000    0.000    0.000    0.000 
#
# Total GULP energy -89259.435149 kJ/mol
# GULP energy per Si atom -5578.714697 kJ/mol
# Density = 2.335260 g / cm^3
# Si number density = 23.405872 Si / 1000 Ang^3
#
#
#
# Elastic Constant Matrix: (Units=GPa)
#
#
# Indices 1 2 3 4 5 6 
#
# 1 68.2413 50.4350 23.8066 9.6265 5.7141 27.5265
# 2 50.4350 166.1200 23.1485 0.4926 9.2455 60.5473
# 3 23.8066 23.1485 169.0067 12.1504 -4.6022 -0.3181
# 4 9.6265 0.4926 12.1504 38.8245 7.0810 4.8699
# 5 5.7141 9.2455 -4.6022 7.0810 32.6446 3.5558
# 6 27.5265 60.5473 -0.3181 4.8699 3.5558 55.1124
#
#
#
# Elastic Compliance Matrix: (Units=1/GPa)
#
#
# Indices 1 2 3 4 5 6 
#
# 1 0.021366 -0.003882 -0.002280 -0.003498 -0.001548 -0.006011
# 2 -0.003882 0.011399 -0.001309 0.002975 -0.002212 -0.010713
# 3 -0.002280 -0.001309 0.006630 -0.002173 0.001883 0.002685
# 4 -0.003498 0.002975 -0.002173 0.028896 -0.006404 -0.003673
# 5 -0.001548 -0.002212 0.001883 -0.006404 0.033005 0.001651
# 6 -0.006011 -0.010713 0.002685 -0.003673 0.001651 0.033150
#
#
# Mechanical properties :
#
#
# Convention : Reuss Voigt Hill
#
# Bulk Modulus (GPa) = 40.89232 66.46089 53.67660
# Shear Modulus (GPa) = 31.73839 45.71483 38.72661
#
# Velocity S-wave (km/s) = 3.68639 4.42422 4.07205
# Velocity P-wave (km/s) = 5.96893 7.38613 6.71502
#
# Compressibility (1/GPa) = 0.02445447
#
# Stress axis : x y z
#
# Youngs Moduli (GPa) = 46.80351 87.72399 150.83106
#
# Poissons Ratio (x) = 0.34051 0.34389
# Poissons Ratio (y) = 0.18167 0.19741
# Poissons Ratio (z) = 0.10671 0.11482
#
# Static dielectric constant tensor:
#      x y z
#    x 1.942420 0.045440 -0.041730 
#    y 0.045440 1.973810 -0.002710 
#    z -0.041730 -0.002710 1.864530 
# 
# From -- ./inp_files/576691.got.cif
#   From: 2010.05.17/outbox.cif.g08.bks.cpg/sg2_289_cif.got.tgz:576691.got - 2010.06.03 11:33:40.
