data_PCOD9083706
_publ_section_title
;
Structure prediction by ZEFSAII (Michael W. Deem and Ramdas Pophale) SiO2 
 PCOD9083706
Probable space group: P -1
;
_chemical_formula_sum "Si O2"
_cell_formula_units_Z 14
_cell_length_a 8.920045
_cell_length_b 15.148208
_cell_length_c 15.775244
_cell_angle_alpha 18.983585
_cell_angle_beta 87.758082
_cell_angle_gamma 91.938143
_cell_volume 676.229563
_symmetry_space_group_name_H-M "P -1"
_symmetry_group_IT_number 2
_symmetry_cell_setting 'triclinic'
loop_
_space_group_symop_operation_xyz
x,y,z
-x,-y,-z
loop_
_atom_site_type_symbol
_atom_site_label
_atom_site_fract_x
_atom_site_fract_y
_atom_site_fract_z
Si Si1 0.376751 0.105298 0.851227
Si Si2 0.948047 0.309296 0.590403
Si Si3 0.458319 0.529653 0.768405
Si Si4 0.392268 0.697055 0.789755
Si Si5 0.108143 0.794836 0.035182
Si Si6 0.324893 0.864192 0.811685
Si Si7 0.647677 0.439526 0.440871
O O1 0.475068 0.296626 0.603364
O O2 0.299166 0.296020 0.739719
O O3 0.255735 0.861625 0.033139
O O4 0.500000 0.000000 0.000000
O O5 0.764981 0.246965 0.636478
O O6 0.000000 0.500000 0.500000
O O7 0.016095 0.035445 0.837016
O O8 0.012685 0.499387 0.335233
O O9 0.349073 0.582173 0.800986
O O10 0.363611 0.480046 0.729001
O O11 0.589600 0.813519 0.494937
O O12 0.548170 0.290041 0.009316
O O13 0.283813 0.731482 0.839565
O O14 0.500000 0.000000 0.500000
O O15 0.500000 0.500000 0.000000
O O16 0.179887 0.821102 0.916112
#
# Coordination Sequence:
#
# PCOD9083706 Si02
#       7
#     2   2   2   2   2   2   2
#     4  11  23  37  60  83 110 150 191 246 286 323
#     4  12  26  42  56  80 118 161 192 229 285 343
#     4  10  19  34  57  88 113 144 184 243 287 326
#     4   8  16  30  53  83 115 140 175 232 292 332
#     4  12  24  40  60  81 116 154 195 230 282 344
#     4  10  19  35  58  86 114 144 189 233 282 344
#     4  11  24  37  57  84 115 147 194 239 283 337
#
# _framework density 20.703029000000001
#
# number of rings (size 3 to 8) (size 9 to 14) (size 15 to 20)
#    0.000    1.429    2.857    3.000    4.000    0.000 
#    0.000    0.000    0.000    1.714    0.000    0.000 
#    0.000    0.000    0.000    0.000    0.000    0.000 
#
# Total GULP energy -78208.348692 kJ/mol
# GULP energy per Si atom -5586.310621 kJ/mol
# Density = 2.065591 g / cm^3
# Si number density = 20.703029 Si / 1000 Ang^3
#
#
#
# Elastic Constant Matrix: (Units=GPa)
#
#
# Indices 1 2 3 4 5 6 
#
# 1 54.0153 27.9647 9.2892 6.3614 8.0056 -12.0180
# 2 27.9647 120.4710 -7.4395 28.0078 -0.6309 -16.3248
# 3 9.2892 -7.4395 88.1583 3.0979 7.7951 -3.7007
# 4 6.3614 28.0078 3.0979 28.8958 -2.2122 0.5008
# 5 8.0056 -0.6309 7.7951 -2.2122 33.1021 2.7602
# 6 -12.0180 -16.3248 -3.7007 0.5008 2.7602 21.8091
#
#
#
# Elastic Compliance Matrix: (Units=1/GPa)
#
#
# Indices 1 2 3 4 5 6 
#
# 1 0.024545 -0.003789 -0.001762 -0.002250 -0.006685 0.011288
# 2 -0.003789 0.013481 0.002442 -0.012723 -0.000989 0.008835
# 3 -0.001762 0.002442 0.012263 -0.003578 -0.002937 0.003392
# 4 -0.002250 -0.012723 -0.003578 0.048466 0.005482 -0.013177
# 5 -0.006685 -0.000989 -0.002937 0.005482 0.033641 -0.009306
# 6 0.011288 0.008835 0.003392 -0.013177 -0.009306 0.060742
#
#
# Mechanical properties :
#
#
# Convention : Reuss Voigt Hill
#
# Bulk Modulus (GPa) = 22.69009 35.80817 29.24913
# Shear Modulus (GPa) = 23.35944 32.28342 27.82143
#
# Velocity S-wave (km/s) = 3.36268 3.95315 3.66981
# Velocity P-wave (km/s) = 5.10494 6.17821 5.66704
#
# Compressibility (1/GPa) = 0.04407210
#
# Stress axis : x y z
#
# Youngs Moduli (GPa) = 40.74136 74.17814 81.54753
#
# Poissons Ratio (x) = 0.28104 0.14369
# Poissons Ratio (y) = 0.15436 -0.19916
# Poissons Ratio (z) = 0.07179 -0.18116
#
# Static dielectric constant tensor:
#      x y z
#    x 1.724800 -0.044660 -0.024720 
#    y -0.044660 1.802530 0.008810 
#    z -0.024720 0.008810 1.778480 
# 
# From -- ./inp_files/32549.got.cif
#   From: 2010.05.17/outbox.cif.g08.bks.cpg/sg2_17_cif.got.tgz:32549.got - 2010.06.03 11:33:40.
