data_PCOD9083509
_publ_section_title
;
Structure prediction by ZEFSAII (Michael W. Deem and Ramdas Pophale) SiO2 
 PCOD9083509
Probable space group: P -1
;
_chemical_formula_sum "Si O2"
_cell_formula_units_Z 12
_cell_length_a 5.313831
_cell_length_b 19.377111
_cell_length_c 15.822435
_cell_angle_alpha 20.927917
_cell_angle_beta 113.585346
_cell_angle_gamma 117.011657
_cell_volume 516.964250
_symmetry_space_group_name_H-M "P -1"
_symmetry_group_IT_number 2
_symmetry_cell_setting 'triclinic'
loop_
_space_group_symop_operation_xyz
x,y,z
-x,-y,-z
loop_
_atom_site_type_symbol
_atom_site_label
_atom_site_fract_x
_atom_site_fract_y
_atom_site_fract_z
Si Si1 0.223916 0.086258 0.858069
Si Si2 0.691755 0.301307 0.223910
Si Si3 0.854950 0.910944 0.694620
Si Si4 0.664576 0.464212 0.682796
Si Si5 0.100063 0.211460 0.972500
Si Si6 0.905491 0.425507 0.934180
O O1 0.317577 0.325255 0.599208
O O2 0.063102 0.995991 0.853812
O O3 0.500000 0.000000 0.000000
O O4 0.000000 0.000000 0.000000
O O5 0.379111 0.166846 0.320519
O O6 0.775821 0.446078 0.148989
O O7 0.891227 0.145544 0.434390
O O8 0.755579 0.423089 0.006149
O O9 0.777077 0.828176 0.873937
O O10 0.100106 0.803166 0.827204
O O11 0.351147 0.326331 0.813685
O O12 0.780772 0.512979 0.738199
O O13 0.874181 0.345020 0.804383
#
# Coordination Sequence:
#
# PCOD9083509 Si02
#       6
#     2   2   2   2   2   2
#     4  12  27  46  70 100 126 162 214 266 329 394
#     4  10  19  34  56  84 122 162 212 250 297 356
#     4  10  20  35  56  86 121 163 207 251 303 361
#     4  11  24  44  68  96 132 169 210 263 322 381
#     4  11  24  44  68  96 132 169 210 263 322 381
#     4  10  20  35  56  86 121 163 207 251 303 361
#
# _framework density 23.212437000000001
#
# number of rings (size 3 to 8) (size 9 to 14) (size 15 to 20)
#    0.000    1.333    1.667    4.000    0.000    4.000 
#    0.000    0.000    0.000    0.000    0.000    0.000 
#    0.000    0.000    0.000    0.000    0.000    0.000 
#
# Total GULP energy -67065.414216 kJ/mol
# GULP energy per Si atom -5588.784518 kJ/mol
# Density = 2.315960 g / cm^3
# Si number density = 23.212437 Si / 1000 Ang^3
#
#
#
# Elastic Constant Matrix: (Units=GPa)
#
#
# Indices 1 2 3 4 5 6 
#
# 1 119.4489 8.4978 40.9674 1.6678 1.0137 -3.7935
# 2 8.4978 75.5521 8.9912 -4.8332 -0.7687 9.2037
# 3 40.9674 8.9912 133.4582 -12.2021 -0.5799 -8.5398
# 4 1.6678 -4.8332 -12.2021 35.9112 -3.0235 -4.8917
# 5 1.0137 -0.7687 -0.5799 -3.0235 30.9434 -2.8546
# 6 -3.7935 9.2037 -8.5398 -4.8917 -2.8546 23.6428
#
#
#
# Elastic Compliance Matrix: (Units=1/GPa)
#
#
# Indices 1 2 3 4 5 6 
#
# 1 0.009492 -0.000868 -0.002974 -0.001555 -0.000503 0.000404
# 2 -0.000868 0.014219 -0.000994 0.000807 -0.000100 -0.005879
# 3 -0.002974 -0.000994 0.009079 0.003728 0.000983 0.004079
# 4 -0.001555 0.000807 0.003728 0.030650 0.003836 0.007587
# 5 -0.000503 -0.000100 0.000983 0.003836 0.033196 0.005115
# 6 0.000404 -0.005879 0.004079 0.007587 0.005115 0.048310
#
#
# Mechanical properties :
#
#
# Convention : Reuss Voigt Hill
#
# Bulk Modulus (GPa) = 43.25639 49.48578 46.37108
# Shear Modulus (GPa) = 30.80249 36.09968 33.45108
#
# Velocity S-wave (km/s) = 3.64673 3.94786 3.80028
# Velocity P-wave (km/s) = 6.03382 6.49198 6.26709
#
# Compressibility (1/GPa) = 0.02311797
#
# Stress axis : x y z
#
# Youngs Moduli (GPa) = 105.34865 70.33068 110.14426
#
# Poissons Ratio (x) = 0.06102 0.32756
# Poissons Ratio (y) = 0.09140 0.10953
# Poissons Ratio (z) = 0.31330 0.06994
#
# Static dielectric constant tensor:
#      x y z
#    x 1.947810 0.039870 0.001120 
#    y 0.039870 1.896930 -0.008740 
#    z 0.001120 -0.008740 1.864260 
# 
# From -- ./inp_files/40092.got.cif
#   From: 2010.05.17/outbox.cif.g08.bks.cpg/sg2_21_cif.got.tgz:40092.got - 2010.06.03 11:33:40.
