data_PCOD9083717
_publ_section_title
;
Structure prediction by ZEFSAII (Michael W. Deem and Ramdas Pophale) SiO2 
 PCOD9083717
Probable space group: P -1
;
_chemical_formula_sum "Si O2"
_cell_formula_units_Z 16
_cell_length_a 10.803840
_cell_length_b 12.537212
_cell_length_c 11.325993
_cell_angle_alpha 53.692728
_cell_angle_beta 40.570546
_cell_angle_gamma 34.466036
_cell_volume 562.212948
_symmetry_space_group_name_H-M "P -1"
_symmetry_group_IT_number 2
_symmetry_cell_setting 'triclinic'
loop_
_space_group_symop_operation_xyz
x,y,z
-x,-y,-z
loop_
_atom_site_type_symbol
_atom_site_label
_atom_site_fract_x
_atom_site_fract_y
_atom_site_fract_z
Si Si1 0.797125 0.167790 0.842004
Si Si2 0.616417 0.085475 0.394298
Si Si3 0.218782 0.973516 0.282976
Si Si4 0.546163 0.458934 0.300795
Si Si5 0.375811 0.066990 0.291661
Si Si6 0.306972 0.373648 0.243892
Si Si7 0.002302 0.308436 0.901069
Si Si8 0.728706 0.571883 0.279994
O O1 0.820929 0.033532 0.820847
O O2 0.696872 0.334105 0.717063
O O3 0.561630 0.276033 0.038084
O O4 0.079656 0.044699 0.785303
O O5 0.672487 0.038175 0.523233
O O6 0.413263 0.294968 0.350344
O O7 0.500000 0.000000 0.500000
O O8 0.251039 0.103433 0.229890
O O9 0.510123 0.768734 0.239172
O O10 0.000000 0.000000 0.500000
O O11 0.730412 0.444393 0.275867
O O12 0.402389 0.418205 0.510131
O O13 0.765741 0.342076 0.111994
O O14 0.704627 0.906618 0.166331
O O15 0.232525 0.263536 0.325153
O O16 0.092577 0.593978 0.224374
O O17 0.038061 0.435574 0.856690
#
# Coordination Sequence:
#
# PCOD9083717 Si02
#       8
#     2   2   2   2   2   2   2   2
#     4  10  20  37  61  89 121 156 206 250 305 367
#     4  10  21  38  63  86 117 162 207 251 295 363
#     4  10  19  34  57  88 124 155 197 249 302 369
#     4   9  19  34  56  85 119 159 198 246 297 366
#     4  10  22  39  60  93 121 159 202 247 303 367
#     4  10  23  39  63  87 119 169 197 253 306 345
#     4  10  21  38  58  88 125 153 206 251 296 364
#     4   9  19  32  56  84 117 168 192 239 309 352
#
# _framework density 28.458970000000001
#
# number of rings (size 3 to 8) (size 9 to 14) (size 15 to 20)
#    0.000    2.250    1.250    0.750    3.500    4.000 
#    0.000    0.000    0.000    6.750    0.000    0.000 
#    0.000    0.000    0.000    0.000    0.000    0.000 
#
# Total GULP energy -89548.553693 kJ/mol
# GULP energy per Si atom -5596.784606 kJ/mol
# Density = 2.839420 g / cm^3
# Si number density = 28.458970 Si / 1000 Ang^3
#
#
#
# Elastic Constant Matrix: (Units=GPa)
#
#
# Indices 1 2 3 4 5 6 
#
# 1 128.9701 29.6021 21.1700 -0.8489 -4.0910 -13.4700
# 2 29.6021 138.7290 20.6759 -21.9433 2.1376 -30.6819
# 3 21.1700 20.6759 145.3583 -10.7666 0.1411 -8.5809
# 4 -0.8489 -21.9433 -10.7666 43.9937 -4.1746 -1.0259
# 5 -4.0910 2.1376 0.1411 -4.1746 33.4405 2.8521
# 6 -13.4700 -30.6819 -8.5809 -1.0259 2.8521 41.0445
#
#
#
# Elastic Compliance Matrix: (Units=1/GPa)
#
#
# Indices 1 2 3 4 5 6 
#
# 1 0.008422 -0.001469 -0.000988 -0.000692 0.000924 0.001378
# 2 -0.001469 0.009928 -0.000419 0.004909 -0.000799 0.007030
# 3 -0.000988 -0.000419 0.007253 0.001568 -0.000007 0.000919
# 4 -0.000692 0.004909 0.001568 0.025882 0.002464 0.004246
# 5 0.000924 -0.000799 -0.000007 0.002464 0.030577 -0.002359
# 6 0.001378 0.007030 0.000919 0.004246 -0.002359 0.030533
#
#
# Mechanical properties :
#
#
# Convention : Reuss Voigt Hill
#
# Bulk Modulus (GPa) = 50.37575 61.77259 56.07417
# Shear Modulus (GPa) = 40.01156 46.46973 43.24065
#
# Velocity S-wave (km/s) = 3.75365 4.04526 3.90218
# Velocity P-wave (km/s) = 6.04369 6.60089 6.32843
#
# Compressibility (1/GPa) = 0.01985082
#
# Stress axis : x y z
#
# Youngs Moduli (GPa) = 118.73998 100.72870 137.86529
#
# Poissons Ratio (x) = 0.14794 0.13627
# Poissons Ratio (y) = 0.17440 0.05774
# Poissons Ratio (z) = 0.11737 0.04219
#
# Static dielectric constant tensor:
#      x y z
#    x 2.353380 0.060430 0.029620 
#    y 0.060430 2.180250 0.013090 
#    z 0.029620 0.013090 2.219170 
# 
# From -- ./inp_files/244509.got.cif
#   From: 2010.05.17/outbox.cif.g08.bks.cpg/sg2_123_cif.got.tgz:244509.got - 2010.06.03 11:33:40.
