data_PCOD9083311
_publ_section_title
;
Structure prediction by ZEFSAII (Michael W. Deem and Ramdas Pophale) SiO2 
 PCOD9083311
Probable space group: P -1
;
_chemical_formula_sum "Si O2"
_cell_formula_units_Z 16
_cell_length_a 17.420934
_cell_length_b 7.197184
_cell_length_c 9.223582
_cell_angle_alpha 83.153498
_cell_angle_beta 124.868922
_cell_angle_gamma 55.339389
_cell_volume 587.404730
_symmetry_space_group_name_H-M "P -1"
_symmetry_group_IT_number 2
_symmetry_cell_setting 'triclinic'
loop_
_space_group_symop_operation_xyz
x,y,z
-x,-y,-z
loop_
_atom_site_type_symbol
_atom_site_label
_atom_site_fract_x
_atom_site_fract_y
_atom_site_fract_z
Si Si1 0.223398 0.098640 0.844165
Si Si2 0.065937 0.986824 0.931128
Si Si3 0.559205 0.137730 0.465620
Si Si4 0.491129 0.174134 0.677069
Si Si5 0.233280 0.573344 0.588100
Si Si6 0.125694 0.296246 0.025019
Si Si7 0.345266 0.804005 0.723746
Si Si8 0.160037 0.753912 0.778975
O O1 0.250714 0.091275 0.700920
O O2 0.205064 0.901188 0.835859
O O3 0.109728 0.358428 0.823549
O O4 0.379809 0.916355 0.096279
O O5 0.918408 0.275121 0.652343
O O6 0.142104 0.721683 0.928120
O O7 0.156652 0.025366 0.072338
O O8 0.000000 0.000000 0.000000
O O9 0.461156 0.340006 0.482688
O O10 0.595701 0.210127 0.362775
O O11 0.478058 0.082217 0.321280
O O12 0.725198 0.841144 0.739104
O O13 0.361478 0.336761 0.635372
O O14 0.237158 0.795822 0.576265
O O15 0.259817 0.488152 0.794588
O O16 0.000000 0.500000 0.000000
O O17 0.500000 0.500000 0.000000
O O18 0.000000 0.000000 0.500000
#
# Coordination Sequence:
#
# PCOD9083311 Si02
#       8
#     2   2   2   2   2   2   2   2
#     4   9  19  36  58  82 118 150 193 240 287 350
#     4  10  19  34  54  83 111 144 195 243 286 337
#     4  10  23  38  59  85 123 152 195 246 291 348
#     4  10  20  39  56  85 118 152 192 242 293 352
#     4  10  19  35  57  81 113 149 195 233 294 353
#     4  10  20  39  61  80 114 159 193 240 293 346
#     4  11  21  39  58  88 120 156 191 238 298 352
#     4   8  17  32  53  77 112 149 181 239 289 336
#
# _framework density 27.238458999999999
#
# number of rings (size 3 to 8) (size 9 to 14) (size 15 to 20)
#    0.000    2.250    1.250    1.500    0.000    1.000 
#    6.750    1.875    0.000    0.000    0.000    0.000 
#    0.000    0.000    0.000    0.000    0.000    0.000 
#
# Total GULP energy -89279.526013 kJ/mol
# GULP energy per Si atom -5579.970376 kJ/mol
# Density = 2.717646 g / cm^3
# Si number density = 27.238459 Si / 1000 Ang^3
#
#
#
# Elastic Constant Matrix: (Units=GPa)
#
#
# Indices 1 2 3 4 5 6 
#
# 1 116.4123 31.8087 45.1448 6.8525 -4.5245 -32.5566
# 2 31.8087 137.0308 48.9403 26.3688 -15.2077 -48.6372
# 3 45.1448 48.9403 119.4652 13.9928 15.5660 -3.4005
# 4 6.8525 26.3688 13.9928 38.7352 -14.6774 -6.6567
# 5 -4.5245 -15.2077 15.5660 -14.6774 70.2641 27.9788
# 6 -32.5566 -48.6372 -3.4005 -6.6567 27.9788 69.0865
#
#
#
# Elastic Compliance Matrix: (Units=1/GPa)
#
#
# Indices 1 2 3 4 5 6 
#
# 1 0.011864 0.001185 -0.004676 -0.000329 -0.000556 0.006389
# 2 0.001185 0.013109 -0.004676 -0.006245 -0.001098 0.009400
# 3 -0.004676 -0.004676 0.012621 -0.002375 -0.003068 -0.003861
# 4 -0.000329 -0.006245 -0.002375 0.033192 0.007955 -0.004692
# 5 -0.000556 -0.001098 -0.003068 0.007955 0.019633 -0.008371
# 6 0.006389 0.009400 -0.003861 -0.004692 -0.008371 0.026851
#
#
# Mechanical properties :
#
#
# Convention : Reuss Voigt Hill
#
# Bulk Modulus (GPa) = 47.03485 69.41066 58.22275
# Shear Modulus (GPa) = 35.53911 52.08479 43.81195
#
# Velocity S-wave (km/s) = 3.61604 4.37759 4.01491
# Velocity P-wave (km/s) = 5.89403 7.14766 6.55090
#
# Compressibility (1/GPa) = 0.02126083
#
# Stress axis : x y z
#
# Youngs Moduli (GPa) = 84.28773 76.28497 79.23141
#
# Poissons Ratio (x) = -0.09042 0.37048
# Poissons Ratio (y) = -0.09990 0.37048
# Poissons Ratio (z) = 0.39413 0.35670
#
# Static dielectric constant tensor:
#      x y z
#    x 2.302720 -0.075840 -0.161510 
#    y -0.075840 2.258860 -0.036780 
#    z -0.161510 -0.036780 2.108150 
# 
# From -- ./inp_files/327604.got.cif
#   From: 2010.05.17/outbox.cif.g08.bks.cpg/sg2_164_cif.got.tgz:327604.got - 2010.06.03 11:33:40.
