data_PCOD9083900
_publ_section_title
;
Structure prediction by ZEFSAII (Michael W. Deem and Ramdas Pophale) SiO2 
 PCOD9083900
Probable space group: P -1
;
_chemical_formula_sum "Si O2"
_cell_formula_units_Z 16
_cell_length_a 15.206281
_cell_length_b 14.530426
_cell_length_c 5.230989
_cell_angle_alpha 66.858795
_cell_angle_beta 124.831209
_cell_angle_gamma 142.000887
_cell_volume 580.346187
_symmetry_space_group_name_H-M "P -1"
_symmetry_group_IT_number 2
_symmetry_cell_setting 'triclinic'
loop_
_space_group_symop_operation_xyz
x,y,z
-x,-y,-z
loop_
_atom_site_type_symbol
_atom_site_label
_atom_site_fract_x
_atom_site_fract_y
_atom_site_fract_z
Si Si1 0.903681 0.597108 0.722298
Si Si2 0.911323 0.097479 0.581232
Si Si3 0.321747 0.902398 0.883632
Si Si4 0.518703 0.840034 0.814709
Si Si5 0.593217 0.409922 0.737817
Si Si6 0.647127 0.627434 0.918896
Si Si7 0.807679 0.919779 0.081703
Si Si8 0.821955 0.327681 0.747887
O O1 0.725200 0.487789 0.653359
O O2 0.888023 0.484813 0.655272
O O3 0.969683 0.739397 0.531494
O O4 0.037305 0.654599 0.094140
O O5 0.927566 0.050428 0.927313
O O6 0.767995 0.076149 0.445781
O O7 0.858979 0.985650 0.383533
O O8 0.219698 0.733949 0.959688
O O9 0.348467 0.983422 0.100237
O O10 0.500000 0.000000 0.000000
O O11 0.623063 0.833001 0.835033
O O12 0.358693 0.787441 0.529930
O O13 0.460741 0.731743 0.074581
O O14 0.684018 0.547796 0.934726
O O15 0.431958 0.356148 0.445936
O O16 0.782820 0.785451 0.119521
O O17 0.500000 0.500000 0.000000
#
# Coordination Sequence:
#
# PCOD9083900 Si02
#       8
#     2   2   2   2   2   2   2   2
#     4  10  23  43  60  95 139 182 225 265 323 409
#     4  10  24  41  66  93 137 184 220 272 331 400
#     4  10  19  34  58  94 133 171 227 278 323 382
#     4  11  21  37  66 102 131 177 222 284 333 390
#     4  11  24  41  68 102 132 168 223 278 343 405
#     4  11  23  43  71 101 126 163 217 291 351 397
#     4  11  22  43  68 100 133 171 226 282 340 392
#     4  10  21  37  61  92 137 180 226 265 324 395
#
# _framework density 27.569752999999999
#
# number of rings (size 3 to 8) (size 9 to 14) (size 15 to 20)
#    0.000    1.500    1.250    4.125    1.750    3.500 
#    0.000    1.250    0.000    0.000    0.000    0.000 
#    0.000    0.000    0.000    0.000    0.000    0.000 
#
# Total GULP energy -89442.344693 kJ/mol
# GULP energy per Si atom -5590.146543 kJ/mol
# Density = 2.750700 g / cm^3
# Si number density = 27.569753 Si / 1000 Ang^3
#
#
#
# Elastic Constant Matrix: (Units=GPa)
#
#
# Indices 1 2 3 4 5 6 
#
# 1 89.3160 24.4620 27.8646 -12.7239 4.9552 1.3339
# 2 24.4620 149.5024 28.6092 -20.9105 -6.7605 -0.0380
# 3 27.8646 28.6092 99.8998 -9.9324 11.2031 -3.7790
# 4 -12.7239 -20.9105 -9.9324 55.8091 5.2450 -3.2621
# 5 4.9552 -6.7605 11.2031 5.2450 46.8078 -0.0987
# 6 1.3339 -0.0380 -3.7790 -3.2621 -0.0987 50.6056
#
#
#
# Elastic Compliance Matrix: (Units=1/GPa)
#
#
# Indices 1 2 3 4 5 6 
#
# 1 0.012808 -0.001312 -0.002894 0.001989 -0.001077 -0.000429
# 2 -0.001312 0.007599 -0.001758 0.002104 0.001422 0.000047
# 3 -0.002894 -0.001758 0.011795 0.001112 -0.002893 0.001022
# 4 0.001989 0.002104 0.001112 0.019657 -0.002373 0.001295
# 5 -0.001077 0.001422 -0.002893 -0.002373 0.022641 -0.000295
# 6 -0.000429 0.000047 0.001022 0.001295 -0.000295 0.019931
#
#
# Mechanical properties :
#
#
# Convention : Reuss Voigt Hill
#
# Bulk Modulus (GPa) = 49.33172 55.62109 52.47641
# Shear Modulus (GPa) = 44.20178 47.83001 46.01589
#
# Velocity S-wave (km/s) = 4.00843 4.16970 4.08986
# Velocity P-wave (km/s) = 6.27341 6.58789 6.43257
#
# Compressibility (1/GPa) = 0.02027093
#
# Stress axis : x y z
#
# Youngs Moduli (GPa) = 78.07524 131.60163 84.78472
#
# Poissons Ratio (x) = 0.17271 0.24540
# Poissons Ratio (y) = 0.10246 0.14909
# Poissons Ratio (z) = 0.22598 0.23142
#
# Static dielectric constant tensor:
#      x y z
#    x 2.269250 -0.010690 0.008830 
#    y -0.010690 2.156320 0.115910 
#    z 0.008830 0.115910 2.245130 
# 
# From -- ./inp_files/97626.got.cif
#   From: 2010.05.17/outbox.cif.g08.bks.cpg/sg2_49_cif.got.tgz:97626.got - 2010.06.03 11:33:40.
