data_PCOD9083946
_publ_section_title
;
Structure prediction by ZEFSAII (Michael W. Deem and Ramdas Pophale) SiO2 
 PCOD9083946
Probable space group: P -1
;
_chemical_formula_sum "Si O2"
_cell_formula_units_Z 14
_cell_length_a 7.595808
_cell_length_b 9.963164
_cell_length_c 10.582828
_cell_angle_alpha 101.996870
_cell_angle_beta 116.870362
_cell_angle_gamma 99.987076
_cell_volume 665.198499
_symmetry_space_group_name_H-M "P -1"
_symmetry_group_IT_number 2
_symmetry_cell_setting 'triclinic'
loop_
_space_group_symop_operation_xyz
x,y,z
-x,-y,-z
loop_
_atom_site_type_symbol
_atom_site_label
_atom_site_fract_x
_atom_site_fract_y
_atom_site_fract_z
Si Si1 0.237040 0.845743 0.588919
Si Si2 0.226687 0.988186 0.878304
Si Si3 0.040721 0.484771 0.861205
Si Si4 0.387959 0.617177 0.452599
Si Si5 0.360006 0.780553 0.008301
Si Si6 0.474805 0.842013 0.333593
Si Si7 0.016547 0.820290 0.273723
O O1 0.225811 0.881274 0.738792
O O2 0.319624 0.709954 0.559192
O O3 0.031727 0.826727 0.432652
O O4 0.389118 0.995054 0.611059
O O5 0.436584 0.124604 0.981481
O O6 0.217858 0.888735 0.977667
O O7 0.056877 0.060594 0.796468
O O8 0.824736 0.458053 0.709342
O O9 0.108837 0.341847 0.836767
O O10 0.215868 0.624354 0.894558
O O11 0.000000 0.500000 0.000000
O O12 0.500000 0.500000 0.500000
O O13 0.537464 0.741674 0.436078
O O14 0.445765 0.769842 0.173165
O O15 0.248287 0.839024 0.305596
#
# Coordination Sequence:
#
# PCOD9083946 Si02
#       7
#     2   2   2   2   2   2   2
#     4   9  19  38  57  79 120 148 181 241 285 330
#     4  10  22  36  55  84 117 148 195 225 281 345
#     4  10  19  39  58  82 118 146 184 241 287 327
#     4  10  20  35  59  91 109 141 196 236 282 333
#     4  10  20  39  54  80 119 155 182 238 281 335
#     4   9  18  36  59  80 114 147 192 238 282 319
#     4  10  19  34  59  85 107 150 197 229 286 337
#
# _framework density 21.046351999999999
#
# number of rings (size 3 to 8) (size 9 to 14) (size 15 to 20)
#    0.000    2.571    2.857    2.143    0.000    3.429 
#    7.714    5.714    0.000    0.000    0.000    0.000 
#    0.000    0.000    0.000    0.000    0.000    0.000 
#
# Total GULP energy -77995.514324 kJ/mol
# GULP energy per Si atom -5571.108166 kJ/mol
# Density = 2.099845 g / cm^3
# Si number density = 21.046352 Si / 1000 Ang^3
#
#
#
# Elastic Constant Matrix: (Units=GPa)
#
#
# Indices 1 2 3 4 5 6 
#
# 1 12.6337 25.3487 6.4745 4.0250 -1.6753 -7.8313
# 2 25.3487 117.0949 30.6358 2.6168 -1.1240 -27.7685
# 3 6.4745 30.6358 63.5642 20.5200 -0.8147 -6.3709
# 4 4.0250 2.6168 20.5200 42.1536 0.1363 11.9281
# 5 -1.6753 -1.1240 -0.8147 0.1363 12.7831 -5.4920
# 6 -7.8313 -27.7685 -6.3709 11.9281 -5.4920 33.7648
#
#
#
# Elastic Compliance Matrix: (Units=1/GPa)
#
#
# Indices 1 2 3 4 5 6 
#
# 1 0.168392 -0.030845 0.010319 -0.028075 0.033644 0.031026
# 2 -0.030845 0.017956 -0.006073 0.003321 -0.000658 0.005187
# 3 0.010319 -0.006073 0.022939 -0.013937 0.005683 0.007575
# 4 -0.028075 0.003321 -0.013937 0.039451 -0.014447 -0.022697
# 5 0.033644 -0.000658 0.005683 -0.014447 0.095546 0.028980
# 6 0.031026 0.005187 0.007575 -0.022697 0.028980 0.055239
#
#
# Mechanical properties :
#
#
# Convention : Reuss Voigt Hill
#
# Bulk Modulus (GPa) = 6.40665 35.35676 20.88171
# Shear Modulus (GPa) = 9.90586 26.46254 18.18420
#
# Velocity S-wave (km/s) = 2.17184 3.54975 2.94259
# Velocity P-wave (km/s) = 3.05612 5.79974 4.63556
#
# Compressibility (1/GPa) = 0.15608781
#
# Stress axis : x y z
#
# Youngs Moduli (GPa) = 5.93853 55.69230 43.59335
#
# Poissons Ratio (x) = 1.71783 -0.44982
# Poissons Ratio (y) = 0.18317 0.26475
# Poissons Ratio (z) = -0.06128 0.33822
#
# Static dielectric constant tensor:
#      x y z
#    x 1.812360 -0.003970 -0.004270 
#    y -0.003970 1.798640 -0.018320 
#    z -0.004270 -0.018320 1.854320 
# 
# From -- ./inp_files/213865.got.cif
#   From: 2010.05.17/outbox.cif.g08.bks.cpg/sg2_107_cif.got.tgz:213865.got - 2010.06.03 11:33:40.
