data_PCOD9083994
_publ_section_title
;
Structure prediction by ZEFSAII (Michael W. Deem and Ramdas Pophale) SiO2 
 PCOD9083994
Probable space group: P -1
;
_chemical_formula_sum "Si O2"
_cell_formula_units_Z 16
_cell_length_a 8.171946
_cell_length_b 12.934477
_cell_length_c 12.376117
_cell_angle_alpha 148.001978
_cell_angle_beta 101.364573
_cell_angle_gamma 89.895335
_cell_volume 644.272577
_symmetry_space_group_name_H-M "P -1"
_symmetry_group_IT_number 2
_symmetry_cell_setting 'triclinic'
loop_
_space_group_symop_operation_xyz
x,y,z
-x,-y,-z
loop_
_atom_site_type_symbol
_atom_site_label
_atom_site_fract_x
_atom_site_fract_y
_atom_site_fract_z
Si Si1 0.845170 0.294942 0.930320
Si Si2 0.549697 0.726567 0.159388
Si Si3 0.738364 0.109494 0.963047
Si Si4 0.123918 0.276517 0.573588
Si Si5 0.164906 0.869076 0.440557
Si Si6 0.914393 0.272259 0.334971
Si Si7 0.535425 0.436494 0.209851
Si Si8 0.384738 0.740416 0.545315
O O1 0.633960 0.228234 0.824624
O O2 0.911250 0.266351 0.795392
O O3 0.856951 0.156779 0.912050
O O4 0.904528 0.522993 0.191177
O O5 0.705913 0.911327 0.389514
O O6 0.500000 0.500000 0.000000
O O7 0.594799 0.703033 0.019199
O O8 0.849840 0.113647 0.088052
O O9 0.657889 0.301088 0.140364
O O10 0.568536 0.915691 0.748283
O O11 0.333699 0.361985 0.657031
O O12 0.989376 0.107370 0.481176
O O13 0.051433 0.241204 0.411696
O O14 0.291629 0.782301 0.458638
O O15 0.747142 0.261469 0.377357
O O16 0.000000 0.500000 0.500000
O O17 0.426842 0.526286 0.356467
#
# Coordination Sequence:
#
# PCOD9083994 Si02
#       8
#     2   2   2   2   2   2   2   2
#     4  10  19  34  59  88 121 160 200 246 300 371
#     4  10  20  34  58  87 126 162 199 257 294 357
#     4  10  21  40  61  90 124 160 205 258 299 356
#     4   9  21  39  61  86 129 162 196 264 304 357
#     4  11  20  36  63  94 121 163 207 243 312 364
#     4  11  20  41  66  88 123 162 202 259 312 344
#     4  10  21  40  60  89 128 157 203 251 307 361
#     4  11  23  38  67  93 117 166 207 244 303 381
#
# _framework density 24.834211
#
# number of rings (size 3 to 8) (size 9 to 14) (size 15 to 20)
#    0.000    2.000    5.000    1.875    1.750    0.500 
#    0.000    4.375    5.500    0.000    0.000    0.000 
#    0.000    0.000    0.000    0.000    0.000    0.000 
#
# Total GULP energy -89383.055568 kJ/mol
# GULP energy per Si atom -5586.440973 kJ/mol
# Density = 2.477769 g / cm^3
# Si number density = 24.834211 Si / 1000 Ang^3
#
#
#
# Elastic Constant Matrix: (Units=GPa)
#
#
# Indices 1 2 3 4 5 6 
#
# 1 44.1991 11.6514 34.0241 -8.9720 5.2235 -12.3947
# 2 11.6514 81.5742 39.9386 -21.4057 -6.1121 1.2971
# 3 34.0241 39.9386 109.5874 -22.2945 14.3142 -18.5679
# 4 -8.9720 -21.4057 -22.2945 54.0071 -1.3186 6.0860
# 5 5.2235 -6.1121 14.3142 -1.3186 32.5261 -2.8738
# 6 -12.3947 1.2971 -18.5679 6.0860 -2.8738 26.9351
#
#
#
# Elastic Compliance Matrix: (Units=1/GPa)
#
#
# Indices 1 2 3 4 5 6 
#
# 1 0.031546 -0.000749 -0.007728 0.000720 -0.000985 0.008957
# 2 -0.000749 0.017710 -0.007164 0.004829 0.006217 -0.006564
# 3 -0.007728 -0.007164 0.016570 0.001753 -0.006699 0.007100
# 4 0.000720 0.004829 0.001753 0.021686 0.000588 -0.003530
# 5 -0.000985 0.006217 -0.006699 0.000588 0.034885 -0.001781
# 6 0.008957 -0.006564 0.007100 -0.003530 -0.001781 0.047066
#
#
# Mechanical properties :
#
#
# Convention : Reuss Voigt Hill
#
# Bulk Modulus (GPa) = 28.94843 45.17655 37.06249
# Shear Modulus (GPa) = 23.55588 32.67679 28.11633
#
# Velocity S-wave (km/s) = 3.08315 3.63133 3.36841
# Velocity P-wave (km/s) = 4.93522 5.98438 5.48494
#
# Compressibility (1/GPa) = 0.03454418
#
# Stress axis : x y z
#
# Youngs Moduli (GPa) = 31.69967 56.46370 60.34985
#
# Poissons Ratio (x) = 0.04231 0.46640
# Poissons Ratio (y) = 0.02375 0.43232
# Poissons Ratio (z) = 0.24499 0.40448
#
# Static dielectric constant tensor:
#      x y z
#    x 1.955580 -0.042280 -0.019950 
#    y -0.042280 2.115640 0.022400 
#    z -0.019950 0.022400 2.000300 
# 
# From -- ./inp_files/400059.got.cif
#   From: 2010.05.17/outbox.cif.g08.bks.cpg/sg2_201_cif.got.tgz:400059.got - 2010.06.03 11:33:40.
