data_PCOD9083251
_publ_section_title
;
Structure prediction by ZEFSAII (Michael W. Deem and Ramdas Pophale) SiO2 
 PCOD9083251
Probable space group: P -1
;
_chemical_formula_sum "Si O2"
_cell_formula_units_Z 14
_cell_length_a 15.435937
_cell_length_b 17.332433
_cell_length_c 11.733190
_cell_angle_alpha 154.918355
_cell_angle_beta 27.705200
_cell_angle_gamma 151.271021
_cell_volume 572.079434
_symmetry_space_group_name_H-M "P -1"
_symmetry_group_IT_number 2
_symmetry_cell_setting 'triclinic'
loop_
_space_group_symop_operation_xyz
x,y,z
-x,-y,-z
loop_
_atom_site_type_symbol
_atom_site_label
_atom_site_fract_x
_atom_site_fract_y
_atom_site_fract_z
Si Si1 0.824488 0.482910 0.593893
Si Si2 0.063088 0.191445 0.540097
Si Si3 0.360418 0.224198 0.825482
Si Si4 0.348972 0.447270 0.714773
Si Si5 0.748164 0.116736 0.063765
Si Si6 0.360013 0.093511 0.389361
Si Si7 0.379919 0.172936 0.980691
O O1 0.594581 0.377806 0.768255
O O2 0.844596 0.344297 0.284259
O O3 0.000000 0.500000 0.500000
O O4 0.810759 0.683723 0.837660
O O5 0.140020 0.359208 0.770321
O O6 0.202911 0.239603 0.328111
O O7 0.829263 0.108328 0.677772
O O8 0.889293 0.996988 0.722521
O O9 0.334507 0.152419 0.629546
O O10 0.340180 0.106004 0.807894
O O11 0.500000 0.500000 0.500000
O O12 0.363365 0.272200 0.542824
O O13 0.416953 0.642429 0.974223
O O14 0.574781 0.074234 0.117290
O O15 0.636162 0.011011 0.169192
#
# Coordination Sequence:
#
# PCOD9083251 Si02
#       7
#     2   2   2   2   2   2   2
#     4  10  19  34  53  83 113 155 194 225 279 341
#     4   9  21  39  59  85 117 150 193 235 281 340
#     4  10  21  37  59  83 123 153 184 234 290 347
#     4  10  20  39  64  79 117 156 187 242 291 333
#     4   9  21  36  57  87 115 149 193 234 283 338
#     4  11  21  38  64  84 111 159 193 227 293 343
#     4   9  20  40  57  87 121 151 184 239 293 326
#
# _framework density 24.472124999999998
#
# number of rings (size 3 to 8) (size 9 to 14) (size 15 to 20)
#    0.857    1.429    0.000    3.857    0.000    3.429 
#    2.571    0.714    6.286    0.000    0.000    0.000 
#    0.000    0.000    0.000    0.000    0.000    0.000 
#
# Total GULP energy -78098.623750 kJ/mol
# GULP energy per Si atom -5578.473125 kJ/mol
# Density = 2.441643 g / cm^3
# Si number density = 24.472125 Si / 1000 Ang^3
#
#
#
# Elastic Constant Matrix: (Units=GPa)
#
#
# Indices 1 2 3 4 5 6 
#
# 1 153.4049 39.7837 13.5875 -23.4142 12.8881 3.9596
# 2 39.7837 59.1595 3.7833 -11.3603 7.9545 19.4990
# 3 13.5875 3.7833 52.9245 -7.9819 10.2802 6.7078
# 4 -23.4142 -11.3603 -7.9819 19.9808 -6.0513 -6.4272
# 5 12.8881 7.9545 10.2802 -6.0513 34.6663 -11.5142
# 6 3.9596 19.4990 6.7078 -6.4272 -11.5142 54.2618
#
#
#
# Elastic Compliance Matrix: (Units=1/GPa)
#
#
# Indices 1 2 3 4 5 6 
#
# 1 0.009160 -0.005390 -0.001130 0.008130 0.000401 0.002456
# 2 -0.005390 0.025437 0.002871 0.003751 -0.007429 -0.010235
# 3 -0.001130 0.002871 0.021775 0.005339 -0.007276 -0.004553
# 4 0.008130 0.003751 0.005339 0.068998 0.009067 0.007495
# 5 0.000401 -0.007429 -0.007276 0.009067 0.038380 0.012758
# 6 0.002456 -0.010235 -0.004553 0.007495 0.012758 0.026086
#
#
# Mechanical properties :
#
#
# Convention : Reuss Voigt Hill
#
# Bulk Modulus (GPa) = 20.37657 42.19977 31.28817
# Shear Modulus (GPa) = 23.42009 35.67076 29.54543
#
# Velocity S-wave (km/s) = 3.09692 3.82200 3.47841
# Velocity P-wave (km/s) = 4.59700 6.06287 5.38009
#
# Compressibility (1/GPa) = 0.04907597
#
# Stress axis : x y z
#
# Youngs Moduli (GPa) = 109.16479 39.31244 45.92362
#
# Poissons Ratio (x) = 0.21191 0.05187
# Poissons Ratio (y) = 0.58844 -0.13186
# Poissons Ratio (z) = 0.12331 -0.11288
#
# Static dielectric constant tensor:
#      x y z
#    x 1.941460 -0.014130 0.059990 
#    y -0.014130 2.018110 -0.017690 
#    z 0.059990 -0.017690 2.028030 
# 
# From -- ./inp_files/456822.got.cif
#   From: 2010.05.17/outbox.cif.g08.bks.cpg/sg2_229_cif.got.tgz:456822.got - 2010.06.03 11:33:40.
