data_PCOD9083521
_publ_section_title
;
Structure prediction by ZEFSAII (Michael W. Deem and Ramdas Pophale) SiO2 
 PCOD9083521
Probable space group: P -1
;
_chemical_formula_sum "Si O2"
_cell_formula_units_Z 15
_cell_length_a 11.419137
_cell_length_b 7.946774
_cell_length_c 8.392878
_cell_angle_alpha 119.468834
_cell_angle_beta 85.002106
_cell_angle_gamma 109.324434
_cell_volume 623.061187
_symmetry_space_group_name_H-M "P -1"
_symmetry_group_IT_number 2
_symmetry_cell_setting 'triclinic'
loop_
_space_group_symop_operation_xyz
x,y,z
-x,-y,-z
loop_
_atom_site_type_symbol
_atom_site_label
_atom_site_fract_x
_atom_site_fract_y
_atom_site_fract_z
Si Si1 0.409935 0.513838 0.205001
Si Si2 0.302391 0.516529 0.562122
Si Si3 0.839098 0.194630 0.406031
Si Si4 0.000000 0.500000 0.000000
Si Si5 0.488400 0.100248 0.215368
Si Si6 0.371252 0.170060 0.797571
Si Si7 0.063970 0.242078 0.578828
Si Si8 0.741457 0.215311 0.784778
O O1 0.338218 0.473132 0.359874
O O2 0.551029 0.671765 0.270459
O O3 0.341233 0.635272 0.156343
O O4 0.398920 0.307637 0.017081
O O5 0.213434 0.659535 0.625871
O O6 0.433133 0.660716 0.686984
O O7 0.210958 0.316704 0.563666
O O8 0.787863 0.197106 0.592630
O O9 0.987319 0.270539 0.443359
O O10 0.774476 0.958411 0.251839
O O11 0.142045 0.669627 0.066311
O O12 0.960787 0.629128 0.210835
O O13 0.564455 0.005677 0.286042
O O14 0.346301 0.002888 0.241011
O O15 0.500000 0.000000 0.000000
O O16 0.000000 0.000000 0.500000
#
# Coordination Sequence:
#
# PCOD9083521 Si02
#       8
#     2   2   2   1   2   2   2   2
#     4   9  18  34  58  85 116 146 196 244 286 345
#     4  10  20  39  60  84 117 153 200 248 295 354
#     4   9  19  37  60  80 112 156 199 241 290 352
#     4  10  22  40  60  84 120 166 190 238 304 360
#     4  10  19  34  56  85 115 152 191 238 296 360
#     4   9  18  34  57  87 114 151 194 238 293 349
#     4  11  24  41  59  88 121 159 202 248 301 359
#     4   9  18  34  59  83 113 156 196 234 295 352
#
# _framework density 24.074683
#
# number of rings (size 3 to 8) (size 9 to 14) (size 15 to 20)
#    0.000    2.400    0.000    2.000    1.867    3.200 
#   12.000    1.333    0.000    0.000    0.000    0.000 
#    0.000    0.000    0.000    0.000    0.000    0.000 
#
# Total GULP energy -83572.353832 kJ/mol
# GULP energy per Si atom -5571.490255 kJ/mol
# Density = 2.401989 g / cm^3
# Si number density = 24.074683 Si / 1000 Ang^3
#
#
#
# Elastic Constant Matrix: (Units=GPa)
#
#
# Indices 1 2 3 4 5 6 
#
# 1 93.8337 46.4632 19.6580 18.9833 13.8485 31.5143
# 2 46.4632 148.1480 42.6431 24.7799 10.8422 35.1939
# 3 19.6580 42.6431 93.9639 19.8420 -2.2175 26.8277
# 4 18.9833 24.7799 19.8420 34.0711 15.6286 9.2161
# 5 13.8485 10.8422 -2.2175 15.6286 33.7595 12.0702
# 6 31.5143 35.1939 26.8277 9.2161 12.0702 56.6303
#
#
#
# Elastic Compliance Matrix: (Units=1/GPa)
#
#
# Indices 1 2 3 4 5 6 
#
# 1 0.014930 -0.002586 0.000813 -0.004895 -0.000785 -0.006123
# 2 -0.002586 0.009442 -0.002095 -0.003710 0.000672 -0.002976
# 3 0.000813 -0.002095 0.015684 -0.010124 0.008465 -0.006737
# 4 -0.004895 -0.003710 -0.010124 0.049264 -0.022644 0.006635
# 5 -0.000785 0.000672 0.008465 -0.022644 0.044248 -0.009737
# 6 -0.006123 -0.002976 -0.006737 0.006635 -0.009737 0.027102
#
#
# Mechanical properties :
#
#
# Convention : Reuss Voigt Hill
#
# Bulk Modulus (GPa) = 30.93992 61.49711 46.21852
# Shear Modulus (GPa) = 27.90506 40.03762 33.97134
#
# Velocity S-wave (km/s) = 3.40826 4.08249 3.76051
# Velocity P-wave (km/s) = 5.32614 6.91535 6.17211
#
# Compressibility (1/GPa) = 0.03232070
#
# Stress axis : x y z
#
# Youngs Moduli (GPa) = 66.98107 105.90531 63.75808
#
# Poissons Ratio (x) = 0.27384 -0.05185
# Poissons Ratio (y) = 0.17319 0.13359
# Poissons Ratio (z) = -0.05447 0.22190
#
# Static dielectric constant tensor:
#      x y z
#    x 2.012320 -0.062710 0.030990 
#    y -0.062710 1.998460 -0.005150 
#    z 0.030990 -0.005150 1.862080 
# 
# From -- ./inp_files/176853.got.cif
#   From: 2010.05.17/outbox.cif.g08.bks.cpg/sg2_89_cif.got.tgz:176853.got - 2010.06.03 11:33:40.
