data_PCOD9083050
_publ_section_title
;
Structure prediction by ZEFSAII (Michael W. Deem and Ramdas Pophale) SiO2 
 PCOD9083050
Probable space group: P -1
;
_chemical_formula_sum "Si O2"
_cell_formula_units_Z 16
_cell_length_a 11.576147
_cell_length_b 7.114875
_cell_length_c 9.131617
_cell_angle_alpha 110.988518
_cell_angle_beta 56.124207
_cell_angle_gamma 91.147585
_cell_volume 567.136664
_symmetry_space_group_name_H-M "P -1"
_symmetry_group_IT_number 2
_symmetry_cell_setting 'triclinic'
loop_
_space_group_symop_operation_xyz
x,y,z
-x,-y,-z
loop_
_atom_site_type_symbol
_atom_site_label
_atom_site_fract_x
_atom_site_fract_y
_atom_site_fract_z
Si Si1 0.798018 0.831908 0.628953
Si Si2 0.637910 0.388021 0.285108
Si Si3 0.684489 0.469300 0.939761
Si Si4 0.682278 0.047600 0.366649
Si Si5 0.537905 0.152101 0.794370
Si Si6 0.048010 0.856965 0.245229
Si Si7 0.152613 0.608920 0.619310
Si Si8 0.058288 0.285772 0.981099
O O1 0.818351 0.585635 0.563160
O O2 0.893593 0.856644 0.423501
O O3 0.632618 0.952076 0.756246
O O4 0.878183 0.958293 0.714967
O O5 0.500000 0.500000 0.500000
O O6 0.628423 0.432827 0.133922
O O7 0.648284 0.151628 0.259618
O O8 0.759136 0.464359 0.312994
O O9 0.622381 0.713335 0.020390
O O10 0.621559 0.330636 0.830360
O O11 0.848462 0.347938 0.813606
O O12 0.560862 0.088046 0.589136
O O13 0.783462 0.194366 0.404494
O O14 0.779564 0.823365 0.200538
O O15 0.036049 0.848014 0.076874
O O16 0.991538 0.683252 0.809149
O O17 0.000000 0.500000 0.000000
#
# Coordination Sequence:
#
# PCOD9083050 Si02
#       8
#     2   2   2   2   2   2   2   2
#     4  10  20  37  57  88 115 167 195 251 295 367
#     4  10  20  36  59  84 121 158 198 243 306 359
#     4  10  19  34  58  88 110 164 196 250 293 365
#     4  10  21  35  60  87 122 159 196 251 309 355
#     4  10  19  35  61  83 117 154 209 240 308 349
#     4  10  19  33  61  81 122 149 209 239 301 344
#     4  10  21  35  60  84 122 157 199 245 308 356
#     4  12  20  36  60  92 119 156 206 254 302 358
#
# _framework density 28.211897
#
# number of rings (size 3 to 8) (size 9 to 14) (size 15 to 20)
#    0.750    1.000    5.000    0.375    0.000    0.000 
#    0.000    2.500    0.000   21.750    0.000    0.875 
#    0.000    0.000    0.000    0.000    0.000    0.000 
#
# Total GULP energy -89425.515134 kJ/mol
# GULP energy per Si atom -5589.094696 kJ/mol
# Density = 2.814769 g / cm^3
# Si number density = 28.211897 Si / 1000 Ang^3
#
#
#
# Elastic Constant Matrix: (Units=GPa)
#
#
# Indices 1 2 3 4 5 6 
#
# 1 92.0125 13.6628 34.3395 7.9701 18.9564 -6.2287
# 2 13.6628 97.4316 30.4110 32.4602 -11.7787 -14.1571
# 3 34.3395 30.4110 167.1434 27.2957 -12.6536 -13.5554
# 4 7.9701 32.4602 27.2957 49.9047 -8.8390 -5.9423
# 5 18.9564 -11.7787 -12.6536 -8.8390 51.1811 15.7224
# 6 -6.2287 -14.1571 -13.5554 -5.9423 15.7224 42.6645
#
#
#
# Elastic Compliance Matrix: (Units=1/GPa)
#
#
# Indices 1 2 3 4 5 6 
#
# 1 0.013874 -0.001208 -0.002781 -0.000801 -0.007257 0.003304
# 2 -0.001208 0.013803 -0.000666 -0.007880 0.001294 0.002618
# 3 -0.002781 -0.000666 0.007316 -0.002694 0.002046 0.000568
# 4 -0.000801 -0.007880 -0.002694 0.027156 0.002759 -0.000822
# 5 -0.007257 0.001294 0.002046 0.002759 0.026367 -0.009312
# 6 0.003304 0.002618 0.000568 -0.000822 -0.009312 0.028287
#
#
# Mechanical properties :
#
#
# Convention : Reuss Voigt Hill
#
# Bulk Modulus (GPa) = 38.93693 57.04602 47.99147
# Shear Modulus (GPa) = 37.12639 47.29500 42.21070
#
# Velocity S-wave (km/s) = 3.63158 4.09885 3.87227
# Velocity P-wave (km/s) = 5.60501 6.53186 6.08611
#
# Compressibility (1/GPa) = 0.02568256
#
# Stress axis : x y z
#
# Youngs Moduli (GPa) = 72.07942 72.44805 136.67817
#
# Poissons Ratio (x) = 0.08751 0.38013
# Poissons Ratio (y) = 0.08706 0.09104
# Poissons Ratio (z) = 0.20047 0.04826
#
# Static dielectric constant tensor:
#      x y z
#    x 2.455000 0.129190 -0.144120 
#    y 0.129190 2.263450 -0.000220 
#    z -0.144120 -0.000220 2.267480 
# 
# From -- ./inp_files/445170.got.cif
#   From: 2010.05.17/outbox.cif.g08.bks.cpg/sg2_223_cif.got.tgz:445170.got - 2010.06.03 11:33:40.
