data_PCOD9083612
_publ_section_title
;
Structure prediction by ZEFSAII (Michael W. Deem and Ramdas Pophale) SiO2 
 PCOD9083612
Probable space group: P -1
;
_chemical_formula_sum "Si O2"
_cell_formula_units_Z 15
_cell_length_a 5.471309
_cell_length_b 20.395616
_cell_length_c 8.005959
_cell_angle_alpha 109.277973
_cell_angle_beta 56.518105
_cell_angle_gamma 129.206921
_cell_volume 577.148004
_symmetry_space_group_name_H-M "P -1"
_symmetry_group_IT_number 2
_symmetry_cell_setting 'triclinic'
loop_
_space_group_symop_operation_xyz
x,y,z
-x,-y,-z
loop_
_atom_site_type_symbol
_atom_site_label
_atom_site_fract_x
_atom_site_fract_y
_atom_site_fract_z
Si Si1 0.799691 0.063979 0.306714
Si Si2 0.000000 0.500000 0.500000
Si Si3 0.216447 0.196135 0.860332
Si Si4 0.186666 0.683342 0.537450
Si Si5 0.179045 0.996694 0.258471
Si Si6 0.919424 0.546008 0.927894
Si Si7 0.837475 0.267059 0.912940
Si Si8 0.187800 0.254644 0.430661
O O1 0.940126 0.156660 0.395023
O O2 0.500000 0.000000 0.500000
O O3 0.591070 0.041898 0.191932
O O4 0.098287 0.045003 0.193818
O O5 0.058514 0.587763 0.479535
O O6 0.914113 0.459123 0.310301
O O7 0.537233 0.256883 0.661290
O O8 0.421748 0.210073 0.968221
O O9 0.019336 0.101478 0.789244
O O10 0.958014 0.227151 0.970880
O O11 0.420492 0.719632 0.648264
O O12 0.861846 0.693072 0.646743
O O13 0.000000 0.000000 0.500000
O O14 0.500000 0.500000 0.000000
O O15 0.000000 0.500000 0.000000
O O16 0.042763 0.638098 0.020983
O O17 0.054994 0.270445 0.668670
#
# Coordination Sequence:
#
# PCOD9083612 Si02
#       8
#     2   1   2   2   2   2   2   2
#     4  10  16  24  42  74 115 153 198 256 310 376
#     4  12  28  46  72 102 134 178 238 284 336 418
#     4  10  18  32  52  80 121 162 205 263 322 379
#     4  10  20  34  52  78 114 158 203 262 321 373
#     4  10  16  24  42  74 116 153 197 257 309 374
#     4  12  26  46  70  99 134 175 227 290 351 403
#     4  10  18  32  52  76 111 158 200 247 321 384
#     4  10  18  32  52  79 120 162 205 264 324 379
#
# _framework density 25.989868999999999
#
# number of rings (size 3 to 8) (size 9 to 14) (size 15 to 20)
#    0.000    1.600    0.000   12.000    0.000    2.133 
#    0.000    0.000    0.000    0.000    0.000    0.000 
#    0.000   78.933    0.000    0.000    0.000    0.000 
#
# Total GULP energy -83820.421265 kJ/mol
# GULP energy per Si atom -5588.028084 kJ/mol
# Density = 2.593071 g / cm^3
# Si number density = 25.989869 Si / 1000 Ang^3
#
#
#
# Elastic Constant Matrix: (Units=GPa)
#
#
# Indices 1 2 3 4 5 6 
#
# 1 267.8020 62.1544 38.7042 36.4966 4.8967 -17.8009
# 2 62.1544 157.3188 62.2629 64.1082 5.2851 -25.7540
# 3 38.7042 62.2629 117.9443 20.4343 -1.5849 -9.7269
# 4 36.4966 64.1082 20.4343 61.8266 -3.8805 7.1839
# 5 4.8967 5.2851 -1.5849 -3.8805 29.7528 6.6334
# 6 -17.8009 -25.7540 -9.7269 7.1839 6.6334 42.7955
#
#
#
# Elastic Compliance Matrix: (Units=1/GPa)
#
#
# Indices 1 2 3 4 5 6 
#
# 1 0.004415 0.000409 -0.000921 -0.003156 -0.001860 0.002692
# 2 0.000409 0.020861 -0.006004 -0.022518 -0.010778 0.016810
# 3 -0.000921 -0.006004 0.011169 0.003545 0.002831 -0.002492
# 4 -0.003156 -0.022518 0.003545 0.043980 0.015769 -0.023885
# 5 -0.001860 -0.010778 0.002831 0.015769 0.041539 -0.015702
# 6 0.002692 0.016810 -0.002492 -0.023885 -0.015702 0.040480
#
#
# Mechanical properties :
#
#
# Convention : Reuss Voigt Hill
#
# Bulk Modulus (GPa) = 42.71094 96.58977 69.65035
# Shear Modulus (GPa) = 27.28058 52.20456 39.74257
#
# Velocity S-wave (km/s) = 3.24336 4.48666 3.91468
# Velocity P-wave (km/s) = 5.52225 8.00532 6.87679
#
# Compressibility (1/GPa) = 0.02341321
#
# Stress axis : x y z
#
# Youngs Moduli (GPa) = 226.48826 47.93534 89.53532
#
# Poissons Ratio (x) = -0.01962 0.08248
# Poissons Ratio (y) = -0.09270 0.53759
# Poissons Ratio (z) = 0.20865 0.28781
#
# Static dielectric constant tensor:
#      x y z
#    x 2.223120 -0.003810 -0.077250 
#    y -0.003810 1.963780 -0.062340 
#    z -0.077250 -0.062340 2.081550 
# 
# From -- ./inp_files/140278.got.cif
#   From: 2010.05.17/outbox.cif.g08.bks.cpg/sg2_71_cif.got.tgz:140278.got - 2010.06.03 11:33:40.
