data_PCOD9083924
_publ_section_title
;
Structure prediction by ZEFSAII (Michael W. Deem and Ramdas Pophale) SiO2 
 PCOD9083924
Probable space group: P -1
;
_chemical_formula_sum "Si O2"
_cell_formula_units_Z 10
_cell_length_a 9.874954
_cell_length_b 8.946042
_cell_length_c 9.736204
_cell_angle_alpha 44.240827
_cell_angle_beta 109.435370
_cell_angle_gamma 138.840562
_cell_volume 352.698783
_symmetry_space_group_name_H-M "P -1"
_symmetry_group_IT_number 2
_symmetry_cell_setting 'triclinic'
loop_
_space_group_symop_operation_xyz
x,y,z
-x,-y,-z
loop_
_atom_site_type_symbol
_atom_site_label
_atom_site_fract_x
_atom_site_fract_y
_atom_site_fract_z
Si Si1 0.554791 0.826665 0.939300
Si Si2 0.018263 0.241740 0.763847
Si Si3 0.633607 0.957813 0.260062
Si Si4 0.484612 0.258751 0.344142
Si Si5 0.878132 0.841138 0.417097
O O1 0.519862 0.764175 0.805685
O O2 0.831645 0.186296 0.797145
O O3 0.392017 0.826757 0.934825
O O4 0.513019 0.550317 0.178132
O O5 0.283949 0.606566 0.627693
O O6 0.976550 0.122920 0.669763
O O7 0.000000 0.000000 0.000000
O O8 0.672978 0.991374 0.416124
O O9 0.825780 0.021830 0.225220
O O10 0.377631 0.562477 0.403893
O O11 0.000000 0.000000 0.500000
#
# Coordination Sequence:
#
# PCOD9083924 Si02
#       5
#     2   2   2   2   2
#     4  10  19  34  59  83 108 146 187 227 276 328
#     4   9  19  36  56  80 110 144 184 229 272 325
#     4  10  21  36  56  82 111 147 186 226 276 332
#     4   9  19  34  55  83 113 141 183 234 274 325
#     4  10  21  37  56  81 116 148 181 229 280 328
#
# _framework density 28.352805
#
# number of rings (size 3 to 8) (size 9 to 14) (size 15 to 20)
#    0.000    2.400    0.000    1.800    0.000    4.800 
#    0.000   16.000    0.000   22.800    0.000    0.000 
#    0.000    0.000    0.000    0.000    0.000    0.000 
#
# Total GULP energy -55955.662873 kJ/mol
# GULP energy per Si atom -5595.566287 kJ/mol
# Density = 2.828827 g / cm^3
# Si number density = 28.352805 Si / 1000 Ang^3
#
#
#
# Elastic Constant Matrix: (Units=GPa)
#
#
# Indices 1 2 3 4 5 6 
#
# 1 125.2425 -7.1044 27.0517 -10.7861 45.4360 6.4172
# 2 -7.1044 83.5269 19.1914 42.2638 -10.0596 -2.8550
# 3 27.0517 19.1914 107.6362 28.7066 21.4692 -24.4541
# 4 -10.7861 42.2638 28.7066 51.9399 -14.8803 -8.9463
# 5 45.4360 -10.0596 21.4692 -14.8803 56.9405 2.1989
# 6 6.4172 -2.8550 -24.4541 -8.9463 2.1989 38.1600
#
#
#
# Elastic Compliance Matrix: (Units=1/GPa)
#
#
# Indices 1 2 3 4 5 6 
#
# 1 0.011600 0.000006 -0.002093 0.000767 -0.008164 -0.002641
# 2 0.000006 0.020669 0.000949 -0.018076 -0.001358 -0.002006
# 3 -0.002093 0.000949 0.015840 -0.010565 -0.007225 0.008513
# 4 0.000767 -0.018076 -0.010565 0.043472 0.011489 0.001278
# 5 -0.008164 -0.001358 -0.007225 0.011489 0.029655 -0.002374
# 6 -0.002641 -0.002006 0.008513 0.001278 -0.002374 0.032391
#
#
# Mechanical properties :
#
#
# Convention : Reuss Voigt Hill
#
# Bulk Modulus (GPa) = 21.81787 43.85368 32.83578
# Shear Modulus (GPa) = 29.20904 47.89255 38.55080
#
# Velocity S-wave (km/s) = 3.21315 4.11440 3.69139
# Velocity P-wave (km/s) = 4.63440 6.17024 5.45662
#
# Compressibility (1/GPa) = 0.04583399
#
# Stress axis : x y z
#
# Youngs Moduli (GPa) = 86.20786 48.38183 63.13087
#
# Poissons Ratio (x) = -0.00029 0.13211
# Poissons Ratio (y) = -0.00051 -0.05993
# Poissons Ratio (z) = 0.18040 -0.04593
#
# Static dielectric constant tensor:
#      x y z
#    x 2.197350 -0.024830 0.008610 
#    y -0.024830 2.455140 -0.056330 
#    z 0.008610 -0.056330 2.142360 
# 
# From -- ./inp_files/144244.got.cif
#   From: 2010.05.17/outbox.cif.g08.bks.cpg/sg2_73_cif.got.tgz:144244.got - 2010.06.03 11:33:40.
