data_PCOD9083301
_publ_section_title
;
Structure prediction by ZEFSAII (Michael W. Deem and Ramdas Pophale) SiO2 
 PCOD9083301
Probable space group: P -1
;
_chemical_formula_sum "Si O2"
_cell_formula_units_Z 16
_cell_length_a 12.268087
_cell_length_b 15.065934
_cell_length_c 7.862525
_cell_angle_alpha 63.990809
_cell_angle_beta 89.034456
_cell_angle_gamma 36.970798
_cell_volume 618.126630
_symmetry_space_group_name_H-M "P -1"
_symmetry_group_IT_number 2
_symmetry_cell_setting 'triclinic'
loop_
_space_group_symop_operation_xyz
x,y,z
-x,-y,-z
loop_
_atom_site_type_symbol
_atom_site_label
_atom_site_fract_x
_atom_site_fract_y
_atom_site_fract_z
Si Si1 0.848392 0.121809 0.614389
Si Si2 0.894959 0.578977 0.718109
Si Si3 0.410731 0.348171 0.429679
Si Si4 0.369499 0.881077 0.023246
Si Si5 0.227067 0.693292 0.857975
Si Si6 0.107565 0.735735 0.327634
Si Si7 0.764216 0.799263 0.195196
Si Si8 0.815424 0.470411 0.170167
O O1 0.640270 0.218302 0.470744
O O2 0.890781 0.165812 0.424980
O O3 0.747111 0.278846 0.624532
O O4 0.064840 0.876158 0.846436
O O5 0.686011 0.667054 0.666317
O O6 0.832989 0.684831 0.455346
O O7 0.104510 0.342841 0.852939
O O8 0.001846 0.585482 0.817531
O O9 0.226125 0.577813 0.304663
O O10 0.501906 0.231381 0.707143
O O11 0.216374 0.102192 0.850464
O O12 0.565851 0.716146 0.015809
O O13 0.138871 0.005213 0.890124
O O14 0.198290 0.598551 0.921046
O O15 0.500000 0.500000 0.000000
O O16 0.132559 0.638356 0.571308
O O17 0.500000 0.000000 0.000000
#
# Coordination Sequence:
#
# PCOD9083301 Si02
#       8
#     2   2   2   2   2   2   2   2
#     4  10  23  40  57  78 106 141 185 228 272 313
#     4  11  19  30  49  81 117 144 171 210 261 319
#     4  11  22  32  51  86 119 144 168 211 273 333
#     4  11  18  29  54  85 115 146 173 207 266 320
#     4  10  22  44  63  74  94 139 195 239 266 304
#     4  10  19  34  54  81 115 145 174 218 264 316
#     4  11  16  29  48  77 118 152 174 199 246 325
#     4  10  20  32  56  84 105 138 190 224 253 313
#
# _framework density 25.884665999999999
#
# number of rings (size 3 to 8) (size 9 to 14) (size 15 to 20)
#    0.000    1.500    5.000    2.625    0.000    1.500 
#    0.000    0.625    0.000    0.750    0.000    0.000 
#    0.000    0.000    0.000    0.000    0.000    0.000 
#
# Total GULP energy -89151.222017 kJ/mol
# GULP energy per Si atom -5571.951376 kJ/mol
# Density = 2.582575 g / cm^3
# Si number density = 25.884666 Si / 1000 Ang^3
#
#
#
# Elastic Constant Matrix: (Units=GPa)
#
#
# Indices 1 2 3 4 5 6 
#
# 1 153.1709 52.4130 23.4563 -15.2970 -3.0153 28.0606
# 2 52.4130 105.7517 50.5763 -12.2146 -0.2732 15.2903
# 3 23.4563 50.5763 98.5246 -33.4199 4.8361 4.9937
# 4 -15.2970 -12.2146 -33.4199 33.0800 -3.5334 3.5553
# 5 -3.0153 -0.2732 4.8361 -3.5334 49.9940 -4.0338
# 6 28.0606 15.2903 4.9937 3.5553 -4.0338 43.4533
#
#
#
# Elastic Compliance Matrix: (Units=1/GPa)
#
#
# Indices 1 2 3 4 5 6 
#
# 1 0.009088 -0.004107 0.001966 0.005247 0.000299 -0.005051
# 2 -0.004107 0.015108 -0.008240 -0.004480 0.000208 -0.001331
# 3 0.001966 -0.008240 0.020385 0.018626 -0.000768 -0.002308
# 4 0.005247 -0.004480 0.018626 0.050831 0.001439 -0.007978
# 5 0.000299 0.000208 -0.000768 0.001439 0.020326 0.001591
# 6 -0.005051 -0.001331 -0.002308 -0.007978 0.001591 0.027809
#
#
# Mechanical properties :
#
#
# Convention : Reuss Voigt Hill
#
# Bulk Modulus (GPa) = 41.98581 67.81537 54.90059
# Shear Modulus (GPa) = 29.02764 40.70558 34.86661
#
# Velocity S-wave (km/s) = 3.35240 3.96987 3.67413
# Velocity P-wave (km/s) = 5.58930 6.87525 6.26536
#
# Compressibility (1/GPa) = 0.02381757
#
# Stress axis : x y z
#
# Youngs Moduli (GPa) = 110.03088 66.18872 49.05672
#
# Poissons Ratio (x) = 0.27187 -0.09644
# Poissons Ratio (y) = 0.45195 0.40424
# Poissons Ratio (z) = -0.21631 0.54541
#
# Static dielectric constant tensor:
#      x y z
#    x 1.776480 -0.058340 -0.140700 
#    y -0.058340 2.033060 0.045620 
#    z -0.140700 0.045620 2.039790 
# 
# From -- ./inp_files/431222.got.cif
#   From: 2010.05.17/outbox.cif.g08.bks.cpg/sg2_216_cif.got.tgz:431222.got - 2010.06.03 11:33:40.
