data_PCOD9083744
_publ_section_title
;
Structure prediction by ZEFSAII (Michael W. Deem and Ramdas Pophale) SiO2 
 PCOD9083744
Probable space group: P -1
;
_chemical_formula_sum "Si O2"
_cell_formula_units_Z 14
_cell_length_a 5.181091
_cell_length_b 13.842785
_cell_length_c 12.510771
_cell_angle_alpha 46.995245
_cell_angle_beta 119.083268
_cell_angle_gamma 107.746812
_cell_volume 572.942968
_symmetry_space_group_name_H-M "P -1"
_symmetry_group_IT_number 2
_symmetry_cell_setting 'triclinic'
loop_
_space_group_symop_operation_xyz
x,y,z
-x,-y,-z
loop_
_atom_site_type_symbol
_atom_site_label
_atom_site_fract_x
_atom_site_fract_y
_atom_site_fract_z
Si Si1 0.663690 0.648644 0.820629
Si Si2 0.109875 0.252406 0.980659
Si Si3 0.330364 0.228574 0.647578
Si Si4 0.951249 0.361317 0.651254
Si Si5 0.343878 0.918237 0.885975
Si Si6 0.935262 0.881127 0.650341
Si Si7 0.954648 0.351549 0.280723
O O1 0.813766 0.682227 0.938526
O O2 0.356854 0.580987 0.809752
O O3 0.634912 0.801761 0.649989
O O4 0.841200 0.574151 0.816668
O O5 0.383612 0.158003 0.062310
O O6 0.800771 0.172545 0.983234
O O7 0.054163 0.360223 0.795242
O O8 0.616653 0.314588 0.621394
O O9 0.150320 0.261061 0.694896
O O10 0.117058 0.277877 0.467736
O O11 0.415808 0.072044 0.791764
O O12 0.000000 0.500000 0.500000
O O13 0.039923 0.927153 0.749576
O O14 0.145059 0.761934 0.737799
O O15 0.000000 0.000000 0.500000
#
# Coordination Sequence:
#
# PCOD9083744 Si02
#       7
#     2   2   2   2   2   2   2
#     4   9  18  32  55  89 126 164 196 233 303 380
#     4  11  22  40  65  93 129 173 207 252 310 390
#     4  12  25  42  67  99 129 163 210 268 312 376
#     4  12  29  50  67  82 117 179 232 268 306 358
#     4  11  21  36  63 106 134 159 196 250 336 378
#     4   9  17  29  51  90 135 169 179 217 306 405
#     4  10  19  34  57  94 132 161 195 238 312 384
#
# _framework density 24.435241000000001
#
# number of rings (size 3 to 8) (size 9 to 14) (size 15 to 20)
#    0.857    0.571    2.857    3.000    0.000    5.143 
#    0.000    0.000    0.000    5.143    0.000    0.000 
#    0.000    0.000    0.000    0.000    0.000    0.000 
#
# Total GULP energy -77956.579871 kJ/mol
# GULP energy per Si atom -5568.327134 kJ/mol
# Density = 2.437963 g / cm^3
# Si number density = 24.435241 Si / 1000 Ang^3
#
#
#
# Elastic Constant Matrix: (Units=GPa)
#
#
# Indices 1 2 3 4 5 6 
#
# 1 160.2819 39.0011 29.5214 15.0197 -22.4443 6.4040
# 2 39.0011 67.4086 31.7490 4.7288 -6.2881 19.2330
# 3 29.5214 31.7490 134.5240 10.5094 -23.0287 7.9137
# 4 15.0197 4.7288 10.5094 41.5799 -2.9547 -2.1075
# 5 -22.4443 -6.2881 -23.0287 -2.9547 32.1599 1.8185
# 6 6.4040 19.2330 7.9137 -2.1075 1.8185 29.7497
#
#
#
# Elastic Compliance Matrix: (Units=1/GPa)
#
#
# Indices 1 2 3 4 5 6 
#
# 1 0.008097 -0.004352 0.000187 -0.002113 0.004707 0.000583
# 2 -0.004352 0.022749 -0.003701 -0.000770 -0.000586 -0.012804
# 3 0.000187 -0.003701 0.009473 -0.001642 0.006076 -0.000655
# 4 -0.002113 -0.000770 -0.001642 0.025434 -0.000647 0.003231
# 5 0.004707 -0.000586 0.006076 -0.000647 0.038820 -0.004669
# 6 0.000583 -0.012804 -0.000655 0.003231 -0.004669 0.042455
#
#
# Mechanical properties :
#
#
# Convention : Reuss Voigt Hill
#
# Bulk Modulus (GPa) = 40.67223 62.52861 51.60042
# Shear Modulus (GPa) = 29.24729 38.16077 33.70403
#
# Velocity S-wave (km/s) = 3.46342 3.95614 3.71795
# Velocity P-wave (km/s) = 5.71618 6.82005 6.29237
#
# Compressibility (1/GPa) = 0.02458680
#
# Stress axis : x y z
#
# Youngs Moduli (GPa) = 123.49651 43.95869 105.56203
#
# Poissons Ratio (x) = 0.19131 -0.01970
# Poissons Ratio (y) = 0.53746 0.39066
# Poissons Ratio (z) = -0.02305 0.16268
#
# Static dielectric constant tensor:
#      x y z
#    x 2.398070 -0.075110 -0.031690 
#    y -0.075110 1.948310 -0.013940 
#    z -0.031690 -0.013940 2.198070 
# 
# From -- ./inp_files/366098.got.cif
#   From: 2010.05.17/outbox.cif.g08.bks.cpg/sg2_184_cif.got.tgz:366098.got - 2010.06.03 11:33:40.
