data_PCOD9083952
_publ_section_title
;
Structure prediction by ZEFSAII (Michael W. Deem and Ramdas Pophale) SiO2 
 PCOD9083952
Probable space group: P -1
;
_chemical_formula_sum "Si O2"
_cell_formula_units_Z 10
_cell_length_a 5.504291
_cell_length_b 9.141794
_cell_length_c 8.489839
_cell_angle_alpha 81.064704
_cell_angle_beta 76.566933
_cell_angle_gamma 100.665456
_cell_volume 399.450139
_symmetry_space_group_name_H-M "P -1"
_symmetry_group_IT_number 2
_symmetry_cell_setting 'triclinic'
loop_
_space_group_symop_operation_xyz
x,y,z
-x,-y,-z
loop_
_atom_site_type_symbol
_atom_site_label
_atom_site_fract_x
_atom_site_fract_y
_atom_site_fract_z
Si Si1 0.471660 0.478150 0.325685
Si Si2 0.437353 0.781700 0.204316
Si Si3 0.287887 0.598632 0.961807
Si Si4 0.269736 0.015753 0.645864
Si Si5 0.998235 0.755826 0.536522
O O1 0.500000 0.500000 0.500000
O O2 0.610309 0.361311 0.237820
O O3 0.229738 0.748689 0.383992
O O4 0.169242 0.407192 0.358151
O O5 0.588883 0.648568 0.221789
O O6 0.623445 0.939687 0.202558
O O7 0.500000 0.500000 0.000000
O O8 0.312306 0.736548 0.059536
O O9 0.000000 0.500000 0.000000
O O10 0.165234 0.154187 0.564055
O O11 0.500000 0.000000 0.500000
O O12 0.062622 0.861622 0.664216
#
# Coordination Sequence:
#
# PCOD9083952 Si02
#       5
#     2   2   2   2   2
#     4  11  20  35  60  92 114 149 201 248 288 347
#     4  10  20  36  60  84 119 157 191 240 303 351
#     4  10  23  39  57  88 126 158 188 240 306 357
#     4   9  19  35  55  83 115 154 195 237 297 348
#     4  10  19  34  59  85 115 151 200 243 286 348
#
# _framework density 25.034413000000001
#
# number of rings (size 3 to 8) (size 9 to 14) (size 15 to 20)
#    0.000    2.000    2.000    1.800    2.800    1.600 
#    0.000    1.000    0.000   10.800    0.000    0.000 
#    0.000    0.000    0.000    0.000    0.000    0.000 
#
# Total GULP energy -55701.644257 kJ/mol
# GULP energy per Si atom -5570.164426 kJ/mol
# Density = 2.497743 g / cm^3
# Si number density = 25.034413 Si / 1000 Ang^3
#
#
#
# Elastic Constant Matrix: (Units=GPa)
#
#
# Indices 1 2 3 4 5 6 
#
# 1 100.9505 31.5369 39.4562 27.3696 14.8241 20.0329
# 2 31.5369 85.2834 31.3739 32.3296 24.8270 24.0640
# 3 39.4562 31.3739 191.9826 55.0939 37.6078 42.0496
# 4 27.3696 32.3296 55.0939 42.9058 21.8269 18.2140
# 5 14.8241 24.8270 37.6078 21.8269 45.5440 24.8710
# 6 20.0329 24.0640 42.0496 18.2140 24.8710 56.1283
#
#
#
# Elastic Compliance Matrix: (Units=1/GPa)
#
#
# Indices 1 2 3 4 5 6 
#
# 1 0.012460 -0.002137 -0.000418 -0.005584 0.001185 -0.001931
# 2 -0.002137 0.018244 0.002391 -0.012245 -0.003552 -0.003303
# 3 -0.000418 0.002391 0.009117 -0.010990 -0.001541 -0.003457
# 4 -0.005584 -0.012245 -0.010990 0.054162 -0.009555 0.002134
# 5 0.001185 -0.003552 -0.001541 -0.009555 0.034873 -0.010098
# 6 -0.001931 -0.003303 -0.003457 0.002134 -0.010098 0.026293
#
#
# Mechanical properties :
#
#
# Convention : Reuss Voigt Hill
#
# Bulk Modulus (GPa) = 25.32176 64.77228 45.04702
# Shear Modulus (GPa) = 29.64849 47.30558 38.47704
#
# Velocity S-wave (km/s) = 3.44511 4.35169 3.92467
# Velocity P-wave (km/s) = 5.09527 7.15396 6.21051
#
# Compressibility (1/GPa) = 0.03949173
#
# Stress axis : x y z
#
# Youngs Moduli (GPa) = 80.25666 54.81231 109.68673
#
# Poissons Ratio (x) = 0.11714 0.04589
# Poissons Ratio (y) = 0.17152 -0.26225
# Poissons Ratio (z) = 0.03358 -0.13105
#
# Static dielectric constant tensor:
#      x y z
#    x 2.144610 -0.052190 0.129520 
#    y -0.052190 2.017160 -0.054040 
#    z 0.129520 -0.054040 2.219380 
# 
# From -- ./inp_files/360948.got.cif
#   From: 2010.05.17/outbox.cif.g08.bks.cpg/sg2_181_cif.got.tgz:360948.got - 2010.06.03 11:33:40.
