data_PCOD9083687
_publ_section_title
;
Structure prediction by ZEFSAII (Michael W. Deem and Ramdas Pophale) SiO2 
 PCOD9083687
Probable space group: P -1
;
_chemical_formula_sum "Si O2"
_cell_formula_units_Z 14
_cell_length_a 11.007350
_cell_length_b 11.521617
_cell_length_c 5.292976
_cell_angle_alpha 66.963104
_cell_angle_beta 119.419270
_cell_angle_gamma 89.903710
_cell_volume 522.099406
_symmetry_space_group_name_H-M "P -1"
_symmetry_group_IT_number 2
_symmetry_cell_setting 'triclinic'
loop_
_space_group_symop_operation_xyz
x,y,z
-x,-y,-z
loop_
_atom_site_type_symbol
_atom_site_label
_atom_site_fract_x
_atom_site_fract_y
_atom_site_fract_z
Si Si1 0.618820 0.578309 0.024041
Si Si2 0.167087 0.388050 0.398699
Si Si3 0.842865 0.826921 0.851218
Si Si4 0.895460 0.121550 0.150581
Si Si5 0.879407 0.380328 0.195652
Si Si6 0.359756 0.941986 0.866473
Si Si7 0.441963 0.153817 0.239338
O O1 0.680205 0.625563 0.304396
O O2 0.565723 0.717013 0.706055
O O3 0.500000 0.500000 0.000000
O O4 0.754605 0.472188 0.146313
O O5 0.160390 0.293669 0.235753
O O6 0.040061 0.369265 0.472626
O O7 0.126561 0.536134 0.137887
O O8 0.732225 0.835135 0.967081
O O9 0.006978 0.843468 0.008982
O O10 0.754090 0.949457 0.493848
O O11 0.866292 0.240428 0.217008
O O12 0.736619 0.096525 0.975432
O O13 0.000000 0.000000 0.500000
O O14 0.438403 0.828331 0.857367
O O15 0.500000 0.000000 0.000000
O O16 0.500000 0.000000 0.500000
#
# Coordination Sequence:
#
# PCOD9083687 Si02
#       7
#     2   2   2   2   2   2   2
#     4  12  24  39  63  95 131 167 212 263 323 393
#     4  10  21  40  65  89 121 169 210 258 324 372
#     4   9  18  37  61  82 116 162 210 255 307 370
#     4   9  19  37  63  85 120 163 206 259 310 376
#     4  10  21  40  64  90 124 161 217 262 308 378
#     4  10  19  34  57  86 120 162 202 250 321 376
#     4  10  21  39  60  88 129 167 211 267 318 378
#
# _framework density 26.814817000000001
#
# number of rings (size 3 to 8) (size 9 to 14) (size 15 to 20)
#    0.000    2.000    1.429    2.143    0.000    0.571 
#    5.143    0.714    0.000    0.000    0.000    0.000 
#    0.000    0.000    0.000    0.000    0.000    0.000 
#
# Total GULP energy -78001.736633 kJ/mol
# GULP energy per Si atom -5571.552617 kJ/mol
# Density = 2.675379 g / cm^3
# Si number density = 26.814817 Si / 1000 Ang^3
#
#
#
# Elastic Constant Matrix: (Units=GPa)
#
#
# Indices 1 2 3 4 5 6 
#
# 1 230.2582 66.9221 39.1240 -4.7762 49.5700 34.6135
# 2 66.9221 164.0426 41.7771 -30.5983 22.2223 7.4033
# 3 39.1240 41.7771 73.6291 -20.1618 31.9729 -0.4542
# 4 -4.7762 -30.5983 -20.1618 49.5781 -10.8854 16.2259
# 5 49.5700 22.2223 31.9729 -10.8854 45.4272 -3.6354
# 6 34.6135 7.4033 -0.4542 16.2259 -3.6354 53.7381
#
#
#
# Elastic Compliance Matrix: (Units=1/GPa)
#
#
# Indices 1 2 3 4 5 6 
#
# 1 0.007175 -0.001858 0.000452 -0.000408 -0.007717 -0.004760
# 2 -0.001858 0.008354 -0.002995 0.004383 0.000999 -0.001235
# 3 0.000452 -0.002995 0.022353 0.004962 -0.013741 -0.002117
# 4 -0.000408 0.004383 0.004962 0.027861 0.000792 -0.008658
# 5 -0.007717 0.000999 -0.013741 0.000792 0.040383 0.007209
# 6 -0.004760 -0.001235 -0.002117 -0.008658 0.007209 0.024929
#
#
# Mechanical properties :
#
#
# Convention : Reuss Voigt Hill
#
# Bulk Modulus (GPa) = 34.38692 84.84181 59.61436
# Shear Modulus (GPa) = 33.43343 51.08914 42.26129
#
# Velocity S-wave (km/s) = 3.53487 4.36966 3.97425
# Velocity P-wave (km/s) = 5.43251 7.56090 6.58329
#
# Compressibility (1/GPa) = 0.02908083
#
# Stress axis : x y z
#
# Youngs Moduli (GPa) = 139.38197 119.69654 44.73603
#
# Poissons Ratio (x) = 0.22238 -0.02020
# Poissons Ratio (y) = 0.25895 0.13396
# Poissons Ratio (z) = -0.06294 0.35843
#
# Static dielectric constant tensor:
#      x y z
#    x 1.965080 0.068680 0.052660 
#    y 0.068680 2.105840 -0.011270 
#    z 0.052660 -0.011270 2.345260 
# 
# From -- ./inp_files/247368.got.cif
#   From: 2010.05.17/outbox.cif.g08.bks.cpg/sg2_124_cif.got.tgz:247368.got - 2010.06.03 11:33:40.
