data_PCOD9083862
_publ_section_title
;
Structure prediction by ZEFSAII (Michael W. Deem and Ramdas Pophale) SiO2 
 PCOD9083862
Probable space group: P -1
;
_chemical_formula_sum "Si O2"
_cell_formula_units_Z 16
_cell_length_a 25.465048
_cell_length_b 15.869251
_cell_length_c 8.786646
_cell_angle_alpha 35.250189
_cell_angle_beta 147.414521
_cell_angle_gamma 160.938410
_cell_volume 620.373492
_symmetry_space_group_name_H-M "P -1"
_symmetry_group_IT_number 2
_symmetry_cell_setting 'triclinic'
loop_
_space_group_symop_operation_xyz
x,y,z
-x,-y,-z
loop_
_atom_site_type_symbol
_atom_site_label
_atom_site_fract_x
_atom_site_fract_y
_atom_site_fract_z
Si Si1 0.391552 0.390300 0.636039
Si Si2 0.181715 0.775995 0.607393
Si Si3 0.256613 0.419351 0.008434
Si Si4 0.594750 0.875882 0.609028
Si Si5 0.498237 0.812578 0.780752
Si Si6 0.091580 0.921314 0.793875
Si Si7 0.060570 0.942851 0.031105
Si Si8 0.155165 0.615203 0.114455
O O1 0.377463 0.462521 0.339836
O O2 0.504330 0.622826 0.687155
O O3 0.456097 0.304209 0.908170
O O4 0.199350 0.140463 0.607431
O O5 0.183058 0.714784 0.867968
O O6 0.000000 0.500000 0.500000
O O7 0.176321 0.945039 0.350759
O O8 0.341036 0.939646 0.641584
O O9 0.358747 0.659198 0.800222
O O10 0.124246 0.320284 0.955155
O O11 0.144525 0.183526 0.965466
O O12 0.470417 0.781666 0.576210
O O13 0.773198 0.041746 0.881256
O O14 0.663502 0.119946 0.756824
O O15 0.058770 0.955478 0.825911
O O16 0.919527 0.639066 0.719342
O O17 0.000000 0.500000 0.000000
#
# Coordination Sequence:
#
# PCOD9083862 Si02
#       8
#     2   2   2   2   2   2   2   2
#     4  11  20  34  59  88 116 147 196 244 292 334
#     4  11  19  36  62  87 111 150 192 237 288 346
#     4  11  23  38  58  89 118 157 190 243 284 346
#     4  10  19  34  58  88 115 146 189 248 292 336
#     4  11  20  35  58  86 124 147 194 242 289 337
#     4  10  20  37  56  88 117 153 190 239 291 341
#     4  10  22  40  59  84 119 156 195 231 296 344
#     4  12  20  35  60  94 116 144 193 247 288 340
#
# _framework density 25.790917
#
# number of rings (size 3 to 8) (size 9 to 14) (size 15 to 20)
#    0.000    1.250    5.000    5.625    0.000    0.500 
#    0.000    0.625    0.000    1.500    0.000    0.000 
#    0.000    0.000    0.000    0.000    0.000    0.000 
#
# Total GULP energy -89627.441455 kJ/mol
# GULP energy per Si atom -5601.715091 kJ/mol
# Density = 2.573222 g / cm^3
# Si number density = 25.790917 Si / 1000 Ang^3
#
#
#
# Elastic Constant Matrix: (Units=GPa)
#
#
# Indices 1 2 3 4 5 6 
#
# 1 127.0803 37.7444 44.7348 -15.3138 -41.5436 23.2212
# 2 37.7444 152.8102 38.1634 -23.6525 -28.1954 7.7516
# 3 44.7348 38.1634 100.5332 -24.2420 -37.3063 9.0588
# 4 -15.3138 -23.6525 -24.2420 39.0307 15.9619 -12.0245
# 5 -41.5436 -28.1954 -37.3063 15.9619 46.9277 -10.6447
# 6 23.2212 7.7516 9.0588 -12.0245 -10.6447 58.6093
#
#
#
# Elastic Compliance Matrix: (Units=1/GPa)
#
#
# Indices 1 2 3 4 5 6 
#
# 1 0.011926 -0.001015 -0.001955 -0.001452 0.008184 -0.003100
# 2 -0.001015 0.007890 -0.001098 0.003019 0.002061 0.000522
# 3 -0.001955 -0.001098 0.015494 0.005074 0.008451 0.001101
# 4 -0.001452 0.003019 0.005074 0.034049 -0.005812 0.005322
# 5 0.008184 0.002061 0.008451 -0.005812 0.038719 0.001018
# 6 -0.003100 0.000522 0.001101 0.005322 0.001018 0.019328
#
#
# Mechanical properties :
#
#
# Convention : Reuss Voigt Hill
#
# Bulk Modulus (GPa) = 36.79996 69.07876 52.93936
# Shear Modulus (GPa) = 34.57849 46.23229 40.40539
#
# Velocity S-wave (km/s) = 3.66556 4.23848 3.96239
# Velocity P-wave (km/s) = 5.67580 7.12708 6.44243
#
# Compressibility (1/GPa) = 0.02717394
#
# Stress axis : x y z
#
# Youngs Moduli (GPa) = 83.85285 126.74261 64.54116
#
# Poissons Ratio (x) = 0.12862 0.12619
# Poissons Ratio (y) = 0.08510 0.07085
# Poissons Ratio (z) = 0.16395 0.13914
#
# Static dielectric constant tensor:
#      x y z
#    x 2.071390 0.064420 0.081110 
#    y 0.064420 2.028710 0.042430 
#    z 0.081110 0.042430 2.098680 
# 
# From -- ./inp_files/354316.got.cif
#   From: 2010.05.17/outbox.cif.g08.bks.cpg/sg2_178_cif.got.tgz:354316.got - 2010.06.03 11:33:40.
