data_PCOD9083233
_publ_section_title
;
Structure prediction by ZEFSAII (Michael W. Deem and Ramdas Pophale) SiO2 
 PCOD9083233
Probable space group: P -1
;
_chemical_formula_sum "Si O2"
_cell_formula_units_Z 14
_cell_length_a 14.653408
_cell_length_b 13.187182
_cell_length_c 7.263031
_cell_angle_alpha 99.305411
_cell_angle_beta 99.188147
_cell_angle_gamma 149.908861
_cell_volume 552.655108
_symmetry_space_group_name_H-M "P -1"
_symmetry_group_IT_number 2
_symmetry_cell_setting 'triclinic'
loop_
_space_group_symop_operation_xyz
x,y,z
-x,-y,-z
loop_
_atom_site_type_symbol
_atom_site_label
_atom_site_fract_x
_atom_site_fract_y
_atom_site_fract_z
Si Si1 0.451528 0.215669 0.112702
Si Si2 0.681743 0.932080 0.472848
Si Si3 0.616037 0.513459 0.601172
Si Si4 0.201038 0.751113 0.517290
Si Si5 0.897568 0.973186 0.209663
Si Si6 0.367613 0.948828 0.253388
Si Si7 0.111796 0.266725 0.754043
O O1 0.560337 0.381291 0.376004
O O2 0.339517 0.994496 0.080605
O O3 0.676176 0.440841 0.120449
O O4 0.286625 0.135217 0.956104
O O5 0.516140 0.668267 0.321642
O O6 0.532738 0.867822 0.510579
O O7 0.786266 0.112667 0.405655
O O8 0.894586 0.108313 0.718904
O O9 0.500000 0.500000 0.500000
O O10 0.883274 0.799288 0.785504
O O11 0.440062 0.938585 0.696042
O O12 0.000000 0.500000 0.500000
O O13 0.176399 0.714125 0.271899
O O14 0.991760 0.111285 0.475709
O O15 0.826802 0.782695 0.160025
#
# Coordination Sequence:
#
# PCOD9083233 Si02
#       7
#     2   2   2   2   2   2   2
#     4  10  20  35  54  79 112 153 190 237 284 331
#     4   9  17  32  54  80 111 147 182 231 286 329
#     4  10  19  35  51  75 115 148 190 230 274 345
#     4   9  16  31  58  87 108 143 190 236 289 343
#     4  10  21  34  53  77 114 159 188 234 280 328
#     4   8  18  32  52  87 111 135 194 234 279 349
#     4  10  19  34  53  79 114 148 195 231 276 340
#
# _framework density 25.332253999999999
#
# number of rings (size 3 to 8) (size 9 to 14) (size 15 to 20)
#    0.857    1.714    1.429    1.286    0.000    0.571 
#    0.000    0.000    0.000    1.714    0.000    0.000 
#    0.000    0.000    0.000    0.000    0.000    0.000 
#
# Total GULP energy -77968.642604 kJ/mol
# GULP energy per Si atom -5569.188757 kJ/mol
# Density = 2.527460 g / cm^3
# Si number density = 25.332254 Si / 1000 Ang^3
#
#
#
# Elastic Constant Matrix: (Units=GPa)
#
#
# Indices 1 2 3 4 5 6 
#
# 1 93.3600 44.3994 18.4617 -4.0380 35.2833 -14.0078
# 2 44.3994 204.3739 34.6905 -5.9570 24.6271 -12.5468
# 3 18.4617 34.6905 85.1842 -16.8880 13.3281 -4.1877
# 4 -4.0380 -5.9570 -16.8880 35.3289 -0.8744 13.9690
# 5 35.2833 24.6271 13.3281 -0.8744 34.7841 -9.0425
# 6 -14.0078 -12.5468 -4.1877 13.9690 -9.0425 43.5986
#
#
#
# Elastic Compliance Matrix: (Units=1/GPa)
#
#
# Indices 1 2 3 4 5 6 
#
# 1 0.018171 -0.001757 -0.000452 0.000482 -0.016560 0.001700
# 2 -0.001757 0.005788 -0.001797 -0.000422 -0.001439 0.000765
# 3 -0.000452 -0.001797 0.014619 0.007545 -0.004351 -0.002578
# 4 0.000482 -0.000422 0.007545 0.036527 -0.005294 -0.012043
# 5 -0.016560 -0.001439 -0.004351 -0.005294 0.049616 0.005834
# 6 0.001700 0.000765 -0.002578 -0.012043 0.005834 0.028524
#
#
# Mechanical properties :
#
#
# Convention : Reuss Voigt Hill
#
# Bulk Modulus (GPa) = 32.71760 64.22463 48.47111
# Shear Modulus (GPa) = 29.16385 41.76677 35.46531
#
# Velocity S-wave (km/s) = 3.39669 4.06490 3.74572
# Velocity P-wave (km/s) = 5.32229 6.88761 6.15491
#
# Compressibility (1/GPa) = 0.03056459
#
# Stress axis : x y z
#
# Youngs Moduli (GPa) = 55.03383 172.77839 68.40379
#
# Poissons Ratio (x) = 0.30353 0.03095
# Poissons Ratio (y) = 0.09668 0.12294
# Poissons Ratio (z) = 0.02490 0.31053
#
# Static dielectric constant tensor:
#      x y z
#    x 2.122360 0.136870 -0.073590 
#    y 0.136870 2.289040 -0.078530 
#    z -0.073590 -0.078530 2.145160 
# 
# From -- ./inp_files/289068.got.cif
#   From: 2010.05.17/outbox.cif.g08.bks.cpg/sg2_145_cif.got.tgz:289068.got - 2010.06.03 11:33:40.
