data_PCOD9083489
_publ_section_title
;
Structure prediction by ZEFSAII (Michael W. Deem and Ramdas Pophale) SiO2 
 PCOD9083489
Probable space group: P -1
;
_chemical_formula_sum "Si O2"
_cell_formula_units_Z 16
_cell_length_a 9.736968
_cell_length_b 12.503932
_cell_length_c 7.008625
_cell_angle_alpha 61.813381
_cell_angle_beta 72.496616
_cell_angle_gamma 63.800554
_cell_volume 670.238735
_symmetry_space_group_name_H-M "P -1"
_symmetry_group_IT_number 2
_symmetry_cell_setting 'triclinic'
loop_
_space_group_symop_operation_xyz
x,y,z
-x,-y,-z
loop_
_atom_site_type_symbol
_atom_site_label
_atom_site_fract_x
_atom_site_fract_y
_atom_site_fract_z
Si Si1 0.019302 0.135400 0.810253
Si Si2 0.025666 0.313927 0.002711
Si Si3 0.206228 0.787986 0.658373
Si Si4 0.463456 0.173761 0.207327
Si Si5 0.540125 0.463422 0.299528
Si Si6 0.303104 0.719276 0.109677
Si Si7 0.225923 0.426359 0.086502
Si Si8 0.268106 0.020061 0.481179
O O1 0.146373 0.102886 0.619089
O O2 0.846310 0.230133 0.736807
O O3 0.069723 0.211110 0.897846
O O4 0.000000 0.000000 0.000000
O O5 0.939816 0.257340 0.248337
O O6 0.148992 0.357711 0.025039
O O7 0.904790 0.453546 0.860859
O O8 0.373533 0.690077 0.607855
O O9 0.188606 0.931593 0.481105
O O10 0.228396 0.776800 0.889989
O O11 0.351066 0.306238 0.244129
O O12 0.349801 0.099367 0.256402
O O13 0.589000 0.080229 0.375333
O O14 0.562580 0.220513 0.971224
O O15 0.500000 0.500000 0.500000
O O16 0.387111 0.564118 0.178784
O O17 0.674784 0.508873 0.129851
#
# Coordination Sequence:
#
# PCOD9083489 Si02
#       8
#     2   2   2   2   2   2   2   2
#     4  11  18  35  57  84 107 139 186 231 267 312
#     4   9  18  35  59  75 106 143 184 217 274 330
#     4   9  17  34  60  76 107 148 181 219 275 324
#     4   9  18  35  56  77 108 145 181 218 267 332
#     4  10  20  36  55  83 110 136 185 235 268 320
#     4   9  18  35  60  79 105 147 183 223 278 325
#     4   9  19  38  56  76 108 151 175 215 284 335
#     4  10  19  34  56  83 109 139 185 230 261 321
#
# _framework density 23.872091000000001
#
# number of rings (size 3 to 8) (size 9 to 14) (size 15 to 20)
#    0.000    2.500    3.750    0.375    0.000    3.000 
#   13.500    3.125    0.000    0.000    0.000    0.000 
#    0.000    0.000    0.000    0.000    0.000    0.000 
#
# Total GULP energy -89142.864496 kJ/mol
# GULP energy per Si atom -5571.429031 kJ/mol
# Density = 2.381776 g / cm^3
# Si number density = 23.872091 Si / 1000 Ang^3
#
#
#
# Elastic Constant Matrix: (Units=GPa)
#
#
# Indices 1 2 3 4 5 6 
#
# 1 81.2124 42.9144 20.7173 2.7073 -5.4960 -5.2180
# 2 42.9144 169.4027 22.9976 6.3967 -7.0120 -9.9152
# 3 20.7173 22.9976 40.4343 1.6233 -7.3642 -0.3026
# 4 2.7073 6.3967 1.6233 29.7017 -6.4527 1.5077
# 5 -5.4960 -7.0120 -7.3642 -6.4527 14.4178 -1.5398
# 6 -5.2180 -9.9152 -0.3026 1.5077 -1.5398 38.4263
#
#
#
# Elastic Compliance Matrix: (Units=1/GPa)
#
#
# Indices 1 2 3 4 5 6 
#
# 1 0.015624 -0.002992 -0.006014 -0.000198 0.001486 0.001369
# 2 -0.002992 0.007137 -0.002320 -0.001030 0.000844 0.001491
# 3 -0.006014 -0.002320 0.031519 0.002325 0.013643 -0.000712
# 4 -0.000198 -0.001030 0.002325 0.037599 0.017326 -0.001055
# 5 0.001486 0.000844 0.013643 0.017326 0.085407 0.003270
# 6 0.001369 0.001491 -0.000712 -0.001055 0.003270 0.026761
#
#
# Mechanical properties :
#
#
# Convention : Reuss Voigt Hill
#
# Bulk Modulus (GPa) = 31.61931 51.58979 41.60455
# Shear Modulus (GPa) = 21.07545 30.13717 25.60631
#
# Velocity S-wave (km/s) = 2.97450 3.55694 3.27868
# Velocity P-wave (km/s) = 5.00709 6.20701 5.63906
#
# Compressibility (1/GPa) = 0.03162625
#
# Stress axis : x y z
#
# Youngs Moduli (GPa) = 64.00383 140.11099 31.72723
#
# Poissons Ratio (x) = 0.41926 0.19082
# Poissons Ratio (y) = 0.19152 0.07361
# Poissons Ratio (z) = 0.38495 0.32506
#
# Static dielectric constant tensor:
#      x y z
#    x 1.962890 0.196920 -0.023730 
#    y 0.196920 1.611200 0.036970 
#    z -0.023730 0.036970 1.919320 
# 
# From -- ./inp_files/256706.got.cif
#   From: 2010.05.17/outbox.cif.g08.bks.cpg/sg2_129_cif.got.tgz:256706.got - 2010.06.03 11:33:40.
