data_PCOD9083676
_publ_section_title
;
Structure prediction by ZEFSAII (Michael W. Deem and Ramdas Pophale) SiO2 
 PCOD9083676
Probable space group: P -1
;
_chemical_formula_sum "Si O2"
_cell_formula_units_Z 16
_cell_length_a 15.217600
_cell_length_b 10.883856
_cell_length_c 13.589176
_cell_angle_alpha 34.328024
_cell_angle_beta 142.109833
_cell_angle_gamma 123.748466
_cell_volume 748.847033
_symmetry_space_group_name_H-M "P -1"
_symmetry_group_IT_number 2
_symmetry_cell_setting 'triclinic'
loop_
_space_group_symop_operation_xyz
x,y,z
-x,-y,-z
loop_
_atom_site_type_symbol
_atom_site_label
_atom_site_fract_x
_atom_site_fract_y
_atom_site_fract_z
Si Si1 0.704253 0.593610 0.088937
Si Si2 0.385622 0.027430 0.071678
Si Si3 0.286316 0.389651 0.599979
Si Si4 0.320264 0.574407 0.302714
Si Si5 0.998698 0.352922 0.695218
Si Si6 0.806588 0.102077 0.608789
Si Si7 0.326738 0.219313 0.404156
Si Si8 0.533532 0.297281 0.362710
O O1 0.748321 0.338230 0.339367
O O2 0.842135 0.652789 0.116688
O O3 0.568771 0.628664 0.871606
O O4 0.665542 0.769114 0.029465
O O5 0.295368 0.839320 0.128111
O O6 0.561262 0.922106 0.319250
O O7 0.343365 0.132678 0.857027
O O8 0.269966 0.449706 0.432079
O O9 0.134352 0.513939 0.440299
O O10 0.413944 0.499314 0.678798
O O11 0.500000 0.500000 0.500000
O O12 0.265708 0.474274 0.222775
O O13 0.959912 0.124382 0.776785
O O14 0.000000 0.500000 0.500000
O O15 0.685675 0.123525 0.574689
O O16 0.795687 0.898696 0.663693
O O17 0.442085 0.211612 0.421808
#
# Coordination Sequence:
#
# PCOD9083676 Si02
#       8
#     2   2   2   2   2   2   2   2
#     4  11  20  34  59  92 115 150 195 240 303 361
#     4  11  20  35  62  84 121 153 196 240 291 352
#     4  11  20  39  64  87 119 160 192 246 298 343
#     4  10  23  39  54  90 122 155 204 242 284 343
#     4   9  19  36  60  89 120 149 197 242 299 362
#     4  10  19  34  57  85 117 151 190 245 302 343
#     4  11  22  36  54  86 126 149 193 252 283 350
#     4  11  19  33  57  89 119 147 190 242 306 340
#
# _framework density 21.36618
#
# number of rings (size 3 to 8) (size 9 to 14) (size 15 to 20)
#    0.000    1.500    7.500    1.500    0.000    2.000 
#    2.250    2.500    0.000    6.000    0.000    0.000 
#    0.000    0.000    0.000    0.000    0.000    0.000 
#
# Total GULP energy -89307.778335 kJ/mol
# GULP energy per Si atom -5581.736146 kJ/mol
# Density = 2.131755 g / cm^3
# Si number density = 21.366180 Si / 1000 Ang^3
#
#
#
# Elastic Constant Matrix: (Units=GPa)
#
#
# Indices 1 2 3 4 5 6 
#
# 1 77.6503 27.2858 -2.5629 -7.6281 -11.2329 13.3898
# 2 27.2858 113.1875 0.9457 -3.5483 0.2557 -3.5136
# 3 -2.5629 0.9457 33.2360 -7.9098 -15.7825 7.0642
# 4 -7.6281 -3.5483 -7.9098 18.2383 8.1900 11.7837
# 5 -11.2329 0.2557 -15.7825 8.1900 22.1436 1.2988
# 6 13.3898 -3.5136 7.0642 11.7837 1.2988 28.6035
#
#
#
# Elastic Compliance Matrix: (Units=1/GPa)
#
#
# Indices 1 2 3 4 5 6 
#
# 1 0.033986 -0.008597 0.037905 0.045338 0.030307 -0.046381
# 2 -0.008597 0.011086 -0.010117 -0.009862 -0.008776 0.012346
# 3 0.037905 -0.010117 0.100473 0.078866 0.066438 -0.079307
# 4 0.045338 -0.009862 0.078866 0.167825 0.023828 -0.112132
# 5 0.030307 -0.008776 0.066438 0.023828 0.101879 -0.046116
# 6 -0.046381 0.012346 -0.079307 -0.112132 -0.046116 0.126064
#
#
# Mechanical properties :
#
#
# Convention : Reuss Voigt Hill
#
# Bulk Modulus (GPa) = 5.43691 30.60123 18.01907
# Shear Modulus (GPa) = 8.86150 27.02411 17.94280
#
# Velocity S-wave (km/s) = 2.03874 3.56027 2.90103
# Velocity P-wave (km/s) = 2.84466 5.59054 4.43543
#
# Compressibility (1/GPa) = 0.18392816
#
# Stress axis : x y z
#
# Youngs Moduli (GPa) = 29.42392 90.20653 9.95292
#
# Poissons Ratio (x) = 0.77546 -0.37727
# Poissons Ratio (y) = 0.25294 0.10069
# Poissons Ratio (z) = -1.11531 0.91260
#
# Static dielectric constant tensor:
#      x y z
#    x 1.802870 0.003180 -0.019740 
#    y 0.003180 1.804420 -0.021600 
#    z -0.019740 -0.021600 1.860730 
# 
# From -- ./inp_files/521758.got.cif
#   From: 2010.05.17/outbox.cif.g08.bks.cpg/sg2_261_cif.got.tgz:521758.got - 2010.06.03 11:33:40.
