data_PCOD9083261
_publ_section_title
;
Structure prediction by ZEFSAII (Michael W. Deem and Ramdas Pophale) SiO2 
 PCOD9083261
Probable space group: P -1
;
_chemical_formula_sum "Si O2"
_cell_formula_units_Z 16
_cell_length_a 9.350177
_cell_length_b 10.495979
_cell_length_c 9.369436
_cell_angle_alpha 108.599228
_cell_angle_beta 134.104131
_cell_angle_gamma 70.666550
_cell_volume 617.701662
_symmetry_space_group_name_H-M "P -1"
_symmetry_group_IT_number 2
_symmetry_cell_setting 'triclinic'
loop_
_space_group_symop_operation_xyz
x,y,z
-x,-y,-z
loop_
_atom_site_type_symbol
_atom_site_label
_atom_site_fract_x
_atom_site_fract_y
_atom_site_fract_z
Si Si1 0.333668 0.310959 0.388931
Si Si2 0.882122 0.424451 0.066049
Si Si3 0.639996 0.898461 0.412170
Si Si4 0.954380 0.682630 0.387148
Si Si5 0.058575 0.906930 0.366126
Si Si6 0.667960 0.013197 0.002812
Si Si7 0.537310 0.560065 0.726317
Si Si8 0.277505 0.686242 0.833005
O O1 0.381520 0.190432 0.493720
O O2 0.391545 0.452743 0.543611
O O3 0.455845 0.311247 0.326021
O O4 0.098233 0.331155 0.190957
O O5 0.900303 0.558326 0.217613
O O6 0.725828 0.347988 0.016560
O O7 0.765108 0.475460 0.859343
O O8 0.760236 0.788472 0.343555
O O9 0.437459 0.967969 0.216870
O O10 0.775788 0.018008 0.567747
O O11 0.083786 0.642869 0.604956
O O12 0.094946 0.758822 0.409363
O O13 0.866257 0.904641 0.128966
O O14 0.000000 0.000000 0.500000
O O15 0.746011 0.153629 0.140660
O O16 0.500000 0.000000 0.000000
O O17 0.468351 0.616064 0.853166
#
# Coordination Sequence:
#
# PCOD9083261 Si02
#       8
#     2   2   2   2   2   2   2   2
#     4  11  23  42  59  83 122 160 194 236 294 352
#     4  12  22  39  62  88 117 155 195 243 295 345
#     4  11  20  36  59  85 115 156 193 240 290 347
#     4  11  19  34  59  86 119 148 186 246 295 333
#     4  10  19  34  53  90 116 148 189 239 291 341
#     4  12  20  33  60  90 118 149 189 246 297 339
#     4  11  25  38  57  90 120 156 196 237 292 358
#     4  12  21  37  60  92 121 148 194 247 294 341
#
# _framework density 25.902474000000002
#
# number of rings (size 3 to 8) (size 9 to 14) (size 15 to 20)
#    0.000    0.750    7.500    3.375    0.000    0.000 
#    0.000    0.000    0.000    3.750    0.000    0.000 
#    0.000    0.000    0.000    0.000    0.000    0.000 
#
# Total GULP energy -89587.360878 kJ/mol
# GULP energy per Si atom -5599.210055 kJ/mol
# Density = 2.584352 g / cm^3
# Si number density = 25.902474 Si / 1000 Ang^3
#
#
#
# Elastic Constant Matrix: (Units=GPa)
#
#
# Indices 1 2 3 4 5 6 
#
# 1 99.5548 35.9648 38.1348 -15.1872 -0.5602 23.1778
# 2 35.9648 87.7751 20.1002 -14.3745 -19.1391 45.7129
# 3 38.1348 20.1002 122.2835 -32.5205 11.7926 9.0586
# 4 -15.1872 -14.3745 -32.5205 51.2122 2.4561 -10.8638
# 5 -0.5602 -19.1391 11.7926 2.4561 20.4992 -10.4869
# 6 23.1778 45.7129 9.0586 -10.8638 -10.4869 54.7557
#
#
#
# Elastic Compliance Matrix: (Units=1/GPa)
#
#
# Indices 1 2 3 4 5 6 
#
# 1 0.013221 -0.004319 -0.002780 0.000670 -0.003179 -0.002007
# 2 -0.004319 0.026338 -0.003710 -0.000549 0.018423 -0.016127
# 3 -0.002780 -0.003710 0.012393 0.006842 -0.010706 0.001531
# 4 0.000670 -0.000549 0.006842 0.024801 -0.005958 0.002822
# 5 -0.003179 0.018423 -0.010706 -0.005958 0.073047 0.000545
# 6 -0.002007 -0.016127 0.001531 0.002822 0.000545 0.032987
#
#
# Mechanical properties :
#
#
# Convention : Reuss Voigt Hill
#
# Bulk Modulus (GPa) = 32.96588 55.33478 44.15033
# Shear Modulus (GPa) = 23.30818 39.65431 31.48125
#
# Velocity S-wave (km/s) = 3.00299 3.91693 3.49001
# Velocity P-wave (km/s) = 4.97780 6.47036 5.77252
#
# Compressibility (1/GPa) = 0.03033440
#
# Stress axis : x y z
#
# Youngs Moduli (GPa) = 75.63522 37.96799 80.68945
#
# Poissons Ratio (x) = 0.16398 0.22430
# Poissons Ratio (y) = 0.32667 0.29938
# Poissons Ratio (z) = 0.21025 0.14087
#
# Static dielectric constant tensor:
#      x y z
#    x 2.098580 -0.039080 0.006240 
#    y -0.039080 1.990730 -0.019790 
#    z 0.006240 -0.019790 2.050110 
# 
# From -- ./inp_files/188023.got.cif
#   From: 2010.05.17/outbox.cif.g08.bks.cpg/sg2_95_cif.got.tgz:188023.got - 2010.06.03 11:33:40.
