data_PCOD9083041
_publ_section_title
;
Structure prediction by ZEFSAII (Michael W. Deem and Ramdas Pophale) SiO2 
 PCOD9083041
Probable space group: P -1
;
_chemical_formula_sum "Si O2"
_cell_formula_units_Z 13
_cell_length_a 15.533239
_cell_length_b 12.665768
_cell_length_c 12.583054
_cell_angle_alpha 157.603687
_cell_angle_beta 145.565977
_cell_angle_gamma 34.894960
_cell_volume 513.914900
_symmetry_space_group_name_H-M "P -1"
_symmetry_group_IT_number 2
_symmetry_cell_setting 'triclinic'
loop_
_space_group_symop_operation_xyz
x,y,z
-x,-y,-z
loop_
_atom_site_type_symbol
_atom_site_label
_atom_site_fract_x
_atom_site_fract_y
_atom_site_fract_z
Si Si1 0.643398 0.499622 0.509240
Si Si2 0.120598 0.820259 0.246377
Si Si3 0.412479 0.765794 0.350436
Si Si4 0.270464 0.366967 0.691785
Si Si5 0.500000 0.000000 0.000000
Si Si6 0.009879 0.322526 0.737079
Si Si7 0.041408 0.807656 0.754889
O O1 0.573380 0.655018 0.473003
O O2 0.830121 0.381622 0.574568
O O3 0.566649 0.242031 0.223836
O O4 0.601382 0.737571 0.781458
O O5 0.285350 0.844220 0.390256
O O6 0.093712 0.989012 0.488446
O O7 0.984781 0.986019 0.180960
O O8 0.114075 0.494200 0.937527
O O9 0.373477 0.040684 0.489591
O O10 0.363986 0.520207 0.007427
O O11 0.209814 0.578383 0.727521
O O12 0.099191 0.349207 0.543955
O O13 0.000000 0.500000 0.000000
O O14 0.000000 0.000000 0.000000
#
# Coordination Sequence:
#
# PCOD9083041 Si02
#       7
#     2   2   2   2   1   2   2
#     4  11  25  44  67  91 131 172 219 285 328 391
#     4  11  24  40  67  97 129 177 215 276 326 398
#     4  11  22  38  65  99 125 169 223 264 325 386
#     4  10  19  33  60  99 132 157 206 282 315 374
#     4  10  24  42  70  90 112 174 236 272 322 374
#     4  12  28  45  63  95 140 174 219 267 344 392
#     4  10  19  36  63 101 136 160 218 277 330 372
#
# _framework density 25.296016999999999
#
# number of rings (size 3 to 8) (size 9 to 14) (size 15 to 20)
#    0.000    1.231    3.077    4.154    8.615    0.000 
#    0.000    0.000    0.000    5.538    0.000    0.000 
#    0.000    0.000    0.000    0.000    0.000    0.000 
#
# Total GULP energy -72450.335519 kJ/mol
# GULP energy per Si atom -5573.102732 kJ/mol
# Density = 2.523844 g / cm^3
# Si number density = 25.296017 Si / 1000 Ang^3
#
#
#
# Elastic Constant Matrix: (Units=GPa)
#
#
# Indices 1 2 3 4 5 6 
#
# 1 55.2367 2.5581 11.7424 0.9831 -24.4904 -22.9763
# 2 2.5581 81.2880 15.4156 -18.7972 34.7845 5.6803
# 3 11.7424 15.4156 119.0362 35.8018 -1.3487 -4.9023
# 4 0.9831 -18.7972 35.8018 43.4822 21.9493 0.3704
# 5 -24.4904 34.7845 -1.3487 21.9493 -6.8673 -0.6332
# 6 -22.9763 5.6803 -4.9023 0.3704 -0.6332 26.4222
#
#
#
# Elastic Compliance Matrix: (Units=1/GPa)
#
#
# Indices 1 2 3 4 5 6 
#
# 1 0.021254 0.005968 -0.005765 0.011431 -0.009349 0.015745
# 2 0.005968 0.007251 -0.000787 -0.001562 0.010257 0.003753
# 3 -0.005765 -0.000787 0.010790 -0.006313 -0.005459 -0.002884
# 4 0.011431 -0.001562 -0.006313 0.019729 0.014770 0.009182
# 5 -0.009349 0.010257 -0.005459 0.014770 -0.010952 -0.011817
# 6 0.015745 0.003753 -0.002884 0.009182 -0.011817 0.049785
#
#
# Mechanical properties :
#
#
# Convention : Reuss Voigt Hill
#
# Bulk Modulus (GPa) = 26.22877 34.99924 30.61400
# Shear Modulus (GPa) = 44.75007 27.66376 36.20692
#
# Velocity S-wave (km/s) = 4.21058 3.31055 3.78740
# Velocity P-wave (km/s) = 5.83351 5.33656 5.59056
#
# Compressibility (1/GPa) = 0.03812608
#
# Stress axis : x y z
#
# Youngs Moduli (GPa) = 47.05015 137.91996 92.68147
#
# Poissons Ratio (x) = -0.82313 0.53432
# Poissons Ratio (y) = -0.28080 0.07295
# Poissons Ratio (z) = 0.27125 0.10855
#
# Static dielectric constant tensor:
#      x y z
#    x 2.132530 0.053290 0.010200 
#    y 0.053290 1.910940 0.046770 
#    z 0.010200 0.046770 1.932720 
# 
# From -- ./inp_files/538787.got.cif
#   From: 2010.05.17/outbox.cif.g08.bks.cpg/sg2_270_cif.got.tgz:538787.got - 2010.06.03 11:33:40.
