data_PCOD9083758
_publ_section_title
;
Structure prediction by ZEFSAII (Michael W. Deem and Ramdas Pophale) SiO2 
 PCOD9083758
Probable space group: P -1
;
_chemical_formula_sum "Si O2"
_cell_formula_units_Z 16
_cell_length_a 16.485549
_cell_length_b 19.732479
_cell_length_c 8.318478
_cell_angle_alpha 105.332421
_cell_angle_beta 109.652097
_cell_angle_gamma 18.088817
_cell_volume 776.988996
_symmetry_space_group_name_H-M "P -1"
_symmetry_group_IT_number 2
_symmetry_cell_setting 'triclinic'
loop_
_space_group_symop_operation_xyz
x,y,z
-x,-y,-z
loop_
_atom_site_type_symbol
_atom_site_label
_atom_site_fract_x
_atom_site_fract_y
_atom_site_fract_z
Si Si1 0.349549 0.043506 0.267746
Si Si2 0.783945 0.466105 0.074167
Si Si3 0.088668 0.355882 0.540185
Si Si4 0.531615 0.753985 0.332782
Si Si5 0.906892 0.978652 0.583418
Si Si6 0.878241 0.163579 0.938426
Si Si7 0.286202 0.596278 0.750287
Si Si8 0.285800 0.824852 0.755368
O O1 0.222268 0.201939 0.398040
O O2 0.102058 0.224260 0.091148
O O3 0.655612 0.829433 0.286632
O O4 0.396907 0.934709 0.331129
O O5 0.651576 0.639689 0.166155
O O6 0.769873 0.430249 0.205082
O O7 0.582748 0.589381 0.884871
O O8 0.000000 0.500000 0.500000
O O9 0.790272 0.555489 0.502397
O O10 0.307641 0.873480 0.325564
O O11 0.733570 0.127635 0.402934
O O12 0.101964 0.758902 0.578365
O O13 0.117754 0.881155 0.676113
O O14 0.605491 0.356144 0.779704
O O15 0.791456 0.284640 0.093267
O O16 0.108209 0.010688 0.874481
O O17 0.000000 0.000000 0.000000
#
# Coordination Sequence:
#
# PCOD9083758 Si02
#       8
#     2   2   2   2   2   2   2   2
#     4   9  17  31  56  87 115 134 180 226 271 330
#     4  11  20  33  56  82 106 147 189 228 270 322
#     4   8  16  31  55  91 114 135 169 231 277 320
#     4  10  19  34  58  80 113 147 181 224 276 326
#     4  11  22  37  51  77 112 150 190 230 275 324
#     4  11  19  34  54  71  97 138 187 235 273 316
#     4  11  20  32  56  75  96 139 191 227 272 325
#     4  11  23  36  52  75 113 152 187 235 276 311
#
# _framework density 20.592310999999999
#
# number of rings (size 3 to 8) (size 9 to 14) (size 15 to 20)
#    0.000    1.750    3.750    2.250    0.000    0.500 
#    0.000    1.250    0.000    0.750    0.000   29.750 
#    0.000    0.000    0.000    0.000    0.000    0.000 
#
# Total GULP energy -89081.912732 kJ/mol
# GULP energy per Si atom -5567.619546 kJ/mol
# Density = 2.054544 g / cm^3
# Si number density = 20.592311 Si / 1000 Ang^3
#
#
#
# Elastic Constant Matrix: (Units=GPa)
#
#
# Indices 1 2 3 4 5 6 
#
# 1 50.7151 24.9924 29.0444 -15.2774 14.4578 8.6967
# 2 24.9924 104.9420 34.4061 -41.2729 17.5002 0.1245
# 3 29.0444 34.4061 82.3721 -43.2654 9.7711 -16.3846
# 4 -15.2774 -41.2729 -43.2654 46.1594 -11.9548 22.8062
# 5 14.4578 17.5002 9.7711 -11.9548 25.9171 -13.2380
# 6 8.6967 0.1245 -16.3846 22.8062 -13.2380 42.3016
#
#
#
# Elastic Compliance Matrix: (Units=1/GPa)
#
#
# Indices 1 2 3 4 5 6 
#
# 1 0.043164 0.004721 -0.012073 0.014369 -0.032104 -0.031358
# 2 0.004721 0.021938 0.002565 0.029995 -0.015306 -0.021003
# 3 -0.012073 0.002565 0.028464 0.025969 0.007135 0.001732
# 4 0.014369 0.029995 0.025969 0.098279 -0.019291 -0.052006
# 5 -0.032104 -0.015306 0.007135 -0.019291 0.077794 0.044154
# 6 -0.031358 -0.021003 0.001732 -0.052006 0.044154 0.072675
#
#
# Mechanical properties :
#
#
# Convention : Reuss Voigt Hill
#
# Bulk Modulus (GPa) = 11.90614 46.10169 29.00391
# Shear Modulus (GPa) = 13.16186 32.84804 23.00495
#
# Velocity S-wave (km/s) = 2.53091 3.99828 3.34602
# Velocity P-wave (km/s) = 3.78617 6.61448 5.38918
#
# Compressibility (1/GPa) = 0.08399030
#
# Stress axis : x y z
#
# Youngs Moduli (GPa) = 23.16754 45.58298 35.13229
#
# Poissons Ratio (x) = -0.21519 0.42416
# Poissons Ratio (y) = -0.10937 -0.09010
# Poissons Ratio (z) = 0.27971 -0.11690
#
# Static dielectric constant tensor:
#      x y z
#    x 1.785590 0.011750 0.073200 
#    y 0.011750 1.802430 -0.036270 
#    z 0.073200 -0.036270 1.847390 
# 
# From -- ./inp_files/337236.got.cif
#   From: 2010.05.17/outbox.cif.g08.bks.cpg/sg2_169_cif.got.tgz:337236.got - 2010.06.03 11:33:40.
