data_PCOD9083181
_publ_section_title
;
Structure prediction by ZEFSAII (Michael W. Deem and Ramdas Pophale) SiO2 
 PCOD9083181
Probable space group: P -1
;
_chemical_formula_sum "Si O2"
_cell_formula_units_Z 16
_cell_length_a 17.001321
_cell_length_b 20.253822
_cell_length_c 9.104906
_cell_angle_alpha 38.886670
_cell_angle_beta 132.219237
_cell_angle_gamma 160.929687
_cell_volume 611.275570
_symmetry_space_group_name_H-M "P -1"
_symmetry_group_IT_number 2
_symmetry_cell_setting 'triclinic'
loop_
_space_group_symop_operation_xyz
x,y,z
-x,-y,-z
loop_
_atom_site_type_symbol
_atom_site_label
_atom_site_fract_x
_atom_site_fract_y
_atom_site_fract_z
Si Si1 0.681644 0.628577 0.313735
Si Si2 0.576867 0.075370 0.639358
Si Si3 0.919247 0.289908 0.332464
Si Si4 0.880780 0.523136 0.424824
Si Si5 0.319519 0.259856 0.276954
Si Si6 0.992270 0.160765 0.077264
Si Si7 0.778137 0.947710 0.885564
Si Si8 0.970178 0.772992 0.649876
O O1 0.460008 0.361639 0.427839
O O2 0.628647 0.704783 0.093998
O O3 0.750563 0.650820 0.523080
O O4 0.935420 0.829381 0.189821
O O5 0.698538 0.284385 0.517345
O O6 0.828095 0.228536 0.699474
O O7 0.500000 0.000000 0.500000
O O8 0.289021 0.810026 0.800301
O O9 0.095201 0.475388 0.372396
O O10 0.044803 0.349696 0.243794
O O11 0.755537 0.042440 0.621735
O O12 0.816021 0.585519 0.203285
O O13 0.086391 0.126208 0.251227
O O14 0.219507 0.065526 0.412730
O O15 0.500000 0.500000 0.000000
O O16 0.764875 0.955308 0.030602
O O17 0.999731 0.206923 0.173552
#
# Coordination Sequence:
#
# PCOD9083181 Si02
#       8
#     2   2   2   2   2   2   2   2
#     4  10  19  34  52  75 106 153 198 232 271 329
#     4   9  18  37  64  93 107 135 190 241 280 340
#     4   9  19  33  59  82 111 153 186 227 279 344
#     4   9  20  37  62  87 113 141 189 235 286 341
#     4  12  22  35  60  81 109 164 209 230 273 335
#     4  11  22  38  55  83 121 153 186 248 288 323
#     4   9  17  34  53  77 111 143 193 238 273 322
#     4  11  24  38  51  84 128 151 189 241 284 323
#
# _framework density 26.174773999999999
#
# number of rings (size 3 to 8) (size 9 to 14) (size 15 to 20)
#    0.000    2.000    2.500    1.875    3.500    0.500 
#    0.000    0.625    0.000    6.750    0.000    0.000 
#    0.000    0.000    0.000    0.000    0.000    0.000 
#
# Total GULP energy -89211.970576 kJ/mol
# GULP energy per Si atom -5575.748161 kJ/mol
# Density = 2.611520 g / cm^3
# Si number density = 26.174774 Si / 1000 Ang^3
#
#
#
# Elastic Constant Matrix: (Units=GPa)
#
#
# Indices 1 2 3 4 5 6 
#
# 1 119.0833 28.4234 15.4244 7.6471 3.3095 -44.7710
# 2 28.4234 126.6117 13.1706 17.8729 1.6885 -35.1047
# 3 15.4244 13.1706 77.2188 18.5163 -15.7961 -9.9145
# 4 7.6471 17.8729 18.5163 31.2892 -10.0552 -4.2427
# 5 3.3095 1.6885 -15.7961 -10.0552 31.1173 -0.9915
# 6 -44.7710 -35.1047 -9.9145 -4.2427 -0.9915 53.7085
#
#
#
# Elastic Compliance Matrix: (Units=1/GPa)
#
#
# Indices 1 2 3 4 5 6 
#
# 1 0.012513 0.000486 -0.001265 -0.001925 -0.002292 0.010320
# 2 0.000486 0.010544 -0.000089 -0.005933 -0.002371 0.006768
# 3 -0.001265 -0.000089 0.016387 -0.007149 0.006194 0.001462
# 4 -0.001925 -0.005933 -0.007149 0.043057 0.010709 -0.003203
# 5 -0.002292 -0.002371 0.006194 0.010709 0.039090 -0.000749
# 6 0.010320 0.006768 0.001462 -0.003203 -0.000749 0.031649
#
#
# Mechanical properties :
#
#
# Convention : Reuss Voigt Hill
#
# Bulk Modulus (GPa) = 26.51837 48.55009 37.53423
# Shear Modulus (GPa) = 29.84290 40.94936 35.39613
#
# Velocity S-wave (km/s) = 3.38026 3.95962 3.68135
# Velocity P-wave (km/s) = 5.03866 6.28438 5.69568
#
# Compressibility (1/GPa) = 0.03770970
#
# Stress axis : x y z
#
# Youngs Moduli (GPa) = 79.91916 94.84085 61.02359
#
# Poissons Ratio (x) = -0.04612 0.07717
# Poissons Ratio (y) = -0.03887 0.00541
# Poissons Ratio (z) = 0.10107 0.00841
#
# Static dielectric constant tensor:
#      x y z
#    x 2.133510 0.030370 -0.032710 
#    y 0.030370 2.059470 0.006350 
#    z -0.032710 0.006350 2.160770 
# 
# From -- ./inp_files/225252.got.cif
#   From: 2010.05.17/outbox.cif.g08.bks.cpg/sg2_113_cif.got.tgz:225252.got - 2010.06.03 11:33:40.
