data_PCOD9083028
_publ_section_title
;
Structure prediction by ZEFSAII (Michael W. Deem and Ramdas Pophale) SiO2 
 PCOD9083028
Probable space group: P -1
;
_chemical_formula_sum "Si O2"
_cell_formula_units_Z 16
_cell_length_a 11.464458
_cell_length_b 29.032403
_cell_length_c 14.603699
_cell_angle_alpha 162.284879
_cell_angle_beta 30.516623
_cell_angle_gamma 150.584360
_cell_volume 709.878745
_symmetry_space_group_name_H-M "P -1"
_symmetry_group_IT_number 2
_symmetry_cell_setting 'triclinic'
loop_
_space_group_symop_operation_xyz
x,y,z
-x,-y,-z
loop_
_atom_site_type_symbol
_atom_site_label
_atom_site_fract_x
_atom_site_fract_y
_atom_site_fract_z
Si Si1 0.486350 0.167488 0.577912
Si Si2 0.108122 0.186141 0.743273
Si Si3 0.092426 0.659214 0.507431
Si Si4 0.116144 0.482130 0.789707
Si Si5 0.780138 0.846284 0.890073
Si Si6 0.377778 0.798982 0.924852
Si Si7 0.607219 0.744683 0.995578
Si Si8 0.501370 0.183555 0.330586
O O1 0.313288 0.254674 0.811933
O O2 0.722878 0.208713 0.433167
O O3 0.503614 0.209086 0.750600
O O4 0.383898 0.978266 0.282707
O O5 0.258748 0.189495 0.555424
O O6 0.000000 0.000000 0.500000
O O7 0.913424 0.277710 0.035034
O O8 0.263959 0.688324 0.536277
O O9 0.019427 0.511009 0.202722
O O10 0.842517 0.692684 0.762992
O O11 0.127961 0.304068 0.445925
O O12 0.387026 0.603905 0.834600
O O13 0.000000 0.500000 0.000000
O O14 0.552854 0.777480 0.844641
O O15 0.694962 0.877042 0.107433
O O16 0.000000 0.000000 0.000000
O O17 0.489808 0.788129 0.729691
O O18 0.500000 0.000000 0.000000
#
# Coordination Sequence:
#
# PCOD9083028 Si02
#       8
#     2   2   2   2   2   2   2   2
#     4  10  19  33  60  94 122 165 217 262 303 389
#     4   9  18  30  52  84 120 164 214 247 312 382
#     4  10  19  35  60  93 118 155 225 266 293 374
#     4  11  23  46  70  92 124 178 224 254 314 403
#     4  11  26  42  63  98 139 162 209 278 331 367
#     4  11  21  36  54  88 138 159 203 266 331 366
#     4  11  23  40  69  89 126 177 216 251 326 386
#     4  11  19  32  58  87 126 169 203 262 319 372
#
# _framework density 22.539059999999999
#
# number of rings (size 3 to 8) (size 9 to 14) (size 15 to 20)
#    0.000    1.500    5.000    3.750    1.750    0.500 
#    2.250    0.000    0.000    7.500    0.000    0.000 
#    0.000    0.000    0.000    0.000    0.000    0.000 
#
# Total GULP energy -89120.590921 kJ/mol
# GULP energy per Si atom -5570.036933 kJ/mol
# Density = 2.248776 g / cm^3
# Si number density = 22.539060 Si / 1000 Ang^3
#
#
#
# Elastic Constant Matrix: (Units=GPa)
#
#
# Indices 1 2 3 4 5 6 
#
# 1 113.1623 -5.2418 20.4354 -10.2405 15.0372 4.0221
# 2 -5.2418 59.3586 10.6156 -2.9486 1.4584 4.7064
# 3 20.4354 10.6156 30.8330 -13.7848 20.5157 -8.2527
# 4 -10.2405 -2.9486 -13.7848 25.2113 1.4457 11.9691
# 5 15.0372 1.4584 20.5157 1.4457 38.3388 -13.4089
# 6 4.0221 4.7064 -8.2527 11.9691 -13.4089 35.8554
#
#
#
# Elastic Compliance Matrix: (Units=1/GPa)
#
#
# Indices 1 2 3 4 5 6 
#
# 1 0.011067 0.002651 -0.004551 0.005452 -0.004338 -0.006079
# 2 0.002651 0.019520 -0.013366 -0.002527 0.004239 -0.003507
# 3 -0.004551 -0.013366 0.110662 0.070881 -0.066925 -0.020954
# 4 0.005452 -0.002527 0.070881 0.102545 -0.057757 -0.039796
# 5 -0.004338 0.004239 -0.066925 -0.057757 0.077019 0.032610
# 6 -0.006079 -0.003507 -0.020954 -0.039796 0.032610 0.049689
#
#
# Mechanical properties :
#
#
# Convention : Reuss Voigt Hill
#
# Bulk Modulus (GPa) = 9.03208 28.33024 18.68116
# Shear Modulus (GPa) = 11.41709 31.71742 21.56725
#
# Velocity S-wave (km/s) = 2.25310 3.75536 3.09671
# Velocity P-wave (km/s) = 3.28399 5.60360 4.59266
#
# Compressibility (1/GPa) = 0.11071643
#
# Stress axis : x y z
#
# Youngs Moduli (GPa) = 90.35566 51.23049 9.03652
#
# Poissons Ratio (x) = -0.13579 0.04113
# Poissons Ratio (y) = -0.23950 0.12078
# Poissons Ratio (z) = 0.41121 0.68475
#
# Static dielectric constant tensor:
#      x y z
#    x 2.174480 0.130640 -0.093100 
#    y 0.130640 1.966200 -0.049540 
#    z -0.093100 -0.049540 1.848280 
# 
# From -- ./inp_files/524634.got.cif
#   From: 2010.05.17/outbox.cif.g08.bks.cpg/sg2_263_cif.got.tgz:524634.got - 2010.06.03 11:33:40.
