data_PCOD9083648
_publ_section_title
;
Structure prediction by ZEFSAII (Michael W. Deem and Ramdas Pophale) SiO2 
 PCOD9083648
Probable space group: P -1
;
_chemical_formula_sum "Si O2"
_cell_formula_units_Z 12
_cell_length_a 9.552380
_cell_length_b 8.700090
_cell_length_c 14.122454
_cell_angle_alpha 124.483635
_cell_angle_beta 129.312916
_cell_angle_gamma 90.295842
_cell_volume 614.723893
_symmetry_space_group_name_H-M "P -1"
_symmetry_group_IT_number 2
_symmetry_cell_setting 'triclinic'
loop_
_space_group_symop_operation_xyz
x,y,z
-x,-y,-z
loop_
_atom_site_type_symbol
_atom_site_label
_atom_site_fract_x
_atom_site_fract_y
_atom_site_fract_z
Si Si1 0.346070 0.637605 0.165145
Si Si2 0.439716 0.426500 0.303844
Si Si3 0.173375 0.201900 0.283144
Si Si4 0.185953 0.964911 0.534239
Si Si5 0.910121 0.197626 0.777411
Si Si6 0.852017 0.436488 0.506392
O O1 0.396175 0.503852 0.215080
O O2 0.567499 0.814477 0.265642
O O3 0.265528 0.768914 0.236877
O O4 0.135600 0.446154 0.948792
O O5 0.584425 0.654801 0.510884
O O6 0.604567 0.349217 0.338803
O O7 0.228584 0.244976 0.211367
O O8 0.054417 0.954207 0.188753
O O9 0.166889 0.922650 0.398573
O O10 0.071894 0.337515 0.321946
O O11 0.000000 0.000000 0.500000
O O12 0.848560 0.250228 0.502449
O O13 0.000000 0.500000 0.500000
#
# Coordination Sequence:
#
# PCOD9083648 Si02
#       6
#     2   2   2   2   2   2
#     4  11  23  38  61  91 121 155 197 243 294 349
#     4   9  18  34  56  84 111 155 190 234 289 338
#     4   9  18  34  56  84 111 155 190 234 289 338
#     4  12  23  40  65  84 120 158 194 248 295 352
#     4  11  23  38  61  91 121 155 197 243 294 349
#     4  10  19  34  57  84 108 148 200 234 289 344
#
# _framework density 19.520959000000001
#
# number of rings (size 3 to 8) (size 9 to 14) (size 15 to 20)
#    1.000    0.667    1.667    4.500    0.000    1.333 
#    0.000    1.667    0.000    4.000    0.000    0.000 
#    0.000    0.000    0.000    0.000    0.000    0.000 
#
# Total GULP energy -66945.954347 kJ/mol
# GULP energy per Si atom -5578.829529 kJ/mol
# Density = 1.947653 g / cm^3
# Si number density = 19.520959 Si / 1000 Ang^3
#
#
#
# Elastic Constant Matrix: (Units=GPa)
#
#
# Indices 1 2 3 4 5 6 
#
# 1 135.4445 63.6106 13.1363 18.1404 16.8487 -6.9825
# 2 63.6106 140.5282 1.4228 6.1266 3.5543 -9.7214
# 3 13.1363 1.4228 34.5094 18.5879 10.1943 2.4897
# 4 18.1404 6.1266 18.5879 27.7613 5.5717 6.8137
# 5 16.8487 3.5543 10.1943 5.5717 13.6908 0.1248
# 6 -6.9825 -9.7214 2.4897 6.8137 0.1248 38.9372
#
#
#
# Elastic Compliance Matrix: (Units=1/GPa)
#
#
# Indices 1 2 3 4 5 6 
#
# 1 0.011874 -0.004656 0.002863 -0.006545 -0.012890 0.001970
# 2 -0.004656 0.009261 0.000588 -0.000369 0.003024 0.001494
# 3 0.002863 0.000588 0.054602 -0.033113 -0.030885 0.003062
# 4 -0.006545 -0.000369 -0.033113 0.063680 0.006984 -0.010314
# 5 -0.012890 0.003024 -0.030885 0.006984 0.108285 -0.001151
# 6 0.001970 0.001494 0.003062 -0.010314 -0.001151 0.028022
#
#
# Mechanical properties :
#
#
# Convention : Reuss Voigt Hill
#
# Bulk Modulus (GPa) = 13.63772 51.86907 32.75340
# Shear Modulus (GPa) = 16.52481 31.56536 24.04509
#
# Velocity S-wave (km/s) = 2.91265 4.02555 3.51345
# Velocity P-wave (km/s) = 4.27934 6.94517 5.76837
#
# Compressibility (1/GPa) = 0.07332603
#
# Stress axis : x y z
#
# Youngs Moduli (GPa) = 84.22011 107.98481 18.31431
#
# Poissons Ratio (x) = 0.50278 -0.05243
# Poissons Ratio (y) = 0.39213 -0.01077
# Poissons Ratio (z) = -0.24112 -0.06348
#
# Static dielectric constant tensor:
#      x y z
#    x 1.657700 -0.001400 0.010940 
#    y -0.001400 1.669280 0.023470 
#    z 0.010940 0.023470 1.739170 
# 
# From -- ./inp_files/383028.got.cif
#   From: 2010.05.17/outbox.cif.g08.bks.cpg/sg2_192_cif.got.tgz:383028.got - 2010.06.03 11:33:40.
