data_PCOD9083288
_publ_section_title
;
Structure prediction by ZEFSAII (Michael W. Deem and Ramdas Pophale) SiO2 
 PCOD9083288
Probable space group: P -1
;
_chemical_formula_sum "Si O2"
_cell_formula_units_Z 14
_cell_length_a 9.292235
_cell_length_b 5.587988
_cell_length_c 11.465710
_cell_angle_alpha 110.270726
_cell_angle_beta 112.740335
_cell_angle_gamma 69.918101
_cell_volume 499.749431
_symmetry_space_group_name_H-M "P -1"
_symmetry_group_IT_number 2
_symmetry_cell_setting 'triclinic'
loop_
_space_group_symop_operation_xyz
x,y,z
-x,-y,-z
loop_
_atom_site_type_symbol
_atom_site_label
_atom_site_fract_x
_atom_site_fract_y
_atom_site_fract_z
Si Si1 0.928469 0.510773 0.608548
Si Si2 0.269375 0.842279 0.592301
Si Si3 0.185638 0.611661 0.162568
Si Si4 0.260835 0.451905 0.746845
Si Si5 0.110976 0.088199 0.952551
Si Si6 0.384464 0.266047 0.338027
Si Si7 0.409974 0.791600 0.083268
O O1 0.868464 0.240906 0.539573
O O2 0.763586 0.731124 0.620869
O O3 0.000000 0.500000 0.500000
O O4 0.073261 0.563769 0.743416
O O5 0.291093 0.642289 0.680990
O O6 0.439064 0.763084 0.564750
O O7 0.246717 0.152421 0.660498
O O8 0.138398 0.349031 0.064610
O O9 0.312832 0.531754 0.290084
O O10 0.287346 0.671331 0.097278
O O11 0.019457 0.821438 0.174742
O O12 0.409010 0.391598 0.877097
O O13 0.293432 0.918186 0.959055
O O14 0.000000 0.000000 0.000000
O O15 0.414128 0.040543 0.209938
#
# Coordination Sequence:
#
# PCOD9083288 Si02
#       7
#     2   2   2   2   2   2   2
#     4  10  22  39  53  76 110 149 187 233 282 326
#     4  10  20  38  56  79 105 146 193 236 276 325
#     4   9  15  29  49  81 107 135 177 223 272 319
#     4  10  20  37  56  79 112 145 187 229 281 333
#     4   8  15  26  50  80 111 133 167 225 270 324
#     4  10  19  34  54  79 109 143 190 232 272 325
#     4   9  17  31  52  80 108 142 180 222 273 326
#
# _framework density 28.014039
#
# number of rings (size 3 to 8) (size 9 to 14) (size 15 to 20)
#    0.000    2.571    1.429    0.857    0.000    0.000 
#   10.286    6.429    0.000    0.857    0.000   34.000 
#    0.000    0.000    0.000    0.000    0.000    0.000 
#
# Total GULP energy -78036.708013 kJ/mol
# GULP energy per Si atom -5574.050572 kJ/mol
# Density = 2.795028 g / cm^3
# Si number density = 28.014039 Si / 1000 Ang^3
#
#
#
# Elastic Constant Matrix: (Units=GPa)
#
#
# Indices 1 2 3 4 5 6 
#
# 1 157.1405 42.7057 53.4747 -17.2503 47.9913 -39.0852
# 2 42.7057 139.5103 15.1477 -10.8840 15.0303 -29.1977
# 3 53.4747 15.1477 80.5192 -30.6995 31.5962 -17.8725
# 4 -17.2503 -10.8840 -30.6995 18.6152 -7.0591 6.1421
# 5 47.9913 15.0303 31.5962 -7.0591 67.4647 -3.2565
# 6 -39.0852 -29.1977 -17.8725 6.1421 -3.2565 62.8327
#
#
#
# Elastic Compliance Matrix: (Units=1/GPa)
#
#
# Indices 1 2 3 4 5 6 
#
# 1 0.010872 -0.001420 -0.004499 -0.001728 -0.005264 0.004720
# 2 -0.001420 0.008741 0.004066 0.008711 -0.001766 0.003392
# 3 -0.004499 0.004066 0.047078 0.069542 -0.012233 0.005050
# 4 -0.001728 0.008711 0.069542 0.163942 -0.015841 0.005907
# 5 -0.005264 -0.001766 -0.012233 -0.015841 0.022798 -0.004845
# 6 0.004720 0.003392 0.005050 0.005907 -0.004845 0.021035
#
#
# Mechanical properties :
#
#
# Convention : Reuss Voigt Hill
#
# Bulk Modulus (GPa) = 15.87669 66.64736 41.26202
# Shear Modulus (GPa) = 16.71297 47.50530 32.10914
#
# Velocity S-wave (km/s) = 2.44517 4.12244 3.38920
# Velocity P-wave (km/s) = 3.69480 6.81921 5.48421
#
# Compressibility (1/GPa) = 0.06298542
#
# Stress axis : x y z
#
# Youngs Moduli (GPa) = 91.97557 114.40488 21.24114
#
# Poissons Ratio (x) = 0.16241 0.09557
# Poissons Ratio (y) = 0.13057 -0.08636
# Poissons Ratio (z) = 0.41384 -0.46516
#
# Static dielectric constant tensor:
#      x y z
#    x 2.403690 0.058140 0.000740 
#    y 0.058140 2.519300 0.020610 
#    z 0.000740 0.020610 2.398930 
# 
# From -- ./inp_files/34351.got.cif
#   From: 2010.05.17/outbox.cif.g08.bks.cpg/sg2_18_cif.got.tgz:34351.got - 2010.06.03 11:33:40.
