data_PCOD9083551
_publ_section_title
;
Structure prediction by ZEFSAII (Michael W. Deem and Ramdas Pophale) SiO2 
 PCOD9083551
Probable space group: P -1
;
_chemical_formula_sum "Si O2"
_cell_formula_units_Z 16
_cell_length_a 11.468201
_cell_length_b 18.009915
_cell_length_c 18.767309
_cell_angle_alpha 16.545153
_cell_angle_beta 46.059237
_cell_angle_gamma 45.703832
_cell_volume 784.348117
_symmetry_space_group_name_H-M "P -1"
_symmetry_group_IT_number 2
_symmetry_cell_setting 'triclinic'
loop_
_space_group_symop_operation_xyz
x,y,z
-x,-y,-z
loop_
_atom_site_type_symbol
_atom_site_label
_atom_site_fract_x
_atom_site_fract_y
_atom_site_fract_z
Si Si1 0.341849 0.920607 0.374673
Si Si2 0.099209 0.783007 0.504164
Si Si3 0.538343 0.403208 0.845269
Si Si4 0.081838 0.696854 0.234537
Si Si5 0.205516 0.787268 0.799269
Si Si6 0.907596 0.654239 0.832402
Si Si7 0.096481 0.523849 0.224950
Si Si8 0.548466 0.644869 0.773752
O O1 0.193685 0.071017 0.349219
O O2 0.270778 0.864060 0.378492
O O3 0.433124 0.655579 0.617943
O O4 0.457448 0.141530 0.113751
O O5 0.052294 0.654148 0.715264
O O6 0.059391 0.590541 0.635253
O O7 0.952662 0.027992 0.333789
O O8 0.724492 0.347664 0.789697
O O9 0.551540 0.469356 0.862614
O O10 0.065058 0.624593 0.224905
O O11 0.000000 0.500000 0.500000
O O12 0.000000 0.000000 0.000000
O O13 0.384247 0.861898 0.637105
O O14 0.210837 0.511077 0.007963
O O15 0.154942 0.733213 0.952083
O O16 0.000000 0.500000 0.000000
O O17 0.263079 0.304602 0.353445
O O18 0.500000 0.500000 0.000000
#
# Coordination Sequence:
#
# PCOD9083551 Si02
#       8
#     2   2   2   2   2   2   2   2
#     4  12  23  38  62  91 139 173 220 263 301 378
#     4  11  23  34  57  88 132 185 217 259 309 374
#     4  11  24  42  66  98 125 166 214 268 330 381
#     4  11  25  49  78 100 121 156 210 281 343 401
#     4  10  19  34  56  87 131 174 220 254 309 365
#     4  11  20  33  50  87 133 187 233 248 290 356
#     4   9  23  39  60  94 123 167 214 265 330 391
#     4   9  18  38  54  86 130 170 214 262 309 367
#
# _framework density 20.399104999999999
#
# number of rings (size 3 to 8) (size 9 to 14) (size 15 to 20)
#    0.000    1.500    2.500    2.625    3.500    0.500 
#    6.750    0.000    0.000    4.500    0.000    0.000 
#    0.000    0.000    0.000    0.000    0.000    0.000 
#
# Total GULP energy -89230.740648 kJ/mol
# GULP energy per Si atom -5576.921291 kJ/mol
# Density = 2.035268 g / cm^3
# Si number density = 20.399105 Si / 1000 Ang^3
#
#
#
# Elastic Constant Matrix: (Units=GPa)
#
#
# Indices 1 2 3 4 5 6 
#
# 1 145.2515 52.0674 49.7860 3.2149 -3.1357 6.1701
# 2 52.0674 106.9981 38.7660 -4.2512 4.5801 6.5416
# 3 49.7860 38.7660 79.5163 -2.7471 -0.1551 3.3969
# 4 3.2149 -4.2512 -2.7471 28.9089 -6.9185 1.8469
# 5 -3.1357 4.5801 -0.1551 -6.9185 30.0014 -0.0437
# 6 6.1701 6.5416 3.3969 1.8469 -0.0437 32.2965
#
#
#
# Elastic Compliance Matrix: (Units=1/GPa)
#
#
# Indices 1 2 3 4 5 6 
#
# 1 0.009650 -0.003121 -0.004548 -0.001666 0.001076 -0.000636
# 2 -0.003121 0.012575 -0.004061 0.001450 -0.001935 -0.001609
# 3 -0.004548 -0.004061 0.017476 0.001737 0.000635 -0.000245
# 4 -0.001666 0.001450 0.001737 0.037264 0.008203 -0.002278
# 5 0.001076 -0.001935 0.000635 0.008203 0.035634 -0.000301
# 6 -0.000636 -0.001609 -0.000245 -0.002278 -0.000301 0.031566
#
#
# Mechanical properties :
#
#
# Convention : Reuss Voigt Hill
#
# Bulk Modulus (GPa) = 61.58239 68.11162 64.84700
# Shear Modulus (GPa) = 28.89528 30.98448 29.93988
#
# Velocity S-wave (km/s) = 3.76772 3.90155 3.83522
# Velocity P-wave (km/s) = 7.01298 7.33199 7.17426
#
# Compressibility (1/GPa) = 0.01623841
#
# Stress axis : x y z
#
# Youngs Moduli (GPa) = 103.63193 79.52255 57.22292
#
# Poissons Ratio (x) = 0.24820 0.26027
# Poissons Ratio (y) = 0.32345 0.23240
# Poissons Ratio (z) = 0.47135 0.32297
#
# Static dielectric constant tensor:
#      x y z
#    x 1.981860 -0.045060 -0.035650 
#    y -0.045060 1.714670 -0.012470 
#    z -0.035650 -0.012470 1.924460 
# 
# From -- ./inp_files/570220.got.cif
#   From: 2010.05.17/outbox.cif.g08.bks.cpg/sg2_286_cif.got.tgz:570220.got - 2010.06.03 11:33:40.
