data_PCOD9083860
_publ_section_title
;
Structure prediction by ZEFSAII (Michael W. Deem and Ramdas Pophale) SiO2 
 PCOD9083860
Probable space group: P -1
;
_chemical_formula_sum "Si O2"
_cell_formula_units_Z 16
_cell_length_a 10.732096
_cell_length_b 16.169347
_cell_length_c 10.011905
_cell_angle_alpha 146.129524
_cell_angle_beta 104.509369
_cell_angle_gamma 57.555496
_cell_volume 743.669657
_symmetry_space_group_name_H-M "P -1"
_symmetry_group_IT_number 2
_symmetry_cell_setting 'triclinic'
loop_
_space_group_symop_operation_xyz
x,y,z
-x,-y,-z
loop_
_atom_site_type_symbol
_atom_site_label
_atom_site_fract_x
_atom_site_fract_y
_atom_site_fract_z
Si Si1 0.859788 0.974264 0.957274
Si Si2 0.991965 0.243574 0.532641
Si Si3 0.497867 0.355782 0.398789
Si Si4 0.898212 0.990317 0.270599
Si Si5 0.468842 0.851276 0.321744
Si Si6 0.524454 0.341380 0.696483
Si Si7 0.298641 0.373228 0.145283
Si Si8 0.131305 0.191014 0.755935
O O1 0.679943 0.164888 0.176500
O O2 0.899383 0.889799 0.002544
O O3 0.873387 0.852505 0.675142
O O4 0.000000 0.000000 0.000000
O O5 0.979276 0.087681 0.382417
O O6 0.829750 0.410267 0.639053
O O7 0.029662 0.313355 0.765870
O O8 0.500000 0.500000 0.500000
O O9 0.460098 0.403286 0.610425
O O10 0.368924 0.341062 0.269025
O O11 0.714021 0.168845 0.494048
O O12 0.963745 0.846193 0.215741
O O13 0.538471 0.747314 0.343205
O O14 0.500000 0.000000 0.500000
O O15 0.275132 0.985669 0.459928
O O16 0.553900 0.710048 0.032385
O O17 0.500000 0.500000 0.000000
O O18 0.213826 0.273515 0.961777
#
# Coordination Sequence:
#
# PCOD9083860 Si02
#       8
#     2   2   2   2   2   2   2   2
#     4   9  19  36  57  82 112 147 189 233 281 340
#     4  11  20  36  59  82 111 154 194 233 278 336
#     4  11  21  36  60  88 118 152 188 238 290 339
#     4   9  19  36  57  82 110 142 190 238 280 336
#     4   9  19  37  57  80 113 148 186 232 284 340
#     4  10  19  34  58  88 113 139 186 240 286 341
#     4  11  22  38  56  84 118 151 189 234 287 343
#     4  10  21  37  57  82 113 151 191 236 285 335
#
# _framework density 21.51493
#
# number of rings (size 3 to 8) (size 9 to 14) (size 15 to 20)
#    0.000    2.000    0.000    5.250    0.000    1.000 
#    0.000   18.125    0.000    0.000    0.000    0.000 
#    0.000    0.000    0.000    0.000    0.000    0.000 
#
# Total GULP energy -89168.468824 kJ/mol
# GULP energy per Si atom -5573.029302 kJ/mol
# Density = 2.146596 g / cm^3
# Si number density = 21.514930 Si / 1000 Ang^3
#
#
#
# Elastic Constant Matrix: (Units=GPa)
#
#
# Indices 1 2 3 4 5 6 
#
# 1 41.1236 32.9942 35.4826 -10.0767 0.2310 5.7261
# 2 32.9942 151.3928 73.9769 -38.1997 -3.2695 9.7917
# 3 35.4826 73.9769 88.0839 -33.7824 8.8568 16.7246
# 4 -10.0767 -38.1997 -33.7824 38.7542 3.4498 1.9313
# 5 0.2310 -3.2695 8.8568 3.4498 17.2748 -9.2257
# 6 5.7261 9.7917 16.7246 1.9313 -9.2257 32.5783
#
#
#
# Elastic Compliance Matrix: (Units=1/GPa)
#
#
# Indices 1 2 3 4 5 6 
#
# 1 0.044147 0.000702 -0.032322 -0.019559 0.029742 0.018205
# 2 0.000702 0.013116 -0.014738 -0.001400 0.014400 0.007661
# 3 -0.032322 -0.014738 0.075511 0.052811 -0.080816 -0.054671
# 4 -0.019559 -0.001400 0.052811 0.073620 -0.066604 -0.046479
# 5 0.029742 0.014400 -0.080816 -0.066604 0.158010 0.080627
# 6 0.018205 0.007661 -0.054671 -0.046479 0.080627 0.078847
#
#
# Mechanical properties :
#
#
# Convention : Reuss Voigt Hill
#
# Bulk Modulus (GPa) = 24.96265 62.83417 43.89841
# Shear Modulus (GPa) = 9.10217 26.93124 18.01670
#
# Velocity S-wave (km/s) = 2.05908 3.54184 2.89693
# Velocity P-wave (km/s) = 4.15701 6.78192 5.62473
#
# Compressibility (1/GPa) = 0.04005984
#
# Stress axis : x y z
#
# Youngs Moduli (GPa) = 22.65148 76.24229 13.24305
#
# Poissons Ratio (x) = -0.05354 0.42804
# Poissons Ratio (y) = -0.01591 0.19517
# Poissons Ratio (z) = 0.73214 1.12364
#
# Static dielectric constant tensor:
#      x y z
#    x 1.890850 -0.032830 0.039890 
#    y -0.032830 1.831370 -0.047200 
#    z 0.039890 -0.047200 1.852620 
# 
# From -- ./inp_files/271231.got.cif
#   From: 2010.05.17/outbox.cif.g08.bks.cpg/sg2_136_cif.got.tgz:271231.got - 2010.06.03 11:33:40.
