data_PCOD9083957
_publ_section_title
;
Structure prediction by ZEFSAII (Michael W. Deem and Ramdas Pophale) SiO2 
 PCOD9083957
Probable space group: P -1
;
_chemical_formula_sum "Si O2"
_cell_formula_units_Z 12
_cell_length_a 21.164931
_cell_length_b 10.906711
_cell_length_c 5.228023
_cell_angle_alpha 59.623435
_cell_angle_beta 121.842670
_cell_angle_gamma 141.807175
_cell_volume 624.303339
_symmetry_space_group_name_H-M "P -1"
_symmetry_group_IT_number 2
_symmetry_cell_setting 'triclinic'
loop_
_space_group_symop_operation_xyz
x,y,z
-x,-y,-z
loop_
_atom_site_type_symbol
_atom_site_label
_atom_site_fract_x
_atom_site_fract_y
_atom_site_fract_z
Si Si1 0.268085 0.087201 0.204184
Si Si2 0.050947 0.138345 0.211183
Si Si3 0.123405 0.639335 0.183588
Si Si4 0.499712 0.400588 0.355230
Si Si5 0.269209 0.288189 0.495914
Si Si6 0.085485 0.493600 0.756162
O O1 0.384921 0.173778 0.358501
O O2 0.254164 0.157789 0.362564
O O3 0.181637 0.851661 0.208241
O O4 0.264296 0.191708 0.849326
O O5 0.174561 0.270546 0.323136
O O6 0.036209 0.286570 0.992540
O O7 0.000000 0.000000 0.500000
O O8 0.000000 0.000000 0.000000
O O9 0.131396 0.528440 0.534209
O O10 0.164943 0.658499 0.968809
O O11 0.000000 0.500000 0.000000
O O12 0.500000 0.500000 0.500000
O O13 0.614577 0.484312 0.515663
O O14 0.500000 0.500000 0.000000
O O15 0.000000 0.500000 0.500000
#
# Coordination Sequence:
#
# PCOD9083957 Si02
#       6
#     2   2   2   2   2   2
#     4  10  19  34  59  86 110 149 189 234 284 338
#     4  12  26  38  58  84 117 154 193 236 293 334
#     4  10  21  33  56  77 113 148 191 225 278 336
#     4   8  16  32  52  82 110 141 183 236 285 330
#     4  10  21  34  57  82 117 142 189 243 287 328
#     4  10  23  39  54  75 115 154 192 229 276 342
#
# _framework density 19.221425
#
# number of rings (size 3 to 8) (size 9 to 14) (size 15 to 20)
#    0.000    2.000    0.000    3.000   14.000    0.000 
#    0.000    0.000    0.000    2.000    0.000    0.000 
#    0.000    0.000    0.000    0.000    0.000    0.000 
#
# Total GULP energy -66821.005794 kJ/mol
# GULP energy per Si atom -5568.417149 kJ/mol
# Density = 1.917768 g / cm^3
# Si number density = 19.221425 Si / 1000 Ang^3
#
#
#
# Elastic Constant Matrix: (Units=GPa)
#
#
# Indices 1 2 3 4 5 6 
#
# 1 75.3838 34.3930 49.6058 8.6245 -3.5902 11.7622
# 2 34.3930 109.8673 27.9397 14.2331 18.2329 13.5056
# 3 49.6058 27.9397 122.5858 4.3986 -24.0785 -4.5998
# 4 8.6245 14.2331 4.3986 31.0898 -6.6704 0.8387
# 5 -3.5902 18.2329 -24.0785 -6.6704 46.3558 11.2507
# 6 11.7622 13.5056 -4.5998 0.8387 11.2507 35.5416
#
#
#
# Elastic Compliance Matrix: (Units=1/GPa)
#
#
# Indices 1 2 3 4 5 6 
#
# 1 0.021581 -0.003479 -0.008074 -0.003055 0.000059 -0.006812
# 2 -0.003479 0.013178 -0.002897 -0.006205 -0.007430 -0.001733
# 3 -0.008074 -0.002897 0.013509 0.003117 0.007211 0.003165
# 4 -0.003055 -0.006205 0.003117 0.037389 0.009209 -0.000025
# 5 0.000059 -0.007430 0.007211 0.009209 0.031106 -0.006327
# 6 -0.006812 -0.001733 0.003165 -0.000025 -0.006327 0.033462
#
#
# Mechanical properties :
#
#
# Convention : Reuss Voigt Hill
#
# Bulk Modulus (GPa) = 51.63743 59.07933 55.35838
# Shear Modulus (GPa) = 26.94234 35.65731 31.29983
#
# Velocity S-wave (km/s) = 3.74797 4.31174 4.03970
# Velocity P-wave (km/s) = 6.75666 7.45594 7.11490
#
# Compressibility (1/GPa) = 0.01936580
#
# Stress axis : x y z
#
# Youngs Moduli (GPa) = 46.33626 75.88572 74.02614
#
# Poissons Ratio (x) = 0.26402 0.59772
# Poissons Ratio (y) = 0.16121 0.21448
# Poissons Ratio (z) = 0.37414 0.21986
#
# Static dielectric constant tensor:
#      x y z
#    x 1.830500 0.036410 -0.059660 
#    y 0.036410 1.704310 0.001330 
#    z -0.059660 0.001330 1.699600 
# 
# From -- ./inp_files/30884.got.cif
#   From: 2010.05.17/outbox.cif.g08.bks.cpg/sg2_16_cif.got.tgz:30884.got - 2010.06.03 11:33:40.
