data_PCOD9083666
_publ_section_title
;
Structure prediction by ZEFSAII (Michael W. Deem and Ramdas Pophale) SiO2 
 PCOD9083666
Probable space group: P -1
;
_chemical_formula_sum "Si O2"
_cell_formula_units_Z 16
_cell_length_a 8.740246
_cell_length_b 7.464682
_cell_length_c 12.009888
_cell_angle_alpha 73.675849
_cell_angle_beta 95.249202
_cell_angle_gamma 78.169840
_cell_volume 726.669995
_symmetry_space_group_name_H-M "P -1"
_symmetry_group_IT_number 2
_symmetry_cell_setting 'triclinic'
loop_
_space_group_symop_operation_xyz
x,y,z
-x,-y,-z
loop_
_atom_site_type_symbol
_atom_site_label
_atom_site_fract_x
_atom_site_fract_y
_atom_site_fract_z
Si Si1 0.517894 0.259963 0.166075
Si Si2 0.773580 0.595653 0.463864
Si Si3 0.097078 0.453910 0.754768
Si Si4 0.831799 0.140320 0.581232
Si Si5 0.436026 0.733985 0.304014
Si Si6 0.419035 0.307326 0.906111
Si Si7 0.835644 0.121492 0.329083
Si Si8 0.742870 0.597935 0.703321
O O1 0.552166 0.475069 0.130617
O O2 0.678628 0.121694 0.248688
O O3 0.368177 0.272766 0.235447
O O4 0.476990 0.221227 0.043860
O O5 0.872894 0.625575 0.356200
O O6 0.821324 0.366899 0.527082
O O7 0.594027 0.661404 0.398651
O O8 0.782232 0.683714 0.571768
O O9 0.233548 0.330148 0.863897
O O10 0.133067 0.665637 0.715930
O O11 0.916605 0.484477 0.776122
O O12 0.692682 0.121769 0.657418
O O13 0.806543 0.082963 0.463117
O O14 0.998400 0.024291 0.660969
O O15 0.484189 0.795236 0.175960
O O16 0.360554 0.552694 0.309153
#
# Coordination Sequence:
#
# PCOD9083666 Si02
#       8
#     2   2   2   2   2   2   2   2
#     4   9  16  28  44  60  82 113 144 171 200 242
#     4   9  16  28  45  64  86 108 136 173 207 242
#     4   9  17  27  41  65  91 109 129 169 216 249
#     4   9  15  26  46  65  82 107 142 172 200 241
#     4   9  16  28  47  65  81 107 142 175 203 240
#     4   8  16  29  43  61  83 108 142 177 206 235
#     4   9  17  28  43  62  87 113 136 168 205 245
#     4  10  16  24  44  67  86 107 134 170 213 249
#
# _framework density 22.018246000000001
#
# number of rings (size 3 to 8) (size 9 to 14) (size 15 to 20)
#    0.000    3.000    0.000    4.875    0.000    0.500 
#    0.000    0.625    0.000   24.750    0.000    4.375 
#    0.000    0.000    0.000    0.000    0.000    0.000 
#
# Total GULP energy -89313.210209 kJ/mol
# GULP energy per Si atom -5582.075638 kJ/mol
# Density = 2.196813 g / cm^3
# Si number density = 22.018246 Si / 1000 Ang^3
#
#
#
# Elastic Constant Matrix: (Units=GPa)
#
#
# Indices 1 2 3 4 5 6 
#
# 1 123.3986 46.2718 90.2218 8.6033 32.4190 -59.3118
# 2 46.2718 41.6299 35.7337 -18.0233 -4.1838 -21.4232
# 3 90.2218 35.7337 136.7937 0.7533 25.0978 -41.7574
# 4 8.6033 -18.0233 0.7533 13.7114 -5.3792 -7.5466
# 5 32.4190 -4.1838 25.0978 -5.3792 14.9804 -5.7324
# 6 -59.3118 -21.4232 -41.7574 -7.5466 -5.7324 55.3731
#
#
#
# Elastic Compliance Matrix: (Units=1/GPa)
#
#
# Indices 1 2 3 4 5 6 
#
# 1 0.012313 0.016732 -0.009142 0.028622 0.010411 0.017747
# 2 0.016732 0.000558 -0.000949 -0.017919 -0.036617 0.011190
# 3 -0.009142 -0.000949 0.014412 0.002799 -0.003335 0.000744
# 4 0.028622 -0.017919 0.002799 0.022654 -0.054595 0.023272
# 5 0.010411 -0.036617 -0.003335 -0.054595 0.015635 -0.011351
# 6 0.017747 0.011190 0.000744 0.023272 -0.011351 0.043956
#
#
# Mechanical properties :
#
#
# Convention : Reuss Voigt Hill
#
# Bulk Modulus (GPa) = 24.65189 71.80852 48.23020
# Shear Modulus (GPa) = 45.55078 25.45265 35.50172
#
# Velocity S-wave (km/s) = 4.55331 3.40366 4.01980
# Velocity P-wave (km/s) = 6.23410 6.93762 6.59524
#
# Compressibility (1/GPa) = 0.04056485
#
# Stress axis : x y z
#
# Youngs Moduli (GPa) = 81.21237 1791.51954 69.38842
#
# Poissons Ratio (x) = -29.97570 0.63438
# Poissons Ratio (y) = -1.35885 0.06583
# Poissons Ratio (z) = 0.74248 1.69960
#
# Static dielectric constant tensor:
#      x y z
#    x 1.824280 0.036740 -0.021510 
#    y 0.036740 1.889390 0.016490 
#    z -0.021510 0.016490 1.785500 
# 
# From -- ./inp_files/196942.got.cif
#   From: 2010.05.17/outbox.cif.g08.bks.cpg/sg2_99_cif.got.tgz:196942.got - 2010.06.03 11:33:40.
