data_PCOD9083653
_publ_section_title
;
Structure prediction by ZEFSAII (Michael W. Deem and Ramdas Pophale) SiO2 
 PCOD9083653
Probable space group: P -1
;
_chemical_formula_sum "Si O2"
_cell_formula_units_Z 16
_cell_length_a 8.385373
_cell_length_b 11.701658
_cell_length_c 18.231736
_cell_angle_alpha 23.945680
_cell_angle_beta 72.640275
_cell_angle_gamma 70.003094
_cell_volume 681.835670
_symmetry_space_group_name_H-M "P -1"
_symmetry_group_IT_number 2
_symmetry_cell_setting 'triclinic'
loop_
_space_group_symop_operation_xyz
x,y,z
-x,-y,-z
loop_
_atom_site_type_symbol
_atom_site_label
_atom_site_fract_x
_atom_site_fract_y
_atom_site_fract_z
Si Si1 0.470097 0.130000 0.800460
Si Si2 0.348743 0.152065 0.198825
Si Si3 0.961834 0.140046 0.072969
Si Si4 0.613581 0.230638 0.229349
Si Si5 0.685999 0.440161 0.832711
Si Si6 0.999630 0.032285 0.294565
Si Si7 0.262728 0.700128 0.247437
Si Si8 0.811778 0.558475 0.435269
O O1 0.607758 0.014736 0.786030
O O2 0.553337 0.229149 0.802903
O O3 0.345361 0.389641 0.628464
O O4 0.376135 0.865530 0.982599
O O5 0.507802 0.064532 0.284341
O O6 0.159817 0.110648 0.271414
O O7 0.354893 0.482239 0.985856
O O8 0.866535 0.866545 0.251737
O O9 0.004240 0.194172 0.119697
O O10 0.130610 0.001580 0.086948
O O11 0.839437 0.387905 0.900985
O O12 0.474236 0.333709 0.250579
O O13 0.803393 0.099860 0.306286
O O14 0.744664 0.477846 0.720365
O O15 0.052682 0.695235 0.468522
O O16 0.225924 0.541451 0.420055
#
# Coordination Sequence:
#
# PCOD9083653 Si02
#       8
#     2   2   2   2   2   2   2   2
#     4  10  19  36  57  87 112 142 188 245 288 330
#     4  10  19  34  57  84 112 149 197 243 277 330
#     4  10  20  36  58  87 113 143 189 244 289 333
#     4  10  21  35  52  82 119 156 189 232 278 339
#     4  10  22  36  53  81 124 150 178 228 290 355
#     4  11  19  34  59  85 112 149 197 241 283 326
#     4  11  19  33  57  87 114 146 183 229 301 350
#     4  10  21  35  59  90 112 142 192 249 287 328
#
# _framework density 23.466063999999999
#
# number of rings (size 3 to 8) (size 9 to 14) (size 15 to 20)
#    0.000    1.750    2.500    6.000    0.000    0.000 
#    0.000    0.000    0.000    7.500    0.000    3.500 
#    0.000    0.000    0.000    0.000    0.000    0.000 
#
# Total GULP energy -89409.304782 kJ/mol
# GULP energy per Si atom -5588.081549 kJ/mol
# Density = 2.341265 g / cm^3
# Si number density = 23.466064 Si / 1000 Ang^3
#
#
#
# Elastic Constant Matrix: (Units=GPa)
#
#
# Indices 1 2 3 4 5 6 
#
# 1 147.1284 36.4523 36.3222 -0.7753 33.7994 -4.8989
# 2 36.4523 97.0069 25.9636 5.9502 24.5599 -13.0333
# 3 36.3222 25.9636 57.1341 -4.8226 11.7565 -9.1636
# 4 -0.7753 5.9502 -4.8226 17.7255 -3.5996 5.1577
# 5 33.7994 24.5599 11.7565 -3.5996 37.6958 -15.6965
# 6 -4.8989 -13.0333 -9.1636 5.1577 -15.6965 41.3244
#
#
#
# Elastic Compliance Matrix: (Units=1/GPa)
#
#
# Indices 1 2 3 4 5 6 
#
# 1 0.010012 -0.000613 -0.004973 -0.001517 -0.008479 -0.003141
# 2 -0.000613 0.014511 -0.005118 -0.008259 -0.007442 0.001573
# 3 -0.004973 -0.005118 0.023614 0.007539 0.002399 0.003003
# 4 -0.001517 -0.008259 0.007539 0.064583 0.008004 -0.006134
# 5 -0.008479 -0.007442 0.002399 0.008004 0.044433 0.013058
# 6 -0.003141 0.001573 0.003003 -0.006134 0.013058 0.030714
#
#
# Mechanical properties :
#
#
# Convention : Reuss Voigt Hill
#
# Bulk Modulus (GPa) = 37.41355 55.41618 46.41487
# Shear Modulus (GPa) = 22.91632 32.85121 27.88376
#
# Velocity S-wave (km/s) = 3.12841 3.74564 3.45085
# Velocity P-wave (km/s) = 5.38772 6.50947 5.97498
#
# Compressibility (1/GPa) = 0.02672828
#
# Stress axis : x y z
#
# Youngs Moduli (GPa) = 99.88245 68.91397 42.34710
#
# Poissons Ratio (x) = 0.04226 0.21060
# Poissons Ratio (y) = 0.06125 0.21673
# Poissons Ratio (z) = 0.49674 0.35269
#
# Static dielectric constant tensor:
#      x y z
#    x 1.965640 -0.017340 -0.007450 
#    y -0.017340 1.904200 -0.006810 
#    z -0.007450 -0.006810 1.889240 
# 
# From -- ./inp_files/559546.got.cif
#   From: 2010.05.17/outbox.cif.g08.bks.cpg/sg2_280_cif.got.tgz:559546.got - 2010.06.03 11:33:40.
