data_PCOD9083126
_publ_section_title
;
Structure prediction by ZEFSAII (Michael W. Deem and Ramdas Pophale) SiO2 
 PCOD9083126
Probable space group: P -1
;
_chemical_formula_sum "Si O2"
_cell_formula_units_Z 14
_cell_length_a 10.564524
_cell_length_b 9.581402
_cell_length_c 11.099456
_cell_angle_alpha 73.540186
_cell_angle_beta 118.434125
_cell_angle_gamma 58.240481
_cell_volume 588.026742
_symmetry_space_group_name_H-M "P -1"
_symmetry_group_IT_number 2
_symmetry_cell_setting 'triclinic'
loop_
_space_group_symop_operation_xyz
x,y,z
-x,-y,-z
loop_
_atom_site_type_symbol
_atom_site_label
_atom_site_fract_x
_atom_site_fract_y
_atom_site_fract_z
Si Si1 0.877836 0.036246 0.266030
Si Si2 0.994186 0.677069 0.952440
Si Si3 0.840578 0.890865 0.599817
Si Si4 0.497224 0.338975 0.203061
Si Si5 0.522924 0.594958 0.326172
Si Si6 0.885720 0.230134 0.788632
Si Si7 0.098031 0.565235 0.589922
O O1 0.911157 0.990474 0.150609
O O2 0.978906 0.806797 0.423776
O O3 0.027496 0.058382 0.363332
O O4 0.627346 0.255353 0.156631
O O5 0.224876 0.546341 0.018939
O O6 0.022206 0.727357 0.083369
O O7 0.797050 0.887383 0.720024
O O8 0.000000 0.500000 0.000000
O O9 0.003893 0.646085 0.664073
O O10 0.601125 0.111252 0.367621
O O11 0.546215 0.430854 0.295741
O O12 0.694440 0.451919 0.555627
O O13 0.263182 0.782213 0.214861
O O14 0.632340 0.630735 0.279213
O O15 0.000000 0.500000 0.500000
#
# Coordination Sequence:
#
# PCOD9083126 Si02
#       7
#     2   2   2   2   2   2   2
#     4  10  19  39  66  94 121 162 220 261 306 378
#     4  11  27  41  59  95 136 167 208 259 326 380
#     4  11  21  40  69  90 125 171 211 260 313 373
#     4  10  19  43  68  91 123 168 217 260 306 381
#     4   9  16  35  63  92 119 165 211 254 313 370
#     4   9  19  35  62  87 127 164 206 264 303 373
#     4  10  19  33  64  97 125 163 210 263 315 371
#
# _framework density 23.808440999999998
#
# number of rings (size 3 to 8) (size 9 to 14) (size 15 to 20)
#    0.000    2.000    4.286    0.857    4.000    1.714 
#    0.000    3.571    0.000    0.000    0.000    0.000 
#    0.000    0.000    0.000    0.000    0.000    0.000 
#
# Total GULP energy -78204.096853 kJ/mol
# GULP energy per Si atom -5586.006918 kJ/mol
# Density = 2.375425 g / cm^3
# Si number density = 23.808441 Si / 1000 Ang^3
#
#
#
# Elastic Constant Matrix: (Units=GPa)
#
#
# Indices 1 2 3 4 5 6 
#
# 1 48.5504 41.5482 11.4034 8.5794 0.7271 -9.0725
# 2 41.5482 135.4938 37.2962 42.2108 -2.6260 -11.4464
# 3 11.4034 37.2962 78.8715 22.4502 -20.7808 -0.9222
# 4 8.5794 42.2108 22.4502 43.4948 -4.2426 -2.0601
# 5 0.7271 -2.6260 -20.7808 -4.2426 28.4100 5.0017
# 6 -9.0725 -11.4464 -0.9222 -2.0601 5.0017 52.6992
#
#
#
# Elastic Compliance Matrix: (Units=1/GPa)
#
#
# Indices 1 2 3 4 5 6 
#
# 1 0.029076 -0.009588 -0.001563 0.004268 -0.002721 0.003321
# 2 -0.009588 0.014620 -0.003070 -0.010896 -0.002502 0.001283
# 3 -0.001563 -0.003070 0.019479 -0.005545 0.013546 -0.002097
# 4 0.004268 -0.010896 -0.005545 0.035589 0.000205 -0.000357
# 5 -0.002721 -0.002502 0.013546 0.000205 0.045878 -0.005121
# 6 0.003321 0.001283 -0.002097 -0.000357 -0.005121 0.020261
#
#
# Mechanical properties :
#
#
# Convention : Reuss Voigt Hill
#
# Bulk Modulus (GPa) = 28.79009 49.26794 39.02901
# Shear Modulus (GPa) = 24.39958 36.43197 30.41578
#
# Velocity S-wave (km/s) = 3.20477 3.91604 3.57812
# Velocity P-wave (km/s) = 5.08062 6.41759 5.78784
#
# Compressibility (1/GPa) = 0.03473418
#
# Stress axis : x y z
#
# Youngs Moduli (GPa) = 34.39239 68.40149 51.33662
#
# Poissons Ratio (x) = 0.65580 0.08025
# Poissons Ratio (y) = 0.32974 0.15759
# Poissons Ratio (z) = 0.05376 0.20998
#
# Static dielectric constant tensor:
#      x y z
#    x 1.927550 -0.058680 -0.041890 
#    y -0.058680 1.897140 -0.044720 
#    z -0.041890 -0.044720 2.007180 
# 
# From -- ./inp_files/419476.got.cif
#   From: 2010.05.17/outbox.cif.g08.bks.cpg/sg2_210_cif.got.tgz:419476.got - 2010.06.03 11:33:40.
