data_PCOD9083111
_publ_section_title
;
Structure prediction by ZEFSAII (Michael W. Deem and Ramdas Pophale) SiO2 
 PCOD9083111
Probable space group: P -1
;
_chemical_formula_sum "Si O2"
_cell_formula_units_Z 16
_cell_length_a 15.310466
_cell_length_b 14.641487
_cell_length_c 11.937313
_cell_angle_alpha 64.814444
_cell_angle_beta 153.916566
_cell_angle_gamma 133.958512
_cell_volume 660.974973
_symmetry_space_group_name_H-M "P -1"
_symmetry_group_IT_number 2
_symmetry_cell_setting 'triclinic'
loop_
_space_group_symop_operation_xyz
x,y,z
-x,-y,-z
loop_
_atom_site_type_symbol
_atom_site_label
_atom_site_fract_x
_atom_site_fract_y
_atom_site_fract_z
Si Si1 0.239442 0.609191 0.395426
Si Si2 0.917888 0.711504 0.771333
Si Si3 0.564485 0.012589 0.261937
Si Si4 0.494581 0.323598 0.966034
Si Si5 0.604690 0.380451 0.668487
Si Si6 0.572391 0.886298 0.134593
Si Si7 0.847957 0.311411 0.541305
Si Si8 0.828745 0.616029 0.464648
O O1 0.425588 0.683145 0.454325
O O2 0.231543 0.705391 0.411088
O O3 0.344635 0.559558 0.623895
O O4 0.872246 0.434681 0.025747
O O5 0.785661 0.559263 0.760091
O O6 0.728234 0.728214 0.599852
O O7 0.815937 0.656003 0.554285
O O8 0.298803 0.871650 0.118532
O O9 0.684965 0.970117 0.342275
O O10 0.810311 0.183876 0.518050
O O11 0.374802 0.007665 0.954838
O O12 0.611246 0.288802 0.209205
O O13 0.805689 0.502023 0.178609
O O14 0.325989 0.182974 0.754607
O O15 0.299059 0.341386 0.776356
O O16 0.183259 0.730678 0.772391
#
# Coordination Sequence:
#
# PCOD9083111 Si02
#       8
#     2   2   2   2   2   2   2   2
#     4  10  19  35  58  87 116 147 195 252 288 326
#     4   9  18  35  59  86 107 148 198 248 286 335
#     4   9  19  36  57  82 127 149 184 233 299 347
#     4  10  20  35  59  86 121 156 197 226 274 348
#     4   9  19  35  62  85 104 144 212 251 279 329
#     4   9  18  37  58  84 118 159 191 230 271 355
#     4  10  20  36  55  87 125 156 180 239 291 346
#     4  10  19  33  63  88 113 152 198 238 273 341
#
# _framework density 24.206665999999998
#
# number of rings (size 3 to 8) (size 9 to 14) (size 15 to 20)
#    0.000    2.500    1.250    0.750    0.000    0.500 
#    0.000   16.875    0.000    0.000    0.000    0.000 
#    0.000    0.000    0.000    0.000    0.000    0.000 
#
# Total GULP energy -89374.051008 kJ/mol
# GULP energy per Si atom -5585.878188 kJ/mol
# Density = 2.415157 g / cm^3
# Si number density = 24.206666 Si / 1000 Ang^3
#
#
#
# Elastic Constant Matrix: (Units=GPa)
#
#
# Indices 1 2 3 4 5 6 
#
# 1 141.1279 27.0543 19.6735 17.0083 -15.9990 -21.9330
# 2 27.0543 82.0787 18.7167 5.8585 -6.5147 -10.3927
# 3 19.6735 18.7167 34.1215 -7.0002 -1.4442 -2.6490
# 4 17.0083 5.8585 -7.0002 34.0854 -8.9715 -5.9987
# 5 -15.9990 -6.5147 -1.4442 -8.9715 21.9765 10.0094
# 6 -21.9330 -10.3927 -2.6490 -5.9987 10.0094 46.5890
#
#
#
# Elastic Compliance Matrix: (Units=1/GPa)
#
#
# Indices 1 2 3 4 5 6 
#
# 1 0.009304 -0.000947 -0.005385 -0.004283 0.003195 0.002625
# 2 -0.000947 0.014872 -0.008072 -0.003140 0.001100 0.001772
# 3 -0.005385 -0.008072 0.039407 0.012480 0.001767 -0.000868
# 4 -0.004283 -0.003140 0.012480 0.037805 0.012084 0.000264
# 5 0.003195 0.001100 0.001767 0.012084 0.057256 -0.008895
# 6 0.002625 0.001772 -0.000868 0.000264 -0.008895 0.024991
#
#
# Mechanical properties :
#
#
# Convention : Reuss Voigt Hill
#
# Bulk Modulus (GPa) = 28.75536 43.13524 35.94530
# Shear Modulus (GPa) = 22.31800 33.32242 27.82021
#
# Velocity S-wave (km/s) = 3.03970 3.71425 3.39378
# Velocity P-wave (km/s) = 4.92185 6.02101 5.49896
#
# Compressibility (1/GPa) = 0.03477612
#
# Stress axis : x y z
#
# Youngs Moduli (GPa) = 107.47727 67.24018 25.37625
#
# Poissons Ratio (x) = 0.06370 0.13664
# Poissons Ratio (y) = 0.10181 0.20483
# Poissons Ratio (z) = 0.57872 0.54274
#
# Static dielectric constant tensor:
#      x y z
#    x 1.949490 -0.013460 -0.001280 
#    y -0.013460 1.991370 -0.048580 
#    z -0.001280 -0.048580 2.024380 
# 
# From -- ./inp_files/455716.got.cif
#   From: 2010.05.17/outbox.cif.g08.bks.cpg/sg2_228_cif.got.tgz:455716.got - 2010.06.03 11:33:40.
