data_PCOD9083672
_publ_section_title
;
Structure prediction by ZEFSAII (Michael W. Deem and Ramdas Pophale) SiO2 
 PCOD9083672
Probable space group: P -1
;
_chemical_formula_sum "Si O2"
_cell_formula_units_Z 16
_cell_length_a 15.936684
_cell_length_b 8.957595
_cell_length_c 9.652333
_cell_angle_alpha 82.172398
_cell_angle_beta 63.945991
_cell_angle_gamma 46.610412
_cell_volume 870.177957
_symmetry_space_group_name_H-M "P -1"
_symmetry_group_IT_number 2
_symmetry_cell_setting 'triclinic'
loop_
_space_group_symop_operation_xyz
x,y,z
-x,-y,-z
loop_
_atom_site_type_symbol
_atom_site_label
_atom_site_fract_x
_atom_site_fract_y
_atom_site_fract_z
Si Si1 0.738070 0.929124 0.289668
Si Si2 0.526364 0.630025 0.034625
Si Si3 0.012526 0.162802 0.972864
Si Si4 0.427207 0.010437 0.853346
Si Si5 0.871801 0.657486 0.664001
Si Si6 0.622158 0.063019 0.651103
Si Si7 0.769747 0.529085 0.913470
Si Si8 0.032207 0.551888 0.826867
O O1 0.844766 0.933922 0.164008
O O2 0.643804 0.989032 0.224292
O O3 0.830299 0.678107 0.290765
O O4 0.654419 0.066058 0.468692
O O5 0.681186 0.483922 0.961523
O O6 0.474522 0.828925 0.950929
O O7 0.500000 0.500000 0.000000
O O8 0.459839 0.727558 0.221274
O O9 0.901504 0.349482 0.924962
O O10 0.972208 0.273136 0.138798
O O11 0.000000 0.000000 0.000000
O O12 0.543386 0.992817 0.725373
O O13 0.321911 0.242638 0.972175
O O14 0.810379 0.561930 0.737944
O O15 0.000000 0.500000 0.500000
O O16 0.921909 0.653127 0.778801
O O17 0.761658 0.886221 0.648832
O O18 0.000000 0.500000 0.000000
#
# Coordination Sequence:
#
# PCOD9083672 Si02
#       8
#     2   2   2   2   2   2   2   2
#     4  11  21  38  61  90 119 149 201 255 293 347
#     4  11  25  39  62  89 120 163 200 241 299 365
#     4  11  23  37  60  91 123 160 196 242 303 362
#     4  11  21  39  65  86 114 160 207 246 287 355
#     4  12  19  34  63  91 116 146 197 259 295 334
#     4  11  22  39  61  91 118 154 204 252 298 345
#     4  11  19  40  61  86 117 156 209 241 283 359
#     4  10  19  34  57  85 112 153 199 235 284 350
#
# _framework density 18.387042000000001
#
# number of rings (size 3 to 8) (size 9 to 14) (size 15 to 20)
#    0.000    1.000    7.500    1.875    1.750    0.000 
#    0.000    3.125    0.000    3.000    0.000    0.000 
#    0.000    0.000    0.000    0.000    0.000    0.000 
#
# Total GULP energy -89258.687817 kJ/mol
# GULP energy per Si atom -5578.667989 kJ/mol
# Density = 1.834519 g / cm^3
# Si number density = 18.387042 Si / 1000 Ang^3
#
#
#
# Elastic Constant Matrix: (Units=GPa)
#
#
# Indices 1 2 3 4 5 6 
#
# 1 128.8007 21.4227 49.1686 7.2683 12.5807 5.2584
# 2 21.4227 31.3792 7.3255 0.3820 2.8746 9.3256
# 3 49.1686 7.3255 100.6140 11.0563 -4.3944 7.3350
# 4 7.2683 0.3820 11.0563 19.1655 -8.2584 6.9765
# 5 12.5807 2.8746 -4.3944 -8.2584 25.9981 0.6323
# 6 5.2584 9.3256 7.3350 6.9765 0.6323 42.1918
#
#
#
# Elastic Compliance Matrix: (Units=1/GPa)
#
#
# Indices 1 2 3 4 5 6 
#
# 1 0.011810 -0.006658 -0.005171 -0.005322 -0.007589 0.001892
# 2 -0.006658 0.038720 0.000559 0.004930 0.000811 -0.008653
# 3 -0.005171 0.000559 0.013066 -0.003631 0.003525 -0.001203
# 4 -0.005322 0.004930 -0.003631 0.070970 0.024250 -0.011894
# 5 -0.007589 0.000811 0.003525 0.024250 0.050458 -0.004612
# 6 0.001892 -0.008653 -0.001203 -0.011894 -0.004612 0.027623
#
#
# Mechanical properties :
#
#
# Convention : Reuss Voigt Hill
#
# Bulk Modulus (GPa) = 24.35692 46.29194 35.32443
# Shear Modulus (GPa) = 20.09063 29.66289 24.87676
#
# Velocity S-wave (km/s) = 3.30911 4.02089 3.68224
# Velocity P-wave (km/s) = 5.27976 6.84016 6.10998
#
# Compressibility (1/GPa) = 0.04105610
#
# Stress axis : x y z
#
# Youngs Moduli (GPa) = 84.67668 25.82626 76.53484
#
# Poissons Ratio (x) = 0.17194 0.39577
# Poissons Ratio (y) = 0.56375 -0.04277
# Poissons Ratio (z) = 0.43787 -0.01443
#
# Static dielectric constant tensor:
#      x y z
#    x 1.658700 0.005730 -0.003230 
#    y 0.005730 1.659800 0.008410 
#    z -0.003230 0.008410 1.656020 
# 
# From -- ./inp_files/178994.got.cif
#   From: 2010.05.17/outbox.cif.g08.bks.cpg/sg2_90_cif.got.tgz:178994.got - 2010.06.03 11:33:40.
