data_PCOD9083571
_publ_section_title
;
Structure prediction by ZEFSAII (Michael W. Deem and Ramdas Pophale) SiO2 
 PCOD9083571
Probable space group: P -1
;
_chemical_formula_sum "Si O2"
_cell_formula_units_Z 12
_cell_length_a 12.110962
_cell_length_b 11.307276
_cell_length_c 5.453489
_cell_angle_alpha 113.337154
_cell_angle_beta 50.686147
_cell_angle_gamma 114.809343
_cell_volume 515.367162
_symmetry_space_group_name_H-M "P -1"
_symmetry_group_IT_number 2
_symmetry_cell_setting 'triclinic'
loop_
_space_group_symop_operation_xyz
x,y,z
-x,-y,-z
loop_
_atom_site_type_symbol
_atom_site_label
_atom_site_fract_x
_atom_site_fract_y
_atom_site_fract_z
Si Si1 0.346566 0.630185 0.711523
Si Si2 0.648065 0.572967 0.114856
Si Si3 0.839211 0.032909 0.262560
Si Si4 0.480433 0.076094 0.339981
Si Si5 0.926095 0.128323 0.717599
Si Si6 0.190762 0.378921 0.574605
O O1 0.479352 0.577842 0.353532
O O2 0.344873 0.578493 0.952930
O O3 0.404187 0.783875 0.723103
O O4 0.199194 0.536980 0.726236
O O5 0.722519 0.643975 0.318411
O O6 0.731524 0.631316 0.802379
O O7 0.844607 0.122250 0.569006
O O8 0.691886 0.917165 0.401189
O O9 0.830941 0.104667 0.076744
O O10 0.000000 0.000000 0.000000
O O11 0.500000 0.000000 0.500000
O O12 0.500000 0.000000 0.000000
O O13 0.043187 0.266563 0.687659
O O14 0.000000 0.000000 0.500000
#
# Coordination Sequence:
#
# PCOD9083571 Si02
#       6
#     2   2   2   2   2   2
#     4   9  23  36  64  89 135 168 229 267 338 386
#     4   9  20  32  59  94 125 163 214 284 325 377
#     4  10  23  42  64  97 129 174 221 276 326 390
#     4  12  28  45  69  98 140 183 221 274 341 405
#     4  10  21  33  62  94 133 162 207 271 338 391
#     4  10  19  34  56  97 128 162 215 275 341 370
#
# _framework density 23.284372000000001
#
# number of rings (size 3 to 8) (size 9 to 14) (size 15 to 20)
#    1.000    1.000    0.000    2.500   11.667    0.000 
#    0.000    0.000    0.000    6.000    0.000    0.000 
#    0.000    0.000    0.000    0.000    0.000    0.000 
#
# Total GULP energy -66866.100259 kJ/mol
# GULP energy per Si atom -5572.175022 kJ/mol
# Density = 2.323138 g / cm^3
# Si number density = 23.284372 Si / 1000 Ang^3
#
#
#
# Elastic Constant Matrix: (Units=GPa)
#
#
# Indices 1 2 3 4 5 6 
#
# 1 88.0567 54.4333 61.0893 -2.5948 21.1683 7.5416
# 2 54.4333 189.8589 57.4341 -10.3910 11.2687 20.7540
# 3 61.0893 57.4341 119.6471 -31.9502 32.4889 -5.0858
# 4 -2.5948 -10.3910 -31.9502 26.2283 -4.2361 3.2595
# 5 21.1683 11.2687 32.4889 -4.2361 58.5742 -6.7644
# 6 7.5416 20.7540 -5.0858 3.2595 -6.7644 32.1926
#
#
#
# Elastic Compliance Matrix: (Units=1/GPa)
#
#
# Indices 1 2 3 4 5 6 
#
# 1 0.023742 -0.002490 -0.015237 -0.016814 -0.001439 -0.004964
# 2 -0.002490 0.007172 -0.002371 0.000307 0.000352 -0.004372
# 3 -0.015237 -0.002371 0.026826 0.028583 -0.006257 0.005127
# 4 -0.016814 0.000307 0.028583 0.070628 -0.004715 0.000115
# 5 -0.001439 0.000352 -0.006257 -0.004715 0.021120 0.004037
# 6 -0.004964 -0.004372 0.005127 0.000115 0.004037 0.036691
#
#
# Mechanical properties :
#
#
# Convention : Reuss Voigt Hill
#
# Bulk Modulus (GPa) = 57.00211 82.60845 69.80528
# Shear Modulus (GPa) = 21.53102 38.37275 29.95188
#
# Velocity S-wave (km/s) = 3.04418 4.06397 3.59046
# Velocity P-wave (km/s) = 6.07372 7.58790 6.87264
#
# Compressibility (1/GPa) = 0.01754321
#
# Stress axis : x y z
#
# Youngs Moduli (GPa) = 42.11985 139.43180 37.27748
#
# Poissons Ratio (x) = 0.34714 0.56801
# Poissons Ratio (y) = 0.10486 0.08839
# Poissons Ratio (z) = 0.64179 0.33062
#
# Static dielectric constant tensor:
#      x y z
#    x 1.951590 0.023530 -0.024920 
#    y 0.023530 1.568090 0.001170 
#    z -0.024920 0.001170 1.890440 
# 
# From -- ./inp_files/94001.got.cif
#   From: 2010.05.17/outbox.cif.g08.bks.cpg/sg2_48_cif.got.tgz:94001.got - 2010.06.03 11:33:40.
