data_PCOD9083276
_publ_section_title
;
Structure prediction by ZEFSAII (Michael W. Deem and Ramdas Pophale) SiO2 
 PCOD9083276
Probable space group: P -1
;
_chemical_formula_sum "Si O2"
_cell_formula_units_Z 12
_cell_length_a 5.130521
_cell_length_b 13.386063
_cell_length_c 8.249237
_cell_angle_alpha 110.569148
_cell_angle_beta 127.223241
_cell_angle_gamma 63.259980
_cell_volume 400.376363
_symmetry_space_group_name_H-M "P -1"
_symmetry_group_IT_number 2
_symmetry_cell_setting 'triclinic'
loop_
_space_group_symop_operation_xyz
x,y,z
-x,-y,-z
loop_
_atom_site_type_symbol
_atom_site_label
_atom_site_fract_x
_atom_site_fract_y
_atom_site_fract_z
Si Si1 0.738145 0.731779 0.749257
Si Si2 0.933093 0.932713 0.272472
Si Si3 0.409209 0.446119 0.597069
Si Si4 0.554167 0.621316 0.938771
Si Si5 0.367094 0.213597 0.713591
Si Si6 0.194206 0.088300 0.326443
O O1 0.545216 0.681136 0.509538
O O2 0.641571 0.688386 0.857946
O O3 0.690441 0.862475 0.763276
O O4 0.147710 0.673898 0.850190
O O5 0.252167 0.835535 0.250382
O O6 0.678695 0.868162 0.205159
O O7 0.900989 0.030305 0.182089
O O8 0.000000 0.000000 0.500000
O O9 0.500000 0.500000 0.500000
O O10 0.610884 0.491834 0.838365
O O11 0.000000 0.500000 0.500000
O O12 0.719837 0.661019 0.180065
O O13 0.101784 0.196621 0.470657
O O14 0.500000 0.000000 0.500000
#
# Coordination Sequence:
#
# PCOD9083276 Si02
#       6
#     2   2   2   2   2   2
#     4  10  20  35  56  78 104 143 179 210 262 325
#     4   9  18  33  51  71 100 142 176 203 253 315
#     4   8  16  32  53  75 103 136 171 212 263 318
#     4  10  20  35  55  82 107 132 175 228 266 304
#     4  10  19  34  54  77 105 136 172 224 266 298
#     4   9  20  37  54  75 106 145 180 211 257 322
#
# _framework density 29.971799000000001
#
# number of rings (size 3 to 8) (size 9 to 14) (size 15 to 20)
#    0.000    2.667    0.000    2.500    0.000    8.000 
#    0.000   12.500    0.000    0.000    0.000   23.333 
#    0.000    0.000    0.000    0.000    0.000    0.000 
#
# Total GULP energy -67053.501887 kJ/mol
# GULP energy per Si atom -5587.791824 kJ/mol
# Density = 2.990358 g / cm^3
# Si number density = 29.971799 Si / 1000 Ang^3
#
#
#
# Elastic Constant Matrix: (Units=GPa)
#
#
# Indices 1 2 3 4 5 6 
#
# 1 226.6016 67.7374 17.4368 -15.6275 -52.4609 33.9521
# 2 67.7374 143.1312 51.0371 -4.5137 1.5386 45.9163
# 3 17.4368 51.0371 158.2143 44.6963 -4.4324 1.8610
# 4 -15.6275 -4.5137 44.6963 49.8954 -3.6102 5.0946
# 5 -52.4609 1.5386 -4.4324 -3.6102 33.9320 2.7327
# 6 33.9521 45.9163 1.8610 5.0946 2.7327 59.2758
#
#
#
# Elastic Compliance Matrix: (Units=1/GPa)
#
#
# Indices 1 2 3 4 5 6 
#
# 1 0.010592 -0.002844 -0.001433 0.006127 0.017384 -0.005147
# 2 -0.002844 0.013523 -0.005797 0.006125 -0.004392 -0.008988
# 3 -0.001433 -0.005797 0.011662 -0.012203 -0.002219 0.006096
# 4 0.006127 0.006125 -0.012203 0.035510 0.012305 -0.011491
# 5 0.017384 -0.004392 -0.002219 0.012305 0.058389 -0.010235
# 6 -0.005147 -0.008988 0.006096 -0.011491 -0.010235 0.028049
#
#
# Mechanical properties :
#
#
# Convention : Reuss Voigt Hill
#
# Bulk Modulus (GPa) = 63.98401 88.92997 76.45699
# Shear Modulus (GPa) = 27.30994 54.73637 41.02316
#
# Velocity S-wave (km/s) = 3.02186 4.27812 3.70364
# Velocity P-wave (km/s) = 5.79396 7.35790 6.62226
#
# Compressibility (1/GPa) = 0.01562890
#
# Stress axis : x y z
#
# Youngs Moduli (GPa) = 94.41367 73.94613 85.74857
#
# Poissons Ratio (x) = 0.21030 0.12291
# Poissons Ratio (y) = 0.26851 0.49706
# Poissons Ratio (z) = 0.13533 0.42864
#
# Static dielectric constant tensor:
#      x y z
#    x 2.507790 0.007470 0.032980 
#    y 0.007470 2.370470 0.065350 
#    z 0.032980 0.065350 2.487800 
# 
# From -- ./inp_files/133660.got.cif
#   From: 2010.05.17/outbox.cif.g08.bks.cpg/sg2_67_cif.got.tgz:133660.got - 2010.06.03 11:33:40.
