data_PCOD9083138
_publ_section_title
;
Structure prediction by ZEFSAII (Michael W. Deem and Ramdas Pophale) SiO2 
 PCOD9083138
Probable space group: P -1
;
_chemical_formula_sum "Si O2"
_cell_formula_units_Z 16
_cell_length_a 11.132976
_cell_length_b 13.638129
_cell_length_c 14.309333
_cell_angle_alpha 124.373885
_cell_angle_beta 149.747974
_cell_angle_gamma 73.219144
_cell_volume 793.271983
_symmetry_space_group_name_H-M "P -1"
_symmetry_group_IT_number 2
_symmetry_cell_setting 'triclinic'
loop_
_space_group_symop_operation_xyz
x,y,z
-x,-y,-z
loop_
_atom_site_type_symbol
_atom_site_label
_atom_site_fract_x
_atom_site_fract_y
_atom_site_fract_z
Si Si1 0.043935 0.262968 0.554244
Si Si2 0.264583 0.495137 0.975358
Si Si3 0.889778 0.604150 0.507044
Si Si4 0.130457 0.418505 0.299196
Si Si5 0.297265 0.132383 0.762640
Si Si6 0.632289 0.712796 0.752093
Si Si7 0.097525 0.246057 0.847888
Si Si8 0.408412 0.912076 0.693548
O O1 0.175007 0.408240 0.772354
O O2 0.967847 0.271828 0.402469
O O3 0.263984 0.211782 0.694771
O O4 0.779642 0.165908 0.384767
O O5 0.119909 0.386168 0.901998
O O6 0.144685 0.597322 0.940546
O O7 0.578153 0.551584 0.238612
O O8 0.910101 0.620422 0.640357
O O9 0.000000 0.500000 0.500000
O O10 0.350224 0.578966 0.520224
O O11 0.248563 0.335090 0.278260
O O12 0.303255 0.218425 0.904279
O O13 0.497998 0.069683 0.852815
O O14 0.000000 0.000000 0.500000
O O15 0.597589 0.843123 0.774605
O O16 0.821275 0.748299 0.988876
O O17 0.796180 0.134650 0.557439
#
# Coordination Sequence:
#
# PCOD9083138 Si02
#       8
#     2   2   2   2   2   2   2   2
#     4   9  17  31  50  76 103 128 160 209 258 298
#     4  10  19  34  47  73 107 133 167 202 252 304
#     4  12  21  32  53  73 103 139 168 203 256 302
#     4  11  23  33  46  77 104 144 171 202 243 306
#     4   7  15  31  53  76 101 124 168 211 265 297
#     4  11  20  33  51  72 107 136 178 203 243 302
#     4   9  17  30  50  74 103 133 159 210 259 293
#     4   9  17  35  54  77 102 128 166 220 254 299
#
# _framework density 20.169626000000001
#
# number of rings (size 3 to 8) (size 9 to 14) (size 15 to 20)
#    0.000    2.750    5.000    0.375    0.000    2.000 
#    0.000    0.000    0.000    0.750    0.000    8.750 
#    0.000    0.000    0.000    0.000    0.000    0.000 
#
# Total GULP energy -89173.735516 kJ/mol
# GULP energy per Si atom -5573.358470 kJ/mol
# Density = 2.012372 g / cm^3
# Si number density = 20.169626 Si / 1000 Ang^3
#
#
#
# Elastic Constant Matrix: (Units=GPa)
#
#
# Indices 1 2 3 4 5 6 
#
# 1 87.5489 59.2754 32.9865 -24.9180 -25.4544 -13.3712
# 2 59.2754 117.1418 17.0564 -32.2818 -17.5592 -22.6408
# 3 32.9865 17.0564 71.4041 -24.6086 -12.9617 -1.1626
# 4 -24.9180 -32.2818 -24.6086 23.3881 7.3022 4.2282
# 5 -25.4544 -17.5592 -12.9617 7.3022 24.3983 -2.4271
# 6 -13.3712 -22.6408 -1.1626 4.2282 -2.4271 11.3861
#
#
#
# Elastic Compliance Matrix: (Units=1/GPa)
#
#
# Indices 1 2 3 4 5 6 
#
# 1 0.031146 0.000750 -0.003598 0.013689 0.030926 0.039209
# 2 0.000750 0.030668 0.009995 0.036859 0.022503 0.053994
# 3 -0.003598 0.009995 0.026626 0.034099 0.008119 0.007437
# 4 0.013689 0.036859 0.034099 0.126645 0.026132 0.051391
# 5 0.030926 0.022503 0.008119 0.026132 0.095138 0.092471
# 6 0.039209 0.053994 0.007437 0.051391 0.092471 0.242624
#
#
# Mechanical properties :
#
#
# Convention : Reuss Voigt Hill
#
# Bulk Modulus (GPa) = 9.73383 54.97017 32.35200
# Shear Modulus (GPa) = 8.72908 22.95292 15.84100
#
# Velocity S-wave (km/s) = 2.08260 3.37708 2.80552
# Velocity P-wave (km/s) = 3.25875 6.52068 5.15455
#
# Compressibility (1/GPa) = 0.10273448
#
# Stress axis : x y z
#
# Youngs Moduli (GPa) = 32.10662 32.60697 37.55740
#
# Poissons Ratio (x) = -0.02445 0.13512
# Poissons Ratio (y) = -0.02407 -0.37538
# Poissons Ratio (z) = 0.11551 -0.32590
#
# Static dielectric constant tensor:
#      x y z
#    x 1.744490 -0.006040 0.056220 
#    y -0.006040 1.778730 0.008270 
#    z 0.056220 0.008270 1.764670 
# 
# From -- ./inp_files/520967.got.cif
#   From: 2010.05.17/outbox.cif.g08.bks.cpg/sg2_261_cif.got.tgz:520967.got - 2010.06.03 11:33:40.
