data_PCOD9083669
_publ_section_title
;
Structure prediction by ZEFSAII (Michael W. Deem and Ramdas Pophale) SiO2 
 PCOD9083669
Probable space group: P -1
;
_chemical_formula_sum "Si O2"
_cell_formula_units_Z 16
_cell_length_a 14.635182
_cell_length_b 12.090379
_cell_length_c 12.279593
_cell_angle_alpha 144.115587
_cell_angle_beta 118.046377
_cell_angle_gamma 89.247393
_cell_volume 790.420077
_symmetry_space_group_name_H-M "P -1"
_symmetry_group_IT_number 2
_symmetry_cell_setting 'triclinic'
loop_
_space_group_symop_operation_xyz
x,y,z
-x,-y,-z
loop_
_atom_site_type_symbol
_atom_site_label
_atom_site_fract_x
_atom_site_fract_y
_atom_site_fract_z
Si Si1 0.975963 0.834999 0.750495
Si Si2 0.586893 0.439062 0.638952
Si Si3 0.315581 0.624139 0.676420
Si Si4 0.645403 0.112668 0.305113
Si Si5 0.784937 0.563700 0.014207
Si Si6 0.292169 0.190363 0.192855
Si Si7 0.930913 0.967467 0.602420
Si Si8 0.172228 0.776344 0.310318
O O1 0.820621 0.534503 0.444982
O O2 0.967248 0.950784 0.730231
O O3 0.000000 0.000000 0.000000
O O4 0.124643 0.906662 0.878936
O O5 0.645366 0.319476 0.525478
O O6 0.413469 0.222913 0.347320
O O7 0.654761 0.697672 0.811608
O O8 0.646420 0.505513 0.847615
O O9 0.311964 0.788554 0.716992
O O10 0.300352 0.405732 0.429079
O O11 0.476641 0.827466 0.982378
O O12 0.753936 0.129719 0.453537
O O13 0.918142 0.792415 0.187543
O O14 0.844931 0.696687 0.271207
O O15 0.756551 0.303946 0.780198
O O16 0.829986 0.022888 0.585096
O O17 0.000000 0.500000 0.000000
#
# Coordination Sequence:
#
# PCOD9083669 Si02
#       8
#     2   2   2   2   2   2   2   2
#     4  10  20  35  58  78 117 147 184 233 285 347
#     4   9  16  30  54  76 110 136 181 234 279 317
#     4   9  19  33  56  76 108 148 181 236 274 339
#     4   9  18  35  53  83 108 138 194 231 281 326
#     4   9  18  33  55  85 113 142 189 245 267 332
#     4   9  17  30  53  79 104 145 182 224 280 333
#     4  10  19  34  57  85 108 152 190 228 290 333
#     4   9  19  32  57  82 113 143 185 241 277 330
#
# _framework density 20.2424
#
# number of rings (size 3 to 8) (size 9 to 14) (size 15 to 20)
#    0.000    2.750    1.250    0.000    7.000    0.000 
#    0.000    1.250    5.500    1.500    0.000    0.000 
#    0.000    0.000    0.000    0.000    0.000    0.125 
#
# Total GULP energy -89207.821359 kJ/mol
# GULP energy per Si atom -5575.488835 kJ/mol
# Density = 2.019633 g / cm^3
# Si number density = 20.242400 Si / 1000 Ang^3
#
#
#
# Elastic Constant Matrix: (Units=GPa)
#
#
# Indices 1 2 3 4 5 6 
#
# 1 42.9786 34.6516 14.2137 -10.3444 16.8679 -7.9464
# 2 34.6516 67.8186 35.2752 -30.5657 9.8491 -4.7873
# 3 14.2137 35.2752 77.0040 -22.5329 20.1816 1.3395
# 4 -10.3444 -30.5657 -22.5329 38.1256 -2.7290 6.2448
# 5 16.8679 9.8491 20.1816 -2.7290 40.4996 -3.5241
# 6 -7.9464 -4.7873 1.3395 6.2448 -3.5241 25.8042
#
#
#
# Elastic Compliance Matrix: (Units=1/GPa)
#
#
# Indices 1 2 3 4 5 6 
#
# 1 0.052890 -0.031589 0.005994 -0.010342 -0.017136 0.010278
# 2 -0.031589 0.044884 -0.010138 0.022884 0.008377 -0.005269
# 3 0.005994 -0.010138 0.021045 0.005838 -0.010470 -0.003970
# 4 -0.010342 0.022884 0.005838 0.046857 -0.001953 -0.010849
# 5 -0.017136 0.008377 -0.010470 -0.001953 0.035059 0.002081
# 6 0.010278 -0.005269 -0.003970 -0.010849 0.002081 0.044057
#
#
# Mechanical properties :
#
#
# Convention : Reuss Voigt Hill
#
# Bulk Modulus (GPa) = 21.11746 39.56468 30.34107
# Shear Modulus (GPa) = 15.05837 27.79660 21.42748
#
# Velocity S-wave (km/s) = 2.73042 3.70967 3.25706
# Velocity P-wave (km/s) = 4.51610 6.15928 5.40055
#
# Compressibility (1/GPa) = 0.04735418
#
# Stress axis : x y z
#
# Youngs Moduli (GPa) = 18.90715 22.27982 47.51615
#
# Poissons Ratio (x) = 0.70379 -0.28481
# Poissons Ratio (y) = 0.59725 0.48170
# Poissons Ratio (z) = -0.11333 0.22587
#
# Static dielectric constant tensor:
#      x y z
#    x 1.764860 -0.010050 -0.019010 
#    y -0.010050 1.711380 -0.002070 
#    z -0.019010 -0.002070 1.782310 
# 
# From -- ./inp_files/389529.got.cif
#   From: 2010.05.17/outbox.cif.g08.bks.cpg/sg2_195_cif.got.tgz:389529.got - 2010.06.03 11:33:40.
