data_PCOD9083877
_publ_section_title
;
Structure prediction by ZEFSAII (Michael W. Deem and Ramdas Pophale) SiO2 
 PCOD9083877
Probable space group: P -1
;
_chemical_formula_sum "Si O2"
_cell_formula_units_Z 16
_cell_length_a 20.405400
_cell_length_b 17.737593
_cell_length_c 11.960854
_cell_angle_alpha 149.660212
_cell_angle_beta 138.386593
_cell_angle_gamma 21.124007
_cell_volume 747.870897
_symmetry_space_group_name_H-M "P -1"
_symmetry_group_IT_number 2
_symmetry_cell_setting 'triclinic'
loop_
_space_group_symop_operation_xyz
x,y,z
-x,-y,-z
loop_
_atom_site_type_symbol
_atom_site_label
_atom_site_fract_x
_atom_site_fract_y
_atom_site_fract_z
Si Si1 0.386447 0.367251 0.431099
Si Si2 0.450378 0.114312 0.836691
Si Si3 0.854333 0.550368 0.292076
Si Si4 0.874262 0.052969 0.049153
Si Si5 0.228337 0.049204 0.672353
Si Si6 0.139788 0.512325 0.127370
Si Si7 0.152624 0.367328 0.354276
Si Si8 0.893957 0.959482 0.715423
O O1 0.285536 0.642285 0.704937
O O2 0.236475 0.456837 0.290148
O O3 0.490591 0.124633 0.343575
O O4 0.549019 0.215006 0.358261
O O5 0.345935 0.239766 0.745452
O O6 0.655413 0.929431 0.844820
O O7 0.277927 0.393931 0.054455
O O8 0.815488 0.666200 0.514170
O O9 0.956429 0.527813 0.304294
O O10 0.019509 0.212886 0.087328
O O11 0.044410 0.951238 0.113373
O O12 0.796832 0.086233 0.875891
O O13 0.208015 0.979512 0.443292
O O14 0.086901 0.165333 0.734534
O O15 0.159230 0.308084 0.891525
O O16 0.088000 0.613011 0.542214
#
# Coordination Sequence:
#
# PCOD9083877 Si02
#       8
#     2   2   2   2   2   2   2   2
#     4  11  21  37  62  90 118 150 200 245 289 341
#     4  11  20  35  61  84 108 155 199 236 280 349
#     4  10  23  37  56  85 123 151 187 239 298 340
#     4  10  21  39  58  88 125 154 181 246 300 344
#     4  10  19  34  58  90 115 147 196 250 283 335
#     4  10  21  35  57  91 119 145 197 257 284 324
#     4  10  19  38  59  83 116 155 196 236 280 351
#     4  10  19  37  64  86 118 156 193 238 292 345
#
# _framework density 21.394065999999999
#
# number of rings (size 3 to 8) (size 9 to 14) (size 15 to 20)
#    0.000    1.750    2.500    3.375    0.000    3.500 
#    2.250    0.625    0.000    1.500    0.000    0.000 
#    0.000    0.000    0.000    0.000    0.000    0.000 
#
# Total GULP energy -89146.323485 kJ/mol
# GULP energy per Si atom -5571.645218 kJ/mol
# Density = 2.134537 g / cm^3
# Si number density = 21.394066 Si / 1000 Ang^3
#
#
#
# Elastic Constant Matrix: (Units=GPa)
#
#
# Indices 1 2 3 4 5 6 
#
# 1 62.4926 9.9197 12.7761 4.8220 -10.6817 -6.6477
# 2 9.9197 35.4499 -1.7421 -7.1711 1.3454 -1.6896
# 3 12.7761 -1.7421 59.0854 -17.4239 2.7654 15.4970
# 4 4.8220 -7.1711 -17.4239 12.0652 9.3907 22.9704
# 5 -10.6817 1.3454 2.7654 9.3907 11.0596 -16.4532
# 6 -6.6477 -1.6896 15.4970 22.9704 -16.4532 -16.0396
#
#
#
# Elastic Compliance Matrix: (Units=1/GPa)
#
#
# Indices 1 2 3 4 5 6 
#
# 1 0.016549 -0.004828 -0.001192 0.001831 0.003188 -0.008151
# 2 -0.004828 0.031258 0.001374 0.005862 -0.000493 0.008936
# 3 -0.001192 0.001374 0.014872 0.000827 0.007094 0.008626
# 4 0.001831 0.005862 0.000827 0.028085 0.014243 0.025033
# 5 0.003188 -0.000493 0.007094 0.014243 0.046849 -0.022076
# 6 -0.008151 0.008936 0.008626 0.025033 -0.022076 0.006921
#
#
# Mechanical properties :
#
#
# Convention : Reuss Voigt Hill
#
# Bulk Modulus (GPa) = 18.73192 22.10393 20.41792
# Shear Modulus (GPa) = 29.13363 10.48864 19.81113
#
# Velocity S-wave (km/s) = 3.69421 2.21658 3.04634
# Velocity P-wave (km/s) = 5.19335 4.11160 4.68381
#
# Compressibility (1/GPa) = 0.05338482
#
# Stress axis : x y z
#
# Youngs Moduli (GPa) = 60.42741 31.99185 67.23912
#
# Poissons Ratio (x) = 0.15447 0.08017
# Poissons Ratio (y) = 0.29177 -0.09236
# Poissons Ratio (z) = 0.07205 -0.04395
#
# Static dielectric constant tensor:
#      x y z
#    x 1.827480 -0.033600 -0.061240 
#    y -0.033600 1.757410 -0.023600 
#    z -0.061240 -0.023600 1.792440 
# 
# From -- ./inp_files/352057.got.cif
#   From: 2010.05.17/outbox.cif.g08.bks.cpg/sg2_177_cif.got.tgz:352057.got - 2010.06.03 11:33:40.
