data_PCOD9083608
_publ_section_title
;
Structure prediction by ZEFSAII (Michael W. Deem and Ramdas Pophale) SiO2 
 PCOD9083608
Probable space group: P -1
;
_chemical_formula_sum "Si O2"
_cell_formula_units_Z 14
_cell_length_a 13.747478
_cell_length_b 22.279968
_cell_length_c 9.073557
_cell_angle_alpha 23.313017
_cell_angle_beta 44.186049
_cell_angle_gamma 30.663023
_cell_volume 523.080940
_symmetry_space_group_name_H-M "P -1"
_symmetry_group_IT_number 2
_symmetry_cell_setting 'triclinic'
loop_
_space_group_symop_operation_xyz
x,y,z
-x,-y,-z
loop_
_atom_site_type_symbol
_atom_site_label
_atom_site_fract_x
_atom_site_fract_y
_atom_site_fract_z
Si Si1 0.713093 0.093722 0.635621
Si Si2 0.689243 0.951275 0.467979
Si Si3 0.886600 0.710729 0.517082
Si Si4 0.694124 0.302726 0.586347
Si Si5 0.742854 0.389848 0.651664
Si Si6 0.537079 0.848018 0.432231
Si Si7 0.030801 0.875575 0.566337
O O1 0.516078 0.251516 0.390009
O O2 0.788211 0.197833 0.367470
O O3 0.893237 0.884086 0.803407
O O4 0.737748 0.968504 0.035420
O O5 0.866514 0.733544 0.665284
O O6 0.500000 0.000000 0.500000
O O7 0.625790 0.002345 0.594578
O O8 0.727073 0.101266 0.057112
O O9 0.761880 0.679028 0.639986
O O10 0.117497 0.578501 0.529365
O O11 0.688145 0.418712 0.472121
O O12 0.480727 0.446102 0.409620
O O13 0.867111 0.238354 0.441694
O O14 0.881418 0.134957 0.106949
O O15 0.500000 0.000000 0.000000
#
# Coordination Sequence:
#
# PCOD9083608 Si02
#       7
#     2   2   2   2   2   2   2
#     4   9  17  31  55  86 110 151 192 222 286 335
#     4  10  19  34  58  82 106 151 191 226 286 332
#     4   9  18  35  53  82 114 145 193 232 275 337
#     4  11  21  35  57  86 118 148 187 239 283 333
#     4  10  21  34  56  87 117 146 192 231 288 334
#     4   9  18  31  54  84 109 141 190 237 272 339
#     4  10  19  34  57  81 116 151 188 233 281 336
#
# _framework density 26.764499000000001
#
# number of rings (size 3 to 8) (size 9 to 14) (size 15 to 20)
#    0.000    2.286    2.857    1.286    2.000    0.000 
#    0.000    9.286    0.000    0.857    0.000    0.000 
#    0.000    0.000    0.000    0.000    0.000    0.000 
#
# Total GULP energy -78005.834027 kJ/mol
# GULP energy per Si atom -5571.845288 kJ/mol
# Density = 2.670358 g / cm^3
# Si number density = 26.764499 Si / 1000 Ang^3
#
#
#
# Elastic Constant Matrix: (Units=GPa)
#
#
# Indices 1 2 3 4 5 6 
#
# 1 161.0318 1.3835 31.6548 -2.9975 37.5741 -23.0224
# 2 1.3835 107.9522 31.7553 20.0189 16.0974 1.3415
# 3 31.6548 31.7553 80.1507 14.7914 4.5331 -6.3017
# 4 -2.9975 20.0189 14.7914 38.7497 -6.8412 14.0880
# 5 37.5741 16.0974 4.5331 -6.8412 44.5996 -0.9314
# 6 -23.0224 1.3415 -6.3017 14.0880 -0.9314 38.9308
#
#
#
# Elastic Compliance Matrix: (Units=1/GPa)
#
#
# Indices 1 2 3 4 5 6 
#
# 1 0.009844 0.002789 -0.003379 -0.003268 -0.009329 0.006137
# 2 0.002789 0.012918 -0.004210 -0.007281 -0.007639 0.002975
# 3 -0.003379 -0.004210 0.016503 -0.005011 0.001977 0.002678
# 4 -0.003268 -0.007281 -0.005011 0.039238 0.011566 -0.016415
# 5 -0.009329 -0.007639 0.001977 0.011566 0.034439 -0.008295
# 6 0.006137 0.002975 0.002678 -0.016415 -0.008295 0.035389
#
#
# Mechanical properties :
#
#
# Convention : Reuss Voigt Hill
#
# Bulk Modulus (GPa) = 33.71123 53.19132 43.45128
# Shear Modulus (GPa) = 29.79390 43.41208 36.60299
#
# Velocity S-wave (km/s) = 3.34007 4.03178 3.70211
# Velocity P-wave (km/s) = 5.24381 6.44908 5.87742
#
# Compressibility (1/GPa) = 0.02966370
#
# Stress axis : x y z
#
# Youngs Moduli (GPa) = 101.58701 77.40877 60.59659
#
# Poissons Ratio (x) = -0.21588 0.20478
# Poissons Ratio (y) = -0.28330 0.25511
# Poissons Ratio (z) = 0.34330 0.32589
#
# Static dielectric constant tensor:
#      x y z
#    x 2.237640 -0.051440 -0.052880 
#    y -0.051440 2.207200 0.102810 
#    z -0.052880 0.102810 2.244680 
# 
# From -- ./inp_files/304147.got.cif
#   From: 2010.05.17/outbox.cif.g08.bks.cpg/sg2_153_cif.got.tgz:304147.got - 2010.06.03 11:33:40.
