data_PCOD9083543
_publ_section_title
;
Structure prediction by ZEFSAII (Michael W. Deem and Ramdas Pophale) SiO2 
 PCOD9083543
Probable space group: P -1
;
_chemical_formula_sum "Si O2"
_cell_formula_units_Z 14
_cell_length_a 13.568511
_cell_length_b 11.325879
_cell_length_c 8.753911
_cell_angle_alpha 132.039343
_cell_angle_beta 62.546471
_cell_angle_gamma 146.565318
_cell_volume 534.540853
_symmetry_space_group_name_H-M "P -1"
_symmetry_group_IT_number 2
_symmetry_cell_setting 'triclinic'
loop_
_space_group_symop_operation_xyz
x,y,z
-x,-y,-z
loop_
_atom_site_type_symbol
_atom_site_label
_atom_site_fract_x
_atom_site_fract_y
_atom_site_fract_z
Si Si1 0.014268 0.951019 0.225412
Si Si2 0.833117 0.013668 0.560850
Si Si3 0.013668 0.504730 0.750231
Si Si4 0.345054 0.628257 0.892297
Si Si5 0.287594 0.070360 0.982163
Si Si6 0.734446 0.240436 0.479252
Si Si7 0.502185 0.147887 0.340967
O O1 0.839893 0.638823 0.122587
O O2 0.148608 0.078399 0.386085
O O3 0.149176 0.061439 0.083683
O O4 0.918063 0.011597 0.358251
O O5 0.959906 0.315085 0.746706
O O6 0.632898 0.858244 0.550655
O O7 0.107627 0.530476 0.557872
O O8 0.828812 0.361111 0.678945
O O9 0.166630 0.808175 0.945490
O O10 0.351973 0.639933 0.712434
O O11 0.509836 0.697718 0.890865
O O12 0.408796 0.878944 0.110592
O O13 0.300895 0.983634 0.741299
O O14 0.575661 0.176276 0.478882
#
# Coordination Sequence:
#
# PCOD9083543 Si02
#       7
#     2   2   2   2   2   2   2
#     4  11  23  37  52  82 124 148 180 220 284 339
#     4  11  23  35  52  84 117 153 178 225 279 339
#     4   9  18  37  60  81 108 142 194 227 274 323
#     4  10  20  34  58  86 112 140 184 237 278 327
#     4   9  18  38  59  84 109 142 186 234 275 321
#     4   8  18  35  60  85 102 142 191 236 271 315
#     4  10  19  34  56  87 109 138 191 232 277 318
#
# _framework density 26.190702999999999
#
# number of rings (size 3 to 8) (size 9 to 14) (size 15 to 20)
#    0.857    1.429    1.429    1.714    2.000    2.286 
#    2.571    0.714    0.000    5.143    0.000    0.000 
#    0.000    0.000    0.000    0.000    0.000    0.000 
#
# Total GULP energy -78121.054481 kJ/mol
# GULP energy per Si atom -5580.075320 kJ/mol
# Density = 2.613109 g / cm^3
# Si number density = 26.190703 Si / 1000 Ang^3
#
#
#
# Elastic Constant Matrix: (Units=GPa)
#
#
# Indices 1 2 3 4 5 6 
#
# 1 88.7712 35.2266 29.2405 -5.7987 -11.0434 46.1597
# 2 35.2266 88.3986 30.9913 -24.6028 -3.5115 36.0082
# 3 29.2405 30.9913 75.3423 -27.6031 -19.2615 15.1993
# 4 -5.7987 -24.6028 -27.6031 46.6065 7.9574 -13.2744
# 5 -11.0434 -3.5115 -19.2615 7.9574 29.0225 -7.7544
# 6 46.1597 36.0082 15.1993 -13.2744 -7.7544 58.8891
#
#
#
# Elastic Compliance Matrix: (Units=1/GPa)
#
#
# Indices 1 2 3 4 5 6 
#
# 1 0.022290 -0.001877 -0.006911 -0.007086 0.001347 -0.015960
# 2 -0.001877 0.018137 -0.004490 0.005287 -0.005070 -0.007936
# 3 -0.006911 -0.004490 0.023191 0.010325 0.010977 0.005950
# 4 -0.007086 0.005287 0.010325 0.031706 -0.002155 0.006520
# 5 0.001347 -0.005070 0.010977 -0.002155 0.043418 0.004443
# 6 -0.015960 -0.007936 0.005950 0.006520 0.004443 0.034863
#
#
# Mechanical properties :
#
#
# Convention : Reuss Voigt Hill
#
# Bulk Modulus (GPa) = 26.98238 49.26987 38.12613
# Shear Modulus (GPa) = 23.52780 37.37387 30.45084
#
# Velocity S-wave (km/s) = 3.00046 3.78165 3.41348
# Velocity P-wave (km/s) = 4.72529 6.15797 5.48858
#
# Compressibility (1/GPa) = 0.03706122
#
# Stress axis : x y z
#
# Youngs Moduli (GPa) = 44.86327 55.13540 43.12069
#
# Poissons Ratio (x) = 0.10349 0.29800
# Poissons Ratio (y) = 0.08421 0.19363
# Poissons Ratio (z) = 0.31004 0.24758
#
# Static dielectric constant tensor:
#      x y z
#    x 2.055770 0.098850 -0.050400 
#    y 0.098850 2.192000 -0.018680 
#    z -0.050400 -0.018680 2.137370 
# 
# From -- ./inp_files/349812.got.cif
#   From: 2010.05.17/outbox.cif.g08.bks.cpg/sg2_175_cif.got.tgz:349812.got - 2010.06.03 11:33:40.
