data_PCOD9083741
_publ_section_title
;
Structure prediction by ZEFSAII (Michael W. Deem and Ramdas Pophale) SiO2 
 PCOD9083741
Probable space group: P -1
;
_chemical_formula_sum "Si O2"
_cell_formula_units_Z 16
_cell_length_a 13.260887
_cell_length_b 10.259979
_cell_length_c 7.866322
_cell_angle_alpha 103.561278
_cell_angle_beta 121.559786
_cell_angle_gamma 43.643730
_cell_volume 610.182090
_symmetry_space_group_name_H-M "P -1"
_symmetry_group_IT_number 2
_symmetry_cell_setting 'triclinic'
loop_
_space_group_symop_operation_xyz
x,y,z
-x,-y,-z
loop_
_atom_site_type_symbol
_atom_site_label
_atom_site_fract_x
_atom_site_fract_y
_atom_site_fract_z
Si Si1 0.368113 0.517989 0.989145
Si Si2 0.941556 0.109789 0.302576
Si Si3 0.306409 0.420479 0.442894
Si Si4 0.046919 0.397743 0.691929
Si Si5 0.393696 0.233917 0.097266
Si Si6 0.470621 0.943288 0.284266
Si Si7 0.862824 0.897811 0.094591
Si Si8 0.793404 0.268172 0.737973
O O1 0.181081 0.663807 0.769098
O O2 0.316819 0.626444 0.160080
O O3 0.500000 0.500000 0.000000
O O4 0.448911 0.306395 0.042657
O O5 0.112802 0.949646 0.287468
O O6 0.817541 0.089619 0.128040
O O7 0.000000 0.000000 0.500000
O O8 0.380465 0.315613 0.294561
O O9 0.425985 0.276514 0.657773
O O10 0.135061 0.471682 0.334166
O O11 0.290720 0.594211 0.460726
O O12 0.000000 0.500000 0.500000
O O13 0.200660 0.353471 0.902545
O O14 0.114104 0.189029 0.724574
O O15 0.511468 0.007668 0.181516
O O16 0.272968 0.072169 0.121354
O O17 0.500000 0.000000 0.500000
O O18 0.044649 0.760901 0.115708
#
# Coordination Sequence:
#
# PCOD9083741 Si02
#       8
#     2   2   2   2   2   2   2   2
#     4  11  23  42  64  94 130 174 218 275 325 374
#     4  10  22  43  67  87 126 175 229 267 316 383
#     4   9  17  35  63  94 124 163 204 267 325 394
#     4  10  19  34  57  93 121 163 208 261 324 387
#     4   9  20  37  60  88 132 164 214 257 322 394
#     4   9  17  35  63 100 130 159 206 265 336 398
#     4   8  19  38  61  93 130 165 216 267 321 394
#     4   8  19  41  68  91 128 172 219 269 321 387
#
# _framework density 26.221682999999999
#
# number of rings (size 3 to 8) (size 9 to 14) (size 15 to 20)
#    0.750    2.000    0.000    0.750    1.750    3.000 
#    6.750    5.625    0.000    0.000    0.000    0.000 
#    0.000    0.125    0.000    0.000    0.000    0.000 
#
# Total GULP energy -89220.477290 kJ/mol
# GULP energy per Si atom -5576.279831 kJ/mol
# Density = 2.616200 g / cm^3
# Si number density = 26.221683 Si / 1000 Ang^3
#
#
#
# Elastic Constant Matrix: (Units=GPa)
#
#
# Indices 1 2 3 4 5 6 
#
# 1 133.5540 26.8981 43.1494 -16.5265 -32.4845 -0.5785
# 2 26.8981 78.3268 41.7879 -39.9835 -24.4073 10.8115
# 3 43.1494 41.7879 157.1736 -32.9741 -37.1384 4.4399
# 4 -16.5265 -39.9835 -32.9741 51.9686 10.2200 -15.3568
# 5 -32.4845 -24.4073 -37.1384 10.2200 49.7496 -7.4120
# 6 -0.5785 10.8115 4.4399 -15.3568 -7.4120 38.5638
#
#
#
# Elastic Compliance Matrix: (Units=1/GPa)
#
#
# Indices 1 2 3 4 5 6 
#
# 1 0.009348 -0.000655 -0.000943 0.001461 0.005075 0.001989
# 2 -0.000655 0.024197 -0.001027 0.016707 0.007455 0.001411
# 3 -0.000943 -0.001027 0.008870 0.004112 0.004931 0.001838
# 4 0.001461 0.016707 0.004112 0.037157 0.006204 0.010854
# 5 0.005075 0.007455 0.004931 0.006204 0.030331 0.005718
# 6 0.001989 0.001411 0.001838 0.010854 0.005718 0.030775
#
#
# Mechanical properties :
#
#
# Convention : Reuss Voigt Hill
#
# Bulk Modulus (GPa) = 26.90615 65.85834 46.38224
# Shear Modulus (GPa) = 31.58269 45.20433 38.39351
#
# Velocity S-wave (km/s) = 3.47428 4.15653 3.83062
# Velocity P-wave (km/s) = 5.13590 6.94306 6.10670
#
# Compressibility (1/GPa) = 0.03716622
#
# Stress axis : x y z
#
# Youngs Moduli (GPa) = 106.97638 41.32825 112.73836
#
# Poissons Ratio (x) = 0.02706 0.10629
# Poissons Ratio (y) = 0.07004 0.11574
# Poissons Ratio (z) = 0.10086 0.04243
#
# Static dielectric constant tensor:
#      x y z
#    x 2.012680 0.032550 -0.008300 
#    y 0.032550 2.237850 -0.065300 
#    z -0.008300 -0.065300 2.127940 
# 
# From -- ./inp_files/303092.got.cif
#   From: 2010.05.17/outbox.cif.g08.bks.cpg/sg2_152_cif.got.tgz:303092.got - 2010.06.03 11:33:40.
