data_PCOD9083696
_publ_section_title
;
Structure prediction by ZEFSAII (Michael W. Deem and Ramdas Pophale) SiO2 
 PCOD9083696
Probable space group: P -1
;
_chemical_formula_sum "Si O2"
_cell_formula_units_Z 10
_cell_length_a 10.821801
_cell_length_b 7.922427
_cell_length_c 10.746762
_cell_angle_alpha 113.316448
_cell_angle_beta 155.036171
_cell_angle_gamma 69.775242
_cell_volume 356.899630
_symmetry_space_group_name_H-M "P -1"
_symmetry_group_IT_number 2
_symmetry_cell_setting 'triclinic'
loop_
_space_group_symop_operation_xyz
x,y,z
-x,-y,-z
loop_
_atom_site_type_symbol
_atom_site_label
_atom_site_fract_x
_atom_site_fract_y
_atom_site_fract_z
Si Si1 0.468031 0.702146 0.090295
Si Si2 0.437885 0.152743 0.385584
Si Si3 0.642756 0.222499 0.256178
Si Si4 0.970101 0.857620 0.210168
Si Si5 0.879803 0.630990 0.643736
O O1 0.378189 0.819603 0.922355
O O2 0.221812 0.670052 0.960362
O O3 0.500000 0.500000 0.000000
O O4 0.754196 0.748038 0.446249
O O5 0.268730 0.310621 0.348140
O O6 0.747738 0.221482 0.629869
O O7 0.500000 0.000000 0.500000
O O8 0.216081 0.064764 0.053790
O O9 0.805551 0.420296 0.481648
O O10 0.836547 0.086934 0.475216
O O11 0.314331 0.242593 0.014112
#
# Coordination Sequence:
#
# PCOD9083696 Si02
#       5
#     2   2   2   2   2
#     4  10  19  34  57  87 119 145 175 224 284 344
#     4  11  24  41  57  78 111 155 199 226 263 328
#     4  10  19  35  57  89 116 135 179 231 295 340
#     4  10  22  36  59  81 113 149 179 237 286 322
#     4  11  21  34  60  87 114 151 182 225 277 332
#
# _framework density 28.019082000000001
#
# number of rings (size 3 to 8) (size 9 to 14) (size 15 to 20)
#    0.000    1.600    0.000    7.800    0.000    4.800 
#    0.000    0.000    0.000   24.000    0.000    0.000 
#    0.000    0.000    0.000    0.000    0.000    0.000 
#
# Total GULP energy -55904.994032 kJ/mol
# GULP energy per Si atom -5590.499403 kJ/mol
# Density = 2.795531 g / cm^3
# Si number density = 28.019082 Si / 1000 Ang^3
#
#
#
# Elastic Constant Matrix: (Units=GPa)
#
#
# Indices 1 2 3 4 5 6 
#
# 1 168.0181 24.4175 51.2885 -4.6508 5.3419 0.8440
# 2 24.4175 87.6120 34.7915 -0.8195 -20.3274 4.5462
# 3 51.2885 34.7915 204.9809 -16.8084 -7.3706 16.4990
# 4 -4.6508 -0.8195 -16.8084 33.5758 6.4232 -15.9713
# 5 5.3419 -20.3274 -7.3706 6.4232 74.4848 -3.5330
# 6 0.8440 4.5462 16.4990 -15.9713 -3.5330 37.9865
#
#
#
# Elastic Compliance Matrix: (Units=1/GPa)
#
#
# Indices 1 2 3 4 5 6 
#
# 1 0.006675 -0.001574 -0.001449 0.000797 -0.001078 0.000904
# 2 -0.001574 0.013497 -0.001831 -0.002161 0.003738 -0.001346
# 3 -0.001449 -0.001831 0.005830 0.001996 -0.000060 -0.001447
# 4 0.000797 -0.002161 0.001996 0.038741 -0.003061 0.015378
# 5 -0.001078 0.003738 -0.000060 -0.003061 0.014766 -0.000311
# 6 0.000904 -0.001346 -0.001447 0.015378 -0.000311 0.033531
#
#
# Mechanical properties :
#
#
# Convention : Reuss Voigt Hill
#
# Bulk Modulus (GPa) = 61.38012 75.73401 68.55707
# Shear Modulus (GPa) = 39.00789 52.55033 45.77911
#
# Velocity S-wave (km/s) = 3.73525 4.33542 4.04648
# Velocity P-wave (km/s) = 6.36843 7.22145 6.80831
#
# Compressibility (1/GPa) = 0.01629192
#
# Stress axis : x y z
#
# Youngs Moduli (GPa) = 149.82097 74.09193 171.52878
#
# Poissons Ratio (x) = 0.11664 0.24855
# Poissons Ratio (y) = 0.23586 0.31413
# Poissons Ratio (z) = 0.21710 0.13569
#
# Static dielectric constant tensor:
#      x y z
#    x 2.155890 0.004070 -0.032710 
#    y 0.004070 2.368780 -0.130330 
#    z -0.032710 -0.130330 2.100700 
# 
# From -- ./inp_files/756.got.cif
#   From: 2010.05.17/outbox.cif.g08.bks.cpg/sg2_1_cif.got.tgz:756.got - 2010.06.03 11:33:40.
