data_PCOD9083552
_publ_section_title
;
Structure prediction by ZEFSAII (Michael W. Deem and Ramdas Pophale) SiO2 
 PCOD9083552
Probable space group: P -1
;
_chemical_formula_sum "Si O2"
_cell_formula_units_Z 14
_cell_length_a 11.753080
_cell_length_b 12.519780
_cell_length_c 15.825791
_cell_angle_alpha 26.425015
_cell_angle_beta 142.066997
_cell_angle_gamma 147.828371
_cell_volume 547.148309
_symmetry_space_group_name_H-M "P -1"
_symmetry_group_IT_number 2
_symmetry_cell_setting 'triclinic'
loop_
_space_group_symop_operation_xyz
x,y,z
-x,-y,-z
loop_
_atom_site_type_symbol
_atom_site_label
_atom_site_fract_x
_atom_site_fract_y
_atom_site_fract_z
Si Si1 0.878036 0.062920 0.198585
Si Si2 0.580631 0.446292 0.434081
Si Si3 0.479260 0.926725 0.820502
Si Si4 0.307020 0.159927 0.312459
Si Si5 0.635564 0.333333 0.246652
Si Si6 0.980754 0.379519 0.188387
Si Si7 0.082637 0.652536 0.230067
O O1 0.063163 0.083469 0.231064
O O2 0.979064 0.146551 0.293006
O O3 0.859736 0.324246 0.971399
O O4 0.665373 0.763389 0.282494
O O5 0.458514 0.206065 0.603827
O O6 0.444225 0.343956 0.342325
O O7 0.796341 0.421781 0.574405
O O8 0.726523 0.049607 0.904118
O O9 0.455872 0.818428 0.788219
O O10 0.271029 0.703213 0.906496
O O11 0.446209 0.325242 0.195352
O O12 0.301350 0.867354 0.524004
O O13 0.861268 0.614581 0.160617
O O14 0.027830 0.429294 0.280196
#
# Coordination Sequence:
#
# PCOD9083552 Si02
#       7
#     2   2   2   2   2   2   2
#     4  11  23  39  54  85 113 150 186 235 271 336
#     4   9  20  35  58  86 111 139 196 225 276 322
#     4   8  18  37  57  84 108 148 182 228 274 332
#     4  10  19  34  56  88 116 141 183 235 276 329
#     4   9  17  33  59  87 113 143 179 232 286 319
#     4  10  23  39  58  75 118 154 184 223 291 324
#     4   9  18  37  57  83 110 146 185 230 271 333
#
# _framework density 25.587212000000001
#
# number of rings (size 3 to 8) (size 9 to 14) (size 15 to 20)
#    0.857    1.714    1.429    0.000    0.000    5.143 
#    0.000    5.714    0.000    5.143    0.000    0.000 
#    0.000    0.000    0.000    0.000    0.000    0.000 
#
# Total GULP energy -78130.713140 kJ/mol
# GULP energy per Si atom -5580.765224 kJ/mol
# Density = 2.552897 g / cm^3
# Si number density = 25.587212 Si / 1000 Ang^3
#
#
#
# Elastic Constant Matrix: (Units=GPa)
#
#
# Indices 1 2 3 4 5 6 
#
# 1 125.2254 23.2313 -4.4734 10.9941 -11.0656 10.0907
# 2 23.2313 93.4361 12.2930 -0.8445 -10.6578 22.9185
# 3 -4.4734 12.2930 75.5291 -16.8608 -13.6222 10.4711
# 4 10.9941 -0.8445 -16.8608 19.9627 7.1204 -1.0375
# 5 -11.0656 -10.6578 -13.6222 7.1204 20.0146 -1.6991
# 6 10.0907 22.9185 10.4711 -1.0375 -1.6991 22.8010
#
#
#
# Elastic Compliance Matrix: (Units=1/GPa)
#
#
# Indices 1 2 3 4 5 6 
#
# 1 0.009870 -0.000805 0.000973 -0.007741 0.008126 -0.003753
# 2 -0.000805 0.015294 0.000403 -0.001985 0.007429 -0.014739
# 3 0.000973 0.000403 0.018498 0.011646 0.008506 -0.008167
# 4 -0.007741 -0.001985 0.011646 0.072410 -0.023031 0.001652
# 5 0.008126 0.007429 0.008506 -0.023031 0.071488 -0.010691
# 6 -0.003753 -0.014739 -0.008167 0.001652 -0.010691 0.063363
#
#
# Mechanical properties :
#
#
# Convention : Reuss Voigt Hill
#
# Bulk Modulus (GPa) = 22.31846 39.58804 30.95325
# Shear Modulus (GPa) = 18.88831 30.09829 24.49330
#
# Velocity S-wave (km/s) = 2.71992 3.43345 3.09730
# Velocity P-wave (km/s) = 4.31340 5.58780 4.99144
#
# Compressibility (1/GPa) = 0.04480595
#
# Stress axis : x y z
#
# Youngs Moduli (GPa) = 101.31979 65.38465 54.05899
#
# Poissons Ratio (x) = 0.05260 -0.05262
# Poissons Ratio (y) = 0.08151 -0.02179
# Poissons Ratio (z) = -0.09862 -0.02636
#
# Static dielectric constant tensor:
#      x y z
#    x 2.026220 0.008320 0.017680 
#    y 0.008320 1.982980 -0.037190 
#    z 0.017680 -0.037190 2.131490 
# 
# From -- ./inp_files/568504.got.cif
#   From: 2010.05.17/outbox.cif.g08.bks.cpg/sg2_285_cif.got.tgz:568504.got - 2010.06.03 11:33:40.
