data_PCOD9083695
_publ_section_title
;
Structure prediction by ZEFSAII (Michael W. Deem and Ramdas Pophale) SiO2 
 PCOD9083695
Probable space group: P -1
;
_chemical_formula_sum "Si O2"
_cell_formula_units_Z 16
_cell_length_a 9.219340
_cell_length_b 5.164015
_cell_length_c 20.449250
_cell_angle_alpha 80.816082
_cell_angle_beta 51.570477
_cell_angle_gamma 106.869307
_cell_volume 650.480495
_symmetry_space_group_name_H-M "P -1"
_symmetry_group_IT_number 2
_symmetry_cell_setting 'triclinic'
loop_
_space_group_symop_operation_xyz
x,y,z
-x,-y,-z
loop_
_atom_site_type_symbol
_atom_site_label
_atom_site_fract_x
_atom_site_fract_y
_atom_site_fract_z
Si Si1 0.545186 0.093930 0.393253
Si Si2 0.810516 0.984126 0.412429
Si Si3 0.402672 0.310433 0.167479
Si Si4 0.601657 0.451065 0.233899
Si Si5 0.319186 0.964677 0.957351
Si Si6 0.257490 0.213748 0.082587
Si Si7 0.115284 0.524154 0.534847
Si Si8 0.868608 0.166082 0.115414
O O1 0.758212 0.090851 0.354610
O O2 0.365570 0.752115 0.439715
O O3 0.430490 0.173299 0.481228
O O4 0.563422 0.310463 0.321347
O O5 0.900200 0.761908 0.411214
O O6 0.944227 0.287649 0.405516
O O7 0.398658 0.279664 0.248133
O O8 0.540356 0.673959 0.107786
O O9 0.207792 0.177480 0.175550
O O10 0.535635 0.164824 0.104960
O O11 0.703188 0.812371 0.193529
O O12 0.770368 0.367097 0.159035
O O13 0.125417 0.834565 0.965211
O O14 0.260715 0.943068 0.051295
O O15 0.500000 0.500000 0.000000
O O16 0.089689 0.262448 0.085822
O O17 0.000000 0.500000 0.500000
#
# Coordination Sequence:
#
# PCOD9083695 Si02
#       8
#     2   2   2   2   2   2   2   2
#     4   9  21  35  61  79 113 150 193 224 285 316
#     4   9  20  34  58  87 109 145 195 236 263 327
#     4   9  19  34  52  78 107 136 177 219 273 333
#     4  10  22  38  55  76 112 153 178 224 273 337
#     4   9  18  34  54  79 100 138 179 225 268 318
#     4  10  20  36  59  80 108 141 180 234 285 316
#     4  10  19  34  57  87 118 135 178 240 283 314
#     4  10  22  36  54  81 111 139 192 224 268 339
#
# _framework density 24.597203
#
# number of rings (size 3 to 8) (size 9 to 14) (size 15 to 20)
#    0.750    1.750    0.000    1.500    1.750    4.000 
#    0.000   10.000    0.000    0.000    0.000    0.000 
#    0.000    0.000    0.000    0.000    0.000    0.000 
#
# Total GULP energy -89259.036748 kJ/mol
# GULP energy per Si atom -5578.689797 kJ/mol
# Density = 2.454122 g / cm^3
# Si number density = 24.597203 Si / 1000 Ang^3
#
#
#
# Elastic Constant Matrix: (Units=GPa)
#
#
# Indices 1 2 3 4 5 6 
#
# 1 139.4778 24.8799 15.1936 8.5713 20.8414 34.3659
# 2 24.8799 112.5249 1.7376 -13.8131 1.2786 -7.1592
# 3 15.1936 1.7376 52.1369 -1.8087 18.7317 6.6941
# 4 8.5713 -13.8131 -1.8087 14.9213 -2.1660 11.7774
# 5 20.8414 1.2786 18.7317 -2.1660 41.7976 13.6872
# 6 34.3659 -7.1592 6.6941 11.7774 13.6872 53.7275
#
#
#
# Elastic Compliance Matrix: (Units=1/GPa)
#
#
# Indices 1 2 3 4 5 6 
#
# 1 0.009753 -0.003060 -0.001270 -0.005449 -0.003000 -0.004529
# 2 -0.003060 0.011030 0.000340 0.011932 0.001530 0.000379
# 3 -0.001270 0.000340 0.023073 0.002578 -0.009534 -0.000154
# 4 -0.005449 0.011932 0.002578 0.099474 0.013021 -0.020368
# 5 -0.003000 0.001530 -0.009534 0.013021 0.032918 -0.007930
# 6 -0.004529 0.000379 -0.000154 -0.020368 -0.007930 0.028064
#
#
# Mechanical properties :
#
#
# Convention : Reuss Voigt Hill
#
# Bulk Modulus (GPa) = 27.87429 43.08466 35.47948
# Shear Modulus (GPa) = 22.29651 39.57785 30.93718
#
# Velocity S-wave (km/s) = 3.01402 4.01563 3.55033
# Velocity P-wave (km/s) = 4.84452 6.24936 5.59124
#
# Compressibility (1/GPa) = 0.03587535
#
# Stress axis : x y z
#
# Youngs Moduli (GPa) = 102.53541 90.66434 43.33982
#
# Poissons Ratio (x) = 0.27741 0.05504
# Poissons Ratio (y) = 0.31374 -0.01472
# Poissons Ratio (z) = 0.13022 -0.03078
#
# Static dielectric constant tensor:
#      x y z
#    x 2.062990 0.015970 0.058780 
#    y 0.015970 1.953820 0.017880 
#    z 0.058780 0.017880 2.064890 
# 
# From -- ./inp_files/56231.got.cif
#   From: 2010.05.17/outbox.cif.g08.bks.cpg/sg2_29_cif.got.tgz:56231.got - 2010.06.03 11:33:40.
