data_PCOD9083623
_publ_section_title
;
Structure prediction by ZEFSAII (Michael W. Deem and Ramdas Pophale) SiO2 
 PCOD9083623
Probable space group: P -1
;
_chemical_formula_sum "Si O2"
_cell_formula_units_Z 14
_cell_length_a 20.073076
_cell_length_b 11.131467
_cell_length_c 9.782587
_cell_angle_alpha 79.134768
_cell_angle_beta 54.730356
_cell_angle_gamma 32.472559
_cell_volume 701.374212
_symmetry_space_group_name_H-M "P -1"
_symmetry_group_IT_number 2
_symmetry_cell_setting 'triclinic'
loop_
_space_group_symop_operation_xyz
x,y,z
-x,-y,-z
loop_
_atom_site_type_symbol
_atom_site_label
_atom_site_fract_x
_atom_site_fract_y
_atom_site_fract_z
Si Si1 0.028685 0.693508 0.398705
Si Si2 0.650404 0.658766 0.724459
Si Si3 0.625440 0.910537 0.268058
Si Si4 0.927897 0.732287 0.213270
Si Si5 0.362023 0.613798 0.245720
Si Si6 0.969324 0.401374 0.304655
Si Si7 0.352378 0.840511 0.774915
O O1 0.983790 0.653399 0.576973
O O2 0.180952 0.508761 0.538980
O O3 0.981716 0.714979 0.298730
O O4 0.867193 0.021800 0.556261
O O5 0.638915 0.528600 0.760126
O O6 0.741757 0.576727 0.779098
O O7 0.446033 0.993165 0.827356
O O8 0.580584 0.110622 0.323290
O O9 0.500000 0.000000 0.500000
O O10 0.864929 0.552694 0.060774
O O11 0.879366 0.654603 0.309317
O O12 0.752215 0.042865 0.270747
O O13 0.468151 0.480825 0.297736
O O14 0.500000 0.500000 0.000000
O O15 0.170366 0.095404 0.047575
#
# Coordination Sequence:
#
# PCOD9083623 Si02
#       7
#     2   2   2   2   2   2   2
#     4  10  22  35  57  83 118 145 178 231 279 321
#     4   9  20  34  58  81 106 147 191 224 270 322
#     4  10  19  34  57  82 111 145 187 227 271 331
#     4  11  21  35  56  88 119 139 179 229 289 327
#     4  11  20  38  59  80 107 150 198 222 262 333
#     4   9  18  37  58  84 110 147 181 225 276 332
#     4  10  20  34  60  81 107 152 190 222 268 329
#
# _framework density 19.960813999999999
#
# number of rings (size 3 to 8) (size 9 to 14) (size 15 to 20)
#    0.857    1.143    1.429    4.286    0.000    1.143 
#    0.000    1.429    0.000   10.286    0.000    0.000 
#    0.000    0.000    0.000    0.000    0.000    0.000 
#
# Total GULP energy -77955.766614 kJ/mol
# GULP energy per Si atom -5568.269044 kJ/mol
# Density = 1.991538 g / cm^3
# Si number density = 19.960814 Si / 1000 Ang^3
#
#
#
# Elastic Constant Matrix: (Units=GPa)
#
#
# Indices 1 2 3 4 5 6 
#
# 1 90.3788 34.6923 32.8533 -21.6664 -3.4201 -18.6973
# 2 34.6923 112.1419 14.1284 -13.3650 -0.4034 -35.2446
# 3 32.8533 14.1284 39.7440 -22.4323 -9.5046 10.0777
# 4 -21.6664 -13.3650 -22.4323 27.1141 -0.7893 -1.4418
# 5 -3.4201 -0.4034 -9.5046 -0.7893 33.9083 -16.3489
# 6 -18.6973 -35.2446 10.0777 -1.4418 -16.3489 45.7404
#
#
#
# Elastic Compliance Matrix: (Units=1/GPa)
#
#
# Indices 1 2 3 4 5 6 
#
# 1 0.022039 0.001004 -0.020285 0.002289 0.004239 0.015839
# 2 0.001004 0.014743 -0.006445 0.003733 0.006009 0.015455
# 3 -0.020285 -0.006445 0.077172 0.043306 0.007956 -0.026052
# 4 0.002289 0.003733 0.043306 0.076936 0.015238 0.002142
# 5 0.004239 0.006009 0.007956 0.015238 0.042323 0.020217
# 6 0.015839 0.015455 -0.026052 0.002142 0.020217 0.053279
#
#
# Mechanical properties :
#
#
# Convention : Reuss Voigt Hill
#
# Bulk Modulus (GPa) = 16.00016 45.06809 30.53413
# Shear Modulus (GPa) = 13.93617 32.05861 22.99739
#
# Velocity S-wave (km/s) = 2.64517 4.01194 3.39798
# Velocity P-wave (km/s) = 4.16682 6.63989 5.54304
#
# Compressibility (1/GPa) = 0.06249937
#
# Stress axis : x y z
#
# Youngs Moduli (GPa) = 45.37439 67.82972 12.95810
#
# Poissons Ratio (x) = -0.06807 0.26286
# Poissons Ratio (y) = -0.04553 0.08352
# Poissons Ratio (z) = 0.92044 0.43718
#
# Static dielectric constant tensor:
#      x y z
#    x 1.759130 -0.081500 -0.002340 
#    y -0.081500 1.756000 -0.013540 
#    z -0.002340 -0.013540 1.678680 
# 
# From -- ./inp_files/344594.got.cif
#   From: 2010.05.17/outbox.cif.g08.bks.cpg/sg2_173_cif.got.tgz:344594.got - 2010.06.03 11:33:40.
