data_PCOD9083017
_publ_section_title
;
Structure prediction by ZEFSAII (Michael W. Deem and Ramdas Pophale) SiO2 
 PCOD9083017
Probable space group: P -1
;
_chemical_formula_sum "Si O2"
_cell_formula_units_Z 16
_cell_length_a 8.488895
_cell_length_b 19.929631
_cell_length_c 7.082639
_cell_angle_alpha 140.874325
_cell_angle_beta 51.340693
_cell_angle_gamma 119.984139
_cell_volume 590.155982
_symmetry_space_group_name_H-M "P -1"
_symmetry_group_IT_number 2
_symmetry_cell_setting 'triclinic'
loop_
_space_group_symop_operation_xyz
x,y,z
-x,-y,-z
loop_
_atom_site_type_symbol
_atom_site_label
_atom_site_fract_x
_atom_site_fract_y
_atom_site_fract_z
Si Si1 0.848188 0.769753 0.392302
Si Si2 0.457702 0.637090 0.356235
Si Si3 0.725156 0.925827 0.527367
Si Si4 0.937133 0.457617 0.663197
Si Si5 0.119430 0.246162 0.220593
Si Si6 0.444505 0.793239 0.222147
Si Si7 0.731682 0.167745 0.957234
Si Si8 0.676603 0.418533 0.237251
O O1 0.696666 0.669298 0.235542
O O2 0.752616 0.874888 0.601390
O O3 0.888518 0.773983 0.594011
O O4 0.063963 0.773237 0.139251
O O5 0.391152 0.614062 0.570767
O O6 0.312088 0.552769 0.166163
O O7 0.368548 0.754083 0.649770
O O8 0.881557 0.865076 0.137514
O O9 0.507033 0.887815 0.521874
O O10 0.756240 0.050103 0.757138
O O11 0.006188 0.340045 0.410545
O O12 0.097507 0.529807 0.820531
O O13 0.000000 0.500000 0.500000
O O14 0.703620 0.307812 0.860686
O O15 0.354883 0.276154 0.080541
O O16 0.402457 0.841378 0.153612
O O17 0.500000 0.500000 0.500000
#
# Coordination Sequence:
#
# PCOD9083017 Si02
#       8
#     2   2   2   2   2   2   2   2
#     4  12  23  40  68  92 131 179 208 275 323 367
#     4  10  22  39  59 100 128 161 226 260 312 396
#     4  10  23  41  66  96 132 173 215 267 322 386
#     4  10  20  35  68  96 124 174 213 261 333 382
#     4  10  21  43  63  97 130 165 222 261 318 392
#     4   9  20  39  62  91 131 160 217 267 306 391
#     4  11  22  41  67  94 134 175 217 261 328 384
#     4  10  15  34  66  89 119 173 204 258 331 372
#
# _framework density 27.111478000000002
#
# number of rings (size 3 to 8) (size 9 to 14) (size 15 to 20)
#    0.750    1.000    3.750    1.500    0.000    2.000 
#    0.000    0.000    0.000   75.750    0.000    0.000 
#    0.000    0.000    0.000    0.000    0.000    0.000 
#
# Total GULP energy -89318.114002 kJ/mol
# GULP energy per Si atom -5582.382125 kJ/mol
# Density = 2.704977 g / cm^3
# Si number density = 27.111478 Si / 1000 Ang^3
#
#
#
# Elastic Constant Matrix: (Units=GPa)
#
#
# Indices 1 2 3 4 5 6 
#
# 1 166.7851 72.4393 32.2049 7.8579 16.2780 6.5715
# 2 72.4393 175.4949 69.9342 20.7183 12.2518 -2.0563
# 3 32.2049 69.9342 87.3997 21.3195 12.1967 2.7600
# 4 7.8579 20.7183 21.3195 48.6309 5.9934 -9.0568
# 5 16.2780 12.2518 12.1967 5.9934 25.4558 2.2213
# 6 6.5715 -2.0563 2.7600 -9.0568 2.2213 57.9811
#
#
#
# Elastic Compliance Matrix: (Units=1/GPa)
#
#
# Indices 1 2 3 4 5 6 
#
# 1 0.007634 -0.002946 -0.000024 0.000312 -0.003457 -0.000787
# 2 -0.002946 0.009557 -0.006497 -0.000645 0.000474 0.000863
# 3 -0.000024 -0.006497 0.018575 -0.005156 -0.004391 -0.001749
# 4 0.000312 -0.000645 -0.005156 0.024242 -0.003485 0.004107
# 5 -0.003457 0.000474 -0.004391 -0.003485 0.044332 -0.001625
# 6 -0.000787 0.000863 -0.001749 0.004107 -0.001625 0.018154
#
#
# Mechanical properties :
#
#
# Convention : Reuss Voigt Hill
#
# Bulk Modulus (GPa) = 59.41782 86.53740 72.97761
# Shear Modulus (GPa) = 34.00457 43.42031 38.71244
#
# Velocity S-wave (km/s) = 3.54538 4.00628 3.78285
# Velocity P-wave (km/s) = 6.22281 7.30676 6.78646
#
# Compressibility (1/GPa) = 0.01682997
#
# Stress axis : x y z
#
# Youngs Moduli (GPa) = 130.99900 104.64080 53.83483
#
# Poissons Ratio (x) = 0.30827 0.00131
# Poissons Ratio (y) = 0.38592 0.34979
# Poissons Ratio (z) = 0.00319 0.67990
#
# Static dielectric constant tensor:
#      x y z
#    x 2.292450 0.066190 0.031550 
#    y 0.066190 2.082990 0.013400 
#    z 0.031550 0.013400 2.173480 
# 
# From -- ./inp_files/221077.got.cif
#   From: 2010.05.17/outbox.cif.g08.bks.cpg/sg2_111_cif.got.tgz:221077.got - 2010.06.03 11:33:40.
