data_PCOD9083613
_publ_section_title
;
Structure prediction by ZEFSAII (Michael W. Deem and Ramdas Pophale) SiO2 
 PCOD9083613
Probable space group: P -1
;
_chemical_formula_sum "Si O2"
_cell_formula_units_Z 16
_cell_length_a 17.552310
_cell_length_b 12.629139
_cell_length_c 6.815960
_cell_angle_alpha 130.179693
_cell_angle_beta 57.106885
_cell_angle_gamma 140.377587
_cell_volume 732.862858
_symmetry_space_group_name_H-M "P -1"
_symmetry_group_IT_number 2
_symmetry_cell_setting 'triclinic'
loop_
_space_group_symop_operation_xyz
x,y,z
-x,-y,-z
loop_
_atom_site_type_symbol
_atom_site_label
_atom_site_fract_x
_atom_site_fract_y
_atom_site_fract_z
Si Si1 0.094376 0.960079 0.650483
Si Si2 0.017459 0.355975 0.839714
Si Si3 0.487209 0.797897 0.342607
Si Si4 0.634276 0.765230 0.357491
Si Si5 0.283189 0.614622 0.719258
Si Si6 0.359896 0.534258 0.874886
Si Si7 0.614314 0.047912 0.791806
Si Si8 0.083303 0.259756 0.007470
O O1 0.085738 0.835549 0.348210
O O2 0.994470 0.823269 0.786948
O O3 0.225063 0.097374 0.732344
O O4 0.072623 0.090000 0.743713
O O5 0.145847 0.443608 0.668855
O O6 0.000000 0.500000 0.000000
O O7 0.031329 0.319613 0.000536
O O8 0.544542 0.711885 0.242967
O O9 0.366612 0.713059 0.531530
O O10 0.584943 0.003729 0.545009
O O11 0.451393 0.728150 0.088862
O O12 0.608103 0.593539 0.289238
O O13 0.625707 0.898263 0.655894
O O14 0.343680 0.556280 0.697750
O O15 0.283755 0.750200 0.025470
O O16 0.226422 0.425434 0.023530
O O17 0.500000 0.000000 0.000000
#
# Coordination Sequence:
#
# PCOD9083613 Si02
#       8
#     2   2   2   2   2   2   2   2
#     4  10  19  38  59  78 116 147 182 231 272 322
#     4  11  22  35  58  83 111 146 185 229 279 328
#     4   9  19  35  56  75 110 141 176 219 276 316
#     4   9  19  34  56  80 109 143 178 224 265 324
#     4  10  20  36  55  79 107 142 181 223 272 323
#     4  10  19  34  57  82 107 136 183 226 269 319
#     4   8  17  34  52  72 107 141 171 213 261 319
#     4   9  21  37  57  84 109 147 186 227 277 327
#
# _framework density 21.832187999999999
#
# number of rings (size 3 to 8) (size 9 to 14) (size 15 to 20)
#    0.750    1.750    0.000    2.250    0.000    1.500 
#    0.000    2.500    0.000    0.000    0.000    0.000 
#    0.000    0.000    0.000    0.000    0.000    0.000 
#
# Total GULP energy -89134.317062 kJ/mol
# GULP energy per Si atom -5570.894816 kJ/mol
# Density = 2.178250 g / cm^3
# Si number density = 21.832188 Si / 1000 Ang^3
#
#
#
# Elastic Constant Matrix: (Units=GPa)
#
#
# Indices 1 2 3 4 5 6 
#
# 1 92.0151 22.5572 37.5914 12.2381 -18.1778 -11.3455
# 2 22.5572 55.3351 13.9088 3.5253 5.5188 -2.9432
# 3 37.5914 13.9088 62.7763 30.0929 -5.4988 -9.3671
# 4 12.2381 3.5253 30.0929 31.4764 -4.4243 -9.2338
# 5 -18.1778 5.5188 -5.4988 -4.4243 29.9020 14.7328
# 6 -11.3455 -2.9432 -9.3671 -9.2338 14.7328 25.9998
#
#
#
# Elastic Compliance Matrix: (Units=1/GPa)
#
#
# Indices 1 2 3 4 5 6 
#
# 1 0.018595 -0.006261 -0.011797 0.005995 0.011894 -0.001456
# 2 -0.006261 0.022520 -0.002528 0.002558 -0.011040 0.006071
# 3 -0.011797 -0.002528 0.039008 -0.033257 -0.003995 -0.000928
# 4 0.005995 0.002558 -0.033257 0.065074 -0.000319 0.014215
# 5 0.011894 -0.011040 -0.003995 -0.000319 0.056537 -0.029649
# 6 -0.001456 0.006071 -0.000928 0.014215 -0.029649 0.060029
#
#
# Mechanical properties :
#
#
# Convention : Reuss Voigt Hill
#
# Bulk Modulus (GPa) = 25.67241 39.80458 32.73849
# Shear Modulus (GPa) = 15.82690 26.54691 21.18690
#
# Velocity S-wave (km/s) = 2.69538 3.49083 3.11857
# Velocity P-wave (km/s) = 4.63371 5.87533 5.29107
#
# Compressibility (1/GPa) = 0.03895232
#
# Stress axis : x y z
#
# Youngs Moduli (GPa) = 53.77808 44.40452 25.63582
#
# Poissons Ratio (x) = 0.27800 0.30242
# Poissons Ratio (y) = 0.33668 0.06481
# Poissons Ratio (z) = 0.63441 0.11226
#
# Static dielectric constant tensor:
#      x y z
#    x 1.826290 0.004420 -0.009420 
#    y 0.004420 1.806540 0.028830 
#    z -0.009420 0.028830 1.811970 
# 
# From -- ./inp_files/335557.got.cif
#   From: 2010.05.17/outbox.cif.g08.bks.cpg/sg2_168_cif.got.tgz:335557.got - 2010.06.03 11:33:40.
