data_PCOD9083125
_publ_section_title
;
Structure prediction by ZEFSAII (Michael W. Deem and Ramdas Pophale) SiO2 
 PCOD9083125
Probable space group: P -1
;
_chemical_formula_sum "Si O2"
_cell_formula_units_Z 16
_cell_length_a 7.292945
_cell_length_b 11.318917
_cell_length_c 9.558919
_cell_angle_alpha 103.450476
_cell_angle_beta 129.119217
_cell_angle_gamma 91.646402
_cell_volume 579.071345
_symmetry_space_group_name_H-M "P -1"
_symmetry_group_IT_number 2
_symmetry_cell_setting 'triclinic'
loop_
_space_group_symop_operation_xyz
x,y,z
-x,-y,-z
loop_
_atom_site_type_symbol
_atom_site_label
_atom_site_fract_x
_atom_site_fract_y
_atom_site_fract_z
Si Si1 0.481705 0.193566 0.583637
Si Si2 0.030764 0.753985 0.349967
Si Si3 0.300538 0.452236 0.051024
Si Si4 0.952509 0.367331 0.130819
Si Si5 0.372670 0.105702 0.808765
Si Si6 0.618213 0.181887 0.227422
Si Si7 0.666158 0.544866 0.455138
Si Si8 0.852303 0.873261 0.829283
O O1 0.492667 0.139728 0.726090
O O2 0.387486 0.321039 0.569995
O O3 0.272145 0.102332 0.368378
O O4 0.739522 0.218829 0.636715
O O5 0.891527 0.864714 0.316150
O O6 0.149514 0.739421 0.554602
O O7 0.827375 0.641889 0.155941
O O8 0.563078 0.460312 0.248856
O O9 0.128052 0.416400 0.094806
O O10 0.717099 0.413355 0.982398
O O11 0.069812 0.438950 0.347070
O O12 0.985731 0.227676 0.130321
O O13 0.351785 0.960675 0.787421
O O14 0.532184 0.189290 0.029577
O O15 0.378829 0.186822 0.202556
O O16 0.500000 0.500000 0.500000
O O17 0.000000 0.000000 0.000000
#
# Coordination Sequence:
#
# PCOD9083125 Si02
#       8
#     2   2   2   2   2   2   2   2
#     4  10  23  42  69  99 129 174 227 272 326 402
#     4  11  23  43  68  98 133 174 222 276 335 392
#     4  10  19  33  64  94 123 173 216 261 328 393
#     4   9  18  33  56  94 133 163 212 273 322 384
#     4  11  25  45  66  94 136 179 221 277 333 390
#     4  10  25  44  64  95 137 180 221 276 335 393
#     4   9  18  36  61  94 131 166 213 271 327 387
#     4  10  22  40  68 102 133 176 225 273 336 399
#
# _framework density 27.630448999999999
#
# number of rings (size 3 to 8) (size 9 to 14) (size 15 to 20)
#    0.000    2.000    0.000    3.375    0.000   12.000 
#    0.000    7.500    0.000    7.500    0.000    0.000 
#    0.000    0.000    0.000    0.000    0.000    0.000 
#
# Total GULP energy -89720.045780 kJ/mol
# GULP energy per Si atom -5607.502861 kJ/mol
# Density = 2.756756 g / cm^3
# Si number density = 27.630449 Si / 1000 Ang^3
#
#
#
# Elastic Constant Matrix: (Units=GPa)
#
#
# Indices 1 2 3 4 5 6 
#
# 1 104.8507 4.5663 49.1578 -20.9884 -4.6023 2.6316
# 2 4.5663 94.8291 69.8805 -7.8817 3.5771 -2.6144
# 3 49.1578 69.8805 305.1068 -8.2306 -31.7016 -3.9906
# 4 -20.9884 -7.8817 -8.2306 54.3111 -4.7249 -0.6678
# 5 -4.6023 3.5771 -31.7016 -4.7249 44.3016 -17.8690
# 6 2.6316 -2.6144 -3.9906 -0.6678 -17.8690 28.1342
#
#
#
# Elastic Compliance Matrix: (Units=1/GPa)
#
#
# Indices 1 2 3 4 5 6 
#
# 1 0.011309 0.001327 -0.002095 0.004175 -0.000596 -0.001511
# 2 0.001327 0.013460 -0.003731 0.001500 -0.004307 -0.002102
# 3 -0.002095 -0.003731 0.005068 -0.000075 0.005284 0.003923
# 4 0.004175 0.001500 -0.000075 0.020559 0.003419 0.002398
# 5 -0.000596 -0.004307 0.005284 0.003419 0.036569 0.023712
# 6 -0.001511 -0.002102 0.003923 0.002398 0.023712 0.051164
#
#
# Mechanical properties :
#
#
# Convention : Reuss Voigt Hill
#
# Bulk Modulus (GPa) = 47.98650 83.55511 65.77081
# Shear Modulus (GPa) = 32.45193 50.76151 41.60672
#
# Velocity S-wave (km/s) = 3.43081 4.29086 3.88471
# Velocity P-wave (km/s) = 5.75317 7.40638 6.63149
#
# Compressibility (1/GPa) = 0.02083919
#
# Stress axis : x y z
#
# Youngs Moduli (GPa) = 88.42218 74.29333 197.31511
#
# Poissons Ratio (x) = -0.09860 0.41340
# Poissons Ratio (y) = -0.11735 0.73623
# Poissons Ratio (z) = 0.18525 0.27721
#
# Static dielectric constant tensor:
#      x y z
#    x 2.212250 0.006750 0.011290 
#    y 0.006750 2.129390 0.079150 
#    z 0.011290 0.079150 2.141970 
# 
# From -- ./inp_files/520966.got.cif
#   From: 2010.05.17/outbox.cif.g08.bks.cpg/sg2_261_cif.got.tgz:520966.got - 2010.06.03 11:33:40.
