data_PCOD9083617
_publ_section_title
;
Structure prediction by ZEFSAII (Michael W. Deem and Ramdas Pophale) SiO2 
 PCOD9083617
Probable space group: P -1
;
_chemical_formula_sum "Si O2"
_cell_formula_units_Z 12
_cell_length_a 12.625094
_cell_length_b 8.840453
_cell_length_c 10.243157
_cell_angle_alpha 55.720219
_cell_angle_beta 86.637337
_cell_angle_gamma 46.048795
_cell_volume 564.130534
_symmetry_space_group_name_H-M "P -1"
_symmetry_group_IT_number 2
_symmetry_cell_setting 'triclinic'
loop_
_space_group_symop_operation_xyz
x,y,z
-x,-y,-z
loop_
_atom_site_type_symbol
_atom_site_label
_atom_site_fract_x
_atom_site_fract_y
_atom_site_fract_z
Si Si1 0.685267 0.657708 0.192893
Si Si2 0.662283 0.718242 0.463711
Si Si3 0.860155 0.177905 0.206759
Si Si4 0.980735 0.677890 0.803782
Si Si5 0.223670 0.064118 0.559493
Si Si6 0.611175 0.606900 0.781833
O O1 0.686064 0.618725 0.364570
O O2 0.727845 0.425073 0.212951
O O3 0.844527 0.572596 0.179790
O O4 0.500000 0.000000 0.000000
O O5 0.790511 0.710837 0.494094
O O6 0.676167 0.550748 0.657829
O O7 0.467463 0.086778 0.312117
O O8 0.008640 0.130617 0.230892
O O9 0.896292 0.920097 0.367485
O O10 0.759933 0.333321 0.001880
O O11 0.819242 0.877419 0.619241
O O12 0.000000 0.500000 0.000000
O O13 0.432148 0.734479 0.731628
#
# Coordination Sequence:
#
# PCOD9083617 Si02
#       6
#     2   2   2   2   2   2
#     4  10  20  34  58  81 110 140 186 227 268 317
#     4   9  18  33  56  79 110 140 188 217 265 323
#     4  10  20  35  57  80 111 145 181 226 271 324
#     4  10  22  35  60  80 110 146 185 221 271 332
#     4  10  19  34  57  82 108 146 183 221 275 321
#     4   9  18  32  60  77 108 149 184 211 265 341
#
# _framework density 21.271671999999999
#
# number of rings (size 3 to 8) (size 9 to 14) (size 15 to 20)
#    2.000    0.333    1.667    2.000    2.333    0.667 
#    0.000    0.833    3.667    2.000    0.000    0.000 
#    0.000    0.000    0.000    0.000    0.000    0.000 
#
# Total GULP energy -66851.917685 kJ/mol
# GULP energy per Si atom -5570.993140 kJ/mol
# Density = 2.122326 g / cm^3
# Si number density = 21.271672 Si / 1000 Ang^3
#
#
#
# Elastic Constant Matrix: (Units=GPa)
#
#
# Indices 1 2 3 4 5 6 
#
# 1 79.5457 5.8031 31.3370 3.3496 -1.5947 10.0846
# 2 5.8031 55.2391 24.2638 19.1184 -2.1370 -10.3642
# 3 31.3370 24.2638 139.2775 37.8822 4.5412 3.7082
# 4 3.3496 19.1184 37.8822 34.9446 -5.8828 0.0535
# 5 -1.5947 -2.1370 4.5412 -5.8828 38.5521 2.4807
# 6 10.0846 -10.3642 3.7082 0.0535 2.4807 9.0748
#
#
#
# Elastic Compliance Matrix: (Units=1/GPa)
#
#
# Indices 1 2 3 4 5 6 
#
# 1 0.018219 -0.008073 -0.004206 0.007926 0.003868 -0.028851
# 2 -0.008073 0.034842 -0.000350 -0.018736 -0.004453 0.050235
# 3 -0.004206 -0.000350 0.011758 -0.012751 -0.003557 0.000518
# 4 0.007926 -0.018736 -0.012751 0.053795 0.010819 -0.028270
# 5 0.003868 -0.004453 -0.003557 0.010819 0.028946 -0.015906
# 6 -0.028851 0.050235 0.000518 -0.028270 -0.015906 0.203932
#
#
# Mechanical properties :
#
#
# Convention : Reuss Voigt Hill
#
# Bulk Modulus (GPa) = 25.27781 44.09667 34.68724
# Shear Modulus (GPa) = 12.82257 30.69153 21.75705
#
# Velocity S-wave (km/s) = 2.45786 3.80259 3.20162
# Velocity P-wave (km/s) = 4.46810 6.32889 5.47808
#
# Compressibility (1/GPa) = 0.03956039
#
# Stress axis : x y z
#
# Youngs Moduli (GPa) = 54.88779 28.70064 85.05060
#
# Poissons Ratio (x) = 0.23170 0.35776
# Poissons Ratio (y) = 0.44311 0.02976
# Poissons Ratio (z) = 0.23088 0.01004
#
# Static dielectric constant tensor:
#      x y z
#    x 1.817680 0.003230 -0.004110 
#    y 0.003230 1.831350 -0.047010 
#    z -0.004110 -0.047010 1.754090 
# 
# From -- ./inp_files/209826.got.cif
#   From: 2010.05.17/outbox.cif.g08.bks.cpg/sg2_105_cif.got.tgz:209826.got - 2010.06.03 11:33:40.
