data_PCOD9083639
_publ_section_title
;
Structure prediction by ZEFSAII (Michael W. Deem and Ramdas Pophale) SiO2 
 PCOD9083639
Probable space group: P -1
;
_chemical_formula_sum "Si O2"
_cell_formula_units_Z 16
_cell_length_a 14.030900
_cell_length_b 10.678340
_cell_length_c 11.033999
_cell_angle_alpha 136.070050
_cell_angle_beta 121.868283
_cell_angle_gamma 44.186751
_cell_volume 799.192853
_symmetry_space_group_name_H-M "P -1"
_symmetry_group_IT_number 2
_symmetry_cell_setting 'triclinic'
loop_
_space_group_symop_operation_xyz
x,y,z
-x,-y,-z
loop_
_atom_site_type_symbol
_atom_site_label
_atom_site_fract_x
_atom_site_fract_y
_atom_site_fract_z
Si Si1 0.205531 0.260124 0.670039
Si Si2 0.794005 0.395419 0.922537
Si Si3 0.235009 0.172999 0.361653
Si Si4 0.304161 0.528620 0.348020
Si Si5 0.097069 0.624487 0.466601
Si Si6 0.570119 0.317015 0.815028
Si Si7 0.550363 0.237396 0.476066
Si Si8 0.013914 0.065180 0.189045
O O1 0.240617 0.271502 0.561881
O O2 0.062416 0.280399 0.595629
O O3 0.335887 0.022365 0.631030
O O4 0.189962 0.454196 0.871598
O O5 0.741400 0.511875 0.838892
O O6 0.688505 0.344883 0.869091
O O7 0.929933 0.148722 0.838475
O O8 0.179514 0.361710 0.357379
O O9 0.119182 0.131044 0.282353
O O10 0.368411 0.926703 0.259408
O O11 0.170298 0.662646 0.434830
O O12 0.421796 0.323147 0.362409
O O13 0.369862 0.659887 0.447757
O O14 0.104396 0.733613 0.671622
O O15 0.504111 0.319360 0.642175
O O16 0.500000 0.500000 0.000000
O O17 0.000000 0.000000 0.000000
#
# Coordination Sequence:
#
# PCOD9083639 Si02
#       8
#     2   2   2   2   2   2   2   2
#     4  10  20  37  59  81 112 149 184 234 289 328
#     4  10  21  36  56  82 115 149 186 235 282 333
#     4   9  19  34  53  83 115 141 180 234 287 329
#     4  10  22  39  56  80 112 151 194 227 277 341
#     4  11  21  35  59  85 114 149 187 229 278 346
#     4   9  19  36  59  84 111 148 192 235 281 336
#     4   9  21  41  58  78 114 152 186 234 287 333
#     4  10  19  34  57  83 113 145 183 234 286 328
#
# _framework density 20.020201
#
# number of rings (size 3 to 8) (size 9 to 14) (size 15 to 20)
#    0.000    2.250    0.000    5.250    0.000    7.000 
#    0.000    6.250    0.000    0.000    0.000    0.000 
#    0.000    0.000    0.000    0.000    0.000    0.000 
#
# Total GULP energy -89144.425807 kJ/mol
# GULP energy per Si atom -5571.526613 kJ/mol
# Density = 1.997463 g / cm^3
# Si number density = 20.020201 Si / 1000 Ang^3
#
#
#
# Elastic Constant Matrix: (Units=GPa)
#
#
# Indices 1 2 3 4 5 6 
#
# 1 41.1898 20.8867 25.4857 1.7522 -16.4530 -1.5742
# 2 20.8867 92.9043 44.2803 8.6245 -4.9163 3.5751
# 3 25.4857 44.2803 125.4138 3.8297 -6.9267 6.1476
# 4 1.7522 8.6245 3.8297 25.9328 -5.4123 0.7201
# 5 -16.4530 -4.9163 -6.9267 -5.4123 21.9617 0.2563
# 6 -1.5742 3.5751 6.1476 0.7201 0.2563 11.7440
#
#
#
# Elastic Compliance Matrix: (Units=1/GPa)
#
#
# Indices 1 2 3 4 5 6 
#
# 1 0.043291 -0.006434 -0.005490 0.006159 0.030667 0.009588
# 2 -0.006434 0.014285 -0.003668 -0.004497 -0.003853 -0.002931
# 3 -0.005490 -0.003668 0.010551 -0.000157 -0.001585 -0.005098
# 4 0.006159 -0.004497 -0.000157 0.042618 0.014069 -0.000644
# 5 0.030667 -0.003853 -0.001585 0.014069 0.070570 0.003711
# 6 0.009588 -0.002931 -0.005098 -0.000644 0.003711 0.089954
#
#
# Mechanical properties :
#
#
# Convention : Reuss Voigt Hill
#
# Bulk Modulus (GPa) = 27.06823 48.97925 38.02374
# Shear Modulus (GPa) = 15.88471 23.18471 19.53471
#
# Velocity S-wave (km/s) = 2.81985 3.40673 3.12709
# Velocity P-wave (km/s) = 4.91446 6.32396 5.66323
#
# Compressibility (1/GPa) = 0.03694368
#
# Stress axis : x y z
#
# Youngs Moduli (GPa) = 23.09930 70.00424 94.77366
#
# Poissons Ratio (x) = 0.45041 0.52031
# Poissons Ratio (y) = 0.14862 0.34763
# Poissons Ratio (z) = 0.12682 0.25677
#
# Static dielectric constant tensor:
#      x y z
#    x 1.706550 -0.016450 -0.002400 
#    y -0.016450 1.785160 -0.027300 
#    z -0.002400 -0.027300 1.717480 
# 
# From -- ./inp_files/452651.got.cif
#   From: 2010.05.17/outbox.cif.g08.bks.cpg/sg2_227_cif.got.tgz:452651.got - 2010.06.03 11:33:40.
