data_PCOD9083979
_publ_section_title
;
Structure prediction by ZEFSAII (Michael W. Deem and Ramdas Pophale) SiO2 
 PCOD9083979
Probable space group: P -1
;
_chemical_formula_sum "Si O2"
_cell_formula_units_Z 16
_cell_length_a 17.762203
_cell_length_b 7.820857
_cell_length_c 15.044078
_cell_angle_alpha 99.307571
_cell_angle_beta 25.506089
_cell_angle_gamma 114.133271
_cell_volume 697.716936
_symmetry_space_group_name_H-M "P -1"
_symmetry_group_IT_number 2
_symmetry_cell_setting 'triclinic'
loop_
_space_group_symop_operation_xyz
x,y,z
-x,-y,-z
loop_
_atom_site_type_symbol
_atom_site_label
_atom_site_fract_x
_atom_site_fract_y
_atom_site_fract_z
Si Si1 0.198063 0.287563 0.034940
Si Si2 0.852073 0.499743 0.086251
Si Si3 0.567864 0.791116 0.079571
Si Si4 0.849461 0.010104 0.262114
Si Si5 0.586669 0.056568 0.241532
Si Si6 0.578919 0.730741 0.359779
Si Si7 0.243670 0.880424 0.237962
Si Si8 0.057224 0.590876 0.577271
O O1 0.012447 0.038229 0.169061
O O2 0.062282 0.375059 0.214373
O O3 0.337031 0.312640 0.975260
O O4 0.377260 0.389484 0.771515
O O5 0.780661 0.305806 0.079399
O O6 0.640263 0.431151 0.363068
O O7 0.000000 0.500000 0.000000
O O8 0.003933 0.738372 0.903622
O O9 0.298159 0.642407 0.340555
O O10 0.616178 0.976580 0.112020
O O11 0.718090 0.921506 0.843406
O O12 0.629408 0.955143 0.534463
O O13 0.766991 0.870372 0.247143
O O14 0.559511 0.897381 0.336574
O O15 0.112761 0.776130 0.461092
O O16 0.118553 0.656930 0.293801
O O17 0.500000 0.000000 0.000000
#
# Coordination Sequence:
#
# PCOD9083979 Si02
#       8
#     2   2   2   2   2   2   2   2
#     4  11  24  39  63  93 132 166 206 264 308 365
#     4  11  19  33  60  83 114 174 218 256 312 355
#     4  10  22  41  63  97 127 162 207 251 313 382
#     4  11  20  37  58  82 126 172 210 260 308 351
#     4  10  19  34  59  87 118 161 217 257 301 366
#     4  10  21  38  54  86 124 165 218 258 301 364
#     4   9  21  44  74  96 123 160 203 247 316 392
#     4  10  21  45  70  94 127 161 196 262 315 367
#
# _framework density 22.931936
#
# number of rings (size 3 to 8) (size 9 to 14) (size 15 to 20)
#    0.000    1.750    3.750    1.125    1.750    1.000 
#    0.000   13.125    0.000    0.000    0.000    0.000 
#    0.000    0.000    0.000    0.000    0.000    0.000 
#
# Total GULP energy -89200.958243 kJ/mol
# GULP energy per Si atom -5575.059890 kJ/mol
# Density = 2.287974 g / cm^3
# Si number density = 22.931936 Si / 1000 Ang^3
#
#
#
# Elastic Constant Matrix: (Units=GPa)
#
#
# Indices 1 2 3 4 5 6 
#
# 1 113.6595 8.2936 45.4376 -8.4639 -10.5954 -1.0966
# 2 8.2936 56.2179 34.2942 -14.0057 -5.4377 11.1415
# 3 45.4376 34.2942 101.6759 -14.2981 -10.2243 8.2299
# 4 -8.4639 -14.0057 -14.2981 38.9664 3.4729 -2.0240
# 5 -10.5954 -5.4377 -10.2243 3.4729 47.9295 -6.4807
# 6 -1.0966 11.1415 8.2299 -2.0240 -6.4807 28.0411
#
#
#
# Elastic Compliance Matrix: (Units=1/GPa)
#
#
# Indices 1 2 3 4 5 6 
#
# 1 0.011060 0.001684 -0.005349 0.000990 0.001665 0.001789
# 2 0.001684 0.025294 -0.007813 0.006202 0.000151 -0.007208
# 3 -0.005349 -0.007813 0.015263 0.001484 0.000908 -0.001267
# 4 0.000990 0.006202 0.001484 0.028686 -0.000977 -0.001016
# 5 0.001665 0.000151 0.000908 -0.000977 0.022161 0.004790
# 6 0.001789 -0.007208 -0.001267 -0.001016 0.004790 0.040002
#
#
# Mechanical properties :
#
#
# Convention : Reuss Voigt Hill
#
# Bulk Modulus (GPa) = 34.88971 49.73378 42.31174
# Shear Modulus (GPa) = 28.57536 35.22259 31.89897
#
# Velocity S-wave (km/s) = 3.53384 3.92339 3.73370
# Velocity P-wave (km/s) = 5.64784 6.50066 6.08920
#
# Compressibility (1/GPa) = 0.02866175
#
# Stress axis : x y z
#
# Youngs Moduli (GPa) = 90.41774 39.53488 65.51643
#
# Poissons Ratio (x) = -0.06659 0.35043
# Poissons Ratio (y) = -0.15228 0.51189
# Poissons Ratio (z) = 0.48362 0.30889
#
# Static dielectric constant tensor:
#      x y z
#    x 2.058700 0.021290 0.030120 
#    y 0.021290 1.886080 0.017240 
#    z 0.030120 0.017240 1.840650 
# 
# From -- ./inp_files/537631.got.cif
#   From: 2010.05.17/outbox.cif.g08.bks.cpg/sg2_269_cif.got.tgz:537631.got - 2010.06.03 11:33:40.
