data_PCOD9083520
_publ_section_title
;
Structure prediction by ZEFSAII (Michael W. Deem and Ramdas Pophale) SiO2 
 PCOD9083520
Probable space group: P -1
;
_chemical_formula_sum "Si O2"
_cell_formula_units_Z 16
_cell_length_a 18.474515
_cell_length_b 11.674547
_cell_length_c 25.429027
_cell_angle_alpha 39.927415
_cell_angle_beta 160.853245
_cell_angle_gamma 150.863962
_cell_volume 815.417218
_symmetry_space_group_name_H-M "P -1"
_symmetry_group_IT_number 2
_symmetry_cell_setting 'triclinic'
loop_
_space_group_symop_operation_xyz
x,y,z
-x,-y,-z
loop_
_atom_site_type_symbol
_atom_site_label
_atom_site_fract_x
_atom_site_fract_y
_atom_site_fract_z
Si Si1 0.066994 0.334863 0.377159
Si Si2 0.000314 0.004606 0.935762
Si Si3 0.413958 0.577516 0.342253
Si Si4 0.908590 0.026838 0.152628
Si Si5 0.035610 0.408931 0.941146
Si Si6 0.562462 0.182955 0.833521
Si Si7 0.417392 0.159933 0.381301
Si Si8 0.684370 0.452945 0.029391
O O1 0.249170 0.322410 0.462637
O O2 0.321904 0.558372 0.514768
O O3 0.897207 0.412594 0.210775
O O4 0.798377 0.059938 0.315232
O O5 0.207452 0.294949 0.962044
O O6 0.667694 0.845978 0.735255
O O7 0.000000 0.000000 0.000000
O O8 0.093091 0.857470 0.036420
O O9 0.403177 0.680003 0.243280
O O10 0.168763 0.275796 0.278054
O O11 0.261853 0.632096 0.258392
O O12 0.100259 0.018196 0.246164
O O13 0.722020 0.079332 0.976913
O O14 0.664080 0.785966 0.106427
O O15 0.248208 0.509585 0.999835
O O16 0.254282 0.614686 0.064473
O O17 0.500000 0.000000 0.500000
#
# Coordination Sequence:
#
# PCOD9083520 Si02
#       8
#     2   2   2   2   2   2   2   2
#     4  10  21  35  57  87 119 142 189 249 284 339
#     4  10  21  38  61  83 115 155 197 232 276 353
#     4  10  19  34  56  85 114 148 187 246 290 341
#     4   9  20  34  57  85 112 146 198 243 273 347
#     4  10  20  36  60  78 116 159 190 232 295 338
#     4  10  19  36  58  86 115 148 197 237 281 355
#     4  11  20  38  61  87 116 151 185 241 300 329
#     4  10  21  38  55  86 113 154 202 234 278 349
#
# _framework density 19.621856000000001
#
# number of rings (size 3 to 8) (size 9 to 14) (size 15 to 20)
#    0.000    2.000    1.250    4.125    0.000    5.500 
#    2.250    1.250    0.000    1.500    0.000    0.000 
#    0.000    0.000    0.000    0.000    0.000    0.000 
#
# Total GULP energy -89218.621834 kJ/mol
# GULP energy per Si atom -5576.163865 kJ/mol
# Density = 1.957720 g / cm^3
# Si number density = 19.621856 Si / 1000 Ang^3
#
#
#
# Elastic Constant Matrix: (Units=GPa)
#
#
# Indices 1 2 3 4 5 6 
#
# 1 81.8026 46.0110 34.1024 2.7418 13.6252 -3.3743
# 2 46.0110 130.4011 34.0271 4.1917 25.3804 -0.6017
# 3 34.1024 34.0271 74.0795 -1.0316 28.6043 -0.5721
# 4 2.7418 4.1917 -1.0316 30.9286 5.8478 11.7649
# 5 13.6252 25.3804 28.6043 5.8478 33.0153 -4.7850
# 6 -3.3743 -0.6017 -0.5721 11.7649 -4.7850 28.8271
#
#
#
# Elastic Compliance Matrix: (Units=1/GPa)
#
#
# Indices 1 2 3 4 5 6 
#
# 1 0.017740 -0.004988 -0.007515 -0.003433 0.004201 0.003922
# 2 -0.004988 0.010681 -0.000109 0.000904 -0.006480 -0.001807
# 3 -0.007515 -0.000109 0.025269 0.008316 -0.021239 -0.007300
# 4 -0.003433 0.000904 0.008316 0.044097 -0.017351 -0.021095
# 5 0.004201 -0.006480 -0.021239 -0.017351 0.057409 0.016545
# 6 0.003922 -0.001807 -0.007300 -0.021095 0.016545 0.046322
#
#
# Mechanical properties :
#
#
# Convention : Reuss Voigt Hill
#
# Bulk Modulus (GPa) = 35.12993 57.17379 46.15186
# Shear Modulus (GPa) = 21.16584 30.03038 25.59811
#
# Velocity S-wave (km/s) = 3.28790 3.91635 3.61580
# Velocity P-wave (km/s) = 5.68824 7.04638 6.40342
#
# Compressibility (1/GPa) = 0.02846576
#
# Stress axis : x y z
#
# Youngs Moduli (GPa) = 56.36978 93.62614 39.57400
#
# Poissons Ratio (x) = 0.46696 0.29741
# Poissons Ratio (y) = 0.28114 0.00433
# Poissons Ratio (z) = 0.42363 0.01024
#
# Static dielectric constant tensor:
#      x y z
#    x 1.719830 -0.007340 -0.002750 
#    y -0.007340 1.683710 -0.023200 
#    z -0.002750 -0.023200 1.718390 
# 
# From -- ./inp_files/461518.got.cif
#   From: 2010.05.17/outbox.cif.g08.bks.cpg/sg2_231_cif.got.tgz:461518.got - 2010.06.03 11:33:40.
