data_PCOD9083209
_publ_section_title
;
Structure prediction by ZEFSAII (Michael W. Deem and Ramdas Pophale) SiO2 
 PCOD9083209
Probable space group: P -1
;
_chemical_formula_sum "Si O2"
_cell_formula_units_Z 16
_cell_length_a 11.306506
_cell_length_b 11.704108
_cell_length_c 15.999695
_cell_angle_alpha 112.031255
_cell_angle_beta 68.280352
_cell_angle_gamma 154.675575
_cell_volume 836.951267
_symmetry_space_group_name_H-M "P -1"
_symmetry_group_IT_number 2
_symmetry_cell_setting 'triclinic'
loop_
_space_group_symop_operation_xyz
x,y,z
-x,-y,-z
loop_
_atom_site_type_symbol
_atom_site_label
_atom_site_fract_x
_atom_site_fract_y
_atom_site_fract_z
Si Si1 0.830508 0.290184 0.320868
Si Si2 0.741381 0.825028 0.466276
Si Si3 0.581283 0.260876 0.755220
Si Si4 0.814854 0.058904 0.369560
Si Si5 0.462526 0.413978 0.894666
Si Si6 0.469015 0.721571 0.642615
Si Si7 0.069018 0.223549 0.705657
Si Si8 0.907881 0.910296 0.804191
O O1 0.655854 0.263176 0.360274
O O2 0.133987 0.566134 0.280216
O O3 0.662090 0.043904 0.242424
O O4 0.863957 0.244359 0.386912
O O5 0.803912 0.007357 0.452991
O O6 0.485018 0.630135 0.540964
O O7 0.737214 0.722444 0.364813
O O8 0.000000 0.000000 0.500000
O O9 0.476437 0.215783 0.678262
O O10 0.601885 0.399017 0.844022
O O11 0.026164 0.150811 0.289680
O O12 0.145179 0.119182 0.870141
O O13 0.500000 0.500000 0.000000
O O14 0.614775 0.633985 0.848389
O O15 0.272326 0.512027 0.713360
O O16 0.787169 0.005649 0.667160
O O17 0.954816 0.073037 0.781513
#
# Coordination Sequence:
#
# PCOD9083209 Si02
#       8
#     2   2   2   2   2   2   2   2
#     4  10  19  34  53  74 106 140 183 211 255 314
#     4   9  19  36  52  76 106 139 180 231 269 296
#     4   9  18  35  50  77 106 137 169 202 269 321
#     4   8  18  33  53  73 104 143 171 212 268 314
#     4  11  19  32  56  88 111 128 163 216 266 318
#     4  11  21  35  52  79 102 138 194 221 253 298
#     4  10  21  37  54  74 106 146 175 223 261 307
#     4  10  19  34  54  80 110 139 168 205 271 324
#
# _framework density 19.117003
#
# number of rings (size 3 to 8) (size 9 to 14) (size 15 to 20)
#    0.750    1.500    1.250    2.250    0.000    0.500 
#    6.750    0.625    0.000    0.000    0.000   17.500 
#    0.000    0.000    0.000    0.000    0.000    0.000 
#
# Total GULP energy -89076.691086 kJ/mol
# GULP energy per Si atom -5567.293193 kJ/mol
# Density = 1.907349 g / cm^3
# Si number density = 19.117003 Si / 1000 Ang^3
#
#
#
# Elastic Constant Matrix: (Units=GPa)
#
#
# Indices 1 2 3 4 5 6 
#
# 1 91.0250 3.0021 15.8640 -7.6420 -7.8145 -1.2468
# 2 3.0021 72.7204 0.9960 -8.6330 -2.5101 2.2491
# 3 15.8640 0.9960 40.3560 -7.2120 1.0603 1.5168
# 4 -7.6420 -8.6330 -7.2120 14.4241 -1.7739 2.4593
# 5 -7.8145 -2.5101 1.0603 -1.7739 12.5612 -5.6180
# 6 -1.2468 2.2491 1.5168 2.4593 -5.6180 31.1118
#
#
#
# Elastic Compliance Matrix: (Units=1/GPa)
#
#
# Indices 1 2 3 4 5 6 
#
# 1 0.013181 0.000523 -0.004480 0.005982 0.010479 0.002128
# 2 0.000523 0.015168 0.001271 0.010718 0.004216 -0.001223
# 3 -0.004480 0.001271 0.029083 0.012952 -0.004757 -0.003572
# 4 0.005982 0.010718 0.012952 0.088137 0.014772 -0.005466
# 5 0.010479 0.004216 -0.004757 0.014772 0.096920 0.016681
# 6 0.002128 -0.001223 -0.003572 -0.005466 0.016681 0.035934
#
#
# Mechanical properties :
#
#
# Convention : Reuss Voigt Hill
#
# Bulk Modulus (GPa) = 19.20912 27.09175 23.15044
# Shear Modulus (GPa) = 16.60301 23.90203 20.25252
#
# Velocity S-wave (km/s) = 2.95022 3.53980 3.25837
# Velocity P-wave (km/s) = 4.65565 5.55960 5.12759
#
# Compressibility (1/GPa) = 0.05205861
#
# Stress axis : x y z
#
# Youngs Moduli (GPa) = 75.86895 65.92826 34.38396
#
# Poissons Ratio (x) = -0.03450 0.15406
# Poissons Ratio (y) = -0.03970 -0.04369
# Poissons Ratio (z) = 0.33993 -0.08376
#
# Static dielectric constant tensor:
#      x y z
#    x 1.694130 -0.036580 0.015860 
#    y -0.036580 1.717830 0.004130 
#    z 0.015860 0.004130 1.665400 
# 
# From -- ./inp_files/569190.got.cif
#   From: 2010.05.17/outbox.cif.g08.bks.cpg/sg2_285_cif.got.tgz:569190.got - 2010.06.03 11:33:40.
