data_PCOD9083616
_publ_section_title
;
Structure prediction by ZEFSAII (Michael W. Deem and Ramdas Pophale) SiO2 
 PCOD9083616
Probable space group: P -1
;
_chemical_formula_sum "Si O2"
_cell_formula_units_Z 12
_cell_length_a 6.994072
_cell_length_b 13.477411
_cell_length_c 6.911869
_cell_angle_alpha 83.594494
_cell_angle_beta 121.644427
_cell_angle_gamma 123.183415
_cell_volume 449.888787
_symmetry_space_group_name_H-M "P -1"
_symmetry_group_IT_number 2
_symmetry_cell_setting 'triclinic'
loop_
_space_group_symop_operation_xyz
x,y,z
-x,-y,-z
loop_
_atom_site_type_symbol
_atom_site_label
_atom_site_fract_x
_atom_site_fract_y
_atom_site_fract_z
Si Si1 0.297847 0.742585 0.419547
Si Si2 0.839552 0.952717 0.222249
Si Si3 0.408971 0.345035 0.163014
Si Si4 0.157533 0.885529 0.123809
Si Si5 0.316253 0.676034 0.033609
Si Si6 0.880206 0.572632 0.512086
O O1 0.511010 0.740858 0.673336
O O2 0.269322 0.658222 0.241934
O O3 0.377037 0.871426 0.351590
O O4 0.027481 0.688142 0.421583
O O5 0.029941 0.932956 0.190926
O O6 0.546956 0.821587 0.108428
O O7 0.000000 0.000000 0.500000
O O8 0.789877 0.043705 0.062888
O O9 0.559407 0.470719 0.335159
O O10 0.084106 0.257781 0.009266
O O11 0.543144 0.374194 0.013022
O O12 0.031544 0.624087 0.783530
O O13 0.000000 0.500000 0.500000
#
# Coordination Sequence:
#
# PCOD9083616 Si02
#       6
#     2   2   2   2   2   2
#     4  10  19  34  57  82 108 141 180 221 267 317
#     4  10  21  38  56  77 110 145 178 224 272 317
#     4   9  20  38  55  79 114 143 176 221 266 318
#     4  10  22  38  56  81 109 141 182 222 268 321
#     4   9  18  34  55  79 106 141 181 217 265 319
#     4   8  18  34  54  80 110 141 177 219 266 317
#
# _framework density 26.673262000000001
#
# number of rings (size 3 to 8) (size 9 to 14) (size 15 to 20)
#    0.000    3.000    0.000    1.000    0.000   11.333 
#    0.000   18.333    0.000    0.000    0.000    2.333 
#    0.000    0.000    0.000    0.000    0.000    0.000 
#
# Total GULP energy -67051.476590 kJ/mol
# GULP energy per Si atom -5587.623049 kJ/mol
# Density = 2.661255 g / cm^3
# Si number density = 26.673262 Si / 1000 Ang^3
#
#
#
# Elastic Constant Matrix: (Units=GPa)
#
#
# Indices 1 2 3 4 5 6 
#
# 1 72.4314 9.0294 28.1291 6.3214 -10.9339 -3.8207
# 2 9.0294 77.1636 56.7094 2.2806 26.0829 8.8475
# 3 28.1291 56.7094 131.0931 3.3619 -10.6505 -7.5680
# 4 6.3214 2.2806 3.3619 63.2290 -8.0176 20.5071
# 5 -10.9339 26.0829 -10.6505 -8.0176 46.8668 6.8480
# 6 -3.8207 8.8475 -7.5680 20.5071 6.8480 41.1588
#
#
#
# Elastic Compliance Matrix: (Units=1/GPa)
#
#
# Indices 1 2 3 4 5 6 
#
# 1 0.015609 -0.001371 -0.002359 -0.001424 0.003413 0.001452
# 2 -0.001371 0.032894 -0.016012 -0.000957 -0.021540 -0.006082
# 3 -0.002359 -0.016012 0.016237 0.000001 0.011422 0.004308
# 4 -0.001424 -0.000957 0.000001 0.020175 0.005238 -0.010850
# 5 0.003413 -0.021540 0.011422 0.005238 0.037885 -0.001866
# 6 0.001452 -0.006082 0.004308 -0.010850 -0.001866 0.032247
#
#
# Mechanical properties :
#
#
# Convention : Reuss Voigt Hill
#
# Bulk Modulus (GPa) = 39.59257 52.04710 45.81984
# Shear Modulus (GPa) = 24.63647 42.70560 33.67103
#
# Velocity S-wave (km/s) = 3.04244 4.00567 3.55681
# Velocity P-wave (km/s) = 5.21706 6.39915 5.83810
#
# Compressibility (1/GPa) = 0.02525726
#
# Stress axis : x y z
#
# Youngs Moduli (GPa) = 64.06520 30.40038 61.58585
#
# Poissons Ratio (x) = 0.04169 0.14525
# Poissons Ratio (y) = 0.08785 0.98612
# Poissons Ratio (z) = 0.15110 0.48677
#
# Static dielectric constant tensor:
#      x y z
#    x 2.170800 0.082010 0.015890 
#    y 0.082010 2.174890 -0.001070 
#    z 0.015890 -0.001070 2.079480 
# 
# From -- ./inp_files/38269.got.cif
#   From: 2010.05.17/outbox.cif.g08.bks.cpg/sg2_20_cif.got.tgz:38269.got - 2010.06.03 11:33:40.
