data_PCOD9083526
_publ_section_title
;
Structure prediction by ZEFSAII (Michael W. Deem and Ramdas Pophale) SiO2 
 PCOD9083526
Probable space group: P -1
;
_chemical_formula_sum "Si O2"
_cell_formula_units_Z 14
_cell_length_a 8.743017
_cell_length_b 8.650711
_cell_length_c 12.335774
_cell_angle_alpha 117.904585
_cell_angle_beta 64.303097
_cell_angle_gamma 88.683546
_cell_volume 712.447769
_symmetry_space_group_name_H-M "P -1"
_symmetry_group_IT_number 2
_symmetry_cell_setting 'triclinic'
loop_
_space_group_symop_operation_xyz
x,y,z
-x,-y,-z
loop_
_atom_site_type_symbol
_atom_site_label
_atom_site_fract_x
_atom_site_fract_y
_atom_site_fract_z
Si Si1 0.240917 0.660705 0.069151
Si Si2 0.032718 0.374127 0.712020
Si Si3 0.522475 0.343322 0.790379
Si Si4 0.651089 0.601940 0.495447
Si Si5 0.049587 0.011426 0.696308
Si Si6 0.429913 0.993084 0.642296
Si Si7 0.832696 0.370152 0.558975
O O1 0.359535 0.672934 0.142333
O O2 0.094797 0.561677 0.124604
O O3 0.122044 0.865433 0.147346
O O4 0.372891 0.536341 0.903130
O O5 0.214998 0.422635 0.656387
O O6 0.067622 0.153867 0.642198
O O7 0.920350 0.431974 0.656763
O O8 0.436344 0.179009 0.757026
O O9 0.656173 0.326914 0.644221
O O10 0.500000 0.500000 0.500000
O O11 0.769287 0.520258 0.535985
O O12 0.557148 0.816290 0.601604
O O13 0.231310 0.976982 0.694701
O O14 0.042853 0.818809 0.589190
O O15 0.500000 0.000000 0.500000
#
# Coordination Sequence:
#
# PCOD9083526 Si02
#       7
#     2   2   2   2   2   2   2
#     4   8  20  36  61  83 108 146 186 234 265 327
#     4   9  20  35  55  80 110 146 189 223 276 320
#     4  10  19  37  61  83 111 142 192 224 277 331
#     4  12  22  34  52  84 119 143 181 235 282 325
#     4  10  19  34  56  86 105 142 186 230 273 317
#     4  12  20  34  56  84 109 148 186 231 270 325
#     4  11  20  33  58  85 113 142 182 236 277 325
#
# _framework density 19.650562000000001
#
# number of rings (size 3 to 8) (size 9 to 14) (size 15 to 20)
#    0.857    0.857    4.286    0.857    2.000    0.571 
#    0.000    0.000    3.143    4.286    0.000    0.000 
#    0.000    0.000    0.000    0.000    0.000    0.000 
#
# Total GULP energy -78016.001598 kJ/mol
# GULP energy per Si atom -5572.571543 kJ/mol
# Density = 1.960584 g / cm^3
# Si number density = 19.650562 Si / 1000 Ang^3
#
#
#
# Elastic Constant Matrix: (Units=GPa)
#
#
# Indices 1 2 3 4 5 6 
#
# 1 40.1704 0.7499 12.7774 -0.9985 -17.2364 -1.5241
# 2 0.7499 50.6339 6.1796 12.6214 1.7849 -22.1632
# 3 12.7774 6.1796 71.8310 24.9874 -18.0841 2.0683
# 4 -0.9985 12.6214 24.9874 15.9030 -6.4710 -7.7904
# 5 -17.2364 1.7849 -18.0841 -6.4710 24.1266 3.9308
# 6 -1.5241 -22.1632 2.0683 -7.7904 3.9308 31.1585
#
#
#
# Elastic Compliance Matrix: (Units=1/GPa)
#
#
# Indices 1 2 3 4 5 6 
#
# 1 0.049308 -0.012735 -0.020793 0.063770 0.036702 0.006048
# 2 -0.012735 0.038402 0.009284 -0.045578 -0.020008 0.017205
# 3 -0.020793 0.009284 0.054946 -0.106767 0.001062 -0.024889
# 4 0.063770 -0.045578 -0.106767 0.313844 0.044835 0.050599
# 5 0.036702 -0.020008 0.001062 0.044835 0.083905 -0.011882
# 6 0.006048 0.017205 -0.024889 0.050599 -0.011882 0.060430
#
#
# Mechanical properties :
#
#
# Convention : Reuss Voigt Hill
#
# Bulk Modulus (GPa) = 10.61931 22.44991 16.53461
# Shear Modulus (GPa) = 7.34523 23.76619 15.55571
#
# Velocity S-wave (km/s) = 1.93547 3.48147 2.81662
# Velocity P-wave (km/s) = 3.22653 5.25455 4.36009
#
# Compressibility (1/GPa) = 0.09416805
#
# Stress axis : x y z
#
# Youngs Moduli (GPa) = 20.28065 26.03998 18.19972
#
# Poissons Ratio (x) = 0.33162 0.37842
# Poissons Ratio (y) = 0.25828 -0.16896
# Poissons Ratio (z) = 0.42169 -0.24175
#
# Static dielectric constant tensor:
#      x y z
#    x 1.749440 0.011270 -0.032600 
#    y 0.011270 1.691480 -0.011280 
#    z -0.032600 -0.011280 1.681320 
# 
# From -- ./inp_files/280476.got.cif
#   From: 2010.05.17/outbox.cif.g08.bks.cpg/sg2_141_cif.got.tgz:280476.got - 2010.06.03 11:33:40.
