data_PCOD9083749
_publ_section_title
;
Structure prediction by ZEFSAII (Michael W. Deem and Ramdas Pophale) SiO2 
 PCOD9083749
Probable space group: P -1
;
_chemical_formula_sum "Si O2"
_cell_formula_units_Z 12
_cell_length_a 9.700491
_cell_length_b 11.071644
_cell_length_c 13.075092
_cell_angle_alpha 34.457924
_cell_angle_beta 34.278641
_cell_angle_gamma 45.171160
_cell_volume 446.261965
_symmetry_space_group_name_H-M "P -1"
_symmetry_group_IT_number 2
_symmetry_cell_setting 'triclinic'
loop_
_space_group_symop_operation_xyz
x,y,z
-x,-y,-z
loop_
_atom_site_type_symbol
_atom_site_label
_atom_site_fract_x
_atom_site_fract_y
_atom_site_fract_z
Si Si1 0.464198 0.376681 0.799930
Si Si2 0.181098 0.807641 0.663254
Si Si3 0.253240 0.904471 0.330507
Si Si4 0.864466 0.092085 0.156302
Si Si5 0.714394 0.244946 0.935437
Si Si6 0.038078 0.501249 0.670855
O O1 0.248352 0.555701 0.794577
O O2 0.506482 0.280558 0.954171
O O3 0.709427 0.512808 0.537530
O O4 0.520788 0.200876 0.799307
O O5 0.893130 0.885460 0.771439
O O6 0.250822 0.890399 0.674112
O O7 0.019077 0.303322 0.897794
O O8 0.948538 0.274285 0.438055
O O9 0.302233 0.898574 0.424124
O O10 0.689931 0.118935 0.145179
O O11 0.055037 0.886748 0.169138
O O12 0.808271 0.470734 0.759168
#
# Coordination Sequence:
#
# PCOD9083749 Si02
#       6
#     2   2   2   2   2   2
#     4  10  19  34  58  76 104 139 175 212 253 314
#     4  11  20  35  56  81  97 144 180 205 257 313
#     4   9  21  36  55  73 113 133 174 216 259 301
#     4   9  18  33  57  76 106 141 165 214 270 298
#     4   9  17  35  56  75 108 140 166 209 276 299
#     4   8  18  34  54  75 109 139 162 218 266 293
#
# _framework density 26.890037
#
# number of rings (size 3 to 8) (size 9 to 14) (size 15 to 20)
#    2.000    0.667    1.667    1.000    0.000    1.333 
#    0.000    5.000    0.000    3.000    0.000    0.000 
#    0.000    0.000    0.000    0.000    0.000    0.000 
#
# Total GULP energy -67071.807858 kJ/mol
# GULP energy per Si atom -5589.317322 kJ/mol
# Density = 2.682883 g / cm^3
# Si number density = 26.890037 Si / 1000 Ang^3
#
#
#
# Elastic Constant Matrix: (Units=GPa)
#
#
# Indices 1 2 3 4 5 6 
#
# 1 194.9893 103.5768 52.2887 24.6939 28.2825 2.4177
# 2 103.5768 163.6143 39.5589 2.6804 23.8406 -6.2120
# 3 52.2887 39.5589 92.8482 6.8845 17.7604 3.5370
# 4 24.6939 2.6804 6.8845 21.6560 -3.1366 10.2970
# 5 28.2825 23.8406 17.7604 -3.1366 39.5273 0.0154
# 6 2.4177 -6.2120 3.5370 10.2970 0.0154 52.3156
#
#
#
# Elastic Compliance Matrix: (Units=1/GPa)
#
#
# Indices 1 2 3 4 5 6 
#
# 1 0.010713 -0.005385 -0.002030 -0.012222 -0.004476 0.001410
# 2 -0.005385 0.009962 -0.001378 0.004914 -0.001146 0.000558
# 3 -0.002030 -0.001378 0.013425 -0.002080 -0.003913 -0.000567
# 4 -0.012222 0.004914 -0.002080 0.067636 0.012088 -0.012027
# 5 -0.004476 -0.001146 -0.003913 0.012088 0.031911 -0.002053
# 6 0.001410 0.000558 -0.000567 -0.012027 -0.002053 0.021522
#
#
# Mechanical properties :
#
#
# Convention : Reuss Voigt Hill
#
# Bulk Modulus (GPa) = 60.55698 93.58896 77.07297
# Shear Modulus (GPa) = 28.04895 39.76828 33.90861
#
# Velocity S-wave (km/s) = 3.23321 3.84985 3.55492
# Velocity P-wave (km/s) = 6.04213 7.39200 6.75089
#
# Compressibility (1/GPa) = 0.01651337
#
# Stress axis : x y z
#
# Youngs Moduli (GPa) = 93.34444 100.38208 74.48796
#
# Poissons Ratio (x) = 0.54058 0.15122
# Poissons Ratio (y) = 0.50268 0.10265
# Poissons Ratio (z) = 0.18950 0.13833
#
# Static dielectric constant tensor:
#      x y z
#    x 2.029640 0.017490 -0.003650 
#    y 0.017490 2.042890 -0.025760 
#    z -0.003650 -0.025760 2.162940 
# 
# From -- ./inp_files/236213.got.cif
#   From: 2010.05.17/outbox.cif.g08.bks.cpg/sg2_119_cif.got.tgz:236213.got - 2010.06.03 11:33:40.
