data_PCOD9083732
_publ_section_title
;
Structure prediction by ZEFSAII (Michael W. Deem and Ramdas Pophale) SiO2 
 PCOD9083732
Probable space group: P -1
;
_chemical_formula_sum "Si O2"
_cell_formula_units_Z 16
_cell_length_a 11.281339
_cell_length_b 13.071367
_cell_length_c 13.594519
_cell_angle_alpha 33.035555
_cell_angle_beta 128.509337
_cell_angle_gamma 107.848581
_cell_volume 738.062649
_symmetry_space_group_name_H-M "P -1"
_symmetry_group_IT_number 2
_symmetry_cell_setting 'triclinic'
loop_
_space_group_symop_operation_xyz
x,y,z
-x,-y,-z
loop_
_atom_site_type_symbol
_atom_site_label
_atom_site_fract_x
_atom_site_fract_y
_atom_site_fract_z
Si Si1 0.453124 0.737409 0.963795
Si Si2 0.512452 0.263688 0.372271
Si Si3 0.061858 0.715181 0.029493
Si Si4 0.323998 0.890424 0.994474
Si Si5 0.859002 0.057761 0.796152
Si Si6 0.275586 0.062312 0.435227
Si Si7 0.827195 0.484593 0.419961
Si Si8 0.712780 0.665253 0.422893
O O1 0.382241 0.813116 0.975423
O O2 0.336835 0.924831 0.676951
O O3 0.454319 0.513544 0.125084
O O4 0.658893 0.669962 0.125795
O O5 0.650109 0.167441 0.612617
O O6 0.624353 0.118574 0.453517
O O7 0.353435 0.222508 0.339945
O O8 0.176964 0.464554 0.320767
O O9 0.191123 0.812419 0.019426
O O10 0.925640 0.836737 0.949677
O O11 0.933332 0.798419 0.802913
O O12 0.250664 0.147188 0.747029
O O13 0.504164 0.778789 0.239994
O O14 0.866257 0.253044 0.585393
O O15 0.000000 0.000000 0.000000
O O16 0.763309 0.504524 0.484694
O O17 0.000000 0.500000 0.500000
#
# Coordination Sequence:
#
# PCOD9083732 Si02
#       8
#     2   2   2   2   2   2   2   2
#     4  10  22  39  57  83 119 152 194 235 281 340
#     4   9  21  39  58  86 119 149 186 235 292 338
#     4  11  22  38  61  85 116 153 192 237 286 339
#     4  10  23  40  57  84 115 156 195 235 284 339
#     4  10  19  34  57  91 115 139 187 238 292 343
#     4  10  22  38  61  87 113 155 190 232 290 344
#     4  10  20  33  58  88 115 149 186 238 294 341
#     4  10  21  40  57  83 119 151 191 237 291 340
#
# _framework density 21.678376
#
# number of rings (size 3 to 8) (size 9 to 14) (size 15 to 20)
#    0.000    2.000    1.250    1.500    1.750    3.500 
#    0.000    1.250    0.000    0.000    0.000    0.000 
#    0.000    0.000    0.000    0.000    0.000    0.000 
#
# Total GULP energy -89290.963653 kJ/mol
# GULP energy per Si atom -5580.685228 kJ/mol
# Density = 2.162903 g / cm^3
# Si number density = 21.678376 Si / 1000 Ang^3
#
#
#
# Elastic Constant Matrix: (Units=GPa)
#
#
# Indices 1 2 3 4 5 6 
#
# 1 29.0881 5.2200 24.1841 -2.8828 5.6803 11.2686
# 2 5.2200 59.5821 16.1217 -5.2410 5.6984 19.7040
# 3 24.1841 16.1217 167.6765 11.7467 -4.9943 15.7540
# 4 -2.8828 -5.2410 11.7467 30.8074 -1.1720 0.0255
# 5 5.6803 5.6984 -4.9943 -1.1720 14.8158 7.0335
# 6 11.2686 19.7040 15.7540 0.0255 7.0335 32.1542
#
#
#
# Elastic Compliance Matrix: (Units=1/GPa)
#
#
# Indices 1 2 3 4 5 6 
#
# 1 0.048262 0.003968 -0.007174 0.007327 -0.016013 -0.012333
# 2 0.003968 0.022092 -0.001917 0.004716 -0.004071 -0.013102
# 3 -0.007174 -0.001917 0.007785 -0.003715 0.006557 -0.001557
# 4 0.007327 0.004716 -0.003715 0.035310 -0.001497 -0.003338
# 5 -0.016013 -0.004071 0.006557 -0.001497 0.083655 -0.013404
# 6 -0.012333 -0.013102 -0.001557 -0.003338 -0.013404 0.047149
#
#
# Mechanical properties :
#
#
# Convention : Reuss Voigt Hill
#
# Bulk Modulus (GPa) = 14.72935 38.59980 26.66457
# Shear Modulus (GPa) = 18.04212 29.61021 23.82617
#
# Velocity S-wave (km/s) = 2.88803 3.69980 3.31883
# Velocity P-wave (km/s) = 4.23440 6.00797 5.19740
#
# Compressibility (1/GPa) = 0.06789164
#
# Stress axis : x y z
#
# Youngs Moduli (GPa) = 20.72040 45.26555 128.45775
#
# Poissons Ratio (x) = -0.17959 0.92153
# Poissons Ratio (y) = -0.08221 0.24625
# Poissons Ratio (z) = 0.14864 0.08677
#
# Static dielectric constant tensor:
#      x y z
#    x 1.792550 -0.027310 0.028930 
#    y -0.027310 1.835980 0.008000 
#    z 0.028930 0.008000 1.831570 
# 
# From -- ./inp_files/205944.got.cif
#   From: 2010.05.17/outbox.cif.g08.bks.cpg/sg2_103_cif.got.tgz:205944.got - 2010.06.03 11:33:40.
