data_PCOD9083068
_publ_section_title
;
Structure prediction by ZEFSAII (Michael W. Deem and Ramdas Pophale) SiO2 
 PCOD9083068
Probable space group: P -1
;
_chemical_formula_sum "Si O2"
_cell_formula_units_Z 16
_cell_length_a 9.880342
_cell_length_b 11.272187
_cell_length_c 9.249501
_cell_angle_alpha 61.706540
_cell_angle_beta 92.211084
_cell_angle_gamma 120.240468
_cell_volume 756.033607
_symmetry_space_group_name_H-M "P -1"
_symmetry_group_IT_number 2
_symmetry_cell_setting 'triclinic'
loop_
_space_group_symop_operation_xyz
x,y,z
-x,-y,-z
loop_
_atom_site_type_symbol
_atom_site_label
_atom_site_fract_x
_atom_site_fract_y
_atom_site_fract_z
Si Si1 0.308034 0.261492 0.319972
Si Si2 0.360714 0.927887 0.916634
Si Si3 0.570164 0.736389 0.377714
Si Si4 0.140889 0.101536 0.143269
Si Si5 0.748754 0.450857 0.341723
Si Si6 0.039986 0.793762 0.145502
Si Si7 0.566526 0.602370 0.143810
Si Si8 0.568593 0.166969 0.323300
O O1 0.313333 0.261697 0.494612
O O2 0.148274 0.145889 0.286380
O O3 0.393027 0.451307 0.172299
O O4 0.431347 0.205436 0.321636
O O5 0.395554 0.846928 0.832887
O O6 0.364137 0.080151 0.762645
O O7 0.194169 0.814857 0.060267
O O8 0.500000 0.000000 0.000000
O O9 0.386002 0.641835 0.485370
O O10 0.563705 0.647010 0.283993
O O11 0.089240 0.922641 0.202253
O O12 0.328936 0.228601 0.029838
O O13 0.039484 0.148636 0.011226
O O14 0.675128 0.527800 0.192170
O O15 0.732440 0.307930 0.328620
O O16 0.919402 0.609449 0.298196
O O17 0.500000 0.000000 0.500000
#
# Coordination Sequence:
#
# PCOD9083068 Si02
#       8
#     2   2   2   2   2   2   2   2
#     4  10  19  33  61  92 112 151 199 240 285 346
#     4  12  23  39  63  86 110 157 206 237 284 356
#     4  10  19  37  61  88 117 152 194 246 285 343
#     4  10  19  36  59  86 124 154 187 238 304 349
#     4   9  19  36  61  83 116 159 186 236 300 335
#     4  10  22  38  58  86 124 154 188 245 300 340
#     4   9  17  33  60  91 117 148 198 243 284 339
#     4  10  19  37  61  83 115 154 198 236 278 343
#
# _framework density 21.163080000000001
#
# number of rings (size 3 to 8) (size 9 to 14) (size 15 to 20)
#    0.000    2.250    3.750    2.625    0.000    0.500 
#    0.000    1.250    0.000    0.000    0.000    0.000 
#    0.000    0.000    0.000    0.000    0.000    0.000 
#
# Total GULP energy -89199.881498 kJ/mol
# GULP energy per Si atom -5574.992594 kJ/mol
# Density = 2.111491 g / cm^3
# Si number density = 21.163080 Si / 1000 Ang^3
#
#
#
# Elastic Constant Matrix: (Units=GPa)
#
#
# Indices 1 2 3 4 5 6 
#
# 1 18.6461 12.2563 4.5590 3.7898 -2.5975 4.5535
# 2 12.2563 160.0188 36.6906 1.5916 -5.1906 6.3990
# 3 4.5590 36.6906 68.3611 3.8530 -7.7527 15.4755
# 4 3.7898 1.5916 3.8530 39.8613 5.2198 -5.3097
# 5 -2.5975 -5.1906 -7.7527 5.2198 14.1546 1.6481
# 6 4.5535 6.3990 15.4755 -5.3097 1.6481 22.2771
#
#
#
# Elastic Compliance Matrix: (Units=1/GPa)
#
#
# Indices 1 2 3 4 5 6 
#
# 1 0.065577 -0.004753 0.005764 -0.011968 0.020235 -0.020392
# 2 -0.004753 0.007483 -0.004387 0.001023 -0.001164 0.002199
# 3 0.005764 -0.004387 0.023298 -0.007424 0.017176 -0.019143
# 4 -0.011968 0.001023 -0.007424 0.031617 -0.019443 0.016284
# 5 0.020235 -0.001164 0.017176 -0.019443 0.093691 -0.027299
# 6 -0.020392 0.002199 -0.019143 0.016284 -0.027299 0.067625
#
#
# Mechanical properties :
#
#
# Convention : Reuss Voigt Hill
#
# Bulk Modulus (GPa) = 11.16010 39.33755 25.24882
# Shear Modulus (GPa) = 15.34151 28.15994 21.75073
#
# Velocity S-wave (km/s) = 2.69535 3.65172 3.20936
# Velocity P-wave (km/s) = 3.86929 6.03392 5.06851
#
# Compressibility (1/GPa) = 0.08960490
#
# Stress axis : x y z
#
# Youngs Moduli (GPa) = 15.24930 133.63013 42.92149
#
# Poissons Ratio (x) = 0.63519 -0.24738
# Poissons Ratio (y) = 0.07249 0.18830
# Poissons Ratio (z) = -0.08789 0.58623
#
# Static dielectric constant tensor:
#      x y z
#    x 1.789040 0.029890 0.005310 
#    y 0.029890 1.826900 0.008780 
#    z 0.005310 0.008780 1.838330 
# 
# From -- ./inp_files/257524.got.cif
#   From: 2010.05.17/outbox.cif.g08.bks.cpg/sg2_129_cif.got.tgz:257524.got - 2010.06.03 11:33:40.
