data_PCOD9083424
_publ_section_title
;
Structure prediction by ZEFSAII (Michael W. Deem and Ramdas Pophale) SiO2 
 PCOD9083424
Probable space group: P -1
;
_chemical_formula_sum "Si O2"
_cell_formula_units_Z 14
_cell_length_a 13.127292
_cell_length_b 11.968211
_cell_length_c 8.805740
_cell_angle_alpha 138.723262
_cell_angle_beta 107.720203
_cell_angle_gamma 98.355023
_cell_volume 698.577170
_symmetry_space_group_name_H-M "P -1"
_symmetry_group_IT_number 2
_symmetry_cell_setting 'triclinic'
loop_
_space_group_symop_operation_xyz
x,y,z
-x,-y,-z
loop_
_atom_site_type_symbol
_atom_site_label
_atom_site_fract_x
_atom_site_fract_y
_atom_site_fract_z
Si Si1 0.882580 0.221098 0.019228
Si Si2 0.906941 0.065690 0.574244
Si Si3 0.270289 0.836855 0.811446
Si Si4 0.993677 0.615682 0.292116
Si Si5 0.083403 0.240716 0.333280
Si Si6 0.647995 0.469437 0.409703
Si Si7 0.351056 0.224057 0.045466
O O1 0.877185 0.062648 0.735117
O O2 0.772865 0.140372 0.016745
O O3 0.887085 0.386516 0.079489
O O4 0.019210 0.326466 0.283943
O O5 0.986797 0.306948 0.792372
O O6 0.000000 0.000000 0.500000
O O7 0.768814 0.918550 0.270866
O O8 0.137237 0.696307 0.504693
O O9 0.335462 0.713077 0.725898
O O10 0.349638 0.065115 0.001206
O O11 0.955279 0.749158 0.504165
O O12 0.237817 0.378926 0.505470
O O13 0.000000 0.000000 0.000000
O O14 0.497292 0.361949 0.179719
O O15 0.670921 0.621052 0.715191
#
# Coordination Sequence:
#
# PCOD9083424 Si02
#       7
#     2   2   2   2   2   2   2
#     4  11  19  35  56  86 115 143 188 240 290 344
#     4  11  23  37  55  82 121 151 186 241 295 339
#     4  10  19  37  63  85 114 147 195 243 283 333
#     4  10  19  34  55  87 110 144 196 235 283 344
#     4  11  19  33  62  88 111 146 194 242 285 329
#     4  11  19  38  62  83 119 147 197 240 287 333
#     4  10  24  37  58  89 112 155 197 236 283 352
#
# _framework density 20.040735000000002
#
# number of rings (size 3 to 8) (size 9 to 14) (size 15 to 20)
#    0.000    1.429    2.857    6.000    0.000    0.000 
#    0.000    0.714    0.000   10.286    0.000    0.000 
#    0.000    0.000    0.000    0.000    0.000    0.000 
#
# Total GULP energy -78101.788921 kJ/mol
# GULP energy per Si atom -5578.699209 kJ/mol
# Density = 1.999512 g / cm^3
# Si number density = 20.040735 Si / 1000 Ang^3
#
#
#
# Elastic Constant Matrix: (Units=GPa)
#
#
# Indices 1 2 3 4 5 6 
#
# 1 96.6459 21.0238 22.8189 -4.5123 4.7432 1.9106
# 2 21.0238 75.7902 16.8285 2.2413 -3.6405 6.8579
# 3 22.8189 16.8285 49.1532 -0.8581 -0.3783 3.6800
# 4 -4.5123 2.2413 -0.8581 31.8411 1.8471 -9.6707
# 5 4.7432 -3.6405 -0.3783 1.8471 34.7645 10.0063
# 6 1.9106 6.8579 3.6800 -9.6707 10.0063 26.1882
#
#
#
# Elastic Compliance Matrix: (Units=1/GPa)
#
#
# Indices 1 2 3 4 5 6 
#
# 1 0.012346 -0.002794 -0.004950 0.002801 -0.002954 0.002689
# 2 -0.002794 0.015645 -0.003623 -0.003736 0.003988 -0.006287
# 3 -0.004950 -0.003623 0.024098 -0.000763 0.001435 -0.002907
# 4 0.002801 -0.003736 -0.000763 0.037956 -0.007962 0.017939
# 5 -0.002954 0.003988 0.001435 -0.007962 0.035018 -0.017351
# 6 0.002689 -0.006287 -0.002907 0.017939 -0.017351 0.053298
#
#
# Mechanical properties :
#
#
# Convention : Reuss Voigt Hill
#
# Bulk Modulus (GPa) = 34.06560 38.10352 36.08456
# Shear Modulus (GPa) = 23.71010 29.28666 26.49838
#
# Velocity S-wave (km/s) = 3.44335 3.82692 3.64019
# Velocity P-wave (km/s) = 5.73096 6.21139 5.97601
#
# Compressibility (1/GPa) = 0.02935512
#
# Stress axis : x y z
#
# Youngs Moduli (GPa) = 80.99698 63.91945 41.49645
#
# Poissons Ratio (x) = 0.17857 0.20542
# Poissons Ratio (y) = 0.22628 0.15035
# Poissons Ratio (z) = 0.40096 0.23159
#
# Static dielectric constant tensor:
#      x y z
#    x 1.716110 -0.033400 -0.067230 
#    y -0.033400 1.773480 0.059040 
#    z -0.067230 0.059040 1.748400 
# 
# From -- ./inp_files/153958.got.cif
#   From: 2010.05.17/outbox.cif.g08.bks.cpg/sg2_77_cif.got.tgz:153958.got - 2010.06.03 11:33:40.
