data_PCOD9083517
_publ_section_title
;
Structure prediction by ZEFSAII (Michael W. Deem and Ramdas Pophale) SiO2 
 PCOD9083517
Probable space group: P -1
;
_chemical_formula_sum "Si O2"
_cell_formula_units_Z 16
_cell_length_a 9.205164
_cell_length_b 20.579606
_cell_length_c 17.535099
_cell_angle_alpha 32.065449
_cell_angle_beta 140.732716
_cell_angle_gamma 148.953486
_cell_volume 895.326382
_symmetry_space_group_name_H-M "P -1"
_symmetry_group_IT_number 2
_symmetry_cell_setting 'triclinic'
loop_
_space_group_symop_operation_xyz
x,y,z
-x,-y,-z
loop_
_atom_site_type_symbol
_atom_site_label
_atom_site_fract_x
_atom_site_fract_y
_atom_site_fract_z
Si Si1 0.098192 0.303960 0.864564
Si Si2 0.262297 0.106237 0.061185
Si Si3 0.168044 0.362554 0.007326
Si Si4 0.909236 0.864859 0.680168
Si Si5 0.164528 0.573762 0.074112
Si Si6 0.247649 0.677613 0.414852
Si Si7 0.473259 0.065637 0.621790
Si Si8 0.630510 0.609095 0.691492
O O1 0.373317 0.462783 0.781383
O O2 0.832382 0.259503 0.748656
O O3 0.156878 0.178681 0.003464
O O4 0.053806 0.326411 0.911067
O O5 0.384448 0.022901 0.235072
O O6 0.542815 0.256251 0.986489
O O7 0.000000 0.000000 0.000000
O O8 0.132615 0.218887 0.175086
O O9 0.500000 0.500000 0.000000
O O10 0.021639 0.414350 0.951912
O O11 0.711259 0.922522 0.530078
O O12 0.819539 0.738522 0.702884
O O13 0.240925 0.992416 0.669293
O O14 0.235563 0.456215 0.238461
O O15 0.000000 0.500000 0.000000
O O16 0.278495 0.764550 0.418347
O O17 0.524069 0.680741 0.520767
O O18 0.000000 0.500000 0.500000
#
# Coordination Sequence:
#
# PCOD9083517 Si02
#       8
#     2   2   2   2   2   2   2   2
#     4  10  20  33  55  84 116 149 185 238 289 340
#     4  11  20  36  58  88 114 151 201 242 285 343
#     4  12  21  35  56  88 121 150 189 241 300 341
#     4  10  19  34  56  85 110 148 192 241 285 332
#     4  11  20  36  58  85 114 153 204 240 277 346
#     4   9  18  33  54  82 108 146 193 231 278 344
#     4  10  19  34  58  82 110 147 198 240 277 337
#     4   9  17  34  57  81 107 146 199 235 268 334
#
# _framework density 17.870577999999998
#
# number of rings (size 3 to 8) (size 9 to 14) (size 15 to 20)
#    0.000    1.750    5.000    0.750    0.000    0.000 
#    0.000    3.750    0.000    0.000    0.000    0.000 
#    0.000    0.000    0.000    0.000    0.000    0.000 
#
# Total GULP energy -89068.683567 kJ/mol
# GULP energy per Si atom -5566.792723 kJ/mol
# Density = 1.782990 g / cm^3
# Si number density = 17.870578 Si / 1000 Ang^3
#
#
#
# Elastic Constant Matrix: (Units=GPa)
#
#
# Indices 1 2 3 4 5 6 
#
# 1 101.9170 20.8292 44.0733 13.7533 19.5709 -5.1995
# 2 20.8292 69.2573 2.0236 -2.5172 6.6455 -0.8037
# 3 44.0733 2.0236 118.3465 13.7647 34.0316 2.1392
# 4 13.7533 -2.5172 13.7647 30.6609 -1.8293 -0.5899
# 5 19.5709 6.6455 34.0316 -1.8293 35.4305 -5.2257
# 6 -5.1995 -0.8037 2.1392 -0.5899 -5.2257 15.2902
#
#
#
# Elastic Compliance Matrix: (Units=1/GPa)
#
#
# Indices 1 2 3 4 5 6 
#
# 1 0.013590 -0.003827 -0.003629 -0.004889 -0.003008 0.003711
# 2 -0.003827 0.015847 0.001686 0.002077 -0.002593 -0.001510
# 3 -0.003629 0.001686 0.014550 -0.005744 -0.013780 -0.008112
# 4 -0.004889 0.002077 -0.005744 0.038262 0.010437 0.004293
# 5 -0.003008 -0.002593 -0.013780 0.010437 0.046672 0.017122
# 6 0.003711 -0.001510 -0.008112 0.004293 0.017122 0.073736
#
#
# Mechanical properties :
#
#
# Convention : Reuss Voigt Hill
#
# Bulk Modulus (GPa) = 30.82034 47.04144 38.93089
# Shear Modulus (GPa) = 22.22075 31.11595 26.66835
#
# Velocity S-wave (km/s) = 3.53005 4.17728 3.86723
# Velocity P-wave (km/s) = 5.82227 7.04604 6.46319
#
# Compressibility (1/GPa) = 0.03244611
#
# Stress axis : x y z
#
# Youngs Moduli (GPa) = 73.58221 63.10152 68.73039
#
# Poissons Ratio (x) = 0.24150 0.24943
# Poissons Ratio (y) = 0.28161 -0.11585
# Poissons Ratio (z) = 0.26703 -0.10637
#
# Static dielectric constant tensor:
#      x y z
#    x 1.581320 0.024340 0.043950 
#    y 0.024340 1.729480 0.018810 
#    z 0.043950 0.018810 1.676690 
# 
# From -- ./inp_files/255049.got.cif
#   From: 2010.05.17/outbox.cif.g08.bks.cpg/sg2_128_cif.got.tgz:255049.got - 2010.06.03 11:33:40.
