data_PCOD9083234
_publ_section_title
;
Structure prediction by ZEFSAII (Michael W. Deem and Ramdas Pophale) SiO2 
 PCOD9083234
Probable space group: P -1
;
_chemical_formula_sum "Si O2"
_cell_formula_units_Z 12
_cell_length_a 12.018421
_cell_length_b 13.882913
_cell_length_c 5.404796
_cell_angle_alpha 61.924847
_cell_angle_beta 129.054027
_cell_angle_gamma 120.463992
_cell_volume 588.012818
_symmetry_space_group_name_H-M "P -1"
_symmetry_group_IT_number 2
_symmetry_cell_setting 'triclinic'
loop_
_space_group_symop_operation_xyz
x,y,z
-x,-y,-z
loop_
_atom_site_type_symbol
_atom_site_label
_atom_site_fract_x
_atom_site_fract_y
_atom_site_fract_z
Si Si1 0.821213 0.439201 0.309388
Si Si2 0.579812 0.559029 0.790579
Si Si3 0.705327 0.821159 0.600317
Si Si4 0.121287 0.627321 0.029184
Si Si5 0.218753 0.061727 0.929834
Si Si6 0.003519 0.833675 0.750700
O O1 0.778984 0.374010 0.588376
O O2 0.000000 0.500000 0.500000
O O3 0.739751 0.534861 0.048077
O O4 0.791814 0.359060 0.124273
O O5 0.500000 0.500000 0.500000
O O6 0.599504 0.693123 0.648981
O O7 0.500000 0.500000 0.000000
O O8 0.679948 0.877292 0.236289
O O9 0.873109 0.809704 0.803493
O O10 0.710760 0.899106 0.753168
O O11 0.037039 0.721402 0.837662
O O12 0.000000 0.500000 0.000000
O O13 0.071081 0.106868 0.637961
O O14 0.152461 0.926865 0.949520
#
# Coordination Sequence:
#
# PCOD9083234 Si02
#       6
#     2   2   2   2   2   2
#     4  10  22  37  55  86 114 155 192 236 302 350
#     4  12  25  40  61  87 123 164 203 243 293 358
#     4  10  19  34  53  79 116 154 192 244 298 339
#     4  10  20  30  53  81 117 154 179 229 297 359
#     4   9  20  30  54  83 120 153 191 250 300 343
#     4   9  20  31  55  85 125 144 200 240 310 341
#
# _framework density 20.407719
#
# number of rings (size 3 to 8) (size 9 to 14) (size 15 to 20)
#    1.000    1.000    0.000    4.500    7.000    0.000 
#    0.000    0.000    0.000    0.000    0.000   23.333 
#    0.000    0.000    0.000    0.000    0.000    0.000 
#
# Total GULP energy -66881.387026 kJ/mol
# GULP energy per Si atom -5573.448919 kJ/mol
# Density = 2.036127 g / cm^3
# Si number density = 20.407719 Si / 1000 Ang^3
#
#
#
# Elastic Constant Matrix: (Units=GPa)
#
#
# Indices 1 2 3 4 5 6 
#
# 1 74.6772 29.5207 34.0293 13.4468 -34.8704 3.7605
# 2 29.5207 112.2877 2.1753 3.9759 -13.5758 -2.5728
# 3 34.0293 2.1753 62.1359 8.5358 -26.3318 -12.4422
# 4 13.4468 3.9759 8.5358 19.9950 -14.1090 -1.1955
# 5 -34.8704 -13.5758 -26.3318 -14.1090 47.7317 5.2675
# 6 3.7605 -2.5728 -12.4422 -1.1955 5.2675 29.8453
#
#
#
# Elastic Compliance Matrix: (Units=1/GPa)
#
#
# Indices 1 2 3 4 5 6 
#
# 1 0.028142 -0.005768 -0.011563 -0.004790 0.012364 -0.011238
# 2 -0.005768 0.010470 0.003553 0.000931 0.000665 0.003030
# 3 -0.011563 0.003553 0.027397 0.000724 0.006561 0.012056
# 4 -0.004790 0.000931 0.000724 0.064095 0.016031 0.000724
# 5 0.012364 0.000665 0.006561 0.016031 0.039084 -0.005021
# 6 -0.011238 0.003030 0.012056 0.000724 -0.005021 0.041124
#
#
# Mechanical properties :
#
#
# Convention : Reuss Voigt Hill
#
# Bulk Modulus (GPa) = 26.00530 42.28348 34.14439
# Shear Modulus (GPa) = 19.94540 31.73943 25.84241
#
# Velocity S-wave (km/s) = 3.12964 3.94796 3.56238
# Velocity P-wave (km/s) = 5.08233 6.44564 5.80415
#
# Compressibility (1/GPa) = 0.03845370
#
# Stress axis : x y z
#
# Youngs Moduli (GPa) = 35.53448 95.51041 36.50071
#
# Poissons Ratio (x) = 0.55086 0.42205
# Poissons Ratio (y) = 0.20495 -0.12968
# Poissons Ratio (z) = 0.41088 -0.33934
#
# Static dielectric constant tensor:
#      x y z
#    x 1.756710 0.012780 -0.036420 
#    y 0.012780 1.692890 -0.000630 
#    z -0.036420 -0.000630 1.776560 
# 
# From -- ./inp_files/70209.got.cif
#   From: 2010.05.17/outbox.cif.g08.bks.cpg/sg2_36_cif.got.tgz:70209.got - 2010.06.03 11:33:40.
