data_PCOD9083341
_publ_section_title
;
Structure prediction by ZEFSAII (Michael W. Deem and Ramdas Pophale) SiO2 
 PCOD9083341
Probable space group: P -1
;
_chemical_formula_sum "Si O2"
_cell_formula_units_Z 14
_cell_length_a 9.613149
_cell_length_b 14.754722
_cell_length_c 7.880057
_cell_angle_alpha 65.489910
_cell_angle_beta 81.065779
_cell_angle_gamma 135.223639
_cell_volume 510.248802
_symmetry_space_group_name_H-M "P -1"
_symmetry_group_IT_number 2
_symmetry_cell_setting 'triclinic'
loop_
_space_group_symop_operation_xyz
x,y,z
-x,-y,-z
loop_
_atom_site_type_symbol
_atom_site_label
_atom_site_fract_x
_atom_site_fract_y
_atom_site_fract_z
Si Si1 0.981152 0.116428 0.021176
Si Si2 0.618600 0.925900 0.902106
Si Si3 0.152986 0.266550 0.318404
Si Si4 0.403083 0.309066 0.549208
Si Si5 0.252356 0.627354 0.724075
Si Si6 0.519259 0.340602 0.038967
Si Si7 0.582600 0.012796 0.289716
O O1 0.835608 0.922863 0.242428
O O2 0.881878 0.142384 0.145748
O O3 0.793592 0.037444 0.953697
O O4 0.291243 0.293781 0.753617
O O5 0.769219 0.570504 0.837672
O O6 0.466441 0.726998 0.066960
O O7 0.851038 0.067551 0.601515
O O8 0.352618 0.352187 0.369692
O O9 0.248524 0.246398 0.171325
O O10 0.698794 0.433650 0.372634
O O11 0.471760 0.725383 0.748239
O O12 0.353347 0.786370 0.481264
O O13 0.000000 0.500000 0.000000
O O14 0.569367 0.094916 0.095517
O O15 0.500000 0.000000 0.500000
#
# Coordination Sequence:
#
# PCOD9083341 Si02
#       7
#     2   2   2   2   2   2   2
#     4   9  19  36  61  84 116 156 193 243 298 345
#     4  11  20  35  59  86 115 155 196 238 298 354
#     4   9  19  34  57  84 119 154 191 243 293 344
#     4   8  17  36  60  78 113 159 188 236 293 346
#     4  10  19  34  59  83 118 154 193 238 293 345
#     4  10  19  34  54  87 120 151 194 243 290 349
#     4  11  21  36  58  86 115 153 198 243 289 350
#
# _framework density 27.437595999999999
#
# number of rings (size 3 to 8) (size 9 to 14) (size 15 to 20)
#    0.000    2.286    1.429    1.714    0.000    0.000 
#    2.571    0.714   12.571    7.714    0.000    0.000 
#    0.000    0.000    0.000    0.000    0.000    0.000 
#
# Total GULP energy -78249.262769 kJ/mol
# GULP energy per Si atom -5589.233055 kJ/mol
# Density = 2.737515 g / cm^3
# Si number density = 27.437596 Si / 1000 Ang^3
#
#
#
# Elastic Constant Matrix: (Units=GPa)
#
#
# Indices 1 2 3 4 5 6 
#
# 1 135.3579 18.7775 17.5169 -2.7470 -11.1121 -33.7562
# 2 18.7775 84.3466 24.5785 -1.6327 -10.7567 -25.0768
# 3 17.5169 24.5785 146.6250 15.1070 -27.4614 -26.4192
# 4 -2.7470 -1.6327 15.1070 47.5719 -18.4934 -6.2708
# 5 -11.1121 -10.7567 -27.4614 -18.4934 56.0484 9.9684
# 6 -33.7562 -25.0768 -26.4192 -6.2708 9.9684 30.6268
#
#
#
# Elastic Compliance Matrix: (Units=1/GPa)
#
#
# Indices 1 2 3 4 5 6 
#
# 1 0.010737 0.001795 0.000946 0.002772 0.001315 0.014259
# 2 0.001795 0.016370 -0.000217 0.003456 0.001808 0.015314
# 3 0.000946 -0.000217 0.008658 -0.000621 0.002891 0.007266
# 4 0.002772 0.003456 -0.000621 0.025641 0.007944 0.008014
# 5 0.001315 0.001808 0.002891 0.007944 0.022538 -0.000285
# 6 0.014259 0.015314 0.007266 0.008014 -0.000285 0.068907
#
#
# Mechanical properties :
#
#
# Convention : Reuss Voigt Hill
#
# Bulk Modulus (GPa) = 24.50183 54.23058 39.36621
# Shear Modulus (GPa) = 30.97785 47.21321 39.09553
#
# Velocity S-wave (km/s) = 3.36375 4.15269 3.77887
# Velocity P-wave (km/s) = 4.90263 6.54225 5.78087
#
# Compressibility (1/GPa) = 0.04081328
#
# Stress axis : x y z
#
# Youngs Moduli (GPa) = 93.13968 61.08838 115.49990
#
# Poissons Ratio (x) = -0.10963 -0.10932
# Poissons Ratio (y) = -0.16715 0.02502
# Poissons Ratio (z) = -0.08815 0.01323
#
# Static dielectric constant tensor:
#      x y z
#    x 2.149800 -0.009790 -0.053520 
#    y -0.009790 2.339130 0.142410 
#    z -0.053520 0.142410 2.202620 
# 
# From -- ./inp_files/316390.got.cif
#   From: 2010.05.17/outbox.cif.g08.bks.cpg/sg2_159_cif.got.tgz:316390.got - 2010.06.03 11:33:40.
