data_PCOD9083912
_publ_section_title
;
Structure prediction by ZEFSAII (Michael W. Deem and Ramdas Pophale) SiO2 
 PCOD9083912
Probable space group: P -1
;
_chemical_formula_sum "Si O2"
_cell_formula_units_Z 12
_cell_length_a 15.855946
_cell_length_b 4.896973
_cell_length_c 10.341096
_cell_angle_alpha 78.099130
_cell_angle_beta 57.314811
_cell_angle_gamma 88.277640
_cell_volume 658.043693
_symmetry_space_group_name_H-M "P -1"
_symmetry_group_IT_number 2
_symmetry_cell_setting 'triclinic'
loop_
_space_group_symop_operation_xyz
x,y,z
-x,-y,-z
loop_
_atom_site_type_symbol
_atom_site_label
_atom_site_fract_x
_atom_site_fract_y
_atom_site_fract_z
Si Si1 0.073057 0.552519 0.057666
Si Si2 0.757056 0.697240 0.507413
Si Si3 0.849542 0.133008 0.556390
Si Si4 0.047392 0.966893 0.258837
Si Si5 0.382201 0.461206 0.577676
Si Si6 0.745337 0.067015 0.252645
O O1 0.026092 0.723989 0.194757
O O2 0.093637 0.249233 0.122800
O O3 0.173243 0.745460 0.914691
O O4 0.000000 0.500000 0.000000
O O5 0.815739 0.428651 0.510538
O O6 0.649379 0.599097 0.540487
O O7 0.763432 0.889497 0.609840
O O8 0.801189 0.903940 0.334719
O O9 0.879292 0.133603 0.681592
O O10 0.947935 0.049721 0.406444
O O11 0.500000 0.500000 0.500000
O O12 0.327431 0.728188 0.640111
O O13 0.326556 0.188865 0.724103
#
# Coordination Sequence:
#
# PCOD9083912 Si02
#       6
#     2   2   2   2   2   2
#     4  12  24  38  55  82 119 160 188 226 282 345
#     4  10  19  34  59  80 115 141 183 242 291 323
#     4  11  21  38  54  81 112 157 198 241 256 329
#     4  11  25  36  55  79 116 158 206 224 271 318
#     4  10  20  36  59  90 114 137 184 240 304 337
#     4  10  21  35  56  87 115 146 181 230 294 341
#
# _framework density 18.235870999999999
#
# number of rings (size 3 to 8) (size 9 to 14) (size 15 to 20)
#    1.000    0.333    1.667    5.000    2.333    2.667 
#    0.000    0.000    0.000    0.000    0.000   23.333 
#    0.000    0.000    0.000    0.000    0.000    0.000 
#
# Total GULP energy -66905.221580 kJ/mol
# GULP energy per Si atom -5575.435132 kJ/mol
# Density = 1.819437 g / cm^3
# Si number density = 18.235871 Si / 1000 Ang^3
#
#
#
# Elastic Constant Matrix: (Units=GPa)
#
#
# Indices 1 2 3 4 5 6 
#
# 1 126.1730 53.6066 56.6413 -11.0368 11.0876 3.5914
# 2 53.6066 141.9753 31.3268 -2.8545 12.2839 -1.6441
# 3 56.6413 31.3268 53.0973 -0.4504 15.5203 1.6774
# 4 -11.0368 -2.8545 -0.4504 26.7327 3.8815 4.0597
# 5 11.0876 12.2839 15.5203 3.8815 22.3469 1.1216
# 6 3.5914 -1.6441 1.6774 4.0597 1.1216 21.6145
#
#
#
# Elastic Compliance Matrix: (Units=1/GPa)
#
#
# Indices 1 2 3 4 5 6 
#
# 1 0.017615 -0.002928 -0.018246 0.006472 0.004577 -0.003187
# 2 -0.002928 0.008664 -0.001323 -0.000166 -0.002433 0.001406
# 3 -0.018246 -0.001323 0.045114 -0.004072 -0.020909 0.001280
# 4 0.006472 -0.000166 -0.004072 0.042309 -0.007221 -0.008344
# 5 0.004577 -0.002433 -0.020909 -0.007221 0.059644 -0.001062
# 6 -0.003187 0.001406 0.001280 -0.008344 -0.001062 0.048425
#
#
# Mechanical properties :
#
#
# Convention : Reuss Voigt Hill
#
# Bulk Modulus (GPa) = 37.87882 67.15499 52.51691
# Shear Modulus (GPa) = 18.14455 26.11688 22.13071
#
# Velocity S-wave (km/s) = 3.15777 3.78851 3.48743
# Velocity P-wave (km/s) = 5.84055 7.48617 6.71397
#
# Compressibility (1/GPa) = 0.02639997
#
# Stress axis : x y z
#
# Youngs Moduli (GPa) = 56.76987 115.41479 22.16591
#
# Poissons Ratio (x) = 0.33793 0.40443
# Poissons Ratio (y) = 0.16622 0.02933
# Poissons Ratio (z) = 1.03580 0.15272
#
# Static dielectric constant tensor:
#      x y z
#    x 1.642440 0.034310 0.011360 
#    y 0.034310 1.659670 0.006900 
#    z 0.011360 0.006900 1.645240 
# 
# From -- ./inp_files/287703.got.cif
#   From: 2010.05.17/outbox.cif.g08.bks.cpg/sg2_144_cif.got.tgz:287703.got - 2010.06.03 11:33:40.
