data_PCOD9083816
_publ_section_title
;
Structure prediction by ZEFSAII (Michael W. Deem and Ramdas Pophale) SiO2 
 PCOD9083816
Probable space group: P -1
;
_chemical_formula_sum "Si O2"
_cell_formula_units_Z 14
_cell_length_a 8.121393
_cell_length_b 12.148979
_cell_length_c 11.481314
_cell_angle_alpha 101.439564
_cell_angle_beta 142.670392
_cell_angle_gamma 84.426172
_cell_volume 669.789988
_symmetry_space_group_name_H-M "P -1"
_symmetry_group_IT_number 2
_symmetry_cell_setting 'triclinic'
loop_
_space_group_symop_operation_xyz
x,y,z
-x,-y,-z
loop_
_atom_site_type_symbol
_atom_site_label
_atom_site_fract_x
_atom_site_fract_y
_atom_site_fract_z
Si Si1 0.291440 0.166454 0.659298
Si Si2 0.070111 0.179926 0.295076
Si Si3 0.109837 0.400309 0.220093
Si Si4 0.644090 0.999293 0.954114
Si Si5 0.719633 0.205349 0.316240
Si Si6 0.661224 0.454076 0.409219
Si Si7 0.505168 0.582160 0.130759
O O1 0.483860 0.078756 0.797795
O O2 0.371967 0.288572 0.787383
O O3 0.297093 0.175685 0.522748
O O4 0.966009 0.139604 0.493219
O O5 0.815580 0.218490 0.237570
O O6 0.139767 0.274103 0.257597
O O7 0.950889 0.058186 0.152738
O O8 0.348388 0.439845 0.273965
O O9 0.159441 0.481285 0.377082
O O10 0.807656 0.408841 0.006387
O O11 0.566843 0.869964 0.845944
O O12 0.500000 0.000000 0.000000
O O13 0.731647 0.328298 0.401066
O O14 0.671442 0.527314 0.314000
O O15 0.500000 0.500000 0.000000
#
# Coordination Sequence:
#
# PCOD9083816 Si02
#       7
#     2   2   2   2   2   2   2
#     4  10  20  34  58  85 114 142 189 237 284 332
#     4   9  19  35  59  81 113 148 191 231 284 328
#     4  11  22  39  59  82 118 159 187 230 291 341
#     4  10  19  34  58  85 114 146 188 239 287 328
#     4   9  20  35  56  86 114 144 189 238 282 329
#     4  11  23  40  55  86 122 150 190 235 285 345
#     4  12  23  35  62  88 117 146 196 237 285 342
#
# _framework density 20.902073999999999
#
# number of rings (size 3 to 8) (size 9 to 14) (size 15 to 20)
#    0.857    0.857    2.857    2.571    2.000    1.714 
#    0.000    0.714    0.000    0.857    0.000    0.000 
#    0.000    0.000    0.000    0.000    0.000    0.000 
#
# Total GULP energy -78092.754340 kJ/mol
# GULP energy per Si atom -5578.053881 kJ/mol
# Density = 2.085450 g / cm^3
# Si number density = 20.902074 Si / 1000 Ang^3
#
#
#
# Elastic Constant Matrix: (Units=GPa)
#
#
# Indices 1 2 3 4 5 6 
#
# 1 23.5072 1.9002 1.2124 1.6414 -1.2405 4.6620
# 2 1.9002 70.3597 11.6542 8.0258 -6.4185 19.1424
# 3 1.2124 11.6542 64.4629 4.9373 5.0621 4.6292
# 4 1.6414 8.0258 4.9373 47.1848 9.0733 5.4894
# 5 -1.2405 -6.4185 5.0621 9.0733 17.1170 -3.4344
# 6 4.6620 19.1424 4.6292 5.4894 -3.4344 17.6243
#
#
#
# Elastic Compliance Matrix: (Units=1/GPa)
#
#
# Indices 1 2 3 4 5 6 
#
# 1 0.045373 0.003101 -0.000469 -0.000752 0.002057 -0.014612
# 2 0.003101 0.021121 -0.002640 -0.002048 0.005735 -0.021312
# 3 -0.000469 -0.002640 0.016701 0.000333 -0.006702 -0.002805
# 4 -0.000752 -0.002048 0.000333 0.025701 -0.016320 -0.008850
# 5 0.002057 0.005735 -0.006702 -0.016320 0.074272 0.014544
# 6 -0.014612 -0.021312 -0.002805 -0.008850 0.014544 0.090080
#
#
# Mechanical properties :
#
#
# Convention : Reuss Voigt Hill
#
# Bulk Modulus (GPa) = 12.02209 20.87371 16.44790
# Shear Modulus (GPa) = 16.61192 25.95610 21.28401
#
# Velocity S-wave (km/s) = 2.82219 3.52773 3.19450
# Velocity P-wave (km/s) = 4.04769 5.15765 4.63601
#
# Compressibility (1/GPa) = 0.08318023
#
# Stress axis : x y z
#
# Youngs Moduli (GPa) = 22.03976 47.34592 59.87621
#
# Poissons Ratio (x) = -0.14682 0.02806
# Poissons Ratio (y) = -0.06835 0.15806
# Poissons Ratio (z) = 0.01033 0.12499
#
# Static dielectric constant tensor:
#      x y z
#    x 1.776210 0.009080 0.004850 
#    y 0.009080 1.730230 0.021400 
#    z 0.004850 0.021400 1.766980 
# 
# From -- ./inp_files/267846.got.cif
#   From: 2010.05.17/outbox.cif.g08.bks.cpg/sg2_134_cif.got.tgz:267846.got - 2010.06.03 11:33:40.
