data_PCOD9083439
_publ_section_title
;
Structure prediction by ZEFSAII (Michael W. Deem and Ramdas Pophale) SiO2 
 PCOD9083439
Probable space group: P -1
;
_chemical_formula_sum "Si O2"
_cell_formula_units_Z 15
_cell_length_a 12.144479
_cell_length_b 12.351516
_cell_length_c 8.623754
_cell_angle_alpha 142.566313
_cell_angle_beta 49.877263
_cell_angle_gamma 115.745427
_cell_volume 592.872868
_symmetry_space_group_name_H-M "P -1"
_symmetry_group_IT_number 2
_symmetry_cell_setting 'triclinic'
loop_
_space_group_symop_operation_xyz
x,y,z
-x,-y,-z
loop_
_atom_site_type_symbol
_atom_site_label
_atom_site_fract_x
_atom_site_fract_y
_atom_site_fract_z
Si Si1 0.495550 0.133486 0.905157
Si Si2 0.474529 0.756344 0.353069
Si Si3 0.974516 0.850785 0.165178
Si Si4 0.000000 0.000000 0.000000
Si Si5 0.225300 0.803568 0.125719
Si Si6 0.887613 0.482900 0.921531
Si Si7 0.755299 0.470779 0.710600
Si Si8 0.166081 0.276751 0.340490
O O1 0.541959 0.203615 0.772526
O O2 0.610145 0.163690 0.967103
O O3 0.493771 0.926549 0.630512
O O4 0.330813 0.225767 0.193800
O O5 0.332531 0.678606 0.444685
O O6 0.622444 0.614103 0.067966
O O7 0.128177 0.835072 0.096129
O O8 0.996360 0.843001 0.954800
O O9 0.869072 0.042860 0.504528
O O10 0.894129 0.690993 0.119884
O O11 0.113592 0.097778 0.118437
O O12 0.217940 0.603092 0.967177
O O13 0.852857 0.405457 0.694931
O O14 0.050765 0.373940 0.680583
O O15 0.826159 0.574215 0.630948
#
# Coordination Sequence:
#
# PCOD9083439 Si02
#       8
#     2   2   2   1   2   2   2   2
#     4  10  21  38  60  93 132 173 219 270 330 391
#     4   9  19  32  59  90 131 171 221 272 323 385
#     4  11  26  43  73  99 131 178 227 272 336 387
#     4  12  24  44  66 100 134 174 220 280 324 396
#     4  11  24  47  69  98 135 175 226 275 326 403
#     4  12  22  41  68  99 133 175 219 275 330 401
#     4  10  19  34  55  98 130 164 223 278 322 381
#     4  11  25  35  63  99 136 168 223 272 336 387
#
# _framework density 25.300533000000001
#
# number of rings (size 3 to 8) (size 9 to 14) (size 15 to 20)
#    0.000    1.333    4.000    1.600    5.600    0.000 
#    0.000    1.333    0.000    0.000    0.000    0.000 
#    0.000    0.000    0.000    0.000    0.000    0.000 
#
# Total GULP energy -83767.588107 kJ/mol
# GULP energy per Si atom -5584.505874 kJ/mol
# Density = 2.524295 g / cm^3
# Si number density = 25.300533 Si / 1000 Ang^3
#
#
#
# Elastic Constant Matrix: (Units=GPa)
#
#
# Indices 1 2 3 4 5 6 
#
# 1 124.8905 33.6454 7.5910 13.4295 -7.1212 9.6469
# 2 33.6454 126.3590 13.6461 30.0841 -0.4271 17.6567
# 3 7.5910 13.6461 44.6638 14.7221 -13.7098 12.7021
# 4 13.4295 30.0841 14.7221 28.2679 6.1805 4.0170
# 5 -7.1212 -0.4271 -13.7098 6.1805 22.8024 5.4876
# 6 9.6469 17.6567 12.7021 4.0170 5.4876 41.7765
#
#
#
# Elastic Compliance Matrix: (Units=1/GPa)
#
#
# Indices 1 2 3 4 5 6 
#
# 1 0.009550 -0.000605 0.005155 -0.008027 0.009198 -0.003953
# 2 -0.000605 0.012909 0.008552 -0.019512 0.012327 -0.007660
# 3 0.005155 0.008552 0.062703 -0.053630 0.060420 -0.026650
# 4 -0.008027 -0.019512 -0.053630 0.099126 -0.068202 0.025834
# 5 0.009198 0.012327 0.060420 -0.068202 0.109852 -0.033576
# 6 -0.003953 -0.007660 -0.026650 0.025834 -0.033576 0.038116
#
#
# Mechanical properties :
#
#
# Convention : Reuss Voigt Hill
#
# Bulk Modulus (GPa) = 8.97932 45.07538 27.02735
# Shear Modulus (GPa) = 14.56994 34.63809 24.60401
#
# Velocity S-wave (km/s) = 2.40234 3.70410 3.12183
# Velocity P-wave (km/s) = 3.35437 6.01236 4.86828
#
# Compressibility (1/GPa) = 0.11136703
#
# Stress axis : x y z
#
# Youngs Moduli (GPa) = 104.71629 77.46677 15.94818
#
# Poissons Ratio (x) = 0.04685 -0.08222
# Poissons Ratio (y) = 0.06334 -0.13639
# Poissons Ratio (z) = -0.53985 -0.66252
#
# Static dielectric constant tensor:
#      x y z
#    x 1.993770 -0.011030 -0.008930 
#    y -0.011030 1.977100 0.028860 
#    z -0.008930 0.028860 2.081990 
# 
# From -- ./inp_files/263695.got.cif
#   From: 2010.05.17/outbox.cif.g08.bks.cpg/sg2_132_cif.got.tgz:263695.got - 2010.06.03 11:33:40.
