data_PCOD9083383
_publ_section_title
;
Structure prediction by ZEFSAII (Michael W. Deem and Ramdas Pophale) SiO2 
 PCOD9083383
Probable space group: P -1
;
_chemical_formula_sum "Si O2"
_cell_formula_units_Z 16
_cell_length_a 18.749900
_cell_length_b 11.905725
_cell_length_c 19.180876
_cell_angle_alpha 25.263191
_cell_angle_beta 21.831946
_cell_angle_gamma 29.130504
_cell_volume 663.775339
_symmetry_space_group_name_H-M "P -1"
_symmetry_group_IT_number 2
_symmetry_cell_setting 'triclinic'
loop_
_space_group_symop_operation_xyz
x,y,z
-x,-y,-z
loop_
_atom_site_type_symbol
_atom_site_label
_atom_site_fract_x
_atom_site_fract_y
_atom_site_fract_z
Si Si1 0.817788 0.198990 0.019734
Si Si2 0.619453 0.260234 0.939603
Si Si3 0.589357 0.763687 0.415273
Si Si4 0.733719 0.471634 0.315876
Si Si5 0.299390 0.221556 0.348631
Si Si6 0.266850 0.552980 0.900326
Si Si7 0.974164 0.085337 0.803668
Si Si8 0.151310 0.164399 0.118636
O O1 0.741182 0.416783 0.025899
O O2 0.675729 0.993934 0.246663
O O3 0.907488 0.281218 0.819934
O O4 0.000000 0.000000 0.000000
O O5 0.640955 0.555859 0.778074
O O6 0.764810 0.073000 0.968317
O O7 0.713428 0.128952 0.856739
O O8 0.399590 0.246458 0.169018
O O9 0.738171 0.580590 0.330193
O O10 0.480969 0.590161 0.661218
O O11 0.415412 0.931938 0.431900
O O12 0.500000 0.500000 0.500000
O O13 0.914176 0.206939 0.302795
O O14 0.791311 0.637640 0.104488
O O15 0.081018 0.211663 0.574629
O O16 0.109372 0.811066 0.864600
O O17 0.211850 0.289796 0.064888
#
# Coordination Sequence:
#
# PCOD9083383 Si02
#       8
#     2   2   2   2   2   2   2   2
#     4  10  19  34  55  80 111 140 182 231 274 322
#     4  11  21  36  54  82 114 145 183 222 270 327
#     4  11  19  36  55  82 112 141 185 224 279 325
#     4  11  20  32  52  80 114 148 172 219 284 335
#     4  10  22  34  56  83 108 146 183 227 272 318
#     4  10  21  33  55  83 110 147 177 225 278 326
#     4  10  19  36  55  81 110 140 184 227 273 318
#     4  11  21  33  52  79 117 145 178 218 276 338
#
# _framework density 24.104541000000001
#
# number of rings (size 3 to 8) (size 9 to 14) (size 15 to 20)
#    0.000    1.500    3.750    3.750    1.750    0.000 
#    0.000    0.000    0.000    1.500    0.000    0.000 
#    0.000    0.000    0.000    0.000    0.000    0.000 
#
# Total GULP energy -89194.575160 kJ/mol
# GULP energy per Si atom -5574.660948 kJ/mol
# Density = 2.404968 g / cm^3
# Si number density = 24.104541 Si / 1000 Ang^3
#
#
#
# Elastic Constant Matrix: (Units=GPa)
#
#
# Indices 1 2 3 4 5 6 
#
# 1 83.6745 33.9720 33.3841 9.7556 -4.0696 42.1357
# 2 33.9720 134.5358 40.8797 23.3407 -0.8529 41.5613
# 3 33.3841 40.8797 119.5027 40.1292 -4.0753 11.2329
# 4 9.7556 23.3407 40.1292 32.2637 -0.1130 -1.8394
# 5 -4.0696 -0.8529 -4.0753 -0.1130 23.5563 7.7655
# 6 42.1357 41.5613 11.2329 -1.8394 7.7655 53.5434
#
#
#
# Elastic Compliance Matrix: (Units=1/GPa)
#
#
# Indices 1 2 3 4 5 6 
#
# 1 0.025207 0.003249 -0.002984 -0.007571 0.011731 -0.023694
# 2 0.003249 0.012760 -0.000223 -0.010690 0.005405 -0.013566
# 3 -0.002984 -0.000223 0.015831 -0.018721 0.002732 -0.001839
# 4 -0.007571 -0.010690 -0.018721 0.065525 -0.011926 0.022164
# 5 0.011731 0.005405 0.002732 -0.011926 0.052342 -0.022001
# 6 -0.023694 -0.013566 -0.001839 0.022164 -0.022001 0.052191
#
#
# Mechanical properties :
#
#
# Convention : Reuss Voigt Hill
#
# Bulk Modulus (GPa) = 18.55907 61.57608 40.06758
# Shear Modulus (GPa) = 20.68402 37.17116 28.92759
#
# Velocity S-wave (km/s) = 2.93251 3.93119 3.46799
# Velocity P-wave (km/s) = 4.37975 6.79754 5.71790
#
# Compressibility (1/GPa) = 0.05388200
#
# Stress axis : x y z
#
# Youngs Moduli (GPa) = 39.67113 78.36901 63.16861
#
# Poissons Ratio (x) = -0.25463 0.18848
# Poissons Ratio (y) = -0.12889 0.01411
# Poissons Ratio (z) = 0.11837 0.01751
#
# Static dielectric constant tensor:
#      x y z
#    x 1.989930 0.082700 0.012720 
#    y 0.082700 2.015450 0.014980 
#    z 0.012720 0.014980 2.003280 
# 
# From -- ./inp_files/472767.got.cif
#   From: 2010.05.17/outbox.cif.g08.bks.cpg/sg2_237_cif.got.tgz:472767.got - 2010.06.03 11:33:40.
