data_PCOD9083005
_publ_section_title
;
Structure prediction by ZEFSAII (Michael W. Deem and Ramdas Pophale) SiO2 
 PCOD9083005
Probable space group: P -1
;
_chemical_formula_sum "Si O2"
_cell_formula_units_Z 16
_cell_length_a 18.277311
_cell_length_b 7.553444
_cell_length_c 10.905760
_cell_angle_alpha 128.576973
_cell_angle_beta 148.055908
_cell_angle_gamma 52.903258
_cell_volume 612.709470
_symmetry_space_group_name_H-M "P -1"
_symmetry_group_IT_number 2
_symmetry_cell_setting 'triclinic'
loop_
_space_group_symop_operation_xyz
x,y,z
-x,-y,-z
loop_
_atom_site_type_symbol
_atom_site_label
_atom_site_fract_x
_atom_site_fract_y
_atom_site_fract_z
Si Si1 0.849671 0.734644 0.026868
Si Si2 0.671128 0.986191 0.089000
Si Si3 0.653900 0.506906 0.275979
Si Si4 0.433620 0.430634 0.504905
Si Si5 0.051392 0.517134 0.397616
Si Si6 0.021994 0.885022 0.732604
Si Si7 0.407876 0.009272 0.538890
Si Si8 0.709736 0.095796 0.433298
O O1 0.997425 0.582616 0.211123
O O2 0.792671 0.831911 0.120249
O O3 0.866236 0.945831 0.052897
O O4 0.725942 0.607326 0.755962
O O5 0.709385 0.239343 0.263468
O O6 0.658251 0.923118 0.185464
O O7 0.538511 0.996709 0.815722
O O8 0.780341 0.566651 0.398199
O O9 0.631740 0.720437 0.431975
O O10 0.500000 0.500000 0.000000
O O11 0.500000 0.500000 0.500000
O O12 0.541966 0.188672 0.574742
O O13 0.404982 0.666211 0.642300
O O14 0.028800 0.731684 0.552418
O O15 0.971759 0.314164 0.242622
O O16 0.874487 0.055795 0.618208
O O17 0.293270 0.946112 0.442752
#
# Coordination Sequence:
#
# PCOD9083005 Si02
#       8
#     2   2   2   2   2   2   2   2
#     4  11  21  40  65  87 125 165 198 250 312 359
#     4  10  19  33  60  90 112 154 203 247 304 362
#     4  10  19  34  58  88 120 157 194 250 308 355
#     4   9  22  41  65  82 120 166 204 251 305 358
#     4  11  21  37  59  98 125 155 200 256 304 369
#     4  11  22  34  61  94 129 153 197 253 312 359
#     4   9  19  36  58  83 118 156 197 249 305 357
#     4  11  19  36  57  87 116 156 204 246 298 363
#
# _framework density 26.113516000000001
#
# number of rings (size 3 to 8) (size 9 to 14) (size 15 to 20)
#    0.000    1.750    3.750    1.500    0.000    0.500 
#    0.000    1.250    5.500    0.000    0.000    0.000 
#    0.000    0.000    0.000    0.000    0.000    0.000 
#
# Total GULP energy -89202.211211 kJ/mol
# GULP energy per Si atom -5575.138201 kJ/mol
# Density = 2.605408 g / cm^3
# Si number density = 26.113516 Si / 1000 Ang^3
#
#
#
# Elastic Constant Matrix: (Units=GPa)
#
#
# Indices 1 2 3 4 5 6 
#
# 1 78.8454 12.2563 34.2464 3.5761 3.9581 -22.1859
# 2 12.2563 97.7430 14.2800 10.3385 -2.3371 -8.3477
# 3 34.2464 14.2800 85.1816 4.6249 32.8530 8.1525
# 4 3.5761 10.3385 4.6249 35.0423 0.2380 4.4130
# 5 3.9581 -2.3371 32.8530 0.2380 33.2968 7.5338
# 6 -22.1859 -8.3477 8.1525 4.4130 7.5338 64.1707
#
#
#
# Elastic Compliance Matrix: (Units=1/GPa)
#
#
# Indices 1 2 3 4 5 6 
#
# 1 0.019275 0.000165 -0.011109 -0.001526 0.007023 0.007377
# 2 0.000165 0.011277 -0.003402 -0.003138 0.003760 0.001731
# 3 -0.011109 -0.003402 0.026523 -0.000596 -0.023999 -0.004794
# 4 -0.001526 -0.003138 -0.000596 0.030074 0.001024 -0.003049
# 5 0.007023 0.003760 -0.023999 0.001024 0.053214 -0.000352
# 6 0.007377 0.001731 -0.004794 -0.003049 -0.000352 0.019219
#
#
# Mechanical properties :
#
#
# Convention : Reuss Voigt Hill
#
# Bulk Modulus (GPa) = 35.23098 42.59284 38.91191
# Shear Modulus (GPa) = 25.28638 39.90112 32.59375
#
# Velocity S-wave (km/s) = 3.11517 3.91319 3.53676
# Velocity P-wave (km/s) = 5.14391 6.06329 5.62242
#
# Compressibility (1/GPa) = 0.02838411
#
# Stress axis : x y z
#
# Youngs Moduli (GPa) = 51.88079 88.67692 37.70249
#
# Poissons Ratio (x) = -0.01467 0.41883
# Poissons Ratio (y) = -0.00858 0.12827
# Poissons Ratio (z) = 0.57633 0.30170
#
# Static dielectric constant tensor:
#      x y z
#    x 2.223090 0.053040 0.083110 
#    y 0.053040 2.116130 -0.010970 
#    z 0.083110 -0.010970 2.042040 
# 
# From -- ./inp_files/540339.got.cif
#   From: 2010.05.17/outbox.cif.g08.bks.cpg/sg2_271_cif.got.tgz:540339.got - 2010.06.03 11:33:40.
