data_PCOD9083437
_publ_section_title
;
Structure prediction by ZEFSAII (Michael W. Deem and Ramdas Pophale) SiO2 
 PCOD9083437
Probable space group: P -1
;
_chemical_formula_sum "Si O2"
_cell_formula_units_Z 14
_cell_length_a 13.432356
_cell_length_b 18.492086
_cell_length_c 11.629990
_cell_angle_alpha 137.717307
_cell_angle_beta 21.091104
_cell_angle_gamma 139.771345
_cell_volume 666.657285
_symmetry_space_group_name_H-M "P -1"
_symmetry_group_IT_number 2
_symmetry_cell_setting 'triclinic'
loop_
_space_group_symop_operation_xyz
x,y,z
-x,-y,-z
loop_
_atom_site_type_symbol
_atom_site_label
_atom_site_fract_x
_atom_site_fract_y
_atom_site_fract_z
Si Si1 0.209319 0.430139 0.298177
Si Si2 0.976641 0.636567 0.811119
Si Si3 0.675169 0.975434 0.671825
Si Si4 0.263631 0.672408 0.966551
Si Si5 0.466072 0.712812 0.549456
Si Si6 0.340668 0.333177 0.280393
Si Si7 0.343386 0.110810 0.089210
O O1 0.036429 0.340169 0.283743
O O2 0.301615 0.385924 0.264084
O O3 0.018616 0.512985 0.626756
O O4 0.500000 0.500000 0.000000
O O5 0.242689 0.711206 0.686205
O O6 0.689360 0.649297 0.192804
O O7 0.631023 0.843590 0.550237
O O8 0.013692 0.044394 0.396708
O O9 0.500000 0.000000 0.000000
O O10 0.529479 0.024448 0.780639
O O11 0.299049 0.648955 0.767558
O O12 0.388553 0.609839 0.859109
O O13 0.484748 0.798257 0.894001
O O14 0.943914 0.672405 0.344019
O O15 0.346520 0.204492 0.099694
#
# Coordination Sequence:
#
# PCOD9083437 Si02
#       7
#     2   2   2   2   2   2   2
#     4  11  25  49  73  89 113 161 236 258 325 371
#     4  11  26  41  67  94 120 166 210 276 310 364
#     4  12  20  33  60  90 133 178 204 237 292 386
#     4  10  21  37  60  94 135 165 197 247 320 371
#     4  12  23  40  61  97 142 156 209 255 312 372
#     4  10  21  39  67  91 123 162 214 265 301 381
#     4  10  19  34  55  94 121 170 208 232 304 358
#
# _framework density 21.000295000000001
#
# number of rings (size 3 to 8) (size 9 to 14) (size 15 to 20)
#    0.857    0.286    4.286    2.143    6.000    0.000 
#    0.000    4.286    0.000    5.143    0.000    0.000 
#    0.000    0.000    0.000    0.000    0.000    0.000 
#
# Total GULP energy -78073.511582 kJ/mol
# GULP energy per Si atom -5576.679399 kJ/mol
# Density = 2.095250 g / cm^3
# Si number density = 21.000295 Si / 1000 Ang^3
#
#
#
# Elastic Constant Matrix: (Units=GPa)
#
#
# Indices 1 2 3 4 5 6 
#
# 1 -8.4439 35.8415 48.3167 45.8534 -23.3967 7.4702
# 2 35.8415 31.7913 17.3091 0.9858 16.1429 -15.1226
# 3 48.3167 17.3091 100.4598 -0.1268 -4.7791 -20.2828
# 4 45.8534 0.9858 -0.1268 11.5508 14.8507 -25.9175
# 5 -23.3967 16.1429 -4.7791 14.8507 30.4842 8.6799
# 6 7.4702 -15.1226 -20.2828 -25.9175 8.6799 27.1557
#
#
#
# Elastic Compliance Matrix: (Units=1/GPa)
#
#
# Indices 1 2 3 4 5 6 
#
# 1 0.007694 0.003330 -0.001421 0.015380 -0.008115 0.015950
# 2 0.003330 0.033878 -0.008716 -0.019030 -0.006123 -0.004766
# 3 -0.001421 -0.008716 0.012422 -0.002944 0.006971 -0.000223
# 4 0.015380 -0.019030 -0.002944 0.024514 0.008432 0.003673
# 5 -0.008115 -0.006123 0.006971 0.008432 0.025703 0.003861
# 6 0.015950 -0.004766 -0.000223 0.003673 0.003861 0.031888
#
#
# Mechanical properties :
#
#
# Convention : Reuss Voigt Hill
#
# Bulk Modulus (GPa) = 24.76437 36.30463 30.53450
# Shear Modulus (GPa) = 30.64249 15.32747 22.98498
#
# Velocity S-wave (km/s) = 3.82402 2.70454 3.31192
# Velocity P-wave (km/s) = 5.59603 5.20365 5.40340
#
# Compressibility (1/GPa) = 0.04038060
#
# Stress axis : x y z
#
# Youngs Moduli (GPa) = 129.97733 29.51763 80.50179
#
# Poissons Ratio (x) = -0.09831 0.11436
# Poissons Ratio (y) = -0.43288 0.70169
# Poissons Ratio (z) = 0.18464 0.25729
#
# Static dielectric constant tensor:
#      x y z
#    x 1.848390 -0.028130 -0.025320 
#    y -0.028130 1.822240 0.001410 
#    z -0.025320 0.001410 1.735720 
# 
# From -- ./inp_files/457322.got.cif
#   From: 2010.05.17/outbox.cif.g08.bks.cpg/sg2_229_cif.got.tgz:457322.got - 2010.06.03 11:33:40.
