data_PCOD9083894
_publ_section_title
;
Structure prediction by ZEFSAII (Michael W. Deem and Ramdas Pophale) SiO2 
 PCOD9083894
Probable space group: P -1
;
_chemical_formula_sum "Si O2"
_cell_formula_units_Z 14
_cell_length_a 8.367625
_cell_length_b 8.774036
_cell_length_c 9.634962
_cell_angle_alpha 81.190720
_cell_angle_beta 96.175174
_cell_angle_gamma 74.517776
_cell_volume 665.433331
_symmetry_space_group_name_H-M "P -1"
_symmetry_group_IT_number 2
_symmetry_cell_setting 'triclinic'
loop_
_space_group_symop_operation_xyz
x,y,z
-x,-y,-z
loop_
_atom_site_type_symbol
_atom_site_label
_atom_site_fract_x
_atom_site_fract_y
_atom_site_fract_z
Si Si1 0.673536 0.042752 0.995864
Si Si2 0.743581 0.358213 0.033242
Si Si3 0.861729 0.981086 0.311229
Si Si4 0.349796 0.693454 0.657100
Si Si5 0.099797 0.160709 0.190509
Si Si6 0.080431 0.633402 0.432747
Si Si7 0.730252 0.574512 0.755107
O O1 0.656570 0.233073 0.972102
O O2 0.770430 0.960942 0.880135
O O3 0.500000 0.000000 0.000000
O O4 0.787411 0.975934 0.150912
O O5 0.710458 0.518336 0.918355
O O6 0.686905 0.373677 0.186048
O O7 0.942936 0.269220 0.071090
O O8 0.939630 0.803650 0.397814
O O9 0.717224 0.111994 0.361961
O O10 0.013352 0.062310 0.298627
O O11 0.236284 0.642089 0.540412
O O12 0.547504 0.632076 0.661029
O O13 0.186228 0.281036 0.254985
O O14 0.151769 0.577411 0.294414
O O15 0.000000 0.500000 0.500000
#
# Coordination Sequence:
#
# PCOD9083894 Si02
#       7
#     2   2   2   2   2   2   2
#     4  10  19  34  58  92 124 158 200 248 301 355
#     4  10  21  38  62  91 122 158 201 251 299 357
#     4  10  22  42  62  83 119 165 204 243 296 369
#     4  10  23  42  62  91 123 159 202 250 301 356
#     4  10  19  36  59  88 120 161 200 240 301 367
#     4  12  25  43  63  88 121 164 205 247 301 364
#     4  12  23  39  63  95 125 155 199 257 305 348
#
# _framework density 21.038920999999998
#
# number of rings (size 3 to 8) (size 9 to 14) (size 15 to 20)
#    0.000    1.714    0.000    8.571    0.000    2.286 
#    0.000    5.714    0.000    0.000    0.000    0.000 
#    0.000    0.000    0.000    0.000    0.000    0.000 
#
# Total GULP energy -78296.689950 kJ/mol
# GULP energy per Si atom -5592.620711 kJ/mol
# Density = 2.099104 g / cm^3
# Si number density = 21.038921 Si / 1000 Ang^3
#
#
#
# Elastic Constant Matrix: (Units=GPa)
#
#
# Indices 1 2 3 4 5 6 
#
# 1 74.0134 21.2166 -1.5115 -15.2131 5.5005 5.0667
# 2 21.2166 82.2183 31.2681 -17.3312 5.8463 11.7203
# 3 -1.5115 31.2681 42.5815 0.1667 5.9202 7.2598
# 4 -15.2131 -17.3312 0.1667 41.9415 -4.8243 -3.2485
# 5 5.5005 5.8463 5.9202 -4.8243 18.3138 7.5395
# 6 5.0667 11.7203 7.2598 -3.2485 7.5395 29.4353
#
#
#
# Elastic Compliance Matrix: (Units=1/GPa)
#
#
# Indices 1 2 3 4 5 6 
#
# 1 0.016006 -0.004894 0.004772 0.003293 -0.003637 -0.000688
# 2 -0.004894 0.021135 -0.015517 0.007091 0.003160 -0.003773
# 3 0.004772 -0.015517 0.036681 -0.006030 -0.009092 -0.002027
# 4 0.003293 0.007091 -0.006030 0.028699 0.006412 -0.000378
# 5 -0.003637 0.003160 -0.009092 0.006412 0.065241 -0.014393
# 6 -0.000688 -0.003773 -0.002027 -0.000378 -0.014393 0.039738
#
#
# Mechanical properties :
#
#
# Convention : Reuss Voigt Hill
#
# Bulk Modulus (GPa) = 23.50552 33.41772 28.46162
# Shear Modulus (GPa) = 19.76595 27.79412 23.78004
#
# Velocity S-wave (km/s) = 3.06844 3.63861 3.36562
# Velocity P-wave (km/s) = 4.87344 5.79404 5.35357
#
# Compressibility (1/GPa) = 0.04254319
#
# Stress axis : x y z
#
# Youngs Moduli (GPa) = 62.47761 47.31507 27.26172
#
# Poissons Ratio (x) = 0.23158 -0.13010
# Poissons Ratio (y) = 0.30579 0.42303
# Poissons Ratio (z) = -0.29816 0.73420
#
# Static dielectric constant tensor:
#      x y z
#    x 1.732670 -0.013590 -0.008710 
#    y -0.013590 1.745100 0.001850 
#    z -0.008710 0.001850 1.767050 
# 
# From -- ./inp_files/154194.got.cif
#   From: 2010.05.17/outbox.cif.g08.bks.cpg/sg2_78_cif.got.tgz:154194.got - 2010.06.03 11:33:40.
