data_PCOD9083766
_publ_section_title
;
Structure prediction by ZEFSAII (Michael W. Deem and Ramdas Pophale) SiO2 
 PCOD9083766
Probable space group: P -1
;
_chemical_formula_sum "Si O2"
_cell_formula_units_Z 16
_cell_length_a 6.351591
_cell_length_b 13.875466
_cell_length_c 9.672809
_cell_angle_alpha 120.308978
_cell_angle_beta 60.826650
_cell_angle_gamma 92.520162
_cell_volume 619.091252
_symmetry_space_group_name_H-M "P -1"
_symmetry_group_IT_number 2
_symmetry_cell_setting 'triclinic'
loop_
_space_group_symop_operation_xyz
x,y,z
-x,-y,-z
loop_
_atom_site_type_symbol
_atom_site_label
_atom_site_fract_x
_atom_site_fract_y
_atom_site_fract_z
Si Si1 0.259333 0.215181 0.737783
Si Si2 0.255207 0.489277 0.645219
Si Si3 0.997384 0.743898 0.865917
Si Si4 0.487567 0.894402 0.086480
Si Si5 0.973569 0.718125 0.442580
Si Si6 0.525439 0.570455 0.177483
Si Si7 0.271238 0.915790 0.872564
Si Si8 0.206453 0.896777 0.436285
O O1 0.104990 0.244391 0.665930
O O2 0.341207 0.330731 0.827642
O O3 0.529793 0.117119 0.572870
O O4 0.087917 0.202098 0.913775
O O5 0.500000 0.500000 0.500000
O O6 0.048737 0.606428 0.755044
O O7 0.201882 0.366931 0.535946
O O8 0.315778 0.495676 0.793615
O O9 0.231120 0.788727 0.768641
O O10 0.751626 0.803559 0.900528
O O11 0.351003 0.840552 0.208847
O O12 0.542171 0.016035 0.205166
O O13 0.336400 0.916931 0.012565
O O14 0.237860 0.633780 0.346172
O O15 0.037340 0.839150 0.546747
O O16 0.500000 0.500000 0.000000
O O17 0.000000 0.000000 0.000000
O O18 0.000000 0.000000 0.500000
#
# Coordination Sequence:
#
# PCOD9083766 Si02
#       8
#     2   2   2   2   2   2   2   2
#     4   9  19  36  58  86 112 143 197 247 289 345
#     4  11  25  40  56  87 125 158 194 240 300 356
#     4  10  19  34  58  81 108 150 192 234 286 345
#     4   9  19  36  56  82 111 142 192 240 282 340
#     4  10  21  39  57  80 118 153 190 243 293 349
#     4  10  20  37  63  88 113 154 203 244 286 345
#     4   9  18  34  55  81 110 144 188 239 282 334
#     4  10  21  36  58  85 112 149 193 241 295 346
#
# _framework density 25.844332999999999
#
# number of rings (size 3 to 8) (size 9 to 14) (size 15 to 20)
#    0.000    2.250    0.000    2.250    0.000    7.000 
#    0.000   11.250    0.000    0.000    0.000    0.000 
#    0.000    0.000    0.000    0.000    0.000    0.000 
#
# Total GULP energy -89122.254852 kJ/mol
# GULP energy per Si atom -5570.140928 kJ/mol
# Density = 2.578551 g / cm^3
# Si number density = 25.844333 Si / 1000 Ang^3
#
#
#
# Elastic Constant Matrix: (Units=GPa)
#
#
# Indices 1 2 3 4 5 6 
#
# 1 101.3582 52.0986 26.9936 -3.1990 -13.4592 -5.3054
# 2 52.0986 166.6854 30.5715 5.1325 -7.0481 16.3587
# 3 26.9936 30.5715 44.6297 6.7899 -15.0486 4.9140
# 4 -3.1990 5.1325 6.7899 21.3880 -4.0506 -6.0611
# 5 -13.4592 -7.0481 -15.0486 -4.0506 40.6535 -3.8022
# 6 -5.3054 16.3587 4.9140 -6.0611 -3.8022 61.1990
#
#
#
# Elastic Compliance Matrix: (Units=1/GPa)
#
#
# Indices 1 2 3 4 5 6 
#
# 1 0.014272 -0.003690 -0.006620 0.006633 0.002630 0.003576
# 2 -0.003690 0.007980 -0.003067 -0.002491 -0.001460 -0.002544
# 3 -0.006620 -0.003067 0.033147 -0.010030 0.008276 -0.002895
# 4 0.006633 -0.002491 -0.010030 0.054509 0.004203 0.007706
# 5 0.002630 -0.001460 0.008276 0.004203 0.028901 0.002166
# 6 0.003576 -0.002544 -0.002895 0.007706 0.002166 0.018460
#
#
# Mechanical properties :
#
#
# Convention : Reuss Voigt Hill
#
# Bulk Modulus (GPa) = 34.91267 59.11119 47.01193
# Shear Modulus (GPa) = 25.83009 38.18208 32.00608
#
# Velocity S-wave (km/s) = 3.16484 3.84785 3.52293
# Velocity P-wave (km/s) = 5.18585 6.53169 5.89729
#
# Compressibility (1/GPa) = 0.02864290
#
# Stress axis : x y z
#
# Youngs Moduli (GPa) = 70.06861 125.31253 30.16840
#
# Poissons Ratio (x) = 0.46246 0.19972
# Poissons Ratio (y) = 0.25859 0.09254
# Poissons Ratio (z) = 0.46386 0.38439
#
# Static dielectric constant tensor:
#      x y z
#    x 2.047220 0.054410 -0.017450 
#    y 0.054410 2.058770 0.041400 
#    z -0.017450 0.041400 2.231650 
# 
# From -- ./inp_files/367900.got.cif
#   From: 2010.05.17/outbox.cif.g08.bks.cpg/sg2_184_cif.got.tgz:367900.got - 2010.06.03 11:33:40.
