data_PCOD9083163
_publ_section_title
;
Structure prediction by ZEFSAII (Michael W. Deem and Ramdas Pophale) SiO2 
 PCOD9083163
Probable space group: P -1
;
_chemical_formula_sum "Si O2"
_cell_formula_units_Z 16
_cell_length_a 10.232351
_cell_length_b 5.803970
_cell_length_c 13.388878
_cell_angle_alpha 81.900924
_cell_angle_beta 112.403256
_cell_angle_gamma 120.855442
_cell_volume 629.587026
_symmetry_space_group_name_H-M "P -1"
_symmetry_group_IT_number 2
_symmetry_cell_setting 'triclinic'
loop_
_space_group_symop_operation_xyz
x,y,z
-x,-y,-z
loop_
_atom_site_type_symbol
_atom_site_label
_atom_site_fract_x
_atom_site_fract_y
_atom_site_fract_z
Si Si1 0.793554 0.326898 0.346629
Si Si2 0.764981 0.319181 0.709277
Si Si3 0.385121 0.377557 0.315984
Si Si4 0.113572 0.341239 0.460308
Si Si5 0.469529 0.153843 0.179869
Si Si6 0.340220 0.116496 0.511348
Si Si7 0.820475 0.074341 0.032053
Si Si8 0.944107 0.666459 0.109042
O O1 0.874254 0.594740 0.421674
O O2 0.663259 0.271127 0.226714
O O3 0.937327 0.265081 0.371343
O O4 0.681162 0.121767 0.412293
O O5 0.775132 0.594937 0.740115
O O6 0.766134 0.398971 0.588751
O O7 0.922414 0.288086 0.771247
O O8 0.630859 0.108188 0.761300
O O9 0.449086 0.370256 0.226831
O O10 0.364963 0.137226 0.397777
O O11 0.516958 0.627893 0.404158
O O12 0.178434 0.138749 0.474610
O O13 0.365204 0.078881 0.054268
O O14 0.945335 0.200806 0.966318
O O15 0.849492 0.342647 0.082399
O O16 0.855237 0.839003 0.096379
#
# Coordination Sequence:
#
# PCOD9083163 Si02
#       8
#     2   2   2   2   2   2   2   2
#     4  11  21  35  54  76 112 144 184 222 275 327
#     4  10  21  34  56  78 108 143 183 227 278 333
#     4  10  20  30  50  82 109 138 185 227 274 325
#     4  10  22  37  51  78 109 147 183 223 270 334
#     4  11  21  32  56  81 107 142 182 229 280 330
#     4  10  19  34  51  73 111 148 180 226 268 323
#     4   9  20  33  55  83 114 144 183 236 288 340
#     4   9  19  35  54  82 115 144 183 235 290 337
#
# _framework density 25.413482999999999
#
# number of rings (size 3 to 8) (size 9 to 14) (size 15 to 20)
#    0.000    2.000    2.500    1.125    8.750    1.000 
#    0.000    0.000    0.000    1.500    0.000    0.000 
#    0.000    0.000    0.000    0.000    0.000    0.000 
#
# Total GULP energy -89170.881981 kJ/mol
# GULP energy per Si atom -5573.180124 kJ/mol
# Density = 2.535564 g / cm^3
# Si number density = 25.413483 Si / 1000 Ang^3
#
#
#
# Elastic Constant Matrix: (Units=GPa)
#
#
# Indices 1 2 3 4 5 6 
#
# 1 84.2412 8.5162 46.5648 0.3258 33.7241 -13.5004
# 2 8.5162 87.2775 38.8934 -8.8372 15.2031 -3.7824
# 3 46.5648 38.8934 100.1438 9.1472 40.7028 -8.6957
# 4 0.3258 -8.8372 9.1472 30.3934 6.4234 7.6462
# 5 33.7241 15.2031 40.7028 6.4234 49.8323 -6.9875
# 6 -13.5004 -3.7824 -8.6957 7.6462 -6.9875 17.8227
#
#
#
# Elastic Compliance Matrix: (Units=1/GPa)
#
#
# Indices 1 2 3 4 5 6 
#
# 1 0.019722 0.002979 -0.006548 0.002246 -0.008039 0.008262
# 2 0.002979 0.015546 -0.007546 0.007706 -0.001894 -0.002174
# 3 -0.006548 -0.007546 0.020358 -0.007239 -0.008522 0.003136
# 4 0.002246 0.007706 -0.007239 0.044196 -0.006711 -0.021786
# 5 -0.008039 -0.001894 -0.008522 -0.006711 0.034731 0.005846
# 6 0.008262 -0.002174 0.003136 -0.021786 0.005846 0.075074
#
#
# Mechanical properties :
#
#
# Convention : Reuss Voigt Hill
#
# Bulk Modulus (GPa) = 29.94271 51.06792 40.50531
# Shear Modulus (GPa) = 20.57709 31.45555 26.01632
#
# Velocity S-wave (km/s) = 2.84860 3.52198 3.20304
# Velocity P-wave (km/s) = 4.75680 6.05620 5.44540
#
# Compressibility (1/GPa) = 0.03339711
#
# Stress axis : x y z
#
# Youngs Moduli (GPa) = 50.70366 64.32683 49.12019
#
# Poissons Ratio (x) = -0.19165 0.32165
# Poissons Ratio (y) = -0.15106 0.37065
# Poissons Ratio (z) = 0.33201 0.48540
#
# Static dielectric constant tensor:
#      x y z
#    x 2.047540 -0.014660 0.019560 
#    y -0.014660 2.187140 0.055060 
#    z 0.019560 0.055060 2.020900 
# 
# From -- ./inp_files/79737.got.cif
#   From: 2010.05.17/outbox.cif.g08.bks.cpg/sg2_40_cif.got.tgz:79737.got - 2010.06.03 11:33:40.
