data_PCOD9083463
_publ_section_title
;
Structure prediction by ZEFSAII (Michael W. Deem and Ramdas Pophale) SiO2 
 PCOD9083463
Probable space group: P -1
;
_chemical_formula_sum "Si O2"
_cell_formula_units_Z 16
_cell_length_a 18.621527
_cell_length_b 11.546782
_cell_length_c 8.971885
_cell_angle_alpha 142.368957
_cell_angle_beta 30.097685
_cell_angle_gamma 140.766007
_cell_volume 564.942859
_symmetry_space_group_name_H-M "P -1"
_symmetry_group_IT_number 2
_symmetry_cell_setting 'triclinic'
loop_
_space_group_symop_operation_xyz
x,y,z
-x,-y,-z
loop_
_atom_site_type_symbol
_atom_site_label
_atom_site_fract_x
_atom_site_fract_y
_atom_site_fract_z
Si Si1 0.006036 0.765129 0.151541
Si Si2 0.453539 0.676577 0.417517
Si Si3 0.541699 0.276222 0.867940
Si Si4 0.221327 0.043061 0.223239
Si Si5 0.447642 0.702249 0.791891
Si Si6 0.771032 0.991189 0.505390
Si Si7 0.017300 0.587325 0.390622
Si Si8 0.188853 0.146730 0.021730
O O1 0.861527 0.800798 0.532018
O O2 0.126085 0.819986 0.128289
O O3 0.103944 0.948149 0.059908
O O4 0.972186 0.572096 0.915286
O O5 0.464811 0.452685 0.177318
O O6 0.391607 0.701933 0.719545
O O7 0.383472 0.708119 0.414185
O O8 0.632619 0.799539 0.213736
O O9 0.396713 0.083062 0.930874
O O10 0.615784 0.288100 0.912503
O O11 0.190810 0.097713 0.502297
O O12 0.500000 0.500000 0.500000
O O13 0.595061 0.890532 0.712330
O O14 0.839807 0.222104 0.645005
O O15 0.834954 0.921275 0.175587
O O16 0.879505 0.669075 0.670908
O O17 0.000000 0.500000 0.500000
#
# Coordination Sequence:
#
# PCOD9083463 Si02
#       8
#     2   2   2   2   2   2   2   2
#     4  11  22  36  56  82 116 152 186 239 293 340
#     4   9  17  30  55  84 109 146 195 237 284 348
#     4   9  16  30  55  85 105 148 198 231 290 346
#     4  10  20  36  54  81 116 149 191 238 287 351
#     4   8  16  29  50  83 110 140 192 236 278 339
#     4  10  19  34  56  80 113 148 190 234 283 351
#     4  12  23  35  57  87 117 152 194 237 290 347
#     4  11  20  38  58  83 116 149 194 238 286 352
#
# _framework density 28.321448
#
# number of rings (size 3 to 8) (size 9 to 14) (size 15 to 20)
#    0.000    2.000    3.750    1.125    0.000    0.500 
#    0.000    0.000    0.000    0.750   13.000   17.500 
#    0.000    0.000    0.000    0.000    0.000    0.000 
#
# Total GULP energy -89297.356227 kJ/mol
# GULP energy per Si atom -5581.084764 kJ/mol
# Density = 2.825699 g / cm^3
# Si number density = 28.321448 Si / 1000 Ang^3
#
#
#
# Elastic Constant Matrix: (Units=GPa)
#
#
# Indices 1 2 3 4 5 6 
#
# 1 154.1706 17.5329 47.7584 -5.2067 44.8942 -24.9705
# 2 17.5329 74.0299 3.6662 12.3367 -10.2301 -5.8923
# 3 47.7584 3.6662 119.3748 20.4315 19.2841 4.0244
# 4 -5.2067 12.3367 20.4315 41.0093 8.1622 20.9805
# 5 44.8942 -10.2301 19.2841 8.1622 60.4284 -9.5534
# 6 -24.9705 -5.8923 4.0244 20.9805 -9.5534 59.1088
#
#
#
# Elastic Compliance Matrix: (Units=1/GPa)
#
#
# Indices 1 2 3 4 5 6 
#
# 1 0.010992 -0.004429 -0.003954 0.005790 -0.008266 0.001080
# 2 -0.004429 0.017787 0.001618 -0.010844 0.008031 0.004939
# 3 -0.003954 0.001618 0.010939 -0.006685 0.000659 0.000226
# 4 0.005790 -0.010844 -0.006685 0.041744 -0.012004 -0.014937
# 5 -0.008266 0.008031 0.000659 -0.012004 0.026375 0.005787
# 6 0.001080 0.004939 0.000226 -0.014937 0.005787 0.024088
#
#
# Mechanical properties :
#
#
# Convention : Reuss Voigt Hill
#
# Bulk Modulus (GPa) = 38.18428 53.94336 46.06382
# Shear Modulus (GPa) = 32.42859 50.68382 41.55620
#
# Velocity S-wave (km/s) = 3.38748 4.23495 3.83470
# Velocity P-wave (km/s) = 5.36766 6.55753 5.99220
#
# Compressibility (1/GPa) = 0.02618879
#
# Stress axis : x y z
#
# Youngs Moduli (GPa) = 90.97277 56.22132 91.41359
#
# Poissons Ratio (x) = 0.24899 0.36144
# Poissons Ratio (y) = 0.40290 -0.14789
# Poissons Ratio (z) = 0.35969 -0.09095
#
# Static dielectric constant tensor:
#      x y z
#    x 3.151780 -0.082120 -0.491480 
#    y -0.082120 2.195530 0.029000 
#    z -0.491480 0.029000 2.526110 
# 
# From -- ./inp_files/98033.got.cif
#   From: 2010.05.17/outbox.cif.g08.bks.cpg/sg2_50_cif.got.tgz:98033.got - 2010.06.03 11:33:40.
