data_PCOD9083678
_publ_section_title
;
Structure prediction by ZEFSAII (Michael W. Deem and Ramdas Pophale) SiO2 
 PCOD9083678
Probable space group: P -1
;
_chemical_formula_sum "Si O2"
_cell_formula_units_Z 14
_cell_length_a 14.471695
_cell_length_b 7.959125
_cell_length_c 11.874307
_cell_angle_alpha 91.822206
_cell_angle_beta 149.833287
_cell_angle_gamma 76.018298
_cell_volume 621.398439
_symmetry_space_group_name_H-M "P -1"
_symmetry_group_IT_number 2
_symmetry_cell_setting 'triclinic'
loop_
_space_group_symop_operation_xyz
x,y,z
-x,-y,-z
loop_
_atom_site_type_symbol
_atom_site_label
_atom_site_fract_x
_atom_site_fract_y
_atom_site_fract_z
Si Si1 0.143248 0.318981 0.715219
Si Si2 0.981536 0.230879 0.928825
Si Si3 0.252242 0.142032 0.599602
Si Si4 0.516041 0.769814 0.766664
Si Si5 0.435495 0.719359 0.434780
Si Si6 0.074075 0.865985 0.364709
Si Si7 0.770961 0.662461 0.636265
O O1 0.280328 0.188079 0.756959
O O2 0.000000 0.500000 0.500000
O O3 0.015067 0.222602 0.638423
O O4 0.282922 0.354610 0.956591
O O5 0.803931 0.188123 0.796419
O O6 0.044786 0.119949 0.876515
O O7 0.881495 0.447831 0.786092
O O8 0.136690 0.223082 0.188655
O O9 0.195472 0.312675 0.458141
O O10 0.447873 0.977947 0.745709
O O11 0.084769 0.057078 0.415849
O O12 0.536579 0.759479 0.654009
O O13 0.314680 0.738362 0.585271
O O14 0.500000 0.500000 0.500000
O O15 0.536472 0.747103 0.428983
#
# Coordination Sequence:
#
# PCOD9083678 Si02
#       7
#     2   2   2   2   2   2   2
#     4  12  23  40  66  84 110 157 203 238 289 347
#     4   9  18  36  57  84 117 154 186 245 275 342
#     4  10  23  40  57  88 122 154 191 240 293 348
#     4   9  22  41  59  85 120 151 190 242 295 337
#     4   9  18  35  59  83 115 151 186 234 284 341
#     4   9  21  40  59  82 122 147 194 242 294 336
#     4  10  19  34  57  85 120 149 196 229 288 338
#
# _framework density 22.529827999999998
#
# number of rings (size 3 to 8) (size 9 to 14) (size 15 to 20)
#    0.857    1.429    0.000    2.571    0.000    4.000 
#    2.571    0.000    0.000    0.000    0.000    0.000 
#    0.000    0.000    0.000    0.000    0.000    0.000 
#
# Total GULP energy -78157.716324 kJ/mol
# GULP energy per Si atom -5582.694023 kJ/mol
# Density = 2.247855 g / cm^3
# Si number density = 22.529828 Si / 1000 Ang^3
#
#
#
# Elastic Constant Matrix: (Units=GPa)
#
#
# Indices 1 2 3 4 5 6 
#
# 1 126.8917 17.2814 15.0280 -1.3047 -11.4748 26.0699
# 2 17.2814 49.5291 11.2162 1.2168 -6.9004 2.6431
# 3 15.0280 11.2162 55.6833 5.5268 -2.2930 17.3751
# 4 -1.3047 1.2168 5.5268 28.3003 -2.3409 -1.4474
# 5 -11.4748 -6.9004 -2.2930 -2.3409 22.4786 0.4411
# 6 26.0699 2.6431 17.3751 -1.4474 0.4411 40.1795
#
#
#
# Elastic Compliance Matrix: (Units=1/GPa)
#
#
# Indices 1 2 3 4 5 6 
#
# 1 0.009931 -0.002499 -0.000102 0.000636 0.004481 -0.006262
# 2 -0.002499 0.022656 -0.004310 0.000285 0.005231 0.001948
# 3 -0.000102 -0.004310 0.022289 -0.004606 0.000605 -0.009462
# 4 0.000636 0.000285 -0.004606 0.036704 0.003708 0.002842
# 5 0.004481 0.005231 0.000605 0.003708 0.048905 -0.003916
# 6 -0.006262 0.001948 -0.009462 0.002842 -0.003916 0.033060
#
#
# Mechanical properties :
#
#
# Convention : Reuss Voigt Hill
#
# Bulk Modulus (GPa) = 24.35759 35.46170 29.90965
# Shear Modulus (GPa) = 24.86933 30.76358 27.81645
#
# Velocity S-wave (km/s) = 3.32601 3.69922 3.51757
# Velocity P-wave (km/s) = 5.05812 5.83264 5.45913
#
# Compressibility (1/GPa) = 0.04105497
#
# Stress axis : x y z
#
# Youngs Moduli (GPa) = 100.69071 44.13848 44.86591
#
# Poissons Ratio (x) = 0.11032 0.00456
# Poissons Ratio (y) = 0.25166 0.19336
# Poissons Ratio (z) = 0.01022 0.19022
#
# Static dielectric constant tensor:
#      x y z
#    x 1.822820 -0.025570 0.042840 
#    y -0.025570 1.886040 -0.044320 
#    z 0.042840 -0.044320 1.870640 
# 
# From -- ./inp_files/355233.got.cif
#   From: 2010.05.17/outbox.cif.g08.bks.cpg/sg2_178_cif.got.tgz:355233.got - 2010.06.03 11:33:40.
