data_PCOD9083914
_publ_section_title
;
Structure prediction by ZEFSAII (Michael W. Deem and Ramdas Pophale) SiO2 
 PCOD9083914
Probable space group: P -1
;
_chemical_formula_sum "Si O2"
_cell_formula_units_Z 14
_cell_length_a 9.224568
_cell_length_b 15.193305
_cell_length_c 16.117061
_cell_angle_alpha 27.001418
_cell_angle_beta 78.426671
_cell_angle_gamma 57.739270
_cell_volume 605.232178
_symmetry_space_group_name_H-M "P -1"
_symmetry_group_IT_number 2
_symmetry_cell_setting 'triclinic'
loop_
_space_group_symop_operation_xyz
x,y,z
-x,-y,-z
loop_
_atom_site_type_symbol
_atom_site_label
_atom_site_fract_x
_atom_site_fract_y
_atom_site_fract_z
Si Si1 0.149855 0.288960 0.350432
Si Si2 0.052716 0.241173 0.669061
Si Si3 0.785715 0.155665 0.771522
Si Si4 0.767728 0.739179 0.148103
Si Si5 0.430992 0.781547 0.885726
Si Si6 0.897918 0.237229 0.097936
Si Si7 0.993647 0.283635 0.214834
O O1 0.870253 0.601065 0.158681
O O2 0.149526 0.132599 0.408000
O O3 0.325036 0.051210 0.606221
O O4 0.212897 0.434061 0.184657
O O5 0.921811 0.195587 0.763641
O O6 0.914005 0.421760 0.446347
O O7 0.000000 0.500000 0.500000
O O8 0.327636 0.919853 0.875271
O O9 0.500000 0.500000 0.500000
O O10 0.825154 0.905828 0.019050
O O11 0.916795 0.998210 0.799986
O O12 0.500000 0.000000 0.000000
O O13 0.312866 0.704138 0.931757
O O14 0.720388 0.501155 0.086473
O O15 0.046952 0.097400 0.284557
O O16 0.000000 0.500000 0.000000
#
# Coordination Sequence:
#
# PCOD9083914 Si02
#       7
#     2   2   2   2   2   2   2
#     4   9  21  38  58  85 115 148 191 231 284 335
#     4  10  22  35  55  85 113 149 188 233 285 329
#     4  10  19  35  58  82 113 150 185 231 280 339
#     4  10  19  34  59  81 113 150 186 229 279 335
#     4  10  21  39  59  80 119 151 185 235 289 334
#     4   9  20  37  56  85 114 148 191 232 283 336
#     4  10  21  37  61  86 111 149 193 235 279 341
#
# _framework density 23.131619000000001
#
# number of rings (size 3 to 8) (size 9 to 14) (size 15 to 20)
#    0.000    2.286    1.429    0.429    2.000    4.571 
#    0.000    2.857    0.000    0.000    0.000    0.000 
#    0.000    0.000    0.000    0.000    0.000    0.000 
#
# Total GULP energy -78076.714397 kJ/mol
# GULP energy per Si atom -5576.908171 kJ/mol
# Density = 2.307897 g / cm^3
# Si number density = 23.131619 Si / 1000 Ang^3
#
#
#
# Elastic Constant Matrix: (Units=GPa)
#
#
# Indices 1 2 3 4 5 6 
#
# 1 130.9890 54.2196 15.3163 -2.4667 -35.3504 0.7546
# 2 54.2196 61.1875 -3.4493 -8.1156 -4.1304 -10.4649
# 3 15.3163 -3.4493 51.2583 5.6857 -19.8854 -9.8219
# 4 -2.4667 -8.1156 5.6857 22.4650 -10.5806 1.1037
# 5 -35.3504 -4.1304 -19.8854 -10.5806 34.6788 1.8295
# 6 0.7546 -10.4649 -9.8219 1.1037 1.8295 41.9261
#
#
#
# Elastic Compliance Matrix: (Units=1/GPa)
#
#
# Indices 1 2 3 4 5 6 
#
# 1 0.020474 -0.017014 -0.001188 0.006303 0.020400 -0.005950
# 2 -0.017014 0.033254 0.005001 0.003712 -0.009916 0.010113
# 3 -0.001188 0.005001 0.027217 0.001559 0.015100 0.006946
# 4 0.006303 0.003712 0.001559 0.058293 0.025624 -0.001474
# 5 0.020400 -0.009916 0.015100 0.025624 0.065075 -0.002819
# 6 -0.005950 0.010113 0.006946 -0.001474 -0.002819 0.028272
#
#
# Mechanical properties :
#
#
# Convention : Reuss Voigt Hill
#
# Bulk Modulus (GPa) = 18.33422 41.73421 30.03422
# Shear Modulus (GPa) = 18.03963 31.63719 24.83841
#
# Velocity S-wave (km/s) = 2.79564 3.70226 3.28042
# Velocity P-wave (km/s) = 4.28533 6.02967 5.23072
#
# Compressibility (1/GPa) = 0.05454280
#
# Stress axis : x y z
#
# Youngs Moduli (GPa) = 48.84269 30.07138 36.74227
#
# Poissons Ratio (x) = 0.51163 0.04364
# Poissons Ratio (y) = 0.83101 -0.18374
# Poissons Ratio (z) = 0.05802 -0.15038
#
# Static dielectric constant tensor:
#      x y z
#    x 1.896060 0.019540 0.011410 
#    y 0.019540 2.022760 -0.027820 
#    z 0.011410 -0.027820 1.884780 
# 
# From -- ./inp_files/169249.got.cif
#   From: 2010.05.17/outbox.cif.g08.bks.cpg/sg2_85_cif.got.tgz:169249.got - 2010.06.03 11:33:40.
