data_PCOD9083947
_publ_section_title
;
Structure prediction by ZEFSAII (Michael W. Deem and Ramdas Pophale) SiO2 
 PCOD9083947
Probable space group: P -1
;
_chemical_formula_sum "Si O2"
_cell_formula_units_Z 14
_cell_length_a 9.275736
_cell_length_b 9.401768
_cell_length_c 7.441467
_cell_angle_alpha 87.540278
_cell_angle_beta 113.469879
_cell_angle_gamma 93.190040
_cell_volume 594.194237
_symmetry_space_group_name_H-M "P -1"
_symmetry_group_IT_number 2
_symmetry_cell_setting 'triclinic'
loop_
_space_group_symop_operation_xyz
x,y,z
-x,-y,-z
loop_
_atom_site_type_symbol
_atom_site_label
_atom_site_fract_x
_atom_site_fract_y
_atom_site_fract_z
Si Si1 0.631641 0.447154 0.930176
Si Si2 0.484250 0.913984 0.682749
Si Si3 0.769423 0.723245 0.829357
Si Si4 0.771278 0.313408 0.325331
Si Si5 0.243955 0.092235 0.710924
Si Si6 0.004422 0.120461 0.287026
Si Si7 0.673493 0.613618 0.392721
O O1 0.752945 0.577419 0.939887
O O2 0.516707 0.405585 0.711483
O O3 0.500000 0.500000 0.000000
O O4 0.711498 0.325261 0.087779
O O5 0.642722 0.837208 0.818051
O O6 0.351295 0.786149 0.619726
O O7 0.500000 0.000000 0.500000
O O8 0.411209 0.022916 0.780081
O O9 0.935817 0.803431 0.868747
O O10 0.717360 0.669397 0.607429
O O11 0.760979 0.470335 0.394219
O O12 0.933651 0.237426 0.382081
O O13 0.153000 0.064229 0.474571
O O14 0.273302 0.260543 0.725695
O O15 0.127714 0.005343 0.790989
#
# Coordination Sequence:
#
# PCOD9083947 Si02
#       7
#     2   2   2   2   2   2   2
#     4  10  20  36  55  83 111 145 178 228 279 317
#     4  11  18  33  55  85 104 143 182 225 271 314
#     4  11  20  33  62  84 107 142 189 228 264 322
#     4  10  22  36  57  79 117 147 175 221 287 323
#     4   9  19  33  55  80 113 141 179 229 271 317
#     4   9  19  35  52  82 110 150 175 218 278 334
#     4  10  19  34  59  85 108 138 192 230 259 317
#
# _framework density 23.561318
#
# number of rings (size 3 to 8) (size 9 to 14) (size 15 to 20)
#    0.000    2.000    5.714    0.429    0.000    2.857 
#    0.000    2.857    3.143    3.429    0.000    0.000 
#    0.000    0.000    0.000    0.000    0.000    0.000 
#
# Total GULP energy -78157.357638 kJ/mol
# GULP energy per Si atom -5582.668403 kJ/mol
# Density = 2.350769 g / cm^3
# Si number density = 23.561318 Si / 1000 Ang^3
#
#
#
# Elastic Constant Matrix: (Units=GPa)
#
#
# Indices 1 2 3 4 5 6 
#
# 1 114.4694 55.9394 8.2898 -14.8221 -26.8529 14.1371
# 2 55.9394 167.0181 16.3905 -19.2705 -19.9247 17.9685
# 3 8.2898 16.3905 59.5010 -6.3568 -3.3003 5.2652
# 4 -14.8221 -19.2705 -6.3568 34.9760 5.6144 -19.4359
# 5 -26.8529 -19.9247 -3.3003 5.6144 23.6165 -20.4204
# 6 14.1371 17.9685 5.2652 -19.4359 -20.4204 52.5332
#
#
#
# Elastic Compliance Matrix: (Units=1/GPa)
#
#
# Indices 1 2 3 4 5 6 
#
# 1 0.014093 -0.002660 -0.000248 0.004845 0.017582 0.005769
# 2 -0.002660 0.007610 -0.001323 0.002529 0.002864 0.000295
# 3 -0.000248 -0.001323 0.017475 0.002102 0.000227 -0.000366
# 4 0.004845 0.002529 0.002102 0.040111 0.013820 0.017832
# 5 0.017582 0.002864 0.000227 0.013820 0.091824 0.035073
# 6 0.005769 0.000295 -0.000366 0.017832 0.035073 0.037650
#
#
# Mechanical properties :
#
#
# Convention : Reuss Voigt Hill
#
# Bulk Modulus (GPa) = 32.55634 55.80311 44.17972
# Shear Modulus (GPa) = 21.98152 39.58306 30.78229
#
# Velocity S-wave (km/s) = 3.05774 4.10323 3.61844
# Velocity P-wave (km/s) = 5.12972 6.79590 6.02073
#
# Compressibility (1/GPa) = 0.03071598
#
# Stress axis : x y z
#
# Youngs Moduli (GPa) = 70.95562 131.40750 57.22468
#
# Poissons Ratio (x) = 0.34954 0.01422
# Poissons Ratio (y) = 0.18874 0.07569
# Poissons Ratio (z) = 0.01763 0.17381
#
# Static dielectric constant tensor:
#      x y z
#    x 1.947100 0.022890 0.033820 
#    y 0.022890 1.922750 -0.010510 
#    z 0.033820 -0.010510 1.994850 
# 
# From -- ./inp_files/154809.got.cif
#   From: 2010.05.17/outbox.cif.g08.bks.cpg/sg2_78_cif.got.tgz:154809.got - 2010.06.03 11:33:40.
