data_PCOD9083589
_publ_section_title
;
Structure prediction by ZEFSAII (Michael W. Deem and Ramdas Pophale) SiO2 
 PCOD9083589
Probable space group: P -1
;
_chemical_formula_sum "Si O2"
_cell_formula_units_Z 14
_cell_length_a 11.942467
_cell_length_b 7.531963
_cell_length_c 13.247512
_cell_angle_alpha 86.311745
_cell_angle_beta 42.131521
_cell_angle_gamma 115.082735
_cell_volume 566.136863
_symmetry_space_group_name_H-M "P -1"
_symmetry_group_IT_number 2
_symmetry_cell_setting 'triclinic'
loop_
_space_group_symop_operation_xyz
x,y,z
-x,-y,-z
loop_
_atom_site_type_symbol
_atom_site_label
_atom_site_fract_x
_atom_site_fract_y
_atom_site_fract_z
Si Si1 0.316475 0.848969 0.355146
Si Si2 0.954262 0.706777 0.229303
Si Si3 0.195245 0.412895 0.310507
Si Si4 0.316631 0.130922 0.806527
Si Si5 0.359566 0.759328 0.029280
Si Si6 0.678636 0.703988 0.584345
Si Si7 0.537172 0.821717 0.496959
O O1 0.252960 0.632742 0.331105
O O2 0.474435 0.858762 0.326861
O O3 0.072999 0.765265 0.536577
O O4 0.488394 0.118307 0.176825
O O5 0.879559 0.765455 0.374986
O O6 0.709584 0.461104 0.352204
O O7 0.108343 0.658247 0.172974
O O8 0.119774 0.921325 0.025123
O O9 0.338927 0.557223 0.107046
O O10 0.240737 0.279963 0.356327
O O11 0.438826 0.406038 0.746079
O O12 0.271629 0.099711 0.717684
O O13 0.500000 0.000000 0.000000
O O14 0.617229 0.831996 0.555406
O O15 0.500000 0.000000 0.500000
#
# Coordination Sequence:
#
# PCOD9083589 Si02
#       7
#     2   2   2   2   2   2   2
#     4   8  14  24  44  74 102 124 152 195 253 306
#     4  10  19  34  57  80 103 132 168 213 257 298
#     4   9  14  24  43  72 106 128 149 196 252 299
#     4   9  18  34  56  78  99 128 169 217 259 296
#     4   9  15  25  47  80 107 124 151 200 261 309
#     4  10  20  32  51  79 104 131 172 214 253 299
#     4  11  24  38  50  70 103 142 180 211 248 303
#
# _framework density 24.729002000000001
#
# number of rings (size 3 to 8) (size 9 to 14) (size 15 to 20)
#    0.000    2.571    0.000    6.857    0.000    2.857 
#    0.000    0.000    0.000    3.429    0.000    7.000 
#    0.000    0.000    0.000    0.000    0.000    0.000 
#
# Total GULP energy -78184.260875 kJ/mol
# GULP energy per Si atom -5584.590063 kJ/mol
# Density = 2.467272 g / cm^3
# Si number density = 24.729002 Si / 1000 Ang^3
#
#
#
# Elastic Constant Matrix: (Units=GPa)
#
#
# Indices 1 2 3 4 5 6 
#
# 1 195.5885 43.4810 68.0604 -8.4689 25.6581 -22.1041
# 2 43.4810 26.9050 6.3614 -8.2958 0.4090 -19.3540
# 3 68.0604 6.3614 103.3713 -5.8811 28.8134 -9.2960
# 4 -8.4689 -8.2958 -5.8811 15.1455 -8.1920 8.3270
# 5 25.6581 0.4090 28.8134 -8.1920 45.2110 -1.9142
# 6 -22.1041 -19.3540 -9.2960 8.3270 -1.9142 50.0008
#
#
#
# Elastic Compliance Matrix: (Units=1/GPa)
#
#
# Indices 1 2 3 4 5 6 
#
# 1 0.012408 -0.023895 -0.006244 -0.009120 -0.004650 -0.003584
# 2 -0.023895 0.104290 0.009772 0.041816 0.015034 0.025233
# 3 -0.006244 0.009772 0.015181 0.003043 -0.005536 0.003126
# 4 -0.009120 0.041816 0.003043 0.097568 0.020420 -0.002747
# 5 -0.004650 0.015034 -0.005536 0.020420 0.031873 0.000554
# 6 -0.003584 0.025233 0.003126 -0.002747 0.000554 0.029242
#
#
# Mechanical properties :
#
#
# Convention : Reuss Voigt Hill
#
# Bulk Modulus (GPa) = 10.97151 62.40781 36.68966
# Shear Modulus (GPa) = 13.82451 35.93560 24.88005
#
# Velocity S-wave (km/s) = 2.36697 3.81619 3.17536
# Velocity P-wave (km/s) = 3.45201 6.68650 5.32098
#
# Compressibility (1/GPa) = 0.09114516
#
# Stress axis : x y z
#
# Youngs Moduli (GPa) = 80.59555 9.58868 65.87285
#
# Poissons Ratio (x) = 0.22912 0.41129
# Poissons Ratio (y) = 1.92583 -0.64373
# Poissons Ratio (z) = 0.50322 -0.09370
#
# Static dielectric constant tensor:
#      x y z
#    x 1.984330 0.003140 0.030390 
#    y 0.003140 2.059650 0.015350 
#    z 0.030390 0.015350 1.952760 
# 
# From -- ./inp_files/267849.got.cif
#   From: 2010.05.17/outbox.cif.g08.bks.cpg/sg2_134_cif.got.tgz:267849.got - 2010.06.03 11:33:40.
