data_PCOD9083704
_publ_section_title
;
Structure prediction by ZEFSAII (Michael W. Deem and Ramdas Pophale) SiO2 
 PCOD9083704
Probable space group: P -1
;
_chemical_formula_sum "Si O2"
_cell_formula_units_Z 16
_cell_length_a 33.886414
_cell_length_b 9.686810
_cell_length_c 8.540500
_cell_angle_alpha 148.429079
_cell_angle_beta 38.525852
_cell_angle_gamma 143.709120
_cell_volume 826.360739
_symmetry_space_group_name_H-M "P -1"
_symmetry_group_IT_number 2
_symmetry_cell_setting 'triclinic'
loop_
_space_group_symop_operation_xyz
x,y,z
-x,-y,-z
loop_
_atom_site_type_symbol
_atom_site_label
_atom_site_fract_x
_atom_site_fract_y
_atom_site_fract_z
Si Si1 0.452804 0.664674 0.861452
Si Si2 0.771496 0.727664 0.213782
Si Si3 0.885073 0.448308 0.085622
Si Si4 0.849302 0.363652 0.481176
Si Si5 0.148849 0.116440 0.573748
Si Si6 0.474944 0.341026 0.086607
Si Si7 0.382465 0.665509 0.797835
Si Si8 0.966623 0.288052 0.252922
O O1 0.500000 0.500000 0.500000
O O2 0.455560 0.622062 0.996483
O O3 0.382524 0.615615 0.938861
O O4 0.500000 0.000000 0.000000
O O5 0.822414 0.596180 0.853097
O O6 0.788485 0.795804 0.411095
O O7 0.693216 0.497507 0.198945
O O8 0.788852 0.038241 0.380630
O O9 0.967416 0.666419 0.015190
O O10 0.865388 0.152644 0.759959
O O11 0.869524 0.402154 0.273057
O O12 0.843982 0.613016 0.290857
O O13 0.913608 0.372039 0.396498
O O14 0.081507 0.013968 0.802220
O O15 0.431683 0.509971 0.450041
O O16 0.500000 0.500000 0.000000
O O17 0.422053 0.999100 0.938682
O O18 0.000000 0.500000 0.500000
#
# Coordination Sequence:
#
# PCOD9083704 Si02
#       8
#     2   2   2   2   2   2   2   2
#     4   8  16  31  52  76 104 135 169 207 256 308
#     4  11  22  40  57  79 111 156 195 216 268 347
#     4  11  21  37  57  83 110 142 186 245 296 322
#     4  11  23  37  57  83 112 143 188 245 276 320
#     4  10  21  37  57  79 113 150 184 230 281 345
#     4  10  19  34  57  88 113 133 174 232 275 310
#     4  10  20  36  58  78 108 152 181 212 267 339
#     4   9  19  36  58  82 107 145 189 231 289 347
#
# _framework density 19.362005
#
# number of rings (size 3 to 8) (size 9 to 14) (size 15 to 20)
#    0.000    2.000    0.000    4.875    0.000    3.000 
#    0.000   10.000    0.000    0.000    0.000    0.000 
#    0.000    0.000    0.000    0.000    0.000    0.000 
#
# Total GULP energy -89099.317552 kJ/mol
# GULP energy per Si atom -5568.707347 kJ/mol
# Density = 1.931794 g / cm^3
# Si number density = 19.362005 Si / 1000 Ang^3
#
#
#
# Elastic Constant Matrix: (Units=GPa)
#
#
# Indices 1 2 3 4 5 6 
#
# 1 145.7415 64.7868 8.4603 -5.0889 8.4201 -8.8114
# 2 64.7868 70.1203 17.2146 14.9812 3.8709 -4.6180
# 3 8.4603 17.2146 81.5135 23.3807 5.0364 -11.0237
# 4 -5.0889 14.9812 23.3807 28.0324 -3.3385 -2.0878
# 5 8.4201 3.8709 5.0364 -3.3385 21.6391 3.0262
# 6 -8.8114 -4.6180 -11.0237 -2.0878 3.0262 47.6831
#
#
#
# Elastic Compliance Matrix: (Units=1/GPa)
#
#
# Indices 1 2 3 4 5 6 
#
# 1 0.014275 -0.015248 -0.001448 0.011952 -0.000842 0.001403
# 2 -0.015248 0.032906 0.001047 -0.021655 -0.003522 -0.000113
# 3 -0.001448 0.001047 0.017742 -0.016153 -0.006757 0.003657
# 4 0.011952 -0.021655 -0.016153 0.064330 0.013137 -0.001640
# 5 -0.000842 -0.003522 -0.006757 0.013137 0.051434 -0.004748
# 6 0.001403 -0.000113 0.003657 -0.001640 -0.004748 0.022295
#
#
# Mechanical properties :
#
#
# Convention : Reuss Voigt Hill
#
# Bulk Modulus (GPa) = 29.73998 53.14433 41.44215
# Shear Modulus (GPa) = 20.36755 33.26514 26.81635
#
# Velocity S-wave (km/s) = 3.24687 4.14945 3.72559
# Velocity P-wave (km/s) = 5.42674 7.10384 6.32116
#
# Compressibility (1/GPa) = 0.03362477
#
# Stress axis : x y z
#
# Youngs Moduli (GPa) = 70.05462 30.38962 56.36243
#
# Poissons Ratio (x) = 0.46338 0.08160
# Poissons Ratio (y) = 1.06820 -0.05900
# Poissons Ratio (z) = 0.10143 -0.03181
#
# Static dielectric constant tensor:
#      x y z
#    x 1.791280 0.001080 0.069020 
#    y 0.001080 1.661500 -0.009980 
#    z 0.069020 -0.009980 1.715890 
# 
# From -- ./inp_files/140531.got.cif
#   From: 2010.05.17/outbox.cif.g08.bks.cpg/sg2_71_cif.got.tgz:140531.got - 2010.06.03 11:33:40.
