data_PCOD9083510
_publ_section_title
;
Structure prediction by ZEFSAII (Michael W. Deem and Ramdas Pophale) SiO2 
 PCOD9083510
Probable space group: P -1
;
_chemical_formula_sum "Si O2"
_cell_formula_units_Z 14
_cell_length_a 14.620860
_cell_length_b 14.607384
_cell_length_c 8.643640
_cell_angle_alpha 107.278011
_cell_angle_beta 86.739458
_cell_angle_gamma 158.174634
_cell_volume 516.016207
_symmetry_space_group_name_H-M "P -1"
_symmetry_group_IT_number 2
_symmetry_cell_setting 'triclinic'
loop_
_space_group_symop_operation_xyz
x,y,z
-x,-y,-z
loop_
_atom_site_type_symbol
_atom_site_label
_atom_site_fract_x
_atom_site_fract_y
_atom_site_fract_z
Si Si1 0.306705 0.357060 0.582600
Si Si2 0.744608 0.265043 0.753988
Si Si3 0.916313 0.221764 0.775688
Si Si4 0.794972 0.657143 0.976956
Si Si5 0.795890 0.538396 0.461005
Si Si6 0.211536 0.125362 0.917324
Si Si7 0.837353 0.250199 0.294829
O O1 0.500000 0.500000 0.500000
O O2 0.182530 0.328329 0.501829
O O3 0.541091 0.617433 0.831562
O O4 0.000000 0.000000 0.500000
O O5 0.864196 0.284721 0.820047
O O6 0.029507 0.606066 0.817382
O O7 0.500000 0.000000 0.500000
O O8 0.528170 0.104920 0.816110
O O9 0.062267 0.287601 0.911406
O O10 0.123124 0.419134 0.698793
O O11 0.548930 0.824523 0.618234
O O12 0.425024 0.287506 0.850918
O O13 0.867288 0.842970 0.102646
O O14 0.926413 0.785577 0.855784
O O15 0.036091 0.720309 0.632640
O O16 0.000000 0.500000 0.500000
#
# Coordination Sequence:
#
# PCOD9083510 Si02
#       7
#     2   2   2   2   2   2   2
#     4  12  24  37  50  71  99 138 182 208 236 283
#     4  10  16  24  40  66  98 130 140 184 237 312
#     4  12  17  28  47  72  99 127 158 187 249 310
#     4  10  19  32  52  74  95 127 165 203 264 306
#     4  12  20  30  48  67 100 135 160 200 243 294
#     4  10  20  35  51  69  96 128 167 217 250 290
#     4  10  16  28  40  67  96 129 148 185 251 305
#
# _framework density 27.130929999999999
#
# number of rings (size 3 to 8) (size 9 to 14) (size 15 to 20)
#    0.000    1.143    8.571    1.714    0.000    0.000 
#    0.000    0.000    0.000    0.000    0.000    0.000 
#    0.000    6.857    0.000    0.000    0.000    0.000 
#
# Total GULP energy -78397.077632 kJ/mol
# GULP energy per Si atom -5599.791259 kJ/mol
# Density = 2.706918 g / cm^3
# Si number density = 27.130930 Si / 1000 Ang^3
#
#
#
# Elastic Constant Matrix: (Units=GPa)
#
#
# Indices 1 2 3 4 5 6 
#
# 1 237.6703 56.7672 44.9069 2.4629 55.8963 -8.9627
# 2 56.7672 202.0809 46.3304 1.4546 15.3982 9.3056
# 3 44.9069 46.3304 112.0836 -3.8761 39.0198 1.5934
# 4 2.4629 1.4546 -3.8761 50.2161 -0.1355 15.3080
# 5 55.8963 15.3982 39.0198 -0.1355 50.7185 -2.3509
# 6 -8.9627 9.3056 1.5934 15.3080 -2.3509 61.7815
#
#
#
# Elastic Compliance Matrix: (Units=1/GPa)
#
#
# Indices 1 2 3 4 5 6 
#
# 1 0.006016 -0.001318 0.000350 -0.000537 -0.006457 0.000950
# 2 -0.001318 0.005792 -0.002364 0.000008 0.001469 -0.000949
# 3 0.000350 -0.002364 0.013253 0.001236 -0.009890 -0.000617
# 4 -0.000537 0.000008 0.001236 0.021714 -0.000559 -0.005512
# 5 -0.006457 0.001469 -0.009890 -0.000559 0.034019 0.000530
# 6 0.000950 -0.000949 -0.000617 -0.005512 0.000530 0.017869
#
#
# Mechanical properties :
#
#
# Convention : Reuss Voigt Hill
#
# Bulk Modulus (GPa) = 54.35231 94.20487 74.27859
# Shear Modulus (GPa) = 44.85926 59.46524 52.16225
#
# Velocity S-wave (km/s) = 4.07066 4.68673 4.38952
# Velocity P-wave (km/s) = 6.49388 8.00531 7.28888
#
# Compressibility (1/GPa) = 0.01839848
#
# Stress axis : x y z
#
# Youngs Moduli (GPa) = 166.21982 172.63818 75.45368
#
# Poissons Ratio (x) = 0.22757 -0.02643
# Poissons Ratio (y) = 0.21911 0.17836
# Poissons Ratio (z) = -0.05823 0.40808
#
# Static dielectric constant tensor:
#      x y z
#    x 1.796910 -0.413570 -0.082850 
#    y -0.413570 1.327940 0.078690 
#    z -0.082850 0.078690 2.272740 
# 
# From -- ./inp_files/92934.got.cif
#   From: 2010.05.17/outbox.cif.g08.bks.cpg/sg2_47_cif.got.tgz:92934.got - 2010.06.03 11:33:40.
