data_PCOD9083560
_publ_section_title
;
Structure prediction by ZEFSAII (Michael W. Deem and Ramdas Pophale) SiO2 
 PCOD9083560
Probable space group: P -1
;
_chemical_formula_sum "Si O2"
_cell_formula_units_Z 16
_cell_length_a 9.414471
_cell_length_b 11.759450
_cell_length_c 10.961436
_cell_angle_alpha 108.953970
_cell_angle_beta 121.675466
_cell_angle_gamma 51.168644
_cell_volume 804.494693
_symmetry_space_group_name_H-M "P -1"
_symmetry_group_IT_number 2
_symmetry_cell_setting 'triclinic'
loop_
_space_group_symop_operation_xyz
x,y,z
-x,-y,-z
loop_
_atom_site_type_symbol
_atom_site_label
_atom_site_fract_x
_atom_site_fract_y
_atom_site_fract_z
Si Si1 0.022704 0.707669 0.851899
Si Si2 0.121512 0.327435 0.478969
Si Si3 0.368786 0.027076 0.163593
Si Si4 0.895933 0.078543 0.650963
Si Si5 0.187267 0.098496 0.629271
Si Si6 0.765739 0.150967 0.102747
Si Si7 0.401854 0.411183 0.946994
Si Si8 0.538699 0.208134 0.697168
O O1 0.981090 0.697985 0.687955
O O2 0.128492 0.797434 0.926325
O O3 0.169550 0.541963 0.907760
O O4 0.805411 0.803000 0.850950
O O5 0.135375 0.235518 0.571255
O O6 0.356212 0.264862 0.540791
O O7 0.000000 0.500000 0.500000
O O8 0.600597 0.970416 0.227498
O O9 0.384026 0.952914 0.275966
O O10 0.282098 0.958929 0.013860
O O11 0.001800 0.142583 0.648822
O O12 0.731910 0.187847 0.713802
O O13 0.079796 0.932189 0.747672
O O14 0.793316 0.024895 0.494260
O O15 0.540916 0.295982 0.074340
O O16 0.444960 0.314903 0.810311
O O17 0.500000 0.500000 0.000000
#
# Coordination Sequence:
#
# PCOD9083560 Si02
#       8
#     2   2   2   2   2   2   2   2
#     4  11  18  33  57  90 112 148 183 247 285 333
#     4  11  20  35  59  84 116 148 191 234 288 335
#     4  10  20  34  60  86 115 139 199 243 282 328
#     4  11  21  37  61  81 119 152 192 234 291 339
#     4  10  23  39  55  87 115 153 191 240 284 341
#     4  10  20  34  57  87 112 148 188 238 287 334
#     4   9  20  30  51  86 116 141 185 232 283 335
#     4  10  19  34  56  89 109 147 191 241 276 341
#
# _framework density 19.888262000000001
#
# number of rings (size 3 to 8) (size 9 to 14) (size 15 to 20)
#    0.000    1.750    3.750    1.125    3.500    2.500 
#    0.000    0.625    0.000    2.250    0.000    0.000 
#    0.000    0.000    0.000    0.000    0.000    0.000 
#
# Total GULP energy -89176.381725 kJ/mol
# GULP energy per Si atom -5573.523858 kJ/mol
# Density = 1.984300 g / cm^3
# Si number density = 19.888262 Si / 1000 Ang^3
#
#
#
# Elastic Constant Matrix: (Units=GPa)
#
#
# Indices 1 2 3 4 5 6 
#
# 1 71.9118 31.1600 9.5187 2.0808 14.4323 -5.2990
# 2 31.1600 113.8071 9.1621 -15.0303 10.1571 -18.3144
# 3 9.5187 9.1621 57.5522 -3.6075 29.9025 -3.6217
# 4 2.0808 -15.0303 -3.6075 29.0172 1.0071 7.8899
# 5 14.4323 10.1571 29.9025 1.0071 21.8921 -3.2297
# 6 -5.2990 -18.3144 -3.6217 7.8899 -3.2297 17.8762
#
#
#
# Elastic Compliance Matrix: (Units=1/GPa)
#
#
# Indices 1 2 3 4 5 6 
#
# 1 0.019334 -0.004128 0.010262 -0.001296 -0.024837 -0.000334
# 2 -0.004128 0.012185 0.001871 0.004596 -0.004399 0.008816
# 3 0.010262 0.001871 0.071256 0.014490 -0.106551 -0.006251
# 4 -0.001296 0.004596 0.014490 0.044215 -0.025594 -0.016879
# 5 -0.024837 -0.004399 -0.106551 -0.025594 0.213223 0.016364
# 6 -0.000334 0.008816 -0.006251 -0.016879 0.016364 0.074013
#
#
# Mechanical properties :
#
#
# Convention : Reuss Voigt Hill
#
# Bulk Modulus (GPa) = 8.41861 38.10584 23.26223
# Shear Modulus (GPa) = 10.92154 26.65244 18.78699
#
# Velocity S-wave (km/s) = 2.34593 3.66472 3.07681
# Velocity P-wave (km/s) = 3.40294 6.09167 4.93399
#
# Compressibility (1/GPa) = 0.11878444
#
# Stress axis : x y z
#
# Youngs Moduli (GPa) = 51.72304 82.07124 14.03384
#
# Poissons Ratio (x) = 0.33879 -0.14401
# Poissons Ratio (y) = 0.21351 -0.02626
# Poissons Ratio (z) = -0.53076 -0.15357
#
# Static dielectric constant tensor:
#      x y z
#    x 1.717790 -0.026370 0.018730 
#    y -0.026370 1.733630 -0.013540 
#    z 0.018730 -0.013540 1.763220 
# 
# From -- ./inp_files/190082.got.cif
#   From: 2010.05.17/outbox.cif.g08.bks.cpg/sg2_96_cif.got.tgz:190082.got - 2010.06.03 11:33:40.
