data_PCOD9083353
_publ_section_title
;
Structure prediction by ZEFSAII (Michael W. Deem and Ramdas Pophale) SiO2 
 PCOD9083353
Probable space group: P -1
;
_chemical_formula_sum "Si O2"
_cell_formula_units_Z 16
_cell_length_a 11.499879
_cell_length_b 5.540717
_cell_length_c 12.757230
_cell_angle_alpha 118.067249
_cell_angle_beta 113.493428
_cell_angle_gamma 62.971727
_cell_volume 621.010648
_symmetry_space_group_name_H-M "P -1"
_symmetry_group_IT_number 2
_symmetry_cell_setting 'triclinic'
loop_
_space_group_symop_operation_xyz
x,y,z
-x,-y,-z
loop_
_atom_site_type_symbol
_atom_site_label
_atom_site_fract_x
_atom_site_fract_y
_atom_site_fract_z
Si Si1 0.444302 0.844902 0.543388
Si Si2 0.626774 0.737614 0.114086
Si Si3 0.089882 0.510396 0.136343
Si Si4 0.154758 0.686503 0.673023
Si Si5 0.634274 0.706529 0.878898
Si Si6 0.824027 0.895750 0.385083
Si Si7 0.541609 0.627750 0.256019
Si Si8 0.999625 0.896523 0.856798
O O1 0.500000 0.500000 0.500000
O O2 0.285061 0.937327 0.531551
O O3 0.500000 0.000000 0.500000
O O4 0.491407 0.028269 0.686340
O O5 0.575121 0.530860 0.127988
O O6 0.496261 0.015155 0.106112
O O7 0.735989 0.823947 0.241108
O O8 0.684400 0.619221 0.998403
O O9 0.237563 0.278795 0.131968
O O10 0.030711 0.402746 0.194854
O O11 0.098489 0.833024 0.189898
O O12 0.000000 0.500000 0.000000
O O13 0.100700 0.916800 0.609324
O O14 0.314506 0.535753 0.673367
O O15 0.127608 0.824556 0.808963
O O16 0.101391 0.417509 0.605403
O O17 0.578116 0.463519 0.762764
O O18 0.000000 0.000000 0.000000
#
# Coordination Sequence:
#
# PCOD9083353 Si02
#       8
#     2   2   2   2   2   2   2   2
#     4  10  20  35  58  84 122 147 173 228 299 362
#     4   9  21  32  53  77 113 157 192 223 279 319
#     4  10  24  36  49  73 105 152 201 230 278 306
#     4  10  19  34  55  73 112 142 191 231 274 325
#     4  11  21  35  53  76 116 156 200 228 268 341
#     4  10  20  34  55  84 110 150 184 229 275 338
#     4  10  22  34  57  83 114 151 189 231 285 337
#     4  10  22  34  52  71 104 152 194 237 275 304
#
# _framework density 25.764451999999999
#
# number of rings (size 3 to 8) (size 9 to 14) (size 15 to 20)
#    0.000    2.250    1.250    2.625   14.000    0.000 
#    0.000    0.000    0.000    0.000    0.000    0.000 
#    0.000   46.000    0.000    0.000    0.000    0.000 
#
# Total GULP energy -89135.356209 kJ/mol
# GULP energy per Si atom -5570.959763 kJ/mol
# Density = 2.570581 g / cm^3
# Si number density = 25.764452 Si / 1000 Ang^3
#
#
#
# Elastic Constant Matrix: (Units=GPa)
#
#
# Indices 1 2 3 4 5 6 
#
# 1 109.9094 41.7001 32.8135 -3.3203 -20.2343 20.6779
# 2 41.7001 160.6624 39.0280 4.7508 -6.3816 40.4550
# 3 32.8135 39.0280 62.7984 -5.0472 -19.7611 2.4408
# 4 -3.3203 4.7508 -5.0472 40.0335 5.1164 -8.6285
# 5 -20.2343 -6.3816 -19.7611 5.1164 38.1513 -9.6656
# 6 20.6779 40.4550 2.4408 -8.6285 -9.6656 55.2903
#
#
#
# Elastic Compliance Matrix: (Units=1/GPa)
#
#
# Indices 1 2 3 4 5 6 
#
# 1 0.011997 -0.001130 -0.004497 -0.000484 0.003153 -0.002986
# 2 -0.001130 0.010139 -0.006951 -0.003362 -0.004060 -0.007924
# 3 -0.004497 -0.006951 0.026249 0.004061 0.011599 0.008270
# 4 -0.000484 -0.003362 0.004061 0.027365 -0.000711 0.006608
# 5 0.003153 -0.004060 0.011599 -0.000711 0.035161 0.007315
# 6 -0.002986 -0.007924 0.008270 0.006608 0.007315 0.026946
#
#
# Mechanical properties :
#
#
# Convention : Reuss Voigt Hill
#
# Bulk Modulus (GPa) = 43.04981 62.27260 52.66120
# Shear Modulus (GPa) = 29.28141 41.35025 35.31583
#
# Velocity S-wave (km/s) = 3.37487 4.01051 3.70634
# Velocity P-wave (km/s) = 5.65080 6.75781 6.22895
#
# Compressibility (1/GPa) = 0.02322891
#
# Stress axis : x y z
#
# Youngs Moduli (GPa) = 83.35130 98.62482 38.09740
#
# Poissons Ratio (x) = 0.11145 0.17133
# Poissons Ratio (y) = 0.09419 0.26481
# Poissons Ratio (z) = 0.37485 0.68553
#
# Static dielectric constant tensor:
#      x y z
#    x 2.085910 0.075770 0.004710 
#    y 0.075770 2.166550 0.028620 
#    z 0.004710 0.028620 2.250130 
# 
# From -- ./inp_files/511254.got.cif
#   From: 2010.05.17/outbox.cif.g08.bks.cpg/sg2_256_cif.got.tgz:511254.got - 2010.06.03 11:33:40.
