data_PCOD9083217
_publ_section_title
;
Structure prediction by ZEFSAII (Michael W. Deem and Ramdas Pophale) SiO2 
 PCOD9083217
Probable space group: P -1
;
_chemical_formula_sum "Si O2"
_cell_formula_units_Z 16
_cell_length_a 13.820054
_cell_length_b 12.238599
_cell_length_c 15.007764
_cell_angle_alpha 32.637270
_cell_angle_beta 36.075853
_cell_angle_gamma 48.879944
_cell_volume 804.029371
_symmetry_space_group_name_H-M "P -1"
_symmetry_group_IT_number 2
_symmetry_cell_setting 'triclinic'
loop_
_space_group_symop_operation_xyz
x,y,z
-x,-y,-z
loop_
_atom_site_type_symbol
_atom_site_label
_atom_site_fract_x
_atom_site_fract_y
_atom_site_fract_z
Si Si1 0.059592 0.281459 0.085242
Si Si2 0.902858 0.931064 0.529511
Si Si3 0.241956 0.639207 0.183025
Si Si4 0.279693 0.936348 0.795250
Si Si5 0.732285 0.621306 0.974791
Si Si6 0.067764 0.597717 0.522911
Si Si7 0.994255 0.683953 0.090512
Si Si8 0.541893 0.670849 0.682708
O O1 0.210766 0.275171 0.045689
O O2 0.903137 0.130207 0.333353
O O3 0.000000 0.500000 0.000000
O O4 0.095836 0.252657 0.974844
O O5 0.740124 0.800182 0.772098
O O6 0.010365 0.788167 0.488686
O O7 0.000000 0.000000 0.500000
O O8 0.188206 0.666907 0.306227
O O9 0.375953 0.472490 0.208153
O O10 0.090213 0.522712 0.322926
O O11 0.281451 0.846393 0.956110
O O12 0.412608 0.805288 0.736225
O O13 0.332163 0.169770 0.572152
O O14 0.102450 0.867580 0.930632
O O15 0.872917 0.475012 0.934502
O O16 0.564722 0.483204 0.196296
O O17 0.118708 0.439605 0.668731
#
# Coordination Sequence:
#
# PCOD9083217 Si02
#       8
#     2   2   2   2   2   2   2   2
#     4   9  16  28  50  77 102 129 168 223 274 299
#     4   9  17  31  54  76 102 133 175 226 262 303
#     4  10  20  36  53  77 113 148 175 212 276 317
#     4   9  19  33  51  80 108 134 184 218 258 326
#     4   8  16  31  47  76 104 128 172 217 262 317
#     4   9  19  35  52  77 109 139 179 223 258 327
#     4   8  15  30  48  74 104 128 168 223 261 308
#     4  10  19  34  53  76 111 143 173 223 264 318
#
# _framework density 19.899771000000001
#
# number of rings (size 3 to 8) (size 9 to 14) (size 15 to 20)
#    0.000    3.000    0.000    1.875    1.750    0.000 
#    9.000    1.875    0.000    3.750    0.000    0.000 
#    0.000    0.000    0.000    0.000    0.000    0.000 
#
# Total GULP energy -89067.754697 kJ/mol
# GULP energy per Si atom -5566.734669 kJ/mol
# Density = 1.985448 g / cm^3
# Si number density = 19.899771 Si / 1000 Ang^3
#
#
#
# Elastic Constant Matrix: (Units=GPa)
#
#
# Indices 1 2 3 4 5 6 
#
# 1 66.2802 10.3571 52.4617 5.9199 22.3336 21.9028
# 2 10.3571 41.1302 20.4175 5.1665 4.9023 19.4009
# 3 52.4617 20.4175 162.0556 -10.1178 16.6966 27.0955
# 4 5.9199 5.1665 -10.1178 15.5109 7.0461 5.6327
# 5 22.3336 4.9023 16.6966 7.0461 23.4625 5.0083
# 6 21.9028 19.4009 27.0955 5.6327 5.0083 20.9777
#
#
#
# Elastic Compliance Matrix: (Units=1/GPa)
#
#
# Indices 1 2 3 4 5 6 
#
# 1 0.042112 0.017703 -0.003404 0.009304 -0.033382 -0.050473
# 2 0.017703 0.051086 0.000955 0.008110 -0.016735 -0.065146
# 3 -0.003404 0.000955 0.011465 0.017128 -0.007049 -0.015055
# 4 0.009304 0.008110 0.017128 0.110384 -0.043376 -0.058622
# 5 -0.033382 -0.016735 -0.007049 -0.043376 0.085100 0.050765
# 6 -0.050473 -0.065146 -0.015055 -0.058622 0.050765 0.183683
#
#
# Mechanical properties :
#
#
# Convention : Reuss Voigt Hill
#
# Bulk Modulus (GPa) = 7.39795 48.43764 27.91779
# Shear Modulus (GPa) = 10.03257 24.40554 17.21905
#
# Velocity S-wave (km/s) = 2.24778 3.50583 2.94477
# Velocity P-wave (km/s) = 3.23455 6.38604 5.06181
#
# Compressibility (1/GPa) = 0.13517265
#
# Stress axis : x y z
#
# Youngs Moduli (GPa) = 23.74623 19.57498 87.22195
#
# Poissons Ratio (x) = -0.34654 0.29689
# Poissons Ratio (y) = -0.42039 -0.08334
# Poissons Ratio (z) = 0.08083 -0.01870
#
# Static dielectric constant tensor:
#      x y z
#    x 1.737270 -0.007540 0.032360 
#    y -0.007540 1.733840 -0.000730 
#    z 0.032360 -0.000730 1.764430 
# 
# From -- ./inp_files/221840.got.cif
#   From: 2010.05.17/outbox.cif.g08.bks.cpg/sg2_111_cif.got.tgz:221840.got - 2010.06.03 11:33:40.
