data_PCOD9083007
_publ_section_title
;
Structure prediction by ZEFSAII (Michael W. Deem and Ramdas Pophale) SiO2 
 PCOD9083007
Probable space group: P -1
;
_chemical_formula_sum "Si O2"
_cell_formula_units_Z 16
_cell_length_a 11.798781
_cell_length_b 7.032411
_cell_length_c 10.748727
_cell_angle_alpha 47.999888
_cell_angle_beta 90.006246
_cell_angle_gamma 72.251456
_cell_volume 604.424504
_symmetry_space_group_name_H-M "P -1"
_symmetry_group_IT_number 2
_symmetry_cell_setting 'triclinic'
loop_
_space_group_symop_operation_xyz
x,y,z
-x,-y,-z
loop_
_atom_site_type_symbol
_atom_site_label
_atom_site_fract_x
_atom_site_fract_y
_atom_site_fract_z
Si Si1 0.655771 0.362901 0.327304
Si Si2 0.294036 0.089538 0.145494
Si Si3 0.730335 0.767619 0.317072
Si Si4 0.872309 0.284461 0.226649
Si Si5 0.029454 0.384845 0.752334
Si Si6 0.431334 0.802121 0.042095
Si Si7 0.083464 0.969912 0.171870
Si Si8 0.503051 0.861458 0.429459
O O1 0.705655 0.578476 0.292310
O O2 0.781194 0.157736 0.346490
O O3 0.543579 0.501919 0.168611
O O4 0.577826 0.314688 0.462056
O O5 0.189423 0.001866 0.242597
O O6 0.342581 0.857052 0.137403
O O7 0.412468 0.063305 0.236798
O O8 0.222328 0.409857 0.960366
O O9 0.875267 0.681550 0.334407
O O10 0.645155 0.741875 0.439010
O O11 0.655910 0.081718 0.125910
O O12 0.963117 0.347050 0.297767
O O13 0.957257 0.120611 0.184226
O O14 0.076472 0.148422 0.967492
O O15 0.909456 0.336484 0.728519
O O16 0.500000 0.000000 0.000000
O O17 0.500000 0.000000 0.500000
#
# Coordination Sequence:
#
# PCOD9083007 Si02
#       8
#     2   2   2   2   2   2   2   2
#     4  10  20  37  60  85 113 164 197 238 311 358
#     4  11  19  38  60  87 122 156 194 254 303 351
#     4  10  18  37  64  82 117 147 197 255 295 359
#     4  10  19  38  65  89 122 153 201 257 302 357
#     4   9  18  34  58  96 115 147 196 251 309 346
#     4  10  15  34  64  88 106 146 207 249 301 352
#     4  10  20  34  63  94 119 153 199 254 309 352
#     4  12  26  38  53  87 127 162 198 243 301 369
#
# _framework density 26.471461999999999
#
# number of rings (size 3 to 8) (size 9 to 14) (size 15 to 20)
#    0.000    1.750    7.500    1.875    1.750    0.000 
#    2.250    3.125    0.000    1.500    0.000    0.000 
#    0.000    0.000    0.000    0.000    0.000    0.000 
#
# Total GULP energy -89198.954722 kJ/mol
# GULP energy per Si atom -5574.934670 kJ/mol
# Density = 2.641121 g / cm^3
# Si number density = 26.471462 Si / 1000 Ang^3
#
#
#
# Elastic Constant Matrix: (Units=GPa)
#
#
# Indices 1 2 3 4 5 6 
#
# 1 130.3770 23.1985 29.3299 5.0464 -18.4379 -9.9790
# 2 23.1985 69.1947 17.4065 24.9279 -2.6820 -9.3633
# 3 29.3299 17.4065 62.1623 12.3761 -13.7076 -12.5463
# 4 5.0464 24.9279 12.3761 27.0177 -7.3478 -11.1811
# 5 -18.4379 -2.6820 -13.7076 -7.3478 37.5716 5.7662
# 6 -9.9790 -9.3633 -12.5463 -11.1811 5.7662 40.5108
#
#
#
# Elastic Compliance Matrix: (Units=1/GPa)
#
#
# Indices 1 2 3 4 5 6 
#
# 1 0.009551 -0.003786 -0.003279 0.004796 0.003971 0.001221
# 2 -0.003786 0.023876 -0.001825 -0.022448 -0.004985 -0.001466
# 3 -0.003279 -0.001825 0.020700 -0.004632 0.004404 0.003276
# 4 0.004796 -0.022448 -0.004632 0.066490 0.010309 0.011442
# 5 0.003971 -0.004985 0.004404 0.010309 0.031909 -0.000507
# 6 0.001221 -0.001466 0.003276 0.011442 -0.000507 0.028891
#
#
# Mechanical properties :
#
#
# Convention : Reuss Voigt Hill
#
# Bulk Modulus (GPa) = 27.51324 44.62263 36.06794
# Shear Modulus (GPa) = 23.66165 33.80663 28.73414
#
# Velocity S-wave (km/s) = 2.99298 3.57753 3.29823
# Velocity P-wave (km/s) = 4.72864 5.82738 5.30653
#
# Compressibility (1/GPa) = 0.03634613
#
# Stress axis : x y z
#
# Youngs Moduli (GPa) = 104.70386 41.88313 48.30994
#
# Poissons Ratio (x) = 0.15857 0.15841
# Poissons Ratio (y) = 0.39641 0.08817
# Poissons Ratio (z) = 0.34333 0.07644
#
# Static dielectric constant tensor:
#      x y z
#    x 2.212240 -0.053950 -0.072500 
#    y -0.053950 2.134640 -0.018940 
#    z -0.072500 -0.018940 2.277720 
# 
# From -- ./inp_files/295747.got.cif
#   From: 2010.05.17/outbox.cif.g08.bks.cpg/sg2_148_cif.got.tgz:295747.got - 2010.06.03 11:33:40.
