data_PCOD9083129
_publ_section_title
;
Structure prediction by ZEFSAII (Michael W. Deem and Ramdas Pophale) SiO2 
 PCOD9083129
Probable space group: P -1
;
_chemical_formula_sum "Si O2"
_cell_formula_units_Z 16
_cell_length_a 8.864412
_cell_length_b 11.621886
_cell_length_c 14.503987
_cell_angle_alpha 39.418435
_cell_angle_beta 130.535280
_cell_angle_gamma 113.166764
_cell_volume 702.571306
_symmetry_space_group_name_H-M "P -1"
_symmetry_group_IT_number 2
_symmetry_cell_setting 'triclinic'
loop_
_space_group_symop_operation_xyz
x,y,z
-x,-y,-z
loop_
_atom_site_type_symbol
_atom_site_label
_atom_site_fract_x
_atom_site_fract_y
_atom_site_fract_z
Si Si1 0.330604 0.198957 0.878526
Si Si2 0.112697 0.782860 0.690696
Si Si3 0.709396 0.616487 0.449866
Si Si4 0.834668 0.552561 0.817667
Si Si5 0.532823 0.258640 0.550670
Si Si6 0.932665 0.110656 0.724728
Si Si7 0.234192 0.819199 0.918749
Si Si8 0.828042 0.420238 0.338785
O O1 0.296501 0.280811 0.712120
O O2 0.312960 0.378646 0.826116
O O3 0.132422 0.112109 0.865808
O O4 0.567066 0.100331 0.037228
O O5 0.964816 0.644065 0.741451
O O6 0.235916 0.773645 0.839964
O O7 0.224449 0.700906 0.691987
O O8 0.000000 0.000000 0.500000
O O9 0.614863 0.439994 0.501176
O O10 0.601138 0.752430 0.404345
O O11 0.946775 0.546471 0.609312
O O12 0.614998 0.697655 0.625012
O O13 0.763523 0.357972 0.904673
O O14 0.000000 0.500000 0.000000
O O15 0.731524 0.096462 0.709963
O O16 0.851737 0.299612 0.516791
O O17 0.024318 0.959101 0.777535
#
# Coordination Sequence:
#
# PCOD9083129 Si02
#       8
#     2   2   2   2   2   2   2   2
#     4  11  21  39  63 101 127 173 210 267 328 375
#     4  11  23  42  68  90 122 171 223 264 314 388
#     4  10  19  33  65  90 124 165 217 257 314 387
#     4  10  22  41  65  90 128 171 208 265 325 375
#     4  11  19  37  65  94 125 173 214 252 320 388
#     4  11  21  37  65 100 130 164 217 265 310 392
#     4  11  23  41  64  93 139 168 206 273 332 366
#     4  11  19  38  66  91 126 164 226 259 307 390
#
# _framework density 22.773489000000001
#
# number of rings (size 3 to 8) (size 9 to 14) (size 15 to 20)
#    0.000    1.250    6.250    1.125    0.000    0.500 
#    0.000    3.125   11.000    0.000    0.000    0.000 
#    0.000    0.000    0.000    0.000    0.000    0.000 
#
# Total GULP energy -89073.791637 kJ/mol
# GULP energy per Si atom -5567.111977 kJ/mol
# Density = 2.272166 g / cm^3
# Si number density = 22.773489 Si / 1000 Ang^3
#
#
#
# Elastic Constant Matrix: (Units=GPa)
#
#
# Indices 1 2 3 4 5 6 
#
# 1 90.6365 19.3050 37.1554 6.5441 24.1008 -17.4618
# 2 19.3050 78.2294 23.3331 15.0232 1.3481 -19.8344
# 3 37.1554 23.3331 60.5339 6.4058 9.9936 -3.2420
# 4 6.5441 15.0232 6.4058 34.5076 7.9912 4.1884
# 5 24.1008 1.3481 9.9936 7.9912 37.0225 -4.7428
# 6 -17.4618 -19.8344 -3.2420 4.1884 -4.7428 32.4437
#
#
#
# Elastic Compliance Matrix: (Units=1/GPa)
#
#
# Indices 1 2 3 4 5 6 
#
# 1 0.018890 0.000900 -0.009981 -0.001264 -0.008251 0.008677
# 2 0.000900 0.020248 -0.007270 -0.010447 0.004710 0.014174
# 3 -0.009981 -0.007270 0.025083 0.001652 -0.001355 -0.007721
# 4 -0.001264 -0.010447 0.001652 0.037103 -0.008916 -0.012995
# 5 -0.008251 0.004710 -0.001355 -0.008916 0.035088 0.004584
# 6 0.008677 0.014174 -0.007721 -0.012995 0.004584 0.045734
#
#
# Mechanical properties :
#
#
# Convention : Reuss Voigt Hill
#
# Bulk Modulus (GPa) = 31.72617 43.22076 37.47346
# Shear Modulus (GPa) = 22.18734 30.76852 26.47793
#
# Velocity S-wave (km/s) = 3.12470 3.67967 3.41349
# Velocity P-wave (km/s) = 5.19421 6.08877 5.65919
#
# Compressibility (1/GPa) = 0.03151972
#
# Stress axis : x y z
#
# Youngs Moduli (GPa) = 52.93867 49.38750 39.86700
#
# Poissons Ratio (x) = -0.04446 0.39791
# Poissons Ratio (y) = -0.04766 0.28984
# Poissons Ratio (z) = 0.52837 0.35906
#
# Static dielectric constant tensor:
#      x y z
#    x 1.911710 0.010000 0.017640 
#    y 0.010000 1.928700 0.003280 
#    z 0.017640 0.003280 1.857690 
# 
# From -- ./inp_files/499943.got.cif
#   From: 2010.05.17/outbox.cif.g08.bks.cpg/sg2_250_cif.got.tgz:499943.got - 2010.06.03 11:33:40.
