data_PCOD9083726
_publ_section_title
;
Structure prediction by ZEFSAII (Michael W. Deem and Ramdas Pophale) SiO2 
 PCOD9083726
Probable space group: P -1
;
_chemical_formula_sum "Si O2"
_cell_formula_units_Z 14
_cell_length_a 12.291573
_cell_length_b 14.969654
_cell_length_c 12.895686
_cell_angle_alpha 20.558284
_cell_angle_beta 84.411404
_cell_angle_gamma 94.194522
_cell_volume 731.892645
_symmetry_space_group_name_H-M "P -1"
_symmetry_group_IT_number 2
_symmetry_cell_setting 'triclinic'
loop_
_space_group_symop_operation_xyz
x,y,z
-x,-y,-z
loop_
_atom_site_type_symbol
_atom_site_label
_atom_site_fract_x
_atom_site_fract_y
_atom_site_fract_z
Si Si1 0.486791 0.700382 0.872398
Si Si2 0.130458 0.611132 0.427570
Si Si3 0.842547 0.482056 0.238474
Si Si4 0.202940 0.358949 0.329171
Si Si5 0.735830 0.907821 0.747698
Si Si6 0.108746 0.813912 0.775932
Si Si7 0.852934 0.826061 0.227588
O O1 0.597241 0.778881 0.857758
O O2 0.500000 0.000000 0.500000
O O3 0.500000 0.500000 0.000000
O O4 0.350849 0.526544 0.121981
O O5 0.108745 0.524758 0.643314
O O6 0.198179 0.453880 0.535282
O O7 0.000000 0.500000 0.500000
O O8 0.198186 0.953415 0.035729
O O9 0.765850 0.158805 0.555085
O O10 0.765697 0.658177 0.055660
O O11 0.960283 0.650354 0.969340
O O12 0.164195 0.255386 0.562406
O O13 0.151625 0.081360 0.560706
O O14 0.151720 0.580146 0.061892
O O15 0.827085 0.058704 0.477647
O O16 0.000000 0.000000 0.000000
#
# Coordination Sequence:
#
# PCOD9083726 Si02
#       7
#     2   2   2   2   2   2   2
#     4  12  23  44  64  88 125 171 218 253 288 365
#     4  10  20  37  58  84 119 154 201 252 303 368
#     4  12  24  39  61  93 128 169 199 253 329 376
#     4  12  22  38  67  94 122 165 212 265 302 356
#     4  12  24  40  60  88 132 168 207 250 308 375
#     4  12  22  38  60  93 131 162 205 249 316 382
#     4  10  19  34  57  90 118 147 197 262 313 349
#
# _framework density 19.128488999999998
#
# number of rings (size 3 to 8) (size 9 to 14) (size 15 to 20)
#    0.000    0.571    2.857    8.571    0.000    0.000 
#    0.000    0.000    0.000    5.143    0.000    0.000 
#    0.000    0.000    0.000    0.000    0.000    0.000 
#
# Total GULP energy -78279.468686 kJ/mol
# GULP energy per Si atom -5591.390620 kJ/mol
# Density = 1.908495 g / cm^3
# Si number density = 19.128489 Si / 1000 Ang^3
#
#
#
# Elastic Constant Matrix: (Units=GPa)
#
#
# Indices 1 2 3 4 5 6 
#
# 1 100.1963 27.3870 54.4234 -20.3979 15.8317 12.6190
# 2 27.3870 82.1309 49.4874 -20.3118 1.9040 -13.9310
# 3 54.4234 49.4874 95.6502 -17.0589 30.3359 -20.1308
# 4 -20.3979 -20.3118 -17.0589 47.5736 -9.5813 0.5599
# 5 15.8317 1.9040 30.3359 -9.5813 39.3480 -11.4808
# 6 12.6190 -13.9310 -20.1308 0.5599 -11.4808 30.1741
#
#
#
# Elastic Compliance Matrix: (Units=1/GPa)
#
#
# Indices 1 2 3 4 5 6 
#
# 1 0.022124 -0.000874 -0.015117 0.003450 -0.002411 -0.020723
# 2 -0.000874 0.022743 -0.012485 0.007348 0.012786 0.007265
# 3 -0.015117 -0.012485 0.033246 -0.003047 -0.014664 0.017215
# 4 0.003450 0.007348 -0.003047 0.026054 0.007631 0.002337
# 5 -0.002411 0.012786 -0.014664 0.007631 0.042801 0.013272
# 6 -0.020723 0.007265 0.017215 0.002337 0.013272 0.061653
#
#
# Mechanical properties :
#
#
# Convention : Reuss Voigt Hill
#
# Bulk Modulus (GPa) = 47.25834 60.06366 53.66100
# Shear Modulus (GPa) = 18.34011 33.19779 25.76895
#
# Velocity S-wave (km/s) = 3.09978 4.17047 3.67434
# Velocity P-wave (km/s) = 6.12951 7.39315 6.79079
#
# Compressibility (1/GPa) = 0.02116029
#
# Stress axis : x y z
#
# Youngs Moduli (GPa) = 45.20044 43.96968 30.07869
#
# Poissons Ratio (x) = 0.03844 0.45470
# Poissons Ratio (y) = 0.03952 0.37553
# Poissons Ratio (z) = 0.68330 0.54895
#
# Static dielectric constant tensor:
#      x y z
#    x 1.628640 0.008660 0.007710 
#    y 0.008660 1.648780 0.005110 
#    z 0.007710 0.005110 1.629550 
# 
# From -- ./inp_files/65793.got.cif
#   From: 2010.05.17/outbox.cif.g08.bks.cpg/sg2_33_cif.got.tgz:65793.got - 2010.06.03 11:33:40.
