data_PCOD9083107
_publ_section_title
;
Structure prediction by ZEFSAII (Michael W. Deem and Ramdas Pophale) SiO2 
 PCOD9083107
Probable space group: P -1
;
_chemical_formula_sum "Si O2"
_cell_formula_units_Z 16
_cell_length_a 20.052406
_cell_length_b 9.056286
_cell_length_c 5.297443
_cell_angle_alpha 65.841875
_cell_angle_beta 60.373813
_cell_angle_gamma 53.300968
_cell_volume 661.491506
_symmetry_space_group_name_H-M "P -1"
_symmetry_group_IT_number 2
_symmetry_cell_setting 'triclinic'
loop_
_space_group_symop_operation_xyz
x,y,z
-x,-y,-z
loop_
_atom_site_type_symbol
_atom_site_label
_atom_site_fract_x
_atom_site_fract_y
_atom_site_fract_z
Si Si1 0.826757 0.469378 0.643730
Si Si2 0.334764 0.871229 0.574460
Si Si3 0.279635 0.505801 0.682924
Si Si4 0.011703 0.376881 0.316369
Si Si5 0.497513 0.824220 0.010822
Si Si6 0.195473 0.149962 0.352509
Si Si7 0.601189 0.441446 0.910361
Si Si8 0.641424 0.908033 0.248255
O O1 0.781641 0.475022 0.457606
O O2 0.822105 0.665818 0.587668
O O3 0.932039 0.331787 0.510218
O O4 0.777990 0.434684 0.996295
O O5 0.426080 0.784579 0.308470
O O6 0.235724 0.966775 0.580265
O O7 0.336586 0.057940 0.538672
O O8 0.351589 0.730779 0.868811
O O9 0.338231 0.596309 0.423336
O O10 0.350964 0.284857 0.707520
O O11 0.110702 0.205237 0.296486
O O12 0.000000 0.500000 0.500000
O O13 0.000000 0.500000 0.000000
O O14 0.587053 0.630511 0.943123
O O15 0.500000 0.000000 0.000000
O O16 0.451228 0.912127 0.769175
O O17 0.280091 0.096151 0.058021
O O18 0.500000 0.500000 0.000000
#
# Coordination Sequence:
#
# PCOD9083107 Si02
#       8
#     2   2   2   2   2   2   2   2
#     4  10  20  39  62  96 131 169 217 273 340 396
#     4  11  22  41  60  87 134 170 222 276 345 404
#     4  11  24  40  64  91 131 175 221 279 337 399
#     4  10  19  33  63 103 138 165 212 280 336 398
#     4  11  25  40  66  93 121 172 229 293 341 400
#     4   9  20  34  61  96 130 168 212 272 338 403
#     4  12  27  43  62  93 130 180 233 286 338 404
#     4  10  20  39  60  91 127 168 217 275 345 393
#
# _framework density 24.187761999999999
#
# number of rings (size 3 to 8) (size 9 to 14) (size 15 to 20)
#    0.000    1.500    2.500    3.375    7.000    2.000 
#    0.000    0.000    0.000    1.500    0.000    0.000 
#    0.000    0.000    0.000    0.000    0.000    0.000 
#
# Total GULP energy -89361.179209 kJ/mol
# GULP energy per Si atom -5585.073701 kJ/mol
# Density = 2.413271 g / cm^3
# Si number density = 24.187762 Si / 1000 Ang^3
#
#
#
# Elastic Constant Matrix: (Units=GPa)
#
#
# Indices 1 2 3 4 5 6 
#
# 1 122.6682 39.4779 46.0448 -10.8695 5.3627 -26.0308
# 2 39.4779 80.6004 33.1328 -14.9720 -1.6234 -16.9232
# 3 46.0448 33.1328 159.0303 -8.9885 -2.5572 -30.3225
# 4 -10.8695 -14.9720 -8.9885 34.5406 2.2913 11.0495
# 5 5.3627 -1.6234 -2.5572 2.2913 38.0114 -1.9916
# 6 -26.0308 -16.9232 -30.3225 11.0495 -1.9916 47.1643
#
#
#
# Elastic Compliance Matrix: (Units=1/GPa)
#
#
# Indices 1 2 3 4 5 6 
#
# 1 0.010855 -0.003885 -0.001702 0.000325 -0.001655 0.003357
# 2 -0.003885 0.016234 -0.001682 0.004834 0.000916 0.001505
# 3 -0.001702 -0.001682 0.007811 -0.000452 0.000911 0.003623
# 4 0.000325 0.004834 -0.000452 0.033174 -0.002196 -0.006241
# 5 -0.001655 0.000916 0.000911 -0.002196 0.026861 0.001649
# 6 0.003357 0.001505 0.003623 -0.006241 0.001649 0.027457
#
#
# Mechanical properties :
#
#
# Convention : Reuss Voigt Hill
#
# Bulk Modulus (GPa) = 49.11239 66.62333 57.86786
# Shear Modulus (GPa) = 34.79073 40.18613 37.48843
#
# Velocity S-wave (km/s) = 3.79669 4.08048 3.94114
# Velocity P-wave (km/s) = 6.29035 7.05723 6.68479
#
# Compressibility (1/GPa) = 0.02036146
#
# Stress axis : x y z
#
# Youngs Moduli (GPa) = 92.12637 61.59945 128.01995
#
# Poissons Ratio (x) = 0.23933 0.21783
# Poissons Ratio (y) = 0.35794 0.21537
# Poissons Ratio (z) = 0.15676 0.10363
#
# Static dielectric constant tensor:
#      x y z
#    x 1.954680 -0.146630 -0.051020 
#    y -0.146630 1.597510 -0.151210 
#    z -0.051020 -0.151210 1.953870 
# 
# From -- ./inp_files/112225.got.cif
#   From: 2010.05.17/outbox.cif.g08.bks.cpg/sg2_57_cif.got.tgz:112225.got - 2010.06.03 11:33:40.
