data_PCOD9083349
_publ_section_title
;
Structure prediction by ZEFSAII (Michael W. Deem and Ramdas Pophale) SiO2 
 PCOD9083349
Probable space group: P -1
;
_chemical_formula_sum "Si O2"
_cell_formula_units_Z 16
_cell_length_a 11.985313
_cell_length_b 8.701403
_cell_length_c 9.368737
_cell_angle_alpha 100.151324
_cell_angle_beta 76.381246
_cell_angle_gamma 117.920492
_cell_volume 836.570819
_symmetry_space_group_name_H-M "P -1"
_symmetry_group_IT_number 2
_symmetry_cell_setting 'triclinic'
loop_
_space_group_symop_operation_xyz
x,y,z
-x,-y,-z
loop_
_atom_site_type_symbol
_atom_site_label
_atom_site_fract_x
_atom_site_fract_y
_atom_site_fract_z
Si Si1 0.446977 0.317596 0.406767
Si Si2 0.357084 0.980003 0.547311
Si Si3 0.998132 0.219728 0.212334
Si Si4 0.698187 0.284872 0.234851
Si Si5 0.888453 0.119341 0.519537
Si Si6 0.963106 0.564724 0.287705
Si Si7 0.150987 0.820417 0.035796
Si Si8 0.785903 0.850846 0.749250
O O1 0.500000 0.500000 0.500000
O O2 0.378724 0.172444 0.527763
O O3 0.563579 0.290026 0.295780
O O4 0.343629 0.285551 0.308277
O O5 0.500000 0.000000 0.500000
O O6 0.308517 0.875877 0.691997
O O7 0.247491 0.868554 0.446020
O O8 0.001208 0.407226 0.269628
O O9 0.136654 0.227519 0.194514
O O10 0.914914 0.092094 0.343800
O O11 0.930365 0.160991 0.070343
O O12 0.811516 0.465228 0.288471
O O13 0.751613 0.252186 0.063812
O O14 0.997709 0.300779 0.572383
O O15 0.869913 0.966231 0.608524
O O16 0.046045 0.681396 0.150110
O O17 0.225919 0.002392 0.124964
#
# Coordination Sequence:
#
# PCOD9083349 Si02
#       8
#     2   2   2   2   2   2   2   2
#     4  10  23  39  57  85 118 150 191 246 291 334
#     4   9  18  34  56  80 112 149 193 233 280 338
#     4  11  19  33  58  85 118 151 188 236 291 334
#     4  10  19  37  62  82 113 158 192 229 288 342
#     4  10  19  34  54  90 114 151 196 234 290 340
#     4  10  21  34  60  90 119 149 194 242 282 339
#     4  10  21  40  59  87 117 155 192 235 287 347
#     4  10  23  37  55  86 121 150 191 237 290 347
#
# _framework density 19.125699000000001
#
# number of rings (size 3 to 8) (size 9 to 14) (size 15 to 20)
#    0.000    2.000    2.500    2.625    1.750    1.500 
#    2.250    1.250    0.000    5.250    0.000    0.000 
#    0.000    0.000    0.000    0.000    0.000    0.000 
#
# Total GULP energy -89100.126586 kJ/mol
# GULP energy per Si atom -5568.757912 kJ/mol
# Density = 1.908217 g / cm^3
# Si number density = 19.125699 Si / 1000 Ang^3
#
#
#
# Elastic Constant Matrix: (Units=GPa)
#
#
# Indices 1 2 3 4 5 6 
#
# 1 95.9291 13.3662 21.9283 15.1420 5.9696 7.4532
# 2 13.3662 59.6213 21.7011 14.8319 7.1034 18.0131
# 3 21.9283 21.7011 84.3480 -6.8767 12.2208 7.6159
# 4 15.1420 14.8319 -6.8767 25.5599 7.5172 4.5370
# 5 5.9696 7.1034 12.2208 7.5172 19.6127 -5.3829
# 6 7.4532 18.0131 7.6159 4.5370 -5.3829 26.2549
#
#
#
# Elastic Compliance Matrix: (Units=1/GPa)
#
#
# Indices 1 2 3 4 5 6 
#
# 1 0.012869 0.001451 -0.004762 -0.010184 0.002135 -0.001069
# 2 0.001451 0.027965 -0.006442 -0.014262 -0.005594 -0.016412
# 3 -0.004762 -0.006442 0.019185 0.017747 -0.016698 -0.006284
# 4 -0.010184 -0.014262 0.017747 0.069794 -0.032624 -0.011222
# 5 0.002135 -0.005594 -0.016698 -0.032624 0.083749 0.030883
# 6 -0.001069 -0.016412 -0.006284 -0.011222 0.030883 0.059745
#
#
# Mechanical properties :
#
#
# Convention : Reuss Voigt Hill
#
# Bulk Modulus (GPa) = 24.68475 39.32110 32.00293
# Shear Modulus (GPa) = 16.32297 26.47901 21.40099
#
# Velocity S-wave (km/s) = 2.92457 3.72489 3.34872
# Velocity P-wave (km/s) = 4.93343 6.25329 5.63216
#
# Compressibility (1/GPa) = 0.04051085
#
# Stress axis : x y z
#
# Youngs Moduli (GPa) = 77.70899 35.75905 52.12505
#
# Poissons Ratio (x) = -0.05187 0.24821
# Poissons Ratio (y) = -0.11272 0.33581
# Poissons Ratio (z) = 0.37003 0.23038
#
# Static dielectric constant tensor:
#      x y z
#    x 1.729900 0.006110 -0.016000 
#    y 0.006110 1.666980 -0.018850 
#    z -0.016000 -0.018850 1.684860 
# 
# From -- ./inp_files/175109.got.cif
#   From: 2010.05.17/outbox.cif.g08.bks.cpg/sg2_88_cif.got.tgz:175109.got - 2010.06.03 11:33:40.
