data_PCOD9083338
_publ_section_title
;
Structure prediction by ZEFSAII (Michael W. Deem and Ramdas Pophale) SiO2 
 PCOD9083338
Probable space group: P -1
;
_chemical_formula_sum "Si O2"
_cell_formula_units_Z 16
_cell_length_a 24.136326
_cell_length_b 5.536547
_cell_length_c 9.751315
_cell_angle_alpha 137.059833
_cell_angle_beta 46.441213
_cell_angle_gamma 131.459369
_cell_volume 609.620952
_symmetry_space_group_name_H-M "P -1"
_symmetry_group_IT_number 2
_symmetry_cell_setting 'triclinic'
loop_
_space_group_symop_operation_xyz
x,y,z
-x,-y,-z
loop_
_atom_site_type_symbol
_atom_site_label
_atom_site_fract_x
_atom_site_fract_y
_atom_site_fract_z
Si Si1 0.028975 0.080388 0.137808
Si Si2 0.556105 0.350911 0.635928
Si Si3 0.746851 0.783670 0.798271
Si Si4 0.738463 0.444267 0.296899
Si Si5 0.493600 0.820440 0.751441
Si Si6 0.689885 0.273373 0.913517
Si Si7 0.071114 0.958003 0.456396
Si Si8 0.804606 0.985729 0.180010
O O1 0.066728 0.526020 0.280703
O O2 0.953968 0.947961 0.312208
O O3 0.101628 0.919716 0.976440
O O4 0.000000 0.000000 0.000000
O O5 0.646322 0.419593 0.460498
O O6 0.527469 0.697907 0.782997
O O7 0.500000 0.000000 0.500000
O O8 0.542560 0.210525 0.757343
O O9 0.715794 0.918117 0.766792
O O10 0.840206 0.810231 0.645362
O O11 0.697364 0.396356 0.793314
O O12 0.740041 0.112146 0.050172
O O13 0.789641 0.829845 0.296135
O O14 0.772353 0.317688 0.325294
O O15 0.500000 0.500000 0.500000
O O16 0.399669 0.777936 0.903678
O O17 0.752372 0.627023 0.031410
O O18 0.000000 0.000000 0.500000
#
# Coordination Sequence:
#
# PCOD9083338 Si02
#       8
#     2   2   2   2   2   2   2   2
#     4  11  25  42  63  92 124 162 212 268 317 373
#     4  10  16  23  36  63 100 146 186 232 291 349
#     4  10  18  30  50  73 102 146 201 234 294 368
#     4  10  17  28  47  70 104 151 197 237 297 366
#     4  10  16  23  36  62 102 145 186 232 292 347
#     4  10  17  28  46  71 104 152 196 238 296 365
#     4  11  23  41  65  89 122 163 213 259 321 386
#     4  10  18  33  49  73 104 148 199 234 304 366
#
# _framework density 26.245813999999999
#
# number of rings (size 3 to 8) (size 9 to 14) (size 15 to 20)
#    0.000    1.750    2.500    9.000    1.750    0.500 
#    0.000    0.000    0.000    0.000    0.000    0.000 
#    0.000    0.000    0.000   83.250    0.000    0.000 
#
# Total GULP energy -89740.333739 kJ/mol
# GULP energy per Si atom -5608.770859 kJ/mol
# Density = 2.618608 g / cm^3
# Si number density = 26.245814 Si / 1000 Ang^3
#
#
#
# Elastic Constant Matrix: (Units=GPa)
#
#
# Indices 1 2 3 4 5 6 
#
# 1 134.0219 49.5823 68.5945 -0.7774 -25.2176 -26.1329
# 2 49.5823 148.8303 58.2901 -6.8044 -7.0802 -45.5430
# 3 68.5945 58.2901 128.6323 -13.7497 -34.5380 0.2295
# 4 -0.7774 -6.8044 -13.7497 50.3448 -4.3956 0.3392
# 5 -25.2176 -7.0802 -34.5380 -4.3956 58.0074 4.3476
# 6 -26.1329 -45.5430 0.2295 0.3392 4.3476 71.4661
#
#
#
# Elastic Compliance Matrix: (Units=1/GPa)
#
#
# Indices 1 2 3 4 5 6 
#
# 1 0.011568 -0.000352 -0.005875 -0.001406 0.001084 0.003965
# 2 -0.000352 0.011056 -0.005592 -0.000321 -0.002689 0.007100
# 3 -0.005875 -0.005592 0.015747 0.004100 0.006915 -0.006203
# 4 -0.001406 -0.000321 0.004100 0.021228 0.003478 -0.001044
# 5 0.001084 -0.002689 0.006915 0.003478 0.021965 -0.002692
# 6 0.003965 0.007100 -0.006203 -0.001044 -0.002692 0.020156
#
#
# Mechanical properties :
#
#
# Convention : Reuss Voigt Hill
#
# Bulk Modulus (GPa) = 67.87388 84.93538 76.40463
# Shear Modulus (GPa) = 38.38204 51.63150 45.00677
#
# Velocity S-wave (km/s) = 3.82829 4.44016 4.14553
# Velocity P-wave (km/s) = 6.74226 7.66279 7.21722
#
# Compressibility (1/GPa) = 0.01473321
#
# Stress axis : x y z
#
# Youngs Moduli (GPa) = 86.44676 90.44517 63.50407
#
# Poissons Ratio (x) = 0.03183 0.37312
# Poissons Ratio (y) = 0.03042 0.35509
# Poissons Ratio (z) = 0.50792 0.50574
#
# Static dielectric constant tensor:
#      x y z
#    x 2.040230 -0.073450 0.076910 
#    y -0.073450 2.065280 -0.024930 
#    z 0.076910 -0.024930 2.008610 
# 
# From -- ./inp_files/340617.got.cif
#   From: 2010.05.17/outbox.cif.g08.bks.cpg/sg2_171_cif.got.tgz:340617.got - 2010.06.03 11:33:40.
