data_PCOD9083426
_publ_section_title
;
Structure prediction by ZEFSAII (Michael W. Deem and Ramdas Pophale) SiO2 
 PCOD9083426
Probable space group: P -1
;
_chemical_formula_sum "Si O2"
_cell_formula_units_Z 14
_cell_length_a 11.125095
_cell_length_b 7.668561
_cell_length_c 12.538660
_cell_angle_alpha 98.941684
_cell_angle_beta 38.679811
_cell_angle_gamma 87.256850
_cell_volume 635.128774
_symmetry_space_group_name_H-M "P -1"
_symmetry_group_IT_number 2
_symmetry_cell_setting 'triclinic'
loop_
_space_group_symop_operation_xyz
x,y,z
-x,-y,-z
loop_
_atom_site_type_symbol
_atom_site_label
_atom_site_fract_x
_atom_site_fract_y
_atom_site_fract_z
Si Si1 0.295775 0.302801 0.491854
Si Si2 0.044910 0.881503 0.352695
Si Si3 0.623200 0.924860 0.192906
Si Si4 0.827157 0.660843 0.189460
Si Si5 0.495069 0.267734 0.936209
Si Si6 0.913863 0.075930 0.898401
Si Si7 0.504394 0.380703 0.157694
O O1 0.527470 0.889992 0.639549
O O2 0.249879 0.393287 0.648814
O O3 0.365678 0.417212 0.361276
O O4 0.101619 0.245417 0.578879
O O5 0.272355 0.768740 0.201511
O O6 0.030570 0.001319 0.266081
O O7 0.000000 0.000000 0.500000
O O8 0.652405 0.754175 0.236381
O O9 0.542711 0.888099 0.128403
O O10 0.844602 0.943757 0.014542
O O11 0.920267 0.828275 0.171298
O O12 0.000000 0.500000 0.000000
O O13 0.441578 0.447927 0.917576
O O14 0.403072 0.296182 0.121428
O O15 0.709389 0.238965 0.040052
#
# Coordination Sequence:
#
# PCOD9083426 Si02
#       7
#     2   2   2   2   2   2   2
#     4  10  22  39  61  85 115 153 197 241 278 343
#     4  10  19  34  55  87 120 142 185 234 284 337
#     4  11  21  38  63  84 114 153 200 231 288 342
#     4  11  23  42  59  83 118 153 193 244 293 334
#     4  10  20  35  59  87 118 157 179 239 291 344
#     4   9  21  37  59  83 114 151 190 237 283 342
#     4   9  20  38  58  86 121 146 196 230 291 347
#
# _framework density 22.042774000000001
#
# number of rings (size 3 to 8) (size 9 to 14) (size 15 to 20)
#    0.000    2.000    1.429    1.714    2.000    3.429 
#    2.571    7.857    0.000    0.000    0.000    0.000 
#    0.000    0.000    0.000    0.000    0.000    0.000 
#
# Total GULP energy -78098.002475 kJ/mol
# GULP energy per Si atom -5578.428748 kJ/mol
# Density = 2.199260 g / cm^3
# Si number density = 22.042774 Si / 1000 Ang^3
#
#
#
# Elastic Constant Matrix: (Units=GPa)
#
#
# Indices 1 2 3 4 5 6 
#
# 1 75.9216 -0.1388 26.1521 -2.6199 24.5900 0.1534
# 2 -0.1388 26.5026 10.8455 6.7832 16.7478 -11.1965
# 3 26.1521 10.8455 119.3143 0.9475 40.7454 -1.2256
# 4 -2.6199 6.7832 0.9475 32.6358 5.0458 8.4049
# 5 24.5900 16.7478 40.7454 5.0458 41.8369 -5.2603
# 6 0.1534 -11.1965 -1.2256 8.4049 -5.2603 24.4944
#
#
#
# Elastic Compliance Matrix: (Units=1/GPa)
#
#
# Indices 1 2 3 4 5 6 
#
# 1 0.017826 0.008691 0.000183 0.001788 -0.014329 0.000179
# 2 0.008691 0.076188 0.002319 -0.019362 -0.031149 0.034842
# 3 0.000183 0.002319 0.012898 0.001834 -0.014064 -0.001945
# 4 0.001788 -0.019362 0.001834 0.041301 -0.003034 -0.023593
# 5 -0.014329 -0.031149 -0.014064 -0.003034 0.058705 -0.001204
# 6 0.000179 0.034842 -0.001945 -0.023593 -0.001204 0.064491
#
#
# Mechanical properties :
#
#
# Convention : Reuss Voigt Hill
#
# Bulk Modulus (GPa) = 7.73399 32.82846 20.28122
# Shear Modulus (GPa) = 17.11606 32.11872 24.61739
#
# Velocity S-wave (km/s) = 2.78959 3.82135 3.34548
# Velocity P-wave (km/s) = 3.72719 5.86478 4.91364
#
# Compressibility (1/GPa) = 0.12929933
#
# Stress axis : x y z
#
# Youngs Moduli (GPa) = 56.09673 13.12538 77.52907
#
# Poissons Ratio (x) = -0.11407 -0.01423
# Poissons Ratio (y) = -0.48754 -0.17977
# Poissons Ratio (z) = -0.01029 -0.03043
#
# Static dielectric constant tensor:
#      x y z
#    x 1.833220 0.018650 0.033550 
#    y 0.018650 1.909500 -0.012610 
#    z 0.033550 -0.012610 1.901540 
# 
# From -- ./inp_files/417275.got.cif
#   From: 2010.05.17/outbox.cif.g08.bks.cpg/sg2_209_cif.got.tgz:417275.got - 2010.06.03 11:33:40.
