data_PCOD9083378
_publ_section_title
;
Structure prediction by ZEFSAII (Michael W. Deem and Ramdas Pophale) SiO2 
 PCOD9083378
Probable space group: P -1
;
_chemical_formula_sum "Si O2"
_cell_formula_units_Z 16
_cell_length_a 5.484608
_cell_length_b 11.653138
_cell_length_c 13.772524
_cell_angle_alpha 93.894347
_cell_angle_beta 104.097833
_cell_angle_gamma 65.982277
_cell_volume 779.329264
_symmetry_space_group_name_H-M "P -1"
_symmetry_group_IT_number 2
_symmetry_cell_setting 'triclinic'
loop_
_space_group_symop_operation_xyz
x,y,z
-x,-y,-z
loop_
_atom_site_type_symbol
_atom_site_label
_atom_site_fract_x
_atom_site_fract_y
_atom_site_fract_z
Si Si1 0.939600 0.610489 0.139218
Si Si2 0.095729 0.860015 0.454284
Si Si3 0.147270 0.975334 0.911892
Si Si4 0.548909 0.477469 0.118853
Si Si5 0.202878 0.133631 0.771061
Si Si6 0.367302 0.263880 0.078999
Si Si7 0.347158 0.148107 0.463509
Si Si8 0.248418 0.118620 0.229756
O O1 0.812678 0.512133 0.158447
O O2 0.807626 0.728797 0.205766
O O3 0.270326 0.560720 0.157056
O O4 0.832721 0.654941 0.020776
O O5 0.422776 0.798602 0.491907
O O6 0.996834 0.868639 0.334813
O O7 0.924382 0.797860 0.494482
O O8 0.000000 0.000000 0.500000
O O9 0.011207 0.912513 0.819188
O O10 0.450463 0.873214 0.953770
O O11 0.110834 0.102635 0.864315
O O12 0.000000 0.000000 0.000000
O O13 0.556683 0.338779 0.127734
O O14 0.500000 0.500000 0.000000
O O15 0.489997 0.014739 0.772174
O O16 0.247758 0.224989 0.160712
O O17 0.271316 0.154636 0.344103
O O18 0.500000 0.000000 0.500000
#
# Coordination Sequence:
#
# PCOD9083378 Si02
#       8
#     2   2   2   2   2   2   2   2
#     4  11  24  39  61  86 115 159 198 248 287 334
#     4  10  19  35  55  80 116 150 188 237 280 356
#     4  11  23  34  55  82 129 158 187 228 297 363
#     4  10  23  41  62  80 110 159 211 247 278 326
#     4  11  23  35  56  89 122 153 194 238 301 357
#     4  10  23  38  56  84 116 159 200 240 283 346
#     4  10  19  34  55  79 117 145 194 229 283 349
#     4  11  22  34  57  86 121 158 188 237 296 358
#
# _framework density 20.530474000000002
#
# number of rings (size 3 to 8) (size 9 to 14) (size 15 to 20)
#    0.000    1.500    2.500    4.500   12.250    2.000 
#    0.000    0.000    0.000    0.000    0.000    5.250 
#    0.000    0.000    0.000    0.000    0.000    0.000 
#
# Total GULP energy -89253.289285 kJ/mol
# GULP energy per Si atom -5578.330580 kJ/mol
# Density = 2.048375 g / cm^3
# Si number density = 20.530474 Si / 1000 Ang^3
#
#
#
# Elastic Constant Matrix: (Units=GPa)
#
#
# Indices 1 2 3 4 5 6 
#
# 1 119.7053 13.7555 23.9426 0.5849 -2.2915 4.5781
# 2 13.7555 65.3240 11.9987 7.4142 3.0792 12.5792
# 3 23.9426 11.9987 88.8661 5.2306 5.4944 -2.2813
# 4 0.5849 7.4142 5.2306 11.4713 1.6661 0.3729
# 5 -2.2915 3.0792 5.4944 1.6661 31.5530 1.6847
# 6 4.5781 12.5792 -2.2813 0.3729 1.6847 29.5146
#
#
#
# Elastic Compliance Matrix: (Units=1/GPa)
#
#
# Indices 1 2 3 4 5 6 
#
# 1 0.009066 -0.001484 -0.002430 0.001464 0.001205 -0.001049
# 2 -0.001484 0.018668 -0.001636 -0.010899 -0.000659 -0.007677
# 3 -0.002430 -0.001636 0.012569 -0.004318 -0.002096 0.002220
# 4 0.001464 -0.010899 -0.004318 0.096498 -0.003337 0.003056
# 5 0.001205 -0.000659 -0.002096 -0.003337 0.032486 -0.001880
# 6 -0.001049 -0.007677 0.002220 0.003056 -0.001880 0.037557
#
#
# Mechanical properties :
#
#
# Convention : Reuss Voigt Hill
#
# Bulk Modulus (GPa) = 34.24121 41.47656 37.85888
# Shear Modulus (GPa) = 21.96093 29.45436 25.70764
#
# Velocity S-wave (km/s) = 3.27414 3.79181 3.54244
# Velocity P-wave (km/s) = 5.56846 6.27827 5.93399
#
# Compressibility (1/GPa) = 0.02920457
#
# Stress axis : x y z
#
# Youngs Moduli (GPa) = 110.29726 53.56883 79.55999
#
# Poissons Ratio (x) = 0.07948 0.19333
# Poissons Ratio (y) = 0.16365 0.13013
# Poissons Ratio (z) = 0.26802 0.08762
#
# Static dielectric constant tensor:
#      x y z
#    x 1.844710 -0.019480 0.009230 
#    y -0.019480 1.744790 0.001920 
#    z 0.009230 0.001920 1.702690 
# 
# From -- ./inp_files/80698.got.cif
#   From: 2010.05.17/outbox.cif.g08.bks.cpg/sg2_41_cif.got.tgz:80698.got - 2010.06.03 11:33:40.
