data_PCOD9083110
_publ_section_title
;
Structure prediction by ZEFSAII (Michael W. Deem and Ramdas Pophale) SiO2 
 PCOD9083110
Probable space group: P -1
;
_chemical_formula_sum "Si O2"
_cell_formula_units_Z 16
_cell_length_a 12.226133
_cell_length_b 10.046955
_cell_length_c 15.747073
_cell_angle_alpha 83.978108
_cell_angle_beta 70.100534
_cell_angle_gamma 143.663132
_cell_volume 789.769705
_symmetry_space_group_name_H-M "P -1"
_symmetry_group_IT_number 2
_symmetry_cell_setting 'triclinic'
loop_
_space_group_symop_operation_xyz
x,y,z
-x,-y,-z
loop_
_atom_site_type_symbol
_atom_site_label
_atom_site_fract_x
_atom_site_fract_y
_atom_site_fract_z
Si Si1 0.521514 0.132355 0.711762
Si Si2 0.684194 0.323968 0.137915
Si Si3 0.286535 0.347420 0.870252
Si Si4 0.548332 0.768198 0.432674
Si Si5 0.924549 0.444996 0.906556
Si Si6 0.738113 0.679814 0.320787
Si Si7 0.844647 0.520401 0.768778
Si Si8 0.667461 0.611390 0.870597
O O1 0.586833 0.270630 0.596453
O O2 0.684218 0.352472 0.734675
O O3 0.530436 0.979380 0.728686
O O4 0.197444 0.816006 0.823972
O O5 0.645569 0.437681 0.123582
O O6 0.962813 0.584937 0.097993
O O7 0.722913 0.284593 0.042219
O O8 0.293608 0.374123 0.766597
O O9 0.501649 0.466769 0.839272
O O10 0.000000 0.000000 0.000000
O O11 0.593509 0.670589 0.382532
O O12 0.380979 0.561203 0.574298
O O13 0.843550 0.126735 0.353698
O O14 0.834155 0.377105 0.839730
O O15 0.049105 0.022764 0.233710
O O16 0.731341 0.519974 0.860261
O O17 0.500000 0.500000 0.000000
#
# Coordination Sequence:
#
# PCOD9083110 Si02
#       8
#     2   2   2   2   2   2   2   2
#     4   9  18  34  56  81 110 147 190 249 275 322
#     4   9  20  37  52  83 119 152 193 234 289 342
#     4  12  24  37  59  83 122 157 182 230 300 357
#     4   9  20  39  61  84 117 146 201 242 279 337
#     4   8  18  34  53  80 118 146 194 240 277 334
#     4  10  22  39  59  86 117 157 186 242 290 337
#     4  10  19  33  63  87 110 151 198 235 291 336
#     4  11  22  35  55  92 119 150 189 231 294 358
#
# _framework density 20.259069
#
# number of rings (size 3 to 8) (size 9 to 14) (size 15 to 20)
#    0.750    1.500    1.250    1.500    5.250    1.500 
#    2.250    4.375    0.000    1.500    0.000    0.000 
#    0.000    0.000    0.000    0.000    0.000    0.000 
#
# Total GULP energy -89152.091399 kJ/mol
# GULP energy per Si atom -5572.005712 kJ/mol
# Density = 2.021296 g / cm^3
# Si number density = 20.259069 Si / 1000 Ang^3
#
#
#
# Elastic Constant Matrix: (Units=GPa)
#
#
# Indices 1 2 3 4 5 6 
#
# 1 53.1794 5.4193 14.7364 -5.7261 20.8305 9.8425
# 2 5.4193 60.3516 9.5957 3.9461 7.4487 24.8016
# 3 14.7364 9.5957 81.3355 8.6636 28.5461 9.4682
# 4 -5.7261 3.9461 8.6636 15.9561 3.8588 8.7229
# 5 20.8305 7.4487 28.5461 3.8588 33.2725 3.9724
# 6 9.8425 24.8016 9.4682 8.7229 3.9724 33.7000
#
#
#
# Elastic Compliance Matrix: (Units=1/GPa)
#
#
# Indices 1 2 3 4 5 6 
#
# 1 0.033352 0.005444 0.001026 0.025584 -0.023816 -0.017851
# 2 0.005444 0.025361 0.000319 0.009343 -0.007836 -0.021839
# 3 0.001026 0.000319 0.018334 -0.004412 -0.015609 -0.002703
# 4 0.025584 0.009343 -0.004412 0.096538 -0.021270 -0.035589
# 5 -0.023816 -0.007836 -0.015609 -0.021270 0.060733 0.015455
# 6 -0.017851 -0.021839 -0.002703 -0.035589 0.015455 0.059109
#
#
# Mechanical properties :
#
#
# Convention : Reuss Voigt Hill
#
# Bulk Modulus (GPa) = 11.03430 28.26325 19.64878
# Shear Modulus (GPa) = 16.12607 27.59341 21.85974
#
# Velocity S-wave (km/s) = 2.82439 3.69457 3.28839
# Velocity P-wave (km/s) = 4.01182 5.67283 4.91303
#
# Compressibility (1/GPa) = 0.09062652
#
# Stress axis : x y z
#
# Youngs Moduli (GPa) = 29.98286 39.43088 54.54276
#
# Poissons Ratio (x) = -0.21468 -0.05598
# Poissons Ratio (y) = -0.16324 -0.01739
# Poissons Ratio (z) = -0.03077 -0.01257
#
# Static dielectric constant tensor:
#      x y z
#    x 1.728610 0.008040 0.014870 
#    y 0.008040 1.710370 -0.007060 
#    z 0.014870 -0.007060 1.721810 
# 
# From -- ./inp_files/531157.got.cif
#   From: 2010.05.17/outbox.cif.g08.bks.cpg/sg2_266_cif.got.tgz:531157.got - 2010.06.03 11:33:40.
