data_PCOD9083847
_publ_section_title
;
Structure prediction by ZEFSAII (Michael W. Deem and Ramdas Pophale) SiO2 
 PCOD9083847
Probable space group: P -1
;
_chemical_formula_sum "Si O2"
_cell_formula_units_Z 16
_cell_length_a 9.345738
_cell_length_b 24.156565
_cell_length_c 16.003842
_cell_angle_alpha 158.334206
_cell_angle_beta 30.288152
_cell_angle_gamma 148.323285
_cell_volume 649.504581
_symmetry_space_group_name_H-M "P -1"
_symmetry_group_IT_number 2
_symmetry_cell_setting 'triclinic'
loop_
_space_group_symop_operation_xyz
x,y,z
-x,-y,-z
loop_
_atom_site_type_symbol
_atom_site_label
_atom_site_fract_x
_atom_site_fract_y
_atom_site_fract_z
Si Si1 0.643523 0.900885 0.986323
Si Si2 0.538110 0.954782 0.296389
Si Si3 0.218690 0.383363 0.569266
Si Si4 0.098177 0.962965 0.123454
Si Si5 0.437526 0.598700 0.271038
Si Si6 0.865795 0.286003 0.936715
Si Si7 0.437869 0.736549 0.639834
Si Si8 0.580729 0.292309 0.744859
O O1 0.752115 0.748259 0.695753
O O2 0.737283 0.010106 0.013186
O O3 0.288635 0.836799 0.087101
O O4 0.720314 0.965259 0.131196
O O5 0.430439 0.110861 0.569108
O O6 0.284406 0.798853 0.191047
O O7 0.763849 0.950693 0.250612
O O8 0.465639 0.379547 0.507891
O O9 0.883219 0.323499 0.688396
O O10 0.235013 0.557200 0.777611
O O11 0.269464 0.116493 0.302268
O O12 0.180630 0.812358 0.905444
O O13 0.351617 0.657113 0.483396
O O14 0.310211 0.656157 0.332714
O O15 0.788064 0.672288 0.185818
O O16 0.399149 0.414166 0.031111
#
# Coordination Sequence:
#
# PCOD9083847 Si02
#       8
#     2   2   2   2   2   2   2   2
#     4   9  18  31  60  83 112 144 179 243 277 321
#     4  10  19  34  58  87 109 144 182 247 273 324
#     4  10  19  38  57  88 110 151 190 230 280 337
#     4  10  19  36  57  92 105 145 197 230 283 327
#     4  10  22  38  55  88 111 155 184 232 276 338
#     4   9  22  33  55  86 120 145 185 230 292 324
#     4  10  21  35  63  78 119 144 192 232 274 339
#     4  10  20  36  60  80 114 142 205 224 267 332
#
# _framework density 24.634159
#
# number of rings (size 3 to 8) (size 9 to 14) (size 15 to 20)
#    0.750    1.500    2.500    1.500    1.750    2.500 
#    0.000    1.250    0.000    3.000    0.000    0.000 
#    0.000    0.000    0.000    0.000    0.000    0.000 
#
# Total GULP energy -89334.465466 kJ/mol
# GULP energy per Si atom -5583.404092 kJ/mol
# Density = 2.457809 g / cm^3
# Si number density = 24.634159 Si / 1000 Ang^3
#
#
#
# Elastic Constant Matrix: (Units=GPa)
#
#
# Indices 1 2 3 4 5 6 
#
# 1 100.4094 8.3326 47.6147 11.4918 2.0713 4.9240
# 2 8.3326 50.1330 0.5040 4.0843 -4.2809 3.8143
# 3 47.6147 0.5040 92.6408 8.1102 8.3811 2.1371
# 4 11.4918 4.0843 8.1102 16.6217 9.0660 10.9321
# 5 2.0713 -4.2809 8.3811 9.0660 42.8039 -8.6313
# 6 4.9240 3.8143 2.1371 10.9321 -8.6313 33.7262
#
#
#
# Elastic Compliance Matrix: (Units=1/GPa)
#
#
# Indices 1 2 3 4 5 6 
#
# 1 0.014183 -0.001464 -0.006791 -0.009188 0.002896 0.002244
# 2 -0.001464 0.021024 0.000919 -0.007443 0.003805 0.001164
# 3 -0.006791 0.000919 0.014600 -0.001365 -0.002180 -0.000153
# 4 -0.009188 -0.007443 -0.001365 0.116213 -0.033515 -0.043977
# 5 0.002896 0.003805 -0.002180 -0.033515 0.034980 0.019101
# 6 0.002244 0.001164 -0.000153 -0.043977 0.019101 0.048344
#
#
# Mechanical properties :
#
#
# Convention : Reuss Voigt Hill
#
# Bulk Modulus (GPa) = 28.46268 39.56508 34.01388
# Shear Modulus (GPa) = 18.13384 31.07916 24.60650
#
# Velocity S-wave (km/s) = 2.71611 3.55579 3.16393
# Velocity P-wave (km/s) = 4.62769 5.74057 5.21391
#
# Compressibility (1/GPa) = 0.03513373
#
# Stress axis : x y z
#
# Youngs Moduli (GPa) = 70.50803 47.56526 68.49331
#
# Poissons Ratio (x) = 0.06964 0.46514
# Poissons Ratio (y) = 0.10323 -0.06292
# Poissons Ratio (z) = 0.47882 -0.04369
#
# Static dielectric constant tensor:
#      x y z
#    x 2.002940 0.010080 0.018990 
#    y 0.010080 2.029720 -0.012370 
#    z 0.018990 -0.012370 1.921350 
# 
# From -- ./inp_files/563424.got.cif
#   From: 2010.05.17/outbox.cif.g08.bks.cpg/sg2_282_cif.got.tgz:563424.got - 2010.06.03 11:33:40.
