data_PCOD9083291
_publ_section_title
;
Structure prediction by ZEFSAII (Michael W. Deem and Ramdas Pophale) SiO2 
 PCOD9083291
Probable space group: P -1
;
_chemical_formula_sum "Si O2"
_cell_formula_units_Z 14
_cell_length_a 13.347016
_cell_length_b 15.471397
_cell_length_c 19.142474
_cell_angle_alpha 29.200471
_cell_angle_beta 16.484507
_cell_angle_gamma 29.362109
_cell_volume 529.949590
_symmetry_space_group_name_H-M "P -1"
_symmetry_group_IT_number 2
_symmetry_cell_setting 'triclinic'
loop_
_space_group_symop_operation_xyz
x,y,z
-x,-y,-z
loop_
_atom_site_type_symbol
_atom_site_label
_atom_site_fract_x
_atom_site_fract_y
_atom_site_fract_z
Si Si1 0.337957 0.614088 0.890839
Si Si2 0.103816 0.450995 0.647722
Si Si3 0.317531 0.023718 0.937924
Si Si4 0.310221 0.413089 0.910316
Si Si5 0.243835 0.144282 0.513800
Si Si6 0.688757 0.307034 0.468275
Si Si7 0.693677 0.173393 0.057075
O O1 0.323194 0.551265 0.867032
O O2 0.718413 0.664531 0.613654
O O3 0.198742 0.488059 0.130613
O O4 0.024428 0.802454 0.975524
O O5 0.304996 0.597088 0.378164
O O6 0.452613 0.319455 0.546144
O O7 0.900990 0.336596 0.813680
O O8 0.614161 0.134858 0.680856
O O9 0.402823 0.885086 0.913708
O O10 0.132019 0.915607 0.193560
O O11 0.000000 0.500000 0.000000
O O12 0.103632 0.280472 0.184258
O O13 0.396220 0.165881 0.320114
O O14 0.500000 0.000000 0.500000
O O15 0.500000 0.500000 0.500000
O O16 0.000000 0.000000 0.000000
#
# Coordination Sequence:
#
# PCOD9083291 Si02
#       7
#     2   2   2   2   2   2   2
#     4   9  15  23  27  35  40  41  52  59  63  68
#     4   9  17  23  30  32  40  44  50  61  60  68
#     4  10  17  22  29  32  43  43  49  60  61  68
#     4  10  18  21  28  31  38  50  53  52  62  68
#     4   9  16  20  31  35  38  44  47  60  68  66
#     4  10  16  23  24  31  41  48  51  53  57  71
#     4  11  15  22  29  39  36  40  54  58  65  67
#
# _framework density 26.417607
#
# number of rings (size 3 to 8) (size 9 to 14) (size 15 to 20)
#    0.000    2.286    8.571    0.857    2.000    0.000 
#    0.000    0.000    0.000    0.000    0.000    0.000 
#    0.000    0.000    0.000    0.000    0.000    0.000 
#
# Total GULP energy -78029.787366 kJ/mol
# GULP energy per Si atom -5573.556240 kJ/mol
# Density = 2.635748 g / cm^3
# Si number density = 26.417607 Si / 1000 Ang^3
#
#
#
# Elastic Constant Matrix: (Units=GPa)
#
#
# Indices 1 2 3 4 5 6 
#
# 1 85.8016 28.2868 49.8229 -8.8812 13.0666 1.2280
# 2 28.2868 96.0446 51.3183 -11.2881 9.2454 10.6069
# 3 49.8229 51.3183 282.8610 -39.4885 13.8832 -10.1991
# 4 -8.8812 -11.2881 -39.4885 43.9316 -10.1429 2.8726
# 5 13.0666 9.2454 13.8832 -10.1429 60.1558 -4.4234
# 6 1.2280 10.6069 -10.1991 2.8726 -4.4234 33.0919
#
#
#
# Elastic Compliance Matrix: (Units=1/GPa)
#
#
# Indices 1 2 3 4 5 6 
#
# 1 0.014024 -0.002876 -0.001865 -0.000062 -0.002218 -0.000464
# 2 -0.002876 0.013011 -0.001808 0.001198 -0.001114 -0.004874
# 3 -0.001865 -0.001808 0.004710 0.003339 0.000295 0.001850
# 4 -0.000062 0.001198 0.003339 0.026951 0.003513 -0.001222
# 5 -0.002218 -0.001114 0.000295 0.003513 0.017994 0.002631
# 6 -0.000464 -0.004874 0.001850 -0.001222 0.002631 0.032826
#
#
# Mechanical properties :
#
#
# Convention : Reuss Voigt Hill
#
# Bulk Modulus (GPa) = 53.62639 80.39591 67.01115
# Shear Modulus (GPa) = 38.81079 49.78781 44.29930
#
# Velocity S-wave (km/s) = 3.83708 4.34596 4.09942
# Velocity P-wave (km/s) = 6.32253 7.46203 6.91579
#
# Compressibility (1/GPa) = 0.01864754
#
# Stress axis : x y z
#
# Youngs Moduli (GPa) = 71.30646 76.85704 212.30674
#
# Poissons Ratio (x) = 0.22107 0.39592
# Poissons Ratio (y) = 0.20510 0.38379
# Poissons Ratio (z) = 0.13298 0.13893
#
# Static dielectric constant tensor:
#      x y z
#    x 0.313440 0.640410 -0.050640 
#    y 0.640410 1.892930 0.015880 
#    z -0.050640 0.015880 2.182650 
# 
# From -- ./inp_files/619805.got.cif
#   From: 2010.05.17/outbox.cif.g08.bks.cpg/sg2_310_cif.got.tgz:619805.got - 2010.06.03 11:33:40.
