data_PCOD9083923
_publ_section_title
;
Structure prediction by ZEFSAII (Michael W. Deem and Ramdas Pophale) SiO2 
 PCOD9083923
Probable space group: P -1
;
_chemical_formula_sum "Si O2"
_cell_formula_units_Z 15
_cell_length_a 14.191735
_cell_length_b 14.165167
_cell_length_c 5.046201
_cell_angle_alpha 82.157892
_cell_angle_beta 90.073599
_cell_angle_gamma 31.668580
_cell_volume 513.979737
_symmetry_space_group_name_H-M "P -1"
_symmetry_group_IT_number 2
_symmetry_cell_setting 'triclinic'
loop_
_space_group_symop_operation_xyz
x,y,z
-x,-y,-z
loop_
_atom_site_type_symbol
_atom_site_label
_atom_site_fract_x
_atom_site_fract_y
_atom_site_fract_z
Si Si1 0.626284 0.808273 0.953797
Si Si2 0.008157 0.198852 0.238635
Si Si3 0.711375 0.390975 0.781702
Si Si4 0.649461 0.256826 0.029887
Si Si5 0.042460 0.383334 0.767447
Si Si6 0.741537 0.548284 0.439260
Si Si7 0.000000 0.000000 0.500000
Si Si8 0.308320 0.989749 0.673291
O O1 0.830100 0.677790 0.982511
O O2 0.635899 0.718945 0.211653
O O3 0.500000 0.000000 0.000000
O O4 0.505553 0.868706 0.695344
O O5 0.896441 0.382658 0.289884
O O6 0.973978 0.137587 0.446394
O O7 0.218708 0.041010 0.369864
O O8 0.913121 0.245745 0.950086
O O9 0.557444 0.541673 0.951494
O O10 0.651100 0.526061 0.525186
O O11 0.700256 0.285485 0.772026
O O12 0.808550 0.154917 0.265501
O O13 0.671128 0.124009 0.106202
O O14 0.176512 0.181703 0.739820
O O15 0.000000 0.500000 0.500000
O O16 0.846829 0.498853 0.716280
#
# Coordination Sequence:
#
# PCOD9083923 Si02
#       8
#     2   2   2   2   2   2   1   2
#     4   9  17  32  55  80 109 141 178 230 279 317
#     4   9  18  34  54  77 109 144 179 224 267 311
#     4  10  20  35  55  82 114 144 183 222 265 327
#     4   9  18  34  52  76 114 148 175 224 271 316
#     4   8  16  31  54  78 104 138 179 230 277 313
#     4  10  19  34  59  83 106 146 186 219 272 335
#     4   8  16  34  52  72 108 146 176 214 268 310
#     4   9  16  31  55  77 104 148 183 213 278 328
#
# _framework density 29.18403
#
# number of rings (size 3 to 8) (size 9 to 14) (size 15 to 20)
#    0.000    2.933    0.000    0.800    0.000    0.000 
#    0.000   33.333    0.000   52.800    0.000    0.000 
#    0.000    0.000    0.000    0.000    0.000    0.000 
#
# Total GULP energy -83631.186377 kJ/mol
# GULP energy per Si atom -5575.412425 kJ/mol
# Density = 2.911761 g / cm^3
# Si number density = 29.184030 Si / 1000 Ang^3
#
#
#
# Elastic Constant Matrix: (Units=GPa)
#
#
# Indices 1 2 3 4 5 6 
#
# 1 165.9714 63.7267 52.3962 -19.7084 34.1885 13.2331
# 2 63.7267 96.8847 47.9750 -49.6461 -1.9550 14.0831
# 3 52.3962 47.9750 103.2100 -9.7884 -9.1111 22.4000
# 4 -19.7084 -49.6461 -9.7884 46.8392 14.4858 -6.6645
# 5 34.1885 -1.9550 -9.1111 14.4858 75.2929 -27.9037
# 6 13.2331 14.0831 22.4000 -6.6645 -27.9037 57.8885
#
#
#
# Elastic Compliance Matrix: (Units=1/GPa)
#
#
# Indices 1 2 3 4 5 6 
#
# 1 0.010456 -0.005424 -0.002708 -0.000413 -0.006286 -0.003100
# 2 -0.005424 0.040821 -0.012476 0.040073 -0.006597 -0.002430
# 3 -0.002708 -0.012476 0.016499 -0.012618 0.004602 -0.001965
# 4 -0.000413 0.040073 -0.012618 0.064847 -0.014338 -0.004218
# 5 -0.006286 -0.006597 0.004602 -0.014338 0.023297 0.010840
# 6 -0.003100 -0.002430 -0.001965 -0.004218 0.010840 0.024074
#
#
# Mechanical properties :
#
#
# Convention : Reuss Voigt Hill
#
# Bulk Modulus (GPa) = 37.65051 77.14022 57.39537
# Shear Modulus (GPa) = 21.73311 49.46865 35.60088
#
# Velocity S-wave (km/s) = 2.73186 4.12158 3.49646
# Velocity P-wave (km/s) = 4.78329 7.00996 6.00081
#
# Compressibility (1/GPa) = 0.02656007
#
# Stress axis : x y z
#
# Youngs Moduli (GPa) = 95.64284 24.49690 60.61074
#
# Poissons Ratio (x) = 0.13288 0.16412
# Poissons Ratio (y) = 0.51879 0.75617
# Poissons Ratio (z) = 0.25898 0.30562
#
# Static dielectric constant tensor:
#      x y z
#    x 2.178390 0.041810 -0.005860 
#    y 0.041810 2.240070 0.052210 
#    z -0.005860 0.052210 2.264480 
# 
# From -- ./inp_files/97725.got.cif
#   From: 2010.05.17/outbox.cif.g08.bks.cpg/sg2_49_cif.got.tgz:97725.got - 2010.06.03 11:33:40.
