data_PCOD9083955
_publ_section_title
;
Structure prediction by ZEFSAII (Michael W. Deem and Ramdas Pophale) SiO2 
 PCOD9083955
Probable space group: P -1
;
_chemical_formula_sum "Si O2"
_cell_formula_units_Z 16
_cell_length_a 8.797871
_cell_length_b 9.229627
_cell_length_c 20.334562
_cell_angle_alpha 117.382986
_cell_angle_beta 39.709995
_cell_angle_gamma 129.823928
_cell_volume 808.411199
_symmetry_space_group_name_H-M "P -1"
_symmetry_group_IT_number 2
_symmetry_cell_setting 'triclinic'
loop_
_space_group_symop_operation_xyz
x,y,z
-x,-y,-z
loop_
_atom_site_type_symbol
_atom_site_label
_atom_site_fract_x
_atom_site_fract_y
_atom_site_fract_z
Si Si1 0.281016 0.950161 0.410170
Si Si2 0.025564 0.094678 0.080836
Si Si3 0.621409 0.256068 0.957841
Si Si4 0.592301 0.854885 0.858998
Si Si5 0.222332 0.291366 0.549355
Si Si6 0.811988 0.918682 0.250085
Si Si7 0.847328 0.619316 0.265665
Si Si8 0.572601 0.210463 0.249351
O O1 0.272377 0.112529 0.490338
O O2 0.356342 0.042367 0.331537
O O3 0.533265 0.926504 0.345738
O O4 0.994110 0.757669 0.449534
O O5 0.842732 0.192356 0.162701
O O6 0.345203 0.238813 0.017960
O O7 0.906557 0.938145 0.146312
O O8 0.000000 0.000000 0.000000
O O9 0.897607 0.387503 0.854369
O O10 0.593815 0.050846 0.911764
O O11 0.606873 0.282394 0.046311
O O12 0.501257 0.796532 0.803388
O O13 0.908232 0.906301 0.775510
O O14 0.500000 0.500000 0.500000
O O15 0.091196 0.288532 0.663737
O O16 0.772090 0.737365 0.264842
O O17 0.613963 0.403480 0.304818
#
# Coordination Sequence:
#
# PCOD9083955 Si02
#       8
#     2   2   2   2   2   2   2   2
#     4  10  22  43  69  91 118 159 205 248 315 363
#     4  10  19  34  59  85 118 164 213 240 294 366
#     4   9  18  34  53  83 118 161 198 246 293 350
#     4   9  17  34  57  81 123 161 198 235 298 362
#     4  11  23  44  69  91 119 156 205 261 307 365
#     4   9  21  39  59  91 120 159 200 246 302 367
#     4  11  23  38  58  90 128 155 206 256 306 361
#     4  11  21  36  61  91 120 166 202 249 306 363
#
# _framework density 19.791907999999999
#
# number of rings (size 3 to 8) (size 9 to 14) (size 15 to 20)
#    0.000    2.000    2.500    2.250    1.750    1.500 
#    2.250    0.625    0.000    0.000    0.000    0.000 
#    0.000    0.000    0.000    0.000    0.000    0.000 
#
# Total GULP energy -89150.179978 kJ/mol
# GULP energy per Si atom -5571.886249 kJ/mol
# Density = 1.974686 g / cm^3
# Si number density = 19.791908 Si / 1000 Ang^3
#
#
#
# Elastic Constant Matrix: (Units=GPa)
#
#
# Indices 1 2 3 4 5 6 
#
# 1 96.6955 28.8335 36.7659 1.3106 -5.8375 10.1480
# 2 28.8335 75.1641 26.1314 -1.4027 0.8278 8.7820
# 3 36.7659 26.1314 70.5343 -3.7495 -14.4061 3.9110
# 4 1.3106 -1.4027 -3.7495 23.1141 8.2015 2.4859
# 5 -5.8375 0.8278 -14.4061 8.2015 39.0577 -1.8999
# 6 10.1480 8.7820 3.9110 2.4859 -1.8999 16.7013
#
#
#
# Elastic Compliance Matrix: (Units=1/GPa)
#
#
# Indices 1 2 3 4 5 6 
#
# 1 0.014051 -0.002636 -0.006131 -0.001322 -0.000097 -0.005530
# 2 -0.002636 0.016979 -0.005120 0.002316 -0.003463 -0.006866
# 3 -0.006131 -0.005120 0.020559 0.000741 0.006729 0.002258
# 4 -0.001322 0.002316 0.000741 0.048310 -0.010555 -0.008980
# 5 -0.000097 -0.003463 0.006729 -0.010555 0.030621 0.005358
# 6 -0.005530 -0.006866 0.002258 -0.008980 0.005358 0.068264
#
#
# Mechanical properties :
#
#
# Convention : Reuss Voigt Hill
#
# Bulk Modulus (GPa) = 41.98980 47.31730 44.65355
# Shear Modulus (GPa) = 21.32234 25.81882 23.57058
#
# Velocity S-wave (km/s) = 3.28583 3.61572 3.45471
# Velocity P-wave (km/s) = 5.97137 6.43355 6.20676
#
# Compressibility (1/GPa) = 0.02381531
#
# Stress axis : x y z
#
# Youngs Moduli (GPa) = 71.16693 58.89660 48.64156
#
# Poissons Ratio (x) = 0.15526 0.29822
# Poissons Ratio (y) = 0.18761 0.24902
# Poissons Ratio (z) = 0.43633 0.30152
#
# Static dielectric constant tensor:
#      x y z
#    x 1.702450 0.010120 -0.018010 
#    y 0.010120 1.717650 -0.061140 
#    z -0.018010 -0.061140 1.748000 
# 
# From -- ./inp_files/215715.got.cif
#   From: 2010.05.17/outbox.cif.g08.bks.cpg/sg2_108_cif.got.tgz:215715.got - 2010.06.03 11:33:40.
