data_PCOD9083629
_publ_section_title
;
Structure prediction by ZEFSAII (Michael W. Deem and Ramdas Pophale) SiO2 
 PCOD9083629
Probable space group: P -1
;
_chemical_formula_sum "Si O2"
_cell_formula_units_Z 16
_cell_length_a 5.061891
_cell_length_b 8.492367
_cell_length_c 28.678480
_cell_angle_alpha 39.694336
_cell_angle_beta 89.227799
_cell_angle_gamma 87.188208
_cell_volume 785.871044
_symmetry_space_group_name_H-M "P -1"
_symmetry_group_IT_number 2
_symmetry_cell_setting 'triclinic'
loop_
_space_group_symop_operation_xyz
x,y,z
-x,-y,-z
loop_
_atom_site_type_symbol
_atom_site_label
_atom_site_fract_x
_atom_site_fract_y
_atom_site_fract_z
Si Si1 0.258932 0.750485 0.836283
Si Si2 0.093230 0.013563 0.391150
Si Si3 0.739851 0.699554 0.910645
Si Si4 0.063739 0.838596 0.963158
Si Si5 0.590809 0.971631 0.453360
Si Si6 0.827964 0.890710 0.330331
Si Si7 0.714846 0.792461 0.064896
Si Si8 0.692552 0.390003 0.576624
O O1 0.465079 0.792067 0.867697
O O2 0.360576 0.489383 0.871627
O O3 0.971643 0.732491 0.864524
O O4 0.244817 0.959040 0.749840
O O5 0.876248 0.064311 0.419541
O O6 0.948814 0.070955 0.328737
O O7 0.369934 0.098434 0.390297
O O8 0.173077 0.723644 0.445163
O O9 0.838972 0.833526 0.925906
O O10 0.743105 0.405631 0.989642
O O11 0.190494 0.098692 0.911165
O O12 0.938010 0.790150 0.024925
O O13 0.628779 0.678238 0.510771
O O14 0.500000 0.000000 0.500000
O O15 0.569611 0.758836 0.379106
O O16 0.075482 0.690567 0.368745
O O17 0.500000 0.000000 0.000000
#
# Coordination Sequence:
#
# PCOD9083629 Si02
#       8
#     2   2   2   2   2   2   2   2
#     4  11  22  37  58  83 110 152 196 236 278 341
#     4  10  20  37  58  85 114 150 188 231 274 334
#     4  10  21  34  58  82 114 140 187 242 293 337
#     4   9  20  34  53  86 110 142 179 245 304 338
#     4  12  22  34  60  94 117 141 180 240 298 326
#     4  10  21  36  62  77 110 154 204 222 264 337
#     4  10  19  34  57  82 113 145 187 243 293 337
#     4  10  20  37  62  83 112 148 191 236 264 338
#
# _framework density 20.359575
#
# number of rings (size 3 to 8) (size 9 to 14) (size 15 to 20)
#    0.750    1.000    2.500    2.625    1.750    1.500 
#    0.000    0.000    8.250    0.000    0.000    0.000 
#    0.000    0.000    0.000    0.000    0.000    0.000 
#
# Total GULP energy -89115.093316 kJ/mol
# GULP energy per Si atom -5569.693332 kJ/mol
# Density = 2.031324 g / cm^3
# Si number density = 20.359575 Si / 1000 Ang^3
#
#
#
# Elastic Constant Matrix: (Units=GPa)
#
#
# Indices 1 2 3 4 5 6 
#
# 1 102.6416 7.1838 28.8415 2.0173 13.3129 0.8718
# 2 7.1838 59.8863 1.2089 12.9313 3.9851 0.0689
# 3 28.8415 1.2089 74.3204 15.7924 16.5823 10.6089
# 4 2.0173 12.9313 15.7924 18.5509 2.8968 0.9785
# 5 13.3129 3.9851 16.5823 2.8968 25.2218 7.0902
# 6 0.8718 0.0689 10.6089 0.9785 7.0902 24.8156
#
#
#
# Elastic Compliance Matrix: (Units=1/GPa)
#
#
# Indices 1 2 3 4 5 6 
#
# 1 0.011698 -0.002132 -0.005100 0.005010 -0.003810 0.002666
# 2 -0.002132 0.021024 0.005199 -0.018296 -0.003366 -0.000523
# 3 -0.005100 0.005199 0.022583 -0.020582 -0.008887 -0.006139
# 4 0.005010 -0.018296 -0.020582 0.082932 0.002973 0.004555
# 5 -0.003810 -0.003366 -0.008887 0.002973 0.050688 -0.010657
# 6 0.002666 -0.000523 -0.006139 0.004555 -0.010657 0.045695
#
#
# Mechanical properties :
#
#
# Convention : Reuss Voigt Hill
#
# Bulk Modulus (GPa) = 19.51641 34.59076 27.05359
# Shear Modulus (GPa) = 19.54915 27.02527 23.28721
#
# Velocity S-wave (km/s) = 3.10206 3.64730 3.38567
# Velocity P-wave (km/s) = 4.73678 5.89609 5.34794
#
# Compressibility (1/GPa) = 0.05123894
#
# Stress axis : x y z
#
# Youngs Moduli (GPa) = 85.48535 47.56379 44.28192
#
# Poissons Ratio (x) = 0.10139 0.22584
# Poissons Ratio (y) = 0.18222 -0.23021
# Poissons Ratio (z) = 0.43598 -0.24727
#
# Static dielectric constant tensor:
#      x y z
#    x 1.791940 0.018960 0.013380 
#    y 0.018960 1.779780 0.014000 
#    z 0.013380 0.014000 1.738810 
# 
# From -- ./inp_files/621689.got.cif
#   From: 2010.05.17/outbox.cif.g08.bks.cpg/sg2_311_cif.got.tgz:621689.got - 2010.06.03 11:33:40.
