data_PCOD9083408
_publ_section_title
;
Structure prediction by ZEFSAII (Michael W. Deem and Ramdas Pophale) SiO2 
 PCOD9083408
Probable space group: P -1
;
_chemical_formula_sum "Si O2"
_cell_formula_units_Z 10
_cell_length_a 14.202944
_cell_length_b 6.691832
_cell_length_c 6.630433
_cell_angle_alpha 43.827090
_cell_angle_beta 123.623108
_cell_angle_gamma 106.450193
_cell_volume 355.914427
_symmetry_space_group_name_H-M "P -1"
_symmetry_group_IT_number 2
_symmetry_cell_setting 'triclinic'
loop_
_space_group_symop_operation_xyz
x,y,z
-x,-y,-z
loop_
_atom_site_type_symbol
_atom_site_label
_atom_site_fract_x
_atom_site_fract_y
_atom_site_fract_z
Si Si1 0.707208 0.488476 0.449201
Si Si2 0.455300 0.517094 0.198293
Si Si3 0.062561 0.171069 0.232097
Si Si4 0.300315 0.129638 0.434789
Si Si5 0.147965 0.097588 0.823830
O O1 0.572797 0.535408 0.205334
O O2 0.709248 0.657381 0.537959
O O3 0.803709 0.601600 0.347335
O O4 0.749177 0.147483 0.791028
O O5 0.500000 0.500000 0.500000
O O6 0.388711 0.246673 0.306735
O O7 0.360528 0.808464 0.820413
O O8 0.163734 0.177466 0.186222
O O9 0.129110 0.023006 0.617014
O O10 0.974281 0.970227 0.202745
O O11 0.000000 0.500000 0.000000
#
# Coordination Sequence:
#
# PCOD9083408 Si02
#       5
#     2   2   2   2   2
#     4  10  16  24  29  35  41  45  53  58  66  70
#     4  10  17  23  29  35  41  46  51  60  64  72
#     4  10  17  23  29  33  42  46  54  58  63  70
#     4  10  17  22  29  35  40  47  53  57  66  69
#     4  10  17  22  31  35  39  48  52  59  64  70
#
# _framework density 28.096641000000002
#
# number of rings (size 3 to 8) (size 9 to 14) (size 15 to 20)
#    0.000    2.000    4.000    8.400    2.800    0.000 
#    0.000    0.000    0.000    0.000    0.000    0.000 
#    0.000    0.000    0.000    0.000    0.000    0.000 
#
# Total GULP energy -55934.905590 kJ/mol
# GULP energy per Si atom -5593.490559 kJ/mol
# Density = 2.803269 g / cm^3
# Si number density = 28.096641 Si / 1000 Ang^3
#
#
#
# Elastic Constant Matrix: (Units=GPa)
#
#
# Indices 1 2 3 4 5 6 
#
# 1 219.9672 55.3296 61.5903 -4.4764 -5.3512 54.7632
# 2 55.3296 123.8956 15.2579 -1.4022 6.0374 52.7998
# 3 61.5903 15.2579 149.8602 -28.2229 1.8063 28.3886
# 4 -4.4764 -1.4022 -28.2229 42.0596 8.2400 7.8563
# 5 -5.3512 6.0374 1.8063 8.2400 55.7516 -2.9326
# 6 54.7632 52.7998 28.3886 7.8563 -2.9326 86.7201
#
#
#
# Elastic Compliance Matrix: (Units=1/GPa)
#
#
# Indices 1 2 3 4 5 6 
#
# 1 0.006051 -0.001598 -0.002036 -0.000536 0.000788 -0.002106
# 2 -0.001598 0.011694 0.001331 0.002837 -0.002244 -0.006879
# 3 -0.002036 0.001331 0.009354 0.007084 -0.001863 -0.003292
# 4 -0.000536 0.002837 0.007084 0.030896 -0.005507 -0.006693
# 5 0.000788 -0.002244 -0.001863 -0.005507 0.019268 0.002629
# 6 -0.002106 -0.006879 -0.003292 -0.006693 0.002629 0.018823
#
#
# Mechanical properties :
#
#
# Convention : Reuss Voigt Hill
#
# Bulk Modulus (GPa) = 44.45740 84.23095 64.34417
# Shear Modulus (GPa) = 46.21487 61.00930 53.61209
#
# Velocity S-wave (km/s) = 4.06008 4.66489 4.37296
# Velocity P-wave (km/s) = 6.15113 7.68499 6.96044
#
# Compressibility (1/GPa) = 0.02249344
#
# Stress axis : x y z
#
# Youngs Moduli (GPa) = 165.26864 85.51058 106.90396
#
# Poissons Ratio (x) = 0.13668 0.21760
# Poissons Ratio (y) = 0.26416 -0.14228
# Poissons Ratio (z) = 0.33641 -0.11380
#
# Static dielectric constant tensor:
#      x y z
#    x 2.311410 -0.017930 -0.122590 
#    y -0.017930 2.338160 0.127140 
#    z -0.122590 0.127140 2.164730 
# 
# From -- ./inp_files/61463.got.cif
#   From: 2010.05.17/outbox.cif.g08.bks.cpg/sg2_31_cif.got.tgz:61463.got - 2010.06.03 11:33:40.
