data_PCOD9083548
_publ_section_title
;
Structure prediction by ZEFSAII (Michael W. Deem and Ramdas Pophale) SiO2 
 PCOD9083548
Probable space group: P -1
;
_chemical_formula_sum "Si O2"
_cell_formula_units_Z 16
_cell_length_a 13.642041
_cell_length_b 7.852367
_cell_length_c 21.732580
_cell_angle_alpha 121.207431
_cell_angle_beta 161.625509
_cell_angle_gamma 59.305494
_cell_volume 626.151568
_symmetry_space_group_name_H-M "P -1"
_symmetry_group_IT_number 2
_symmetry_cell_setting 'triclinic'
loop_
_space_group_symop_operation_xyz
x,y,z
-x,-y,-z
loop_
_atom_site_type_symbol
_atom_site_label
_atom_site_fract_x
_atom_site_fract_y
_atom_site_fract_z
Si Si1 0.555761 0.900657 0.089374
Si Si2 0.018530 0.662859 0.870337
Si Si3 0.671770 0.822537 0.277335
Si Si4 0.133508 0.172948 0.323250
Si Si5 0.318091 0.331390 0.581780
Si Si6 0.452618 0.086193 0.298965
Si Si7 0.730961 0.301026 0.308795
Si Si8 0.886788 0.215659 0.685889
O O1 0.729239 0.816420 0.238242
O O2 0.784286 0.870964 0.163157
O O3 0.513615 0.132056 0.127486
O O4 0.235275 0.799386 0.875286
O O5 0.869731 0.769114 0.739301
O O6 0.880152 0.798610 0.868754
O O7 0.923408 0.437243 0.772810
O O8 0.390176 0.677842 0.091558
O O9 0.993600 0.777005 0.495259
O O10 0.534820 0.029550 0.266974
O O11 0.310921 0.314700 0.501213
O O12 0.213800 0.944525 0.352792
O O13 0.446984 0.518643 0.727528
O O14 0.955998 0.345436 0.393290
O O15 0.482817 0.128079 0.668654
O O16 0.671167 0.216657 0.496345
#
# Coordination Sequence:
#
# PCOD9083548 Si02
#       8
#     2   2   2   2   2   2   2   2
#     4  11  21  36  59  91 126 151 196 252 307 359
#     4  11  25  39  64  87 121 166 203 240 292 361
#     4  10  22  37  60  87 120 158 199 250 301 350
#     4  10  23  39  58  92 123 157 197 249 301 352
#     4   9  20  34  58  84 117 158 192 244 302 344
#     4  10  21  44  58  86 121 160 208 241 293 355
#     4  10  19  34  56  87 118 154 195 241 303 355
#     4  11  23  39  62  91 120 162 192 252 302 351
#
# _framework density 25.55292
#
# number of rings (size 3 to 8) (size 9 to 14) (size 15 to 20)
#    0.000    1.750    3.750    1.500    3.500    5.000 
#    0.000    1.250    0.000    3.750    0.000    0.000 
#    0.000    0.000    0.000    0.000    0.000    0.000 
#
# Total GULP energy -89460.602805 kJ/mol
# GULP energy per Si atom -5591.287675 kJ/mol
# Density = 2.549476 g / cm^3
# Si number density = 25.552920 Si / 1000 Ang^3
#
#
#
# Elastic Constant Matrix: (Units=GPa)
#
#
# Indices 1 2 3 4 5 6 
#
# 1 117.2558 36.8255 18.8842 2.0452 -21.6921 -2.5653
# 2 36.8255 142.4941 23.7036 18.5498 2.5676 -27.3156
# 3 18.8842 23.7036 82.4072 8.9377 -23.4018 -2.5421
# 4 2.0452 18.5498 8.9377 27.7667 -5.7541 -2.8826
# 5 -21.6921 2.5676 -23.4018 -5.7541 42.7857 0.8502
# 6 -2.5653 -27.3156 -2.5421 -2.8826 0.8502 28.7678
#
#
#
# Elastic Compliance Matrix: (Units=1/GPa)
#
#
# Indices 1 2 3 4 5 6 
#
# 1 0.010711 -0.003691 -0.000046 0.002687 0.006037 -0.002463
# 2 -0.003691 0.011203 -0.002853 -0.006368 -0.005151 0.009570
# 3 -0.000046 -0.002853 0.015473 -0.001502 0.008444 -0.001746
# 4 0.002687 -0.006368 -0.001502 0.041713 0.006571 -0.001954
# 5 0.006037 -0.005151 0.008444 0.006571 0.032322 -0.003903
# 6 -0.002463 0.009570 -0.001746 -0.001954 -0.003903 0.043394
#
#
# Mechanical properties :
#
#
# Convention : Reuss Voigt Hill
#
# Bulk Modulus (GPa) = 41.31194 55.66488 48.48841
# Shear Modulus (GPa) = 28.39857 37.38029 32.88943
#
# Velocity S-wave (km/s) = 3.33733 3.82888 3.59152
# Velocity P-wave (km/s) = 5.57249 6.43262 6.01794
#
# Compressibility (1/GPa) = 0.02420608
#
# Stress axis : x y z
#
# Youngs Moduli (GPa) = 93.36059 89.26360 64.62866
#
# Poissons Ratio (x) = 0.32950 0.00296
# Poissons Ratio (y) = 0.34462 0.18441
# Poissons Ratio (z) = 0.00427 0.25471
#
# Static dielectric constant tensor:
#      x y z
#    x 2.001120 0.072200 0.002230 
#    y 0.072200 2.093470 -0.053800 
#    z 0.002230 -0.053800 2.030700 
# 
# From -- ./inp_files/181253.got.cif
#   From: 2010.05.17/outbox.cif.g08.bks.cpg/sg2_91_cif.got.tgz:181253.got - 2010.06.03 11:33:40.
