data_PCOD9083144
_publ_section_title
;
Structure prediction by ZEFSAII (Michael W. Deem and Ramdas Pophale) SiO2 
 PCOD9083144
Probable space group: P -1
;
_chemical_formula_sum "Si O2"
_cell_formula_units_Z 12
_cell_length_a 5.267603
_cell_length_b 10.796158
_cell_length_c 14.849623
_cell_angle_alpha 67.231387
_cell_angle_beta 68.091399
_cell_angle_gamma 95.870218
_cell_volume 691.765992
_symmetry_space_group_name_H-M "P -1"
_symmetry_group_IT_number 2
_symmetry_cell_setting 'triclinic'
loop_
_space_group_symop_operation_xyz
x,y,z
-x,-y,-z
loop_
_atom_site_type_symbol
_atom_site_label
_atom_site_fract_x
_atom_site_fract_y
_atom_site_fract_z
Si Si1 0.492150 0.956611 0.293517
Si Si2 0.702483 0.813750 0.657374
Si Si3 0.588111 0.473630 0.139612
Si Si4 0.777864 0.369516 0.953852
Si Si5 0.135544 0.082317 0.585690
Si Si6 0.287540 0.958249 0.955799
O O1 0.686691 0.901115 0.351583
O O2 0.157365 0.876977 0.372631
O O3 0.508710 0.113016 0.283901
O O4 0.579937 0.967608 0.175539
O O5 0.620585 0.654015 0.742182
O O6 0.695939 0.838799 0.544674
O O7 0.010627 0.916618 0.620289
O O8 0.427905 0.589046 0.103352
O O9 0.893068 0.540010 0.127307
O O10 0.666080 0.410503 0.052919
O O11 0.767165 0.207987 0.001836
O O12 0.500000 0.000000 0.000000
O O13 0.000000 0.000000 0.000000
#
# Coordination Sequence:
#
# PCOD9083144 Si02
#       6
#     2   2   2   2   2   2
#     4  10  19  34  49  78 110 135 174 229 259 312
#     4   9  19  30  53  83 111 142 164 214 283 330
#     4  10  20  31  57  74 117 136 165 218 280 333
#     4  10  21  36  48  82 104 146 175 213 271 323
#     4   9  19  29  53  77 119 130 175 213 274 340
#     4  12  24  38  58  77 107 149 191 222 254 309
#
# _framework density 17.346907000000002
#
# number of rings (size 3 to 8) (size 9 to 14) (size 15 to 20)
#    1.000    1.000    1.667    2.500    2.333    1.333 
#    0.000    0.000    0.000    0.000    0.000   23.333 
#    0.000    0.000    0.000    0.000    0.000    0.000 
#
# Total GULP energy -66840.292713 kJ/mol
# GULP energy per Si atom -5570.024393 kJ/mol
# Density = 1.730742 g / cm^3
# Si number density = 17.346907 Si / 1000 Ang^3
#
#
#
# Elastic Constant Matrix: (Units=GPa)
#
#
# Indices 1 2 3 4 5 6 
#
# 1 121.7290 23.3170 42.9238 11.6082 18.6177 -7.5933
# 2 23.3170 38.6706 10.9095 5.4470 0.4557 -10.5520
# 3 42.9238 10.9095 109.9156 18.7432 4.6198 4.4766
# 4 11.6082 5.4470 18.7432 29.9529 4.0241 3.4258
# 5 18.6177 0.4557 4.6198 4.0241 22.3386 4.1112
# 6 -7.5933 -10.5520 4.4766 3.4258 4.1112 19.5539
#
#
#
# Elastic Compliance Matrix: (Units=1/GPa)
#
#
# Indices 1 2 3 4 5 6 
#
# 1 0.012576 -0.004665 -0.004121 -0.000687 -0.010445 0.005626
# 2 -0.004665 0.034818 -0.001421 -0.005864 0.001201 0.018077
# 3 -0.004121 -0.001421 0.011841 -0.005397 0.002858 -0.004733
# 4 -0.000687 -0.005864 -0.005397 0.039557 -0.003785 -0.008330
# 5 -0.010445 0.001201 0.002858 -0.003785 0.056343 -0.015245
# 6 0.005626 0.018077 -0.004733 -0.008330 -0.015245 0.068829
#
#
# Mechanical properties :
#
#
# Convention : Reuss Voigt Hill
#
# Bulk Modulus (GPa) = 25.75949 47.17954 36.46952
# Shear Modulus (GPa) = 19.43129 27.24673 23.33901
#
# Velocity S-wave (km/s) = 3.35051 3.96750 3.67199
# Velocity P-wave (km/s) = 5.46349 6.94585 6.24878
#
# Compressibility (1/GPa) = 0.03882064
#
# Stress axis : x y z
#
# Youngs Moduli (GPa) = 79.51874 28.72102 84.45129
#
# Poissons Ratio (x) = 0.13399 0.34802
# Poissons Ratio (y) = 0.37097 0.11999
# Poissons Ratio (z) = 0.32769 0.04081
#
# Static dielectric constant tensor:
#      x y z
#    x 1.609180 -0.001390 -0.008220 
#    y -0.001390 1.578290 0.007450 
#    z -0.008220 0.007450 1.567660 
# 
# From -- ./inp_files/48220.got.cif
#   From: 2010.05.17/outbox.cif.g08.bks.cpg/sg2_25_cif.got.tgz:48220.got - 2010.06.03 11:33:40.
