data_PCOD9083917
_publ_section_title
;
Structure prediction by ZEFSAII (Michael W. Deem and Ramdas Pophale) SiO2 
 PCOD9083917
Probable space group: P -1
;
_chemical_formula_sum "Si O2"
_cell_formula_units_Z 16
_cell_length_a 7.515711
_cell_length_b 8.264857
_cell_length_c 13.493766
_cell_angle_alpha 94.334302
_cell_angle_beta 83.613903
_cell_angle_gamma 52.661783
_cell_volume 651.335561
_symmetry_space_group_name_H-M "P -1"
_symmetry_group_IT_number 2
_symmetry_cell_setting 'triclinic'
loop_
_space_group_symop_operation_xyz
x,y,z
-x,-y,-z
loop_
_atom_site_type_symbol
_atom_site_label
_atom_site_fract_x
_atom_site_fract_y
_atom_site_fract_z
Si Si1 0.351626 0.054235 0.760960
Si Si2 0.983317 0.555387 0.117047
Si Si3 0.251457 0.707660 0.049320
Si Si4 0.208116 0.363838 0.291838
Si Si5 0.822442 0.761687 0.436070
Si Si6 0.904277 0.123115 0.152473
Si Si7 0.564984 0.429763 0.334193
Si Si8 0.631331 0.181111 0.513649
O O1 0.226186 0.145963 0.668238
O O2 0.278030 0.253802 0.834942
O O3 0.616294 0.880969 0.714887
O O4 0.247323 0.956060 0.820268
O O5 0.096972 0.396943 0.192896
O O6 0.129119 0.637903 0.115859
O O7 0.000000 0.500000 0.000000
O O8 0.144314 0.784659 0.949885
O O9 0.500000 0.500000 0.000000
O O10 0.168893 0.916962 0.121938
O O11 0.375452 0.426036 0.291862
O O12 0.020716 0.518088 0.392740
O O13 0.602252 0.788598 0.488124
O O14 0.828603 0.932551 0.500281
O O15 0.788960 0.309409 0.246554
O O16 0.648259 0.289540 0.422421
O O17 0.436385 0.666549 0.383373
#
# Coordination Sequence:
#
# PCOD9083917 Si02
#       8
#     2   2   2   2   2   2   2   2
#     4   9  18  38  57  81 116 154 190 239 295 344
#     4  10  22  37  57  85 117 151 194 244 298 354
#     4  10  19  34  59  82 104 147 195 234 288 349
#     4  10  20  37  63  80 113 161 197 238 296 348
#     4  10  20  37  61  87 118 157 194 242 292 342
#     4   9  18  33  55  81 111 148 185 237 289 335
#     4  10  20  39  60  85 122 159 196 239 296 346
#     4  10  21  37  60  89 122 157 194 246 291 342
#
# _framework density 24.564910999999999
#
# number of rings (size 3 to 8) (size 9 to 14) (size 15 to 20)
#    0.000    2.250    2.500    1.500    0.000    3.500 
#    0.000    1.250    0.000    1.500    0.000    0.000 
#    0.000    0.000    0.000    0.000    0.000    0.000 
#
# Total GULP energy -89207.241261 kJ/mol
# GULP energy per Si atom -5575.452579 kJ/mol
# Density = 2.450900 g / cm^3
# Si number density = 24.564911 Si / 1000 Ang^3
#
#
#
# Elastic Constant Matrix: (Units=GPa)
#
#
# Indices 1 2 3 4 5 6 
#
# 1 27.0954 9.1918 14.5529 1.3523 -5.3346 -10.4922
# 2 9.1918 64.5418 42.3504 41.6213 -1.5136 -31.8133
# 3 14.5529 42.3504 148.1626 40.1779 -0.2695 -14.6793
# 4 1.3523 41.6213 40.1779 67.3937 3.6636 -16.8002
# 5 -5.3346 -1.5136 -0.2695 3.6636 37.8777 5.7991
# 6 -10.4922 -31.8133 -14.6793 -16.8002 5.7991 30.5465
#
#
#
# Elastic Compliance Matrix: (Units=1/GPa)
#
#
# Indices 1 2 3 4 5 6 
#
# 1 0.046009 0.002552 -0.004706 0.004643 0.003325 0.018122
# 2 0.002552 0.050703 -0.005920 -0.017291 -0.002381 0.041780
# 3 -0.004706 -0.005920 0.009222 -0.003021 0.000232 -0.005055
# 4 0.004643 -0.017291 -0.003021 0.026649 -0.002209 -0.002789
# 5 0.003325 -0.002381 0.000232 -0.002209 0.028182 -0.007791
# 6 0.018122 0.041780 -0.005055 -0.002789 -0.007791 0.079990
#
#
# Mechanical properties :
#
#
# Convention : Reuss Voigt Hill
#
# Bulk Modulus (GPa) = 11.13761 41.33222 26.23492
# Shear Modulus (GPa) = 17.43180 38.74389 28.08784
#
# Velocity S-wave (km/s) = 2.66676 3.97571 3.38511
# Velocity P-wave (km/s) = 3.74512 6.15933 5.09722
#
# Compressibility (1/GPa) = 0.08978587
#
# Stress axis : x y z
#
# Youngs Moduli (GPa) = 21.73500 19.72271 108.43271
#
# Poissons Ratio (x) = -0.05032 0.51030
# Poissons Ratio (y) = -0.05546 0.64187
# Poissons Ratio (z) = 0.10229 0.11675
#
# Static dielectric constant tensor:
#      x y z
#    x 1.980450 0.006450 0.038110 
#    y 0.006450 2.081190 0.121620 
#    z 0.038110 0.121620 1.985620 
# 
# From -- ./inp_files/493174.got.cif
#   From: 2010.05.17/outbox.cif.g08.bks.cpg/sg2_247_cif.got.tgz:493174.got - 2010.06.03 11:33:40.
