data_PCOD9083202
_publ_section_title
;
Structure prediction by ZEFSAII (Michael W. Deem and Ramdas Pophale) SiO2 
 PCOD9083202
Probable space group: P -1
;
_chemical_formula_sum "Si O2"
_cell_formula_units_Z 16
_cell_length_a 12.189535
_cell_length_b 6.687396
_cell_length_c 17.864125
_cell_angle_alpha 126.828440
_cell_angle_beta 133.051069
_cell_angle_gamma 83.111555
_cell_volume 740.316125
_symmetry_space_group_name_H-M "P -1"
_symmetry_group_IT_number 2
_symmetry_cell_setting 'triclinic'
loop_
_space_group_symop_operation_xyz
x,y,z
-x,-y,-z
loop_
_atom_site_type_symbol
_atom_site_label
_atom_site_fract_x
_atom_site_fract_y
_atom_site_fract_z
Si Si1 0.944657 0.935488 0.331270
Si Si2 0.147619 0.582810 0.331746
Si Si3 0.704458 0.588841 0.006994
Si Si4 0.561008 0.824596 0.403924
Si Si5 0.240456 0.461290 0.506215
Si Si6 0.097248 0.765064 0.995570
Si Si7 0.217622 0.319141 0.096234
Si Si8 0.662420 0.893556 0.294430
O O1 0.836929 0.918233 0.350086
O O2 0.039605 0.745920 0.338150
O O3 0.805828 0.797539 0.168357
O O4 0.083923 0.254711 0.441623
O O5 0.170732 0.435778 0.383364
O O6 0.040055 0.372653 0.167761
O O7 0.337936 0.838810 0.453537
O O8 0.730189 0.747078 0.975105
O O9 0.505179 0.366886 0.880258
O O10 0.795793 0.398669 0.988781
O O11 0.625591 0.655684 0.449318
O O12 0.356719 0.642624 0.256444
O O13 0.631437 0.825325 0.352692
O O14 0.323115 0.796096 0.640610
O O15 0.976282 0.734037 0.001997
O O16 0.219985 0.095127 0.105959
#
# Coordination Sequence:
#
# PCOD9083202 Si02
#       8
#     2   2   2   2   2   2   2   2
#     4  10  20  33  52  77 103 134 170 205 245 297
#     4   9  20  35  51  75 105 133 166 208 249 295
#     4  10  20  36  54  74 104 134 164 208 256 296
#     4   9  20  35  51  75 105 133 166 208 249 295
#     4  10  19  34  53  72 104 138 167 204 249 292
#     4  10  20  35  55  77 100 130 169 209 252 302
#     4  10  20  35  55  77 100 130 169 209 252 302
#     4  10  20  33  52  77 103 134 170 205 245 297
#
# _framework density 21.612389
#
# number of rings (size 3 to 8) (size 9 to 14) (size 15 to 20)
#    0.000    2.250    0.000    2.625    0.000    6.000 
#    0.000    0.625    0.000    8.250    0.000    0.000 
#    0.000    0.000    0.000    0.000    0.000    0.000 
#
# Total GULP energy -89347.850176 kJ/mol
# GULP energy per Si atom -5584.240636 kJ/mol
# Density = 2.156320 g / cm^3
# Si number density = 21.612389 Si / 1000 Ang^3
#
#
#
# Elastic Constant Matrix: (Units=GPa)
#
#
# Indices 1 2 3 4 5 6 
#
# 1 48.3302 14.4970 3.1266 8.4759 4.4916 12.3054
# 2 14.4970 87.7549 5.5052 2.7971 9.6820 11.4925
# 3 3.1266 5.5052 82.0795 0.5840 18.9495 12.6394
# 4 8.4759 2.7971 0.5840 23.4035 1.4752 1.1335
# 5 4.4916 9.6820 18.9495 1.4752 26.7743 3.7053
# 6 12.3054 11.4925 12.6394 1.1335 3.7053 19.5946
#
#
#
# Elastic Compliance Matrix: (Units=1/GPa)
#
#
# Indices 1 2 3 4 5 6 
#
# 1 0.027045 -0.001893 0.002309 -0.008661 -0.002748 -0.016343
# 2 -0.001893 0.012948 0.001174 -0.000313 -0.004302 -0.006331
# 3 0.002309 0.001174 0.016116 -0.000193 -0.010756 -0.010490
# 4 -0.008661 -0.000313 -0.000193 0.045827 -0.001284 0.003340
# 5 -0.002748 -0.004302 -0.010756 -0.001284 0.046713 0.002428
# 6 -0.016343 -0.006331 -0.010490 0.003340 0.002428 0.071125
#
#
# Mechanical properties :
#
#
# Convention : Reuss Voigt Hill
#
# Bulk Modulus (GPa) = 16.86615 29.38024 23.12319
# Shear Modulus (GPa) = 21.15438 26.95688 24.05563
#
# Velocity S-wave (km/s) = 3.13198 3.53553 3.33986
# Velocity P-wave (km/s) = 4.57165 5.50366 5.05916
#
# Compressibility (1/GPa) = 0.05929037
#
# Stress axis : x y z
#
# Youngs Moduli (GPa) = 36.97553 77.23065 62.04823
#
# Poissons Ratio (x) = 0.14621 -0.14330
# Poissons Ratio (y) = 0.07000 -0.07285
# Poissons Ratio (z) = -0.08539 -0.09067
#
# Static dielectric constant tensor:
#      x y z
#    x 1.781000 0.025400 0.006570 
#    y 0.025400 1.772390 -0.004150 
#    z 0.006570 -0.004150 1.801020 
# 
# From -- ./inp_files/81224.got.cif
#   From: 2010.05.17/outbox.cif.g08.bks.cpg/sg2_41_cif.got.tgz:81224.got - 2010.06.03 11:33:40.
