data_PCOD9083836
_publ_section_title
;
Structure prediction by ZEFSAII (Michael W. Deem and Ramdas Pophale) SiO2 
 PCOD9083836
Probable space group: P -1
;
_chemical_formula_sum "Si O2"
_cell_formula_units_Z 14
_cell_length_a 21.903704
_cell_length_b 12.939415
_cell_length_c 7.926888
_cell_angle_alpha 35.946501
_cell_angle_beta 142.871833
_cell_angle_gamma 155.719181
_cell_volume 525.683941
_symmetry_space_group_name_H-M "P -1"
_symmetry_group_IT_number 2
_symmetry_cell_setting 'triclinic'
loop_
_space_group_symop_operation_xyz
x,y,z
-x,-y,-z
loop_
_atom_site_type_symbol
_atom_site_label
_atom_site_fract_x
_atom_site_fract_y
_atom_site_fract_z
Si Si1 0.484590 0.708923 0.519022
Si Si2 0.906318 0.427675 0.615529
Si Si3 0.308532 0.376726 0.899235
Si Si4 0.667748 0.674882 0.566203
Si Si5 0.922084 0.115112 0.821409
Si Si6 0.226032 0.847493 0.963175
Si Si7 0.463463 0.881624 0.763770
O O1 0.371274 0.542894 0.647587
O O2 0.372829 0.557670 0.311963
O O3 0.578885 0.011515 0.351782
O O4 0.597502 0.686647 0.799730
O O5 0.890452 0.248437 0.685147
O O6 0.798741 0.270460 0.750929
O O7 0.926368 0.635460 0.278695
O O8 0.072724 0.624898 0.812562
O O9 0.359284 0.577518 0.894316
O O10 0.125551 0.101717 0.866780
O O11 0.500000 0.500000 0.500000
O O12 0.798624 0.896927 0.694456
O O13 0.719639 0.878592 0.260245
O O14 0.366742 0.956372 0.021375
O O15 0.500000 0.000000 0.500000
#
# Coordination Sequence:
#
# PCOD9083836 Si02
#       7
#     2   2   2   2   2   2   2
#     4  10  20  33  57  91 116 153 177 231 316 339
#     4   9  21  34  60  86 107 169 197 233 281 334
#     4  10  19  36  60  89 117 148 190 242 295 345
#     4  11  19  32  58  87 119 151 186 244 296 344
#     4  10  19  34  58  86 114 150 208 231 281 352
#     4  10  19  38  58  85 121 147 203 237 279 355
#     4  10  21  34  60  96 114 145 190 242 299 349
#
# _framework density 26.631975000000001
#
# number of rings (size 3 to 8) (size 9 to 14) (size 15 to 20)
#    0.000    2.000    2.857    0.857    4.000    0.000 
#    0.000    2.857    0.000   25.714    0.000    0.000 
#    0.000    0.000    0.000    0.000    0.000    0.000 
#
# Total GULP energy -78079.047660 kJ/mol
# GULP energy per Si atom -5577.074833 kJ/mol
# Density = 2.657136 g / cm^3
# Si number density = 26.631975 Si / 1000 Ang^3
#
#
#
# Elastic Constant Matrix: (Units=GPa)
#
#
# Indices 1 2 3 4 5 6 
#
# 1 130.4019 57.8937 32.5463 -18.2137 -2.5851 -19.4149
# 2 57.8937 138.3989 40.4247 -38.2728 6.9561 -23.4500
# 3 32.5463 40.4247 64.7284 -39.7551 -3.4348 -0.8556
# 4 -18.2137 -38.2728 -39.7551 55.4454 1.6566 -3.5851
# 5 -2.5851 6.9561 -3.4348 1.6566 45.7467 -14.4126
# 6 -19.4149 -23.4500 -0.8556 -3.5851 -14.4126 57.2367
#
#
#
# Elastic Compliance Matrix: (Units=1/GPa)
#
#
# Indices 1 2 3 4 5 6 
#
# 1 0.010276 -0.003253 -0.004038 -0.001658 0.001584 0.002388
# 2 -0.003253 0.011402 -0.002067 0.005587 -0.001141 0.003600
# 3 -0.004038 -0.002067 0.030608 0.019134 0.001645 -0.000146
# 4 -0.001658 0.005587 0.019134 0.035332 0.000592 0.004375
# 5 0.001584 -0.001141 0.001645 0.000592 0.024185 0.006222
# 6 0.002388 0.003600 -0.000146 0.004375 0.006222 0.021595
#
#
# Mechanical properties :
#
#
# Convention : Reuss Voigt Hill
#
# Bulk Modulus (GPa) = 29.78822 66.13983 47.96403
# Shear Modulus (GPa) = 30.61788 45.19672 37.90730
#
# Velocity S-wave (km/s) = 3.39435 4.12404 3.77686
# Velocity P-wave (km/s) = 5.15476 6.89678 6.08840
#
# Compressibility (1/GPa) = 0.03357032
#
# Stress axis : x y z
#
# Youngs Moduli (GPa) = 97.31612 87.70262 32.67132
#
# Poissons Ratio (x) = 0.28525 0.13193
# Poissons Ratio (y) = 0.31652 0.06754
# Poissons Ratio (z) = 0.39298 0.18129
#
# Static dielectric constant tensor:
#      x y z
#    x 2.131490 0.044130 -0.029180 
#    y 0.044130 2.088420 0.068820 
#    z -0.029180 0.068820 2.310230 
# 
# From -- ./inp_files/344983.got.cif
#   From: 2010.05.17/outbox.cif.g08.bks.cpg/sg2_173_cif.got.tgz:344983.got - 2010.06.03 11:33:40.
