data_PCOD9083655
_publ_section_title
;
Structure prediction by ZEFSAII (Michael W. Deem and Ramdas Pophale) SiO2 
 PCOD9083655
Probable space group: P -1
;
_chemical_formula_sum "Si O2"
_cell_formula_units_Z 16
_cell_length_a 17.448773
_cell_length_b 20.903382
_cell_length_c 7.991055
_cell_angle_alpha 42.874399
_cell_angle_beta 135.115055
_cell_angle_gamma 160.943561
_cell_volume 645.834438
_symmetry_space_group_name_H-M "P -1"
_symmetry_group_IT_number 2
_symmetry_cell_setting 'triclinic'
loop_
_space_group_symop_operation_xyz
x,y,z
-x,-y,-z
loop_
_atom_site_type_symbol
_atom_site_label
_atom_site_fract_x
_atom_site_fract_y
_atom_site_fract_z
Si Si1 0.313729 0.955686 0.125892
Si Si2 0.609406 0.268843 0.545661
Si Si3 0.299441 0.887126 0.606677
Si Si4 0.850292 0.027874 0.378450
Si Si5 0.850695 0.845828 0.908747
Si Si6 0.853878 0.593261 0.709659
Si Si7 0.982370 0.424322 0.787814
Si Si8 0.682985 0.521391 0.236588
O O1 0.241767 0.866506 0.367433
O O2 0.173615 0.785529 0.100316
O O3 0.577702 0.120135 0.190252
O O4 0.231855 0.997670 0.878933
O O5 0.380482 0.118702 0.588552
O O6 0.820702 0.368998 0.756414
O O7 0.721207 0.455383 0.317699
O O8 0.496736 0.116010 0.523610
O O9 0.082140 0.734794 0.684411
O O10 0.894282 0.952224 0.622001
O O11 0.069774 0.255391 0.358346
O O12 0.572068 0.641173 0.909199
O O13 0.868428 0.749014 0.082127
O O14 0.000000 0.000000 0.000000
O O15 0.677871 0.486776 0.492145
O O16 0.805672 0.467330 0.998571
O O17 0.000000 0.500000 0.500000
#
# Coordination Sequence:
#
# PCOD9083655 Si02
#       8
#     2   2   2   2   2   2   2   2
#     4   9  18  34  55  83 113 158 198 227 283 335
#     4   9  19  35  51  84 115 153 190 227 283 339
#     4   9  18  34  57  80 116 157 192 234 273 340
#     4   9  17  34  60  83 108 149 194 246 280 337
#     4  10  19  37  60  87 113 142 192 249 295 337
#     4  10  19  34  57  84 112 154 194 230 284 343
#     4  10  21  35  50  83 125 157 187 232 275 341
#     4  10  21  34  58  91 111 145 195 241 288 347
#
# _framework density 24.774149000000001
#
# number of rings (size 3 to 8) (size 9 to 14) (size 15 to 20)
#    0.000    2.500    1.250    0.750    1.750    3.500 
#   13.500    0.000    0.000    1.500    6.500    0.000 
#    0.000    0.000    0.000    0.000    0.000    0.000 
#
# Total GULP energy -89258.277836 kJ/mol
# GULP energy per Si atom -5578.642365 kJ/mol
# Density = 2.471776 g / cm^3
# Si number density = 24.774149 Si / 1000 Ang^3
#
#
#
# Elastic Constant Matrix: (Units=GPa)
#
#
# Indices 1 2 3 4 5 6 
#
# 1 46.1546 20.8170 26.4999 -9.5015 3.3392 -12.3396
# 2 20.8170 109.9296 30.9257 2.5524 13.1441 -29.9051
# 3 26.4999 30.9257 158.1006 0.5653 13.6069 -23.0309
# 4 -9.5015 2.5524 0.5653 37.9766 -8.9523 11.1920
# 5 3.3392 13.1441 13.6069 -8.9523 35.5370 -15.0130
# 6 -12.3396 -29.9051 -23.0309 11.1920 -15.0130 38.6393
#
#
#
# Elastic Compliance Matrix: (Units=1/GPa)
#
#
# Indices 1 2 3 4 5 6 
#
# 1 0.027590 -0.004004 -0.003762 0.007217 0.003266 0.002648
# 2 -0.004004 0.012758 -0.000329 -0.004941 -0.001565 0.009223
# 3 -0.003762 -0.000329 0.007629 -0.002354 -0.001729 0.003102
# 4 0.007217 -0.004941 -0.002354 0.032913 0.006078 -0.010095
# 5 0.003266 -0.001565 -0.001729 0.006078 0.035119 0.010686
# 6 0.002648 0.009223 0.003102 -0.010095 0.010686 0.042789
#
#
# Mechanical properties :
#
#
# Convention : Reuss Voigt Hill
#
# Bulk Modulus (GPa) = 31.45908 52.29668 41.87788
# Shear Modulus (GPa) = 26.94210 38.16006 32.55108
#
# Velocity S-wave (km/s) = 3.30132 3.92895 3.62873
# Velocity P-wave (km/s) = 5.22087 6.46045 5.87345
#
# Compressibility (1/GPa) = 0.03178732
#
# Stress axis : x y z
#
# Youngs Moduli (GPa) = 36.24521 78.38061 131.07824
#
# Poissons Ratio (x) = 0.31383 0.49317
# Poissons Ratio (y) = 0.14512 0.04307
# Poissons Ratio (z) = 0.13637 0.02576
#
# Static dielectric constant tensor:
#      x y z
#    x 1.972710 0.044170 0.006830 
#    y 0.044170 2.047190 -0.003790 
#    z 0.006830 -0.003790 2.077970 
# 
# From -- ./inp_files/223368.got.cif
#   From: 2010.05.17/outbox.cif.g08.bks.cpg/sg2_112_cif.got.tgz:223368.got - 2010.06.03 11:33:40.
