data_PCOD9083907
_publ_section_title
;
Structure prediction by ZEFSAII (Michael W. Deem and Ramdas Pophale) SiO2 
 PCOD9083907
Probable space group: P -1
;
_chemical_formula_sum "Si O2"
_cell_formula_units_Z 14
_cell_length_a 9.086933
_cell_length_b 10.743323
_cell_length_c 7.580441
_cell_angle_alpha 82.760264
_cell_angle_beta 79.200287
_cell_angle_gamma 105.585708
_cell_volume 687.923681
_symmetry_space_group_name_H-M "P -1"
_symmetry_group_IT_number 2
_symmetry_cell_setting 'triclinic'
loop_
_space_group_symop_operation_xyz
x,y,z
-x,-y,-z
loop_
_atom_site_type_symbol
_atom_site_label
_atom_site_fract_x
_atom_site_fract_y
_atom_site_fract_z
Si Si1 0.872201 0.123165 0.770730
Si Si2 0.245217 0.623282 0.865489
Si Si3 0.935953 0.662025 0.109797
Si Si4 0.359003 0.000865 0.838190
Si Si5 0.212439 0.843298 0.579594
Si Si6 0.455252 0.195741 0.075167
Si Si7 0.112835 0.159376 0.222413
O O1 0.758368 0.137781 0.636607
O O2 0.008917 0.258600 0.738477
O O3 0.932561 0.998269 0.745708
O O4 0.777782 0.083611 0.982944
O O5 0.202281 0.473793 0.836633
O O6 0.260352 0.725153 0.681921
O O7 0.399125 0.676357 0.942990
O O8 0.092740 0.632249 0.006824
O O9 0.897425 0.767768 0.971137
O O10 0.291326 0.971242 0.661310
O O11 0.488893 0.924807 0.840136
O O12 0.411770 0.144512 0.891844
O O13 0.023086 0.810217 0.639888
O O14 0.298958 0.202900 0.208665
#
# Coordination Sequence:
#
# PCOD9083907 Si02
#       7
#     2   2   2   2   2   2   2
#     4  11  19  33  60  82 103 138 180 222 261 307
#     4   9  19  37  54  79 103 144 181 215 253 321
#     4  10  19  34  59  75 106 142 183 213 257 313
#     4   9  18  35  53  81 105 140 175 218 262 316
#     4  10  20  35  56  82 107 136 183 215 262 312
#     4   9  17  32  57  74 111 138 171 217 272 308
#     4  10  20  33  54  84 108 138 171 224 266 315
#
# _framework density 20.351092000000001
#
# number of rings (size 3 to 8) (size 9 to 14) (size 15 to 20)
#    0.000    2.286    4.286    0.857    2.000    1.143 
#    0.000   17.857    0.000    0.857    0.000    0.000 
#    0.000    0.000    0.000    0.000    0.000    0.000 
#
# Total GULP energy -77963.122097 kJ/mol
# GULP energy per Si atom -5568.794436 kJ/mol
# Density = 2.030477 g / cm^3
# Si number density = 20.351092 Si / 1000 Ang^3
#
#
#
# Elastic Constant Matrix: (Units=GPa)
#
#
# Indices 1 2 3 4 5 6 
#
# 1 77.4696 3.9896 2.9444 5.0224 12.8271 18.3364
# 2 3.9896 107.7999 65.0615 12.1795 32.9622 52.7380
# 3 2.9444 65.0615 38.9802 8.6200 9.6527 8.0144
# 4 5.0224 12.1795 8.6200 13.1711 5.3780 10.9567
# 5 12.8271 32.9622 9.6527 5.3780 11.5607 4.5326
# 6 18.3364 52.7380 8.0144 10.9567 4.5326 32.0160
#
#
#
# Elastic Compliance Matrix: (Units=1/GPa)
#
#
# Indices 1 2 3 4 5 6 
#
# 1 0.013603 -0.005882 0.011150 -0.006622 -0.005389 0.002136
# 2 -0.005882 -0.006295 0.006423 -0.017354 0.021282 0.015056
# 3 0.011150 0.006423 0.028971 0.008076 -0.050876 -0.019779
# 4 -0.006622 -0.017354 0.008076 0.085107 0.010598 -0.000269
# 5 -0.005389 0.021282 -0.050876 0.010598 0.082914 -0.034599
# 6 0.002136 0.015056 -0.019779 -0.000269 -0.034599 0.015151
#
#
# Mechanical properties :
#
#
# Convention : Reuss Voigt Hill
#
# Bulk Modulus (GPa) = 16.76156 40.91563 28.83859
# Shear Modulus (GPa) = 23.15275 21.49985 22.32630
#
# Velocity S-wave (km/s) = 3.37659 3.25383 3.31578
# Velocity P-wave (km/s) = 4.84313 5.85364 5.37219
#
# Compressibility (1/GPa) = 0.05966033
#
# Stress axis : x y z
#
# Youngs Moduli (GPa) = 73.51164 -158.86462 34.51783
#
# Poissons Ratio (x) = -0.93448 -0.38487
# Poissons Ratio (y) = 0.43241 -0.22170
# Poissons Ratio (z) = -0.81965 1.02036
#
# Static dielectric constant tensor:
#      x y z
#    x 1.793710 0.027810 -0.008410 
#    y 0.027810 1.745000 0.039680 
#    z -0.008410 0.039680 1.790390 
# 
# From -- ./inp_files/169767.got.cif
#   From: 2010.05.17/outbox.cif.g08.bks.cpg/sg2_85_cif.got.tgz:169767.got - 2010.06.03 11:33:40.
