data_PCOD9083901
_publ_section_title
;
Structure prediction by ZEFSAII (Michael W. Deem and Ramdas Pophale) SiO2 
 PCOD9083901
Probable space group: P -1
;
_chemical_formula_sum "Si O2"
_cell_formula_units_Z 16
_cell_length_a 7.448656
_cell_length_b 14.079285
_cell_length_c 22.670085
_cell_angle_alpha 18.326127
_cell_angle_beta 116.598237
_cell_angle_gamma 121.838820
_cell_volume 622.406403
_symmetry_space_group_name_H-M "P -1"
_symmetry_group_IT_number 2
_symmetry_cell_setting 'triclinic'
loop_
_space_group_symop_operation_xyz
x,y,z
-x,-y,-z
loop_
_atom_site_type_symbol
_atom_site_label
_atom_site_fract_x
_atom_site_fract_y
_atom_site_fract_z
Si Si1 0.800666 0.809823 0.121808
Si Si2 0.363421 0.122413 0.694350
Si Si3 0.354182 0.905950 0.454118
Si Si4 0.077345 0.874258 0.317484
Si Si5 0.106611 0.828828 0.569018
Si Si6 0.583334 0.077157 0.065375
Si Si7 0.965563 0.709055 0.032189
Si Si8 0.642776 0.687635 0.543809
O O1 0.782488 0.449127 0.333624
O O2 0.884576 0.969505 0.101785
O O3 0.582316 0.835417 0.051264
O O4 0.000000 0.000000 0.000000
O O5 0.500000 0.500000 0.500000
O O6 0.132686 0.083127 0.710457
O O7 0.460222 0.927826 0.867627
O O8 0.355587 0.080459 0.648063
O O9 0.563539 0.840230 0.498373
O O10 0.244055 0.952673 0.349878
O O11 0.299288 0.055688 0.419028
O O12 0.000000 0.500000 0.500000
O O13 0.157716 0.153173 0.114538
O O14 0.878827 0.671020 0.592429
O O15 0.151035 0.558807 0.777744
O O16 0.000000 0.000000 0.500000
O O17 0.516341 0.685375 0.271995
O O18 0.827017 0.339345 0.938776
#
# Coordination Sequence:
#
# PCOD9083901 Si02
#       8
#     2   2   2   2   2   2   2   2
#     4  12  20  30  56  93 129 154 191 256 319 373
#     4   9  19  31  53  89 132 166 186 238 316 381
#     4  12  23  38  64  96 119 164 206 256 318 375
#     4  11  20  34  59  99 133 155 196 248 325 392
#     4  12  27  46  64  85 124 174 221 260 295 355
#     4  10  19  34  58  95 130 159 191 249 329 381
#     4  11  21  37  60  93 127 160 199 253 315 373
#     4  11  20  39  64  89 128 162 205 257 315 371
#
# _framework density 25.706676000000002
#
# number of rings (size 3 to 8) (size 9 to 14) (size 15 to 20)
#    0.000    1.000    6.250    2.625    1.750    1.500 
#    0.000    0.625    0.000    0.750    0.000    0.000 
#    0.000    0.000    0.000    0.000    0.000    0.000 
#
# Total GULP energy -89099.493940 kJ/mol
# GULP energy per Si atom -5568.718371 kJ/mol
# Density = 2.564817 g / cm^3
# Si number density = 25.706676 Si / 1000 Ang^3
#
#
#
# Elastic Constant Matrix: (Units=GPa)
#
#
# Indices 1 2 3 4 5 6 
#
# 1 145.4374 38.6092 17.6920 24.1636 -1.3522 -23.3146
# 2 38.6092 82.2527 53.3354 40.8874 -1.8324 -24.4537
# 3 17.6920 53.3354 110.6057 52.7873 7.1618 -19.3398
# 4 24.1636 40.8874 52.7873 53.7355 -5.2282 -8.5663
# 5 -1.3522 -1.8324 7.1618 -5.2282 30.7587 5.9255
# 6 -23.3146 -24.4537 -19.3398 -8.5663 5.9255 44.5570
#
#
#
# Elastic Compliance Matrix: (Units=1/GPa)
#
#
# Indices 1 2 3 4 5 6 
#
# 1 0.008468 -0.002679 0.002483 -0.003811 -0.001693 0.003531
# 2 -0.002679 0.024553 -0.003968 -0.012418 -0.001412 0.008152
# 3 0.002483 -0.003968 0.021251 -0.018942 -0.009443 0.005960
# 4 -0.003811 -0.012418 -0.018942 0.048171 0.013535 -0.009570
# 5 -0.001693 -0.001412 -0.009443 0.013535 0.038445 -0.008270
# 6 0.003531 0.008152 0.005960 -0.009570 -0.008270 0.030611
#
#
# Mechanical properties :
#
#
# Convention : Reuss Voigt Hill
#
# Bulk Modulus (GPa) = 21.76520 61.95210 41.85865
# Shear Modulus (GPa) = 25.62237 41.05418 33.33828
#
# Velocity S-wave (km/s) = 3.16051 4.00061 3.60512
# Velocity P-wave (km/s) = 4.66943 6.74476 5.80066
#
# Compressibility (1/GPa) = 0.04594491
#
# Stress axis : x y z
#
# Youngs Moduli (GPa) = 118.08685 40.72876 47.05628
#
# Poissons Ratio (x) = 0.10909 -0.11684
# Poissons Ratio (y) = 0.31630 0.18672
# Poissons Ratio (z) = -0.29320 0.16161
#
# Static dielectric constant tensor:
#      x y z
#    x 3.222900 -0.836250 0.511900 
#    y -0.836250 2.688440 -0.292720 
#    z 0.511900 -0.292720 2.227440 
# 
# From -- ./inp_files/607909.got.cif
#   From: 2010.05.17/outbox.cif.g08.bks.cpg/sg2_304_cif.got.tgz:607909.got - 2010.06.03 11:33:40.
