data_PCOD9083270
_publ_section_title
;
Structure prediction by ZEFSAII (Michael W. Deem and Ramdas Pophale) SiO2 
 PCOD9083270
Probable space group: P -1
;
_chemical_formula_sum "Si O2"
_cell_formula_units_Z 16
_cell_length_a 8.660521
_cell_length_b 17.440247
_cell_length_c 9.116885
_cell_angle_alpha 133.882117
_cell_angle_beta 128.007841
_cell_angle_gamma 58.119425
_cell_volume 769.486307
_symmetry_space_group_name_H-M "P -1"
_symmetry_group_IT_number 2
_symmetry_cell_setting 'triclinic'
loop_
_space_group_symop_operation_xyz
x,y,z
-x,-y,-z
loop_
_atom_site_type_symbol
_atom_site_label
_atom_site_fract_x
_atom_site_fract_y
_atom_site_fract_z
Si Si1 0.828112 0.796227 0.943442
Si Si2 0.040616 0.568072 0.256303
Si Si3 0.284801 0.433134 0.463172
Si Si4 0.615382 0.101288 0.278515
Si Si5 0.026677 0.011724 0.858860
Si Si6 0.173779 0.058704 0.610318
Si Si7 0.263791 0.518689 0.870838
Si Si8 0.733704 0.322163 0.665348
O O1 0.824859 0.671275 0.742072
O O2 0.605672 0.854578 0.844592
O O3 0.971860 0.863668 0.027567
O O4 0.846565 0.826464 0.167032
O O5 0.217291 0.498854 0.363725
O O6 0.112405 0.671667 0.368346
O O7 0.842064 0.575005 0.245636
O O8 0.000000 0.500000 0.000000
O O9 0.220411 0.514431 0.668522
O O10 0.519594 0.387881 0.567830
O O11 0.700627 0.203725 0.522753
O O12 0.762879 0.052769 0.168222
O O13 0.631214 0.014839 0.304188
O O14 0.861237 0.958173 0.602798
O O15 0.000000 0.000000 0.000000
O O16 0.000000 0.000000 0.500000
O O17 0.500000 0.500000 0.000000
O O18 0.201379 0.622300 0.075851
#
# Coordination Sequence:
#
# PCOD9083270 Si02
#       8
#     2   2   2   2   2   2   2   2
#     4   9  18  34  55  74  99 138 173 203 252 318
#     4  10  20  32  50  74 101 136 173 216 258 298
#     4  10  19  34  54  76 103 138 177 215 257 305
#     4   9  17  34  55  74 100 139 172 201 254 317
#     4  10  20  33  51  79 105 128 167 220 255 293
#     4   8  16  31  52  74  98 132 167 201 247 310
#     4   9  19  34  50  73 102 134 173 212 252 303
#     4   9  19  34  54  76 104 137 175 218 257 302
#
# _framework density 20.793092000000001
#
# number of rings (size 3 to 8) (size 9 to 14) (size 15 to 20)
#    0.000    3.000    0.000    2.250    0.000    7.000 
#    0.000    5.000    0.000    9.000    0.000    0.000 
#    0.000    0.000    0.000    0.000    0.000    0.000 
#
# Total GULP energy -89089.049967 kJ/mol
# GULP energy per Si atom -5568.065623 kJ/mol
# Density = 2.074577 g / cm^3
# Si number density = 20.793092 Si / 1000 Ang^3
#
#
#
# Elastic Constant Matrix: (Units=GPa)
#
#
# Indices 1 2 3 4 5 6 
#
# 1 51.2632 11.8949 22.6334 -4.9266 -7.3213 5.5469
# 2 11.8949 63.0997 44.1351 -4.4789 -11.1954 2.5117
# 3 22.6334 44.1351 160.0705 -7.7910 -16.7152 15.5477
# 4 -4.9266 -4.4789 -7.7910 44.5081 6.1615 6.8381
# 5 -7.3213 -11.1954 -16.7152 6.1615 37.4170 -11.1734
# 6 5.5469 2.5117 15.5477 6.8381 -11.1734 28.7732
#
#
#
# Elastic Compliance Matrix: (Units=1/GPa)
#
#
# Indices 1 2 3 4 5 6 
#
# 1 0.021584 -0.002204 -0.001910 0.002057 0.001526 -0.002833
# 2 -0.002204 0.020547 -0.005216 -0.000184 0.004369 0.003190
# 3 -0.001910 -0.005216 0.008441 0.001267 0.000477 -0.003854
# 4 0.002057 -0.000184 0.001267 0.025178 -0.006038 -0.009393
# 5 0.001526 0.004369 0.000477 -0.006038 0.033583 0.013543
# 6 -0.002833 0.003190 -0.003854 -0.009393 0.013543 0.044596
#
#
# Mechanical properties :
#
#
# Convention : Reuss Voigt Hill
#
# Bulk Modulus (GPa) = 31.33495 47.97335 39.65415
# Shear Modulus (GPa) = 27.28872 35.19100 31.23986
#
# Velocity S-wave (km/s) = 3.62663 4.11839 3.88031
# Velocity P-wave (km/s) = 5.71307 6.76289 6.26003
#
# Compressibility (1/GPa) = 0.03191324
#
# Stress axis : x y z
#
# Youngs Moduli (GPa) = 46.33102 48.66880 118.46450
#
# Poissons Ratio (x) = 0.10724 0.22623
# Poissons Ratio (y) = 0.10209 0.61795
# Poissons Ratio (z) = 0.08848 0.25387
#
# Static dielectric constant tensor:
#      x y z
#    x 1.773980 -0.020280 0.034540 
#    y -0.020280 1.806520 -0.008230 
#    z 0.034540 -0.008230 1.813360 
# 
# From -- ./inp_files/216023.got.cif
#   From: 2010.05.17/outbox.cif.g08.bks.cpg/sg2_109_cif.got.tgz:216023.got - 2010.06.03 11:33:40.
