data_PCOD9083532
_publ_section_title
;
Structure prediction by ZEFSAII (Michael W. Deem and Ramdas Pophale) SiO2 
 PCOD9083532
Probable space group: P -1
;
_chemical_formula_sum "Si O2"
_cell_formula_units_Z 12
_cell_length_a 9.163874
_cell_length_b 17.444942
_cell_length_c 7.523747
_cell_angle_alpha 40.007014
_cell_angle_beta 111.992225
_cell_angle_gamma 138.923745
_cell_volume 445.596787
_symmetry_space_group_name_H-M "P -1"
_symmetry_group_IT_number 2
_symmetry_cell_setting 'triclinic'
loop_
_space_group_symop_operation_xyz
x,y,z
-x,-y,-z
loop_
_atom_site_type_symbol
_atom_site_label
_atom_site_fract_x
_atom_site_fract_y
_atom_site_fract_z
Si Si1 0.625992 0.851244 0.733647
Si Si2 0.870626 0.471372 0.773193
Si Si3 0.303768 0.991937 0.876102
Si Si4 0.685859 0.412463 0.406096
Si Si5 0.284302 0.446980 0.152908
Si Si6 0.767028 0.731811 0.249221
O O1 0.722003 0.997551 0.367112
O O2 0.367264 0.749752 0.879516
O O3 0.532834 0.675523 0.899533
O O4 0.765466 0.865080 0.933474
O O5 0.903392 0.581705 0.757139
O O6 0.771209 0.466803 0.550277
O O7 0.118186 0.551639 0.683883
O O8 0.437378 0.186235 0.676902
O O9 0.500000 0.000000 0.000000
O O10 0.021533 0.823497 0.124871
O O11 0.244748 0.297165 0.492734
O O12 0.722206 0.555092 0.058129
O O13 0.500000 0.500000 0.500000
#
# Coordination Sequence:
#
# PCOD9083532 Si02
#       6
#     2   2   2   2   2   2
#     4   8  19  35  57  78 115 148 186 228 284 335
#     4   9  18  33  59  81 118 148 184 226 298 321
#     4  11  22  33  59  89 110 148 198 234 274 334
#     4  10  19  34  56  86 116 145 187 239 274 337
#     4   8  17  32  60  77 107 149 190 224 274 340
#     4  10  19  36  60  83 115 154 184 228 292 337
#
# _framework density 26.930178999999999
#
# number of rings (size 3 to 8) (size 9 to 14) (size 15 to 20)
#    1.000    1.667    0.000    2.000    2.333    0.000 
#    0.000    2.500    3.667    0.000    0.000    0.000 
#    0.000    0.000    0.000    0.000    0.000    0.000 
#
# Total GULP energy -66834.323640 kJ/mol
# GULP energy per Si atom -5569.526970 kJ/mol
# Density = 2.686888 g / cm^3
# Si number density = 26.930179 Si / 1000 Ang^3
#
#
#
# Elastic Constant Matrix: (Units=GPa)
#
#
# Indices 1 2 3 4 5 6 
#
# 1 125.9785 23.1341 48.1328 -13.5121 -19.4497 17.0010
# 2 23.1341 103.0286 97.2170 14.9577 -6.6521 4.4662
# 3 48.1328 97.2170 222.6293 37.2337 -39.5226 8.6826
# 4 -13.5121 14.9577 37.2337 70.8315 -1.8781 -7.7699
# 5 -19.4497 -6.6521 -39.5226 -1.8781 46.9470 4.1729
# 6 17.0010 4.4662 8.6826 -7.7699 4.1729 31.0643
#
#
#
# Elastic Compliance Matrix: (Units=1/GPa)
#
#
# Indices 1 2 3 4 5 6 
#
# 1 0.010070 -0.000838 -0.001424 0.002405 0.003381 -0.004845
# 2 -0.000838 0.017430 -0.008482 0.000610 -0.005097 0.001161
# 3 -0.001424 -0.008482 0.010605 -0.004191 0.007234 -0.002985
# 4 0.002405 0.000610 -0.004191 0.017068 -0.002147 0.004325
# 5 0.003381 -0.005097 0.007234 -0.002147 0.028652 -0.007525
# 6 -0.004845 0.001161 -0.002985 0.004325 -0.007525 0.037603
#
#
# Mechanical properties :
#
#
# Convention : Reuss Voigt Hill
#
# Bulk Modulus (GPa) = 60.18332 87.62269 73.90301
# Shear Modulus (GPa) = 33.68003 48.64542 41.16272
#
# Velocity S-wave (km/s) = 3.54028 4.25473 3.91384
# Velocity P-wave (km/s) = 6.25363 7.53290 6.92288
#
# Compressibility (1/GPa) = 0.01661590
#
# Stress axis : x y z
#
# Youngs Moduli (GPa) = 99.30855 57.37220 94.29295
#
# Poissons Ratio (x) = 0.04808 0.13428
# Poissons Ratio (y) = 0.08323 0.79983
# Poissons Ratio (z) = 0.14143 0.48665
#
# Static dielectric constant tensor:
#      x y z
#    x 2.220270 0.146450 0.075560 
#    y 0.146450 2.415230 0.149230 
#    z 0.075560 0.149230 2.112670 
# 
# From -- ./inp_files/407130.got.cif
#   From: 2010.05.17/outbox.cif.g08.bks.cpg/sg2_204_cif.got.tgz:407130.got - 2010.06.03 11:33:40.
