data_PCOD9083624
_publ_section_title
;
Structure prediction by ZEFSAII (Michael W. Deem and Ramdas Pophale) SiO2 
 PCOD9083624
Probable space group: P -1
;
_chemical_formula_sum "Si O2"
_cell_formula_units_Z 16
_cell_length_a 11.460975
_cell_length_b 8.292544
_cell_length_c 14.623087
_cell_angle_alpha 121.608938
_cell_angle_beta 89.050100
_cell_angle_gamma 54.745122
_cell_volume 858.768523
_symmetry_space_group_name_H-M "P -1"
_symmetry_group_IT_number 2
_symmetry_cell_setting 'triclinic'
loop_
_space_group_symop_operation_xyz
x,y,z
-x,-y,-z
loop_
_atom_site_type_symbol
_atom_site_label
_atom_site_fract_x
_atom_site_fract_y
_atom_site_fract_z
Si Si1 0.514276 0.388094 0.565554
Si Si2 0.002165 0.784065 0.972185
Si Si3 0.634995 0.811212 0.572026
Si Si4 0.305330 0.248513 0.774383
Si Si5 0.069308 0.767562 0.612348
Si Si6 0.830406 0.937061 0.515392
Si Si7 0.950085 0.467860 0.279880
Si Si8 0.779822 0.059193 0.230884
O O1 0.500000 0.500000 0.500000
O O2 0.461200 0.229217 0.504255
O O3 0.383119 0.644615 0.704097
O O4 0.695157 0.202656 0.542842
O O5 0.187064 0.517870 0.912729
O O6 0.231482 0.362886 0.707445
O O7 0.887203 0.894833 0.092750
O O8 0.000000 0.000000 0.000000
O O9 0.779552 0.515371 0.517109
O O10 0.727144 0.885063 0.549581
O O11 0.496648 0.046728 0.709992
O O12 0.953995 0.703714 0.862605
O O13 0.263426 0.083745 0.758265
O O14 0.020037 0.695127 0.680478
O O15 0.125839 0.902606 0.692729
O O16 0.930360 0.934136 0.589417
O O17 0.950984 0.684973 0.373452
#
# Coordination Sequence:
#
# PCOD9083624 Si02
#       8
#     2   2   2   2   2   2   2   2
#     4  11  20  34  58  85 117 142 188 237 276 336
#     4  10  20  34  57  85 109 143 198 243 268 319
#     4  10  19  34  57  82 111 147 189 233 277 326
#     4  10  20  33  58  87 108 145 189 242 275 322
#     4  10  22  34  57  85 121 148 179 235 282 352
#     4  11  21  36  56  89 116 149 184 228 296 328
#     4   9  18  34  54  81 112 142 194 232 271 326
#     4  11  20  36  57  85 118 146 186 231 285 330
#
# _framework density 18.631329000000001
#
# number of rings (size 3 to 8) (size 9 to 14) (size 15 to 20)
#    0.750    1.000    3.750    2.250    5.250    0.000 
#    0.000    6.875    0.000    4.500    0.000    5.250 
#    0.000    0.000    0.000    0.000    0.000    0.000 
#
# Total GULP energy -89138.940414 kJ/mol
# GULP energy per Si atom -5571.183776 kJ/mol
# Density = 1.858892 g / cm^3
# Si number density = 18.631329 Si / 1000 Ang^3
#
#
#
# Elastic Constant Matrix: (Units=GPa)
#
#
# Indices 1 2 3 4 5 6 
#
# 1 23.2899 29.4052 23.4461 -2.2245 5.7490 -5.4143
# 2 29.4052 95.5993 34.4780 5.6142 5.8493 -15.3876
# 3 23.4461 34.4780 132.5585 15.0814 -10.1143 -6.4403
# 4 -2.2245 5.6142 15.0814 27.5471 1.2318 3.7201
# 5 5.7490 5.8493 -10.1143 1.2318 19.8155 -0.2299
# 6 -5.4143 -15.3876 -6.4403 3.7201 -0.2299 29.2366
#
#
#
# Elastic Compliance Matrix: (Units=1/GPa)
#
#
# Indices 1 2 3 4 5 6 
#
# 1 0.100529 -0.024590 -0.016586 0.023805 -0.031868 -0.001258
# 2 -0.024590 0.019113 0.000708 -0.007267 0.002382 0.006605
# 3 -0.016586 0.000708 0.012230 -0.008853 0.011410 0.001211
# 4 0.023805 -0.007267 -0.008853 0.046088 -0.012230 -0.007327
# 5 -0.031868 0.002382 0.011410 -0.012230 0.065592 -0.000063
# 6 -0.001258 0.006605 0.001211 -0.007327 -0.000063 0.038645
#
#
# Mechanical properties :
#
#
# Convention : Reuss Voigt Hill
#
# Bulk Modulus (GPa) = 19.63314 47.34513 33.48913
# Shear Modulus (GPa) = 13.15398 26.26106 19.70752
#
# Velocity S-wave (km/s) = 2.65998 3.75842 3.25585
# Velocity P-wave (km/s) = 4.47152 6.65590 5.66990
#
# Compressibility (1/GPa) = 0.05093430
#
# Stress axis : x y z
#
# Youngs Moduli (GPa) = 9.94737 52.32052 81.76540
#
# Poissons Ratio (x) = 1.28658 1.35617
# Poissons Ratio (y) = 0.24461 -0.05786
# Poissons Ratio (z) = 0.16499 -0.03702
#
# Static dielectric constant tensor:
#      x y z
#    x 1.646350 0.017580 -0.017630 
#    y 0.017580 1.687160 0.020490 
#    z -0.017630 0.020490 1.696710 
# 
# From -- ./inp_files/513562.got.cif
#   From: 2010.05.17/outbox.cif.g08.bks.cpg/sg2_257_cif.got.tgz:513562.got - 2010.06.03 11:33:40.
