data_PCOD9083688
_publ_section_title
;
Structure prediction by ZEFSAII (Michael W. Deem and Ramdas Pophale) SiO2 
 PCOD9083688
Probable space group: P -1
;
_chemical_formula_sum "Si O2"
_cell_formula_units_Z 16
_cell_length_a 18.440710
_cell_length_b 7.016047
_cell_length_c 7.698078
_cell_angle_alpha 57.998337
_cell_angle_beta 53.972728
_cell_angle_gamma 86.122857
_cell_volume 638.359318
_symmetry_space_group_name_H-M "P -1"
_symmetry_group_IT_number 2
_symmetry_cell_setting 'triclinic'
loop_
_space_group_symop_operation_xyz
x,y,z
-x,-y,-z
loop_
_atom_site_type_symbol
_atom_site_label
_atom_site_fract_x
_atom_site_fract_y
_atom_site_fract_z
Si Si1 0.413735 0.490237 0.498717
Si Si2 0.910996 0.176212 0.023178
Si Si3 0.600699 0.000804 0.422378
Si Si4 0.018565 0.100935 0.222295
Si Si5 0.231819 0.268421 0.380422
Si Si6 0.204953 0.716529 0.143249
Si Si7 0.208045 0.228422 0.038823
Si Si8 0.442802 0.269742 0.075646
O O1 0.500000 0.500000 0.500000
O O2 0.389413 0.244209 0.541725
O O3 0.311516 0.433798 0.758997
O O4 0.473629 0.711410 0.186661
O O5 0.814593 0.947276 0.315921
O O6 0.961168 0.227358 0.118285
O O7 0.871840 0.344232 0.877136
O O8 0.976563 0.102287 0.824849
O O9 0.592205 0.976160 0.650968
O O10 0.500000 0.000000 0.500000
O O11 0.690128 0.211484 0.123720
O O12 0.000000 0.000000 0.500000
O O13 0.128442 0.276013 0.010111
O O14 0.342395 0.306711 0.162710
O O15 0.204108 0.495146 0.370327
O O16 0.184758 0.209968 0.284630
O O17 0.203371 0.957379 0.123711
O O18 0.500000 0.500000 0.000000
#
# Coordination Sequence:
#
# PCOD9083688 Si02
#       8
#     2   2   2   2   2   2   2   2
#     4  10  19  34  57  86 121 161 206 253 311 373
#     4  10  22  41  69  97 129 174 217 270 337 390
#     4  10  20  36  57  85 126 166 212 261 308 373
#     4  10  20  41  70  93 132 174 208 280 340 378
#     4  12  21  41  71  93 130 174 214 265 330 385
#     4  10  22  40  64  96 132 167 216 267 322 394
#     4  10  22  39  65  92 131 165 213 276 319 381
#     4  10  20  34  61  89 124 172 211 256 318 379
#
# _framework density 25.064256
#
# number of rings (size 3 to 8) (size 9 to 14) (size 15 to 20)
#    0.000    1.750    3.750    1.500    1.750    0.000 
#    0.000    9.375    8.250    0.000    0.000    0.000 
#    0.000    0.000    0.000    0.000    0.000    0.000 
#
# Total GULP energy -89144.879996 kJ/mol
# GULP energy per Si atom -5571.555000 kJ/mol
# Density = 2.500721 g / cm^3
# Si number density = 25.064256 Si / 1000 Ang^3
#
#
#
# Elastic Constant Matrix: (Units=GPa)
#
#
# Indices 1 2 3 4 5 6 
#
# 1 132.4751 1.1865 9.2499 1.9975 -5.8807 -1.4835
# 2 1.1865 88.0544 13.7598 8.4998 3.5475 3.4637
# 3 9.2499 13.7598 96.7540 16.2632 9.2902 4.9143
# 4 1.9975 8.4998 16.2632 27.0787 1.6598 8.1476
# 5 -5.8807 3.5475 9.2902 1.6598 34.0372 0.4942
# 6 -1.4835 3.4637 4.9143 8.1476 0.4942 29.3063
#
#
#
# Elastic Compliance Matrix: (Units=1/GPa)
#
#
# Indices 1 2 3 4 5 6 
#
# 1 0.007690 -0.000025 -0.000859 -0.000320 0.001573 0.000599
# 2 -0.000025 0.011856 -0.001102 -0.002889 -0.000793 -0.000401
# 3 -0.000859 -0.001102 0.011969 -0.006585 -0.002979 -0.000039
# 4 -0.000320 -0.002889 -0.006585 0.045162 0.000002 -0.011126
# 5 0.001573 -0.000793 -0.002979 0.000002 0.030545 0.000157
# 6 0.000599 -0.000401 -0.000039 -0.011126 0.000157 0.037297
#
#
# Mechanical properties :
#
#
# Convention : Reuss Voigt Hill
#
# Bulk Modulus (GPa) = 36.30750 40.63067 38.46908
# Shear Modulus (GPa) = 31.71131 37.62360 34.66746
#
# Velocity S-wave (km/s) = 3.56082 3.87859 3.72310
# Velocity P-wave (km/s) = 5.60564 6.02526 5.81923
#
# Compressibility (1/GPa) = 0.02754252
#
# Stress axis : x y z
#
# Youngs Moduli (GPa) = 130.03637 84.34801 83.54791
#
# Poissons Ratio (x) = 0.00214 0.07179
# Poissons Ratio (y) = 0.00330 0.09204
# Poissons Ratio (z) = 0.11173 0.09292
#
# Static dielectric constant tensor:
#      x y z
#    x 1.824930 0.092930 0.350200 
#    y 0.092930 1.976470 -0.137510 
#    z 0.350200 -0.137510 1.490980 
# 
# From -- ./inp_files/327076.got.cif
#   From: 2010.05.17/outbox.cif.g08.bks.cpg/sg2_164_cif.got.tgz:327076.got - 2010.06.03 11:33:40.
