data_PCOD9083428
_publ_section_title
;
Structure prediction by ZEFSAII (Michael W. Deem and Ramdas Pophale) SiO2 
 PCOD9083428
Probable space group: P -1
;
_chemical_formula_sum "Si O2"
_cell_formula_units_Z 16
_cell_length_a 12.946057
_cell_length_b 23.182231
_cell_length_c 10.879530
_cell_angle_alpha 135.992942
_cell_angle_beta 24.855383
_cell_angle_gamma 142.384675
_cell_volume 837.675367
_symmetry_space_group_name_H-M "P -1"
_symmetry_group_IT_number 2
_symmetry_cell_setting 'triclinic'
loop_
_space_group_symop_operation_xyz
x,y,z
-x,-y,-z
loop_
_atom_site_type_symbol
_atom_site_label
_atom_site_fract_x
_atom_site_fract_y
_atom_site_fract_z
Si Si1 0.145257 0.624553 0.749490
Si Si2 0.371963 0.943337 0.180584
Si Si3 0.027284 0.981209 0.295214
Si Si4 0.536825 0.590497 0.678700
Si Si5 0.273253 0.239330 0.718684
Si Si6 0.799470 0.591997 0.838336
Si Si7 0.914190 0.732773 0.304103
Si Si8 0.056429 0.436913 0.620636
O O1 0.394873 0.720151 0.572409
O O2 0.933306 0.575648 0.791875
O O3 0.241046 0.551163 0.582779
O O4 0.010011 0.655119 0.050221
O O5 0.182671 0.831861 0.195965
O O6 0.159632 0.980175 0.510692
O O7 0.500000 0.000000 0.000000
O O8 0.642566 0.966882 0.005355
O O9 0.900135 0.870664 0.236136
O O10 0.000000 0.000000 0.500000
O O11 0.500000 0.500000 0.500000
O O12 0.682876 0.685637 0.585630
O O13 0.760106 0.598168 0.553324
O O14 0.238336 0.577773 0.028808
O O15 0.208781 0.250843 0.664100
O O16 0.217603 0.312384 0.970525
O O17 0.977756 0.603547 0.541757
O O18 0.500000 0.500000 0.000000
#
# Coordination Sequence:
#
# PCOD9083428 Si02
#       8
#     2   2   2   2   2   2   2   2
#     4  11  22  36  63  84 122 160 209 253 308 354
#     4  10  19  35  55  86 127 149 187 250 315 373
#     4  10  19  34  55  87 128 147 184 247 321 374
#     4  12  26  41  60  86 122 173 208 248 292 363
#     4  11  22  35  62  92 124 158 199 253 317 372
#     4  11  24  40  59  90 119 169 210 258 307 353
#     4  11  23  36  60  92 124 163 200 247 312 378
#     4  12  25  43  58  82 127 164 210 250 285 363
#
# _framework density 19.100477999999999
#
# number of rings (size 3 to 8) (size 9 to 14) (size 15 to 20)
#    0.000    1.000    5.000    3.750    5.250    0.000 
#    0.000    0.000    0.000    0.000    0.000    5.250 
#    0.000    0.000    0.000    0.000    0.000    0.000 
#
# Total GULP energy -89306.293099 kJ/mol
# GULP energy per Si atom -5581.643319 kJ/mol
# Density = 1.905700 g / cm^3
# Si number density = 19.100478 Si / 1000 Ang^3
#
#
#
# Elastic Constant Matrix: (Units=GPa)
#
#
# Indices 1 2 3 4 5 6 
#
# 1 40.0657 53.5441 42.5509 4.5203 -23.1319 11.2741
# 2 53.5441 110.8717 40.8363 -9.5523 2.4917 22.8180
# 3 42.5509 40.8363 115.5502 -4.2318 -11.1773 11.5620
# 4 4.5203 -9.5523 -4.2318 29.6449 2.0062 -9.4719
# 5 -23.1319 2.4917 -11.1773 2.0062 31.5683 -4.1468
# 6 11.2741 22.8180 11.5620 -9.4719 -4.1468 24.2987
#
#
#
# Elastic Compliance Matrix: (Units=1/GPa)
#
#
# Indices 1 2 3 4 5 6 
#
# 1 -0.094214 0.046105 0.013272 0.034454 -0.070762 -0.004543
# 2 0.046105 -0.009843 -0.010275 -0.016442 0.030864 -0.008401
# 3 0.013272 -0.010275 0.008574 -0.005118 0.013869 -0.000217
# 4 0.034454 -0.016442 -0.005118 0.025955 0.025225 0.016312
# 5 -0.070762 0.030864 0.013869 0.025225 -0.018794 0.003876
# 6 -0.004543 -0.008401 -0.000217 0.016312 0.003876 0.058275
#
#
# Mechanical properties :
#
#
# Convention : Reuss Voigt Hill
#
# Bulk Modulus (GPa) = 367.71829 60.03892 213.87861
# Shear Modulus (GPa) = -39.26472 25.73946 -6.76263
#
# Velocity S-wave (km/s) = -4.53889 3.67492 -1.88368
# Velocity P-wave (km/s) = 12.86340 7.03621 10.36762
#
# Compressibility (1/GPa) = 0.00271947
#
# Stress axis : x y z
#
# Youngs Moduli (GPa) = -10.61418 -101.59802 116.62855
#
# Poissons Ratio (x) = 4.68414 -1.54784
# Poissons Ratio (y) = 0.48936 1.19841
# Poissons Ratio (z) = 0.14087 -1.04396
#
# Static dielectric constant tensor:
#      x y z
#    x 1.688390 -0.002540 -0.043250 
#    y -0.002540 1.656990 0.003220 
#    z -0.043250 0.003220 1.722690 
# 
# From -- ./inp_files/70175.got.cif
#   From: 2010.05.17/outbox.cif.g08.bks.cpg/sg2_36_cif.got.tgz:70175.got - 2010.06.03 11:33:40.
