data_PCOD9083201
_publ_section_title
;
Structure prediction by ZEFSAII (Michael W. Deem and Ramdas Pophale) SiO2 
 PCOD9083201
Probable space group: P -1
;
_chemical_formula_sum "Si O2"
_cell_formula_units_Z 14
_cell_length_a 5.680746
_cell_length_b 8.893606
_cell_length_c 15.367430
_cell_angle_alpha 104.494992
_cell_angle_beta 56.407529
_cell_angle_gamma 126.479934
_cell_volume 516.419018
_symmetry_space_group_name_H-M "P -1"
_symmetry_group_IT_number 2
_symmetry_cell_setting 'triclinic'
loop_
_space_group_symop_operation_xyz
x,y,z
-x,-y,-z
loop_
_atom_site_type_symbol
_atom_site_label
_atom_site_fract_x
_atom_site_fract_y
_atom_site_fract_z
Si Si1 0.324830 0.097317 0.011714
Si Si2 0.492706 0.625435 0.853035
Si Si3 0.321411 0.029620 0.624176
Si Si4 0.684132 0.480608 0.625982
Si Si5 0.824392 0.482288 0.874981
Si Si6 0.176958 0.473986 0.625934
Si Si7 0.820353 0.026571 0.622530
O O1 0.626827 0.272031 0.920425
O O2 0.252381 0.172046 0.125590
O O3 0.500000 0.000000 0.000000
O O4 0.000000 0.000000 0.000000
O O5 0.571810 0.546986 0.741584
O O6 0.526966 0.509586 0.908080
O O7 0.138500 0.603682 0.896988
O O8 0.431643 0.948995 0.667614
O O9 0.931510 0.950702 0.667882
O O10 0.500000 0.000000 0.500000
O O11 0.489353 0.253394 0.635003
O O12 0.568477 0.554942 0.580888
O O13 0.074668 0.555033 0.579032
O O14 0.019409 0.505172 0.748177
O O15 0.993293 0.249219 0.628755
O O16 0.000000 0.000000 0.500000
#
# Coordination Sequence:
#
# PCOD9083201 Si02
#       7
#     2   2   2   2   2   2   2
#     4  12  24  36  50  72  98 124 158 206 248 280
#     4  10  19  34  53  70  91 125 163 195 235 292
#     4   8  12  18  29  49  79 111 133 163 215 268
#     4   8  14  23  38  59  81 111 145 179 216 267
#     4  10  19  34  53  70  91 125 163 195 235 292
#     4   8  14  23  38  59  81 111 145 179 216 267
#     4   8  12  18  29  49  79 111 133 163 215 268
#
# _framework density 27.109769
#
# number of rings (size 3 to 8) (size 9 to 14) (size 15 to 20)
#    0.000    2.857    0.000    2.571    0.000    0.000 
#    0.000    0.000    0.000    0.000    0.000    0.000 
#    0.000    0.000    0.000  277.714    0.000    5.143 
#
# Total GULP energy -78154.958657 kJ/mol
# GULP energy per Si atom -5582.497047 kJ/mol
# Density = 2.704807 g / cm^3
# Si number density = 27.109769 Si / 1000 Ang^3
#
#
#
# Elastic Constant Matrix: (Units=GPa)
#
#
# Indices 1 2 3 4 5 6 
#
# 1 378.2508 38.6367 52.2898 0.0063 1.0076 22.0912
# 2 38.6367 103.7417 28.0203 29.2903 8.7483 7.1806
# 3 52.2898 28.0203 72.8508 15.4052 1.3720 8.2603
# 4 0.0063 29.2903 15.4052 40.7474 6.5290 4.7406
# 5 1.0076 8.7483 1.3720 6.5290 49.2903 0.5327
# 6 22.0912 7.1806 8.2603 4.7406 0.5327 44.6730
#
#
#
# Elastic Compliance Matrix: (Units=1/GPa)
#
#
# Indices 1 2 3 4 5 6 
#
# 1 0.003095 -0.000970 -0.002058 0.001616 -0.000035 -0.001165
# 2 -0.000970 0.013139 -0.002559 -0.008263 -0.001144 -0.000269
# 3 -0.002058 -0.002559 0.017306 -0.004657 0.000645 -0.001285
# 4 0.001616 -0.008263 -0.004657 0.032927 -0.002776 -0.002071
# 5 -0.000035 -0.001144 0.000645 -0.002776 0.020840 0.000128
# 6 -0.001165 -0.000269 -0.001285 -0.002071 0.000128 0.023460
#
#
# Mechanical properties :
#
#
# Convention : Reuss Voigt Hill
#
# Bulk Modulus (GPa) = 44.70390 88.08186 66.39288
# Shear Modulus (GPa) = 38.64096 56.00192 47.32144
#
# Velocity S-wave (km/s) = 3.77948 4.54998 4.18251
# Velocity P-wave (km/s) = 5.96420 7.75657 6.91868
#
# Compressibility (1/GPa) = 0.02236941
#
# Stress axis : x y z
#
# Youngs Moduli (GPa) = 323.06306 76.10651 57.78330
#
# Poissons Ratio (x) = 0.07379 0.11890
# Poissons Ratio (y) = 0.31323 0.14784
# Poissons Ratio (z) = 0.66476 0.19472
#
# Static dielectric constant tensor:
#      x y z
#    x 2.256490 0.052020 0.015990 
#    y 0.052020 2.078070 0.084020 
#    z 0.015990 0.084020 2.229010 
# 
# From -- ./inp_files/9233.got.cif
#   From: 2010.05.17/outbox.cif.g08.bks.cpg/sg2_5_cif.got.tgz:9233.got - 2010.06.03 11:33:40.
