data_PCOD9083436
_publ_section_title
;
Structure prediction by ZEFSAII (Michael W. Deem and Ramdas Pophale) SiO2 
 PCOD9083436
Probable space group: P -1
;
_chemical_formula_sum "Si O2"
_cell_formula_units_Z 16
_cell_length_a 11.206162
_cell_length_b 12.075634
_cell_length_c 11.188274
_cell_angle_alpha 44.140961
_cell_angle_beta 48.524847
_cell_angle_gamma 37.615491
_cell_volume 627.682471
_symmetry_space_group_name_H-M "P -1"
_symmetry_group_IT_number 2
_symmetry_cell_setting 'triclinic'
loop_
_space_group_symop_operation_xyz
x,y,z
-x,-y,-z
loop_
_atom_site_type_symbol
_atom_site_label
_atom_site_fract_x
_atom_site_fract_y
_atom_site_fract_z
Si Si1 0.116138 0.999091 0.685095
Si Si2 0.854718 0.920267 0.057944
Si Si3 0.688591 0.476852 0.244155
Si Si4 0.089290 0.629536 0.340672
Si Si5 0.108699 0.120660 0.203885
Si Si6 0.550920 0.365154 0.953425
Si Si7 0.563722 0.811960 0.523913
Si Si8 0.530546 0.225014 0.634107
O O1 0.027702 0.948681 0.892176
O O2 0.046100 0.222347 0.575659
O O3 0.999821 0.986157 0.663788
O O4 0.354512 0.839392 0.651612
O O5 0.963251 0.741597 0.218378
O O6 0.816860 0.882195 0.977459
O O7 0.658289 0.128224 0.079736
O O8 0.927114 0.337291 0.199685
O O9 0.625999 0.541496 0.097565
O O10 0.603617 0.355832 0.438077
O O11 0.593429 0.661758 0.252642
O O12 0.276766 0.637688 0.223234
O O13 0.220821 0.391068 0.424524
O O14 0.283025 0.993497 0.279732
O O15 0.500000 0.500000 0.000000
O O16 0.580484 0.802111 0.376527
O O17 0.500000 0.000000 0.500000
#
# Coordination Sequence:
#
# PCOD9083436 Si02
#       8
#     2   2   2   2   2   2   2   2
#     4   9  20  37  57  90 122 147 193 245 305 360
#     4   9  20  33  55  96 125 145 184 251 322 359
#     4  11  20  31  55  89 116 156 179 245 318 348
#     4  11  21  35  57  86 124 152 196 247 302 357
#     4  10  19  34  55  92 120 147 182 237 324 355
#     4  11  19  31  55  94 129 149 180 237 323 375
#     4  12  27  41  57  81 119 177 211 234 281 351
#     4  11  21  36  55  83 124 147 202 246 289 370
#
# _framework density 25.490594999999999
#
# number of rings (size 3 to 8) (size 9 to 14) (size 15 to 20)
#    0.750    0.750    3.750    2.625    7.000    0.500 
#    0.000    0.000    0.000    0.750    0.000    4.375 
#    0.000    1.250    0.000    0.000    0.000    0.000 
#
# Total GULP energy -89386.176943 kJ/mol
# GULP energy per Si atom -5586.636059 kJ/mol
# Density = 2.543258 g / cm^3
# Si number density = 25.490595 Si / 1000 Ang^3
#
#
#
# Elastic Constant Matrix: (Units=GPa)
#
#
# Indices 1 2 3 4 5 6 
#
# 1 78.5196 37.7407 32.6149 -17.2924 31.7047 1.7270
# 2 37.7407 206.8537 45.1061 -9.4813 33.6814 -11.1925
# 3 32.6149 45.1061 48.3883 -11.1022 24.4231 -6.5703
# 4 -17.2924 -9.4813 -11.1022 41.9946 -6.4578 14.0139
# 5 31.7047 33.6814 24.4231 -6.4578 48.8858 -9.9064
# 6 1.7270 -11.1925 -6.5703 14.0139 -9.9064 39.9092
#
#
#
# Elastic Compliance Matrix: (Units=1/GPa)
#
#
# Indices 1 2 3 4 5 6 
#
# 1 0.022906 -0.000606 -0.008758 0.008036 -0.010636 -0.008065
# 2 -0.000606 0.006221 -0.004671 -0.000587 -0.001466 0.000844
# 3 -0.008758 -0.004671 0.036073 0.002959 -0.008349 0.001896
# 4 0.008036 -0.000587 0.002959 0.031095 -0.004629 -0.012093
# 5 -0.010636 -0.001466 -0.008349 -0.004629 0.033678 0.008660
# 6 -0.008065 0.000844 0.001896 -0.012093 0.008660 0.032351
#
#
# Mechanical properties :
#
#
# Convention : Reuss Voigt Hill
#
# Bulk Modulus (GPa) = 26.93073 62.74278 44.83675
# Shear Modulus (GPa) = 24.65847 40.71126 32.68487
#
# Velocity S-wave (km/s) = 3.11361 4.00072 3.58471
# Velocity P-wave (km/s) = 4.84912 6.78296 5.89587
#
# Compressibility (1/GPa) = 0.03713230
#
# Stress axis : x y z
#
# Youngs Moduli (GPa) = 43.65627 160.75040 27.72129
#
# Poissons Ratio (x) = 0.09738 0.24278
# Poissons Ratio (y) = 0.02645 0.12947
# Poissons Ratio (z) = 0.38233 0.75079
#
# Static dielectric constant tensor:
#      x y z
#    x 2.050000 0.052720 -0.101200 
#    y 0.052720 2.050040 -0.029510 
#    z -0.101200 -0.029510 2.209920 
# 
# From -- ./inp_files/425461.got.cif
#   From: 2010.05.17/outbox.cif.g08.bks.cpg/sg2_213_cif.got.tgz:425461.got - 2010.06.03 11:33:40.
