data_PCOD9083116
_publ_section_title
;
Structure prediction by ZEFSAII (Michael W. Deem and Ramdas Pophale) SiO2 
 PCOD9083116
Probable space group: P -1
;
_chemical_formula_sum "Si O2"
_cell_formula_units_Z 14
_cell_length_a 12.162374
_cell_length_b 9.013001
_cell_length_c 9.498815
_cell_angle_alpha 46.249163
_cell_angle_beta 94.285074
_cell_angle_gamma 62.899531
_cell_volume 532.577057
_symmetry_space_group_name_H-M "P -1"
_symmetry_group_IT_number 2
_symmetry_cell_setting 'triclinic'
loop_
_space_group_symop_operation_xyz
x,y,z
-x,-y,-z
loop_
_atom_site_type_symbol
_atom_site_label
_atom_site_fract_x
_atom_site_fract_y
_atom_site_fract_z
Si Si1 0.456010 0.034624 0.806708
Si Si2 0.641041 0.713400 0.782984
Si Si3 0.428582 0.626747 0.130245
Si Si4 0.143701 0.597456 0.421924
Si Si5 0.797592 0.183668 0.474310
Si Si6 0.847694 0.826277 0.099068
Si Si7 0.093752 0.566721 0.865378
O O1 0.316653 0.361298 0.529455
O O2 0.602870 0.862702 0.835447
O O3 0.500000 0.000000 0.000000
O O4 0.410138 0.859574 0.885760
O O5 0.625810 0.494926 0.884690
O O6 0.500000 0.000000 0.500000
O O7 0.820931 0.534584 0.909039
O O8 0.614038 0.375237 0.342639
O O9 0.311400 0.838303 0.108583
O O10 0.141677 0.799881 0.384978
O O11 0.152399 0.380314 0.665090
O O12 0.993582 0.767858 0.201975
O O13 0.833701 0.323681 0.277421
O O14 0.911030 0.854039 0.657181
O O15 0.875875 0.685656 0.045228
#
# Coordination Sequence:
#
# PCOD9083116 Si02
#       7
#     2   2   2   2   2   2   2
#     4  11  20  39  68  97 125 162 226 270 308 380
#     4  12  26  42  61  94 139 174 208 265 334 389
#     4  11  21  37  65  94 123 169 221 263 317 378
#     4   9  17  31  56  90 126 155 199 269 328 358
#     4  10  19  33  63  96 124 157 218 277 310 374
#     4   9  19  33  57  92 126 159 206 270 317 373
#     4  10  21  36  58  92 131 165 213 267 324 368
#
# _framework density 26.287277
#
# number of rings (size 3 to 8) (size 9 to 14) (size 15 to 20)
#    0.000    1.714    2.857    3.000    2.000    2.286 
#    0.000    3.571    0.000    1.714    0.000    0.000 
#    0.000    0.000    0.000    0.000    0.000    0.000 
#
# Total GULP energy -78221.895040 kJ/mol
# GULP energy per Si atom -5587.278217 kJ/mol
# Density = 2.622745 g / cm^3
# Si number density = 26.287277 Si / 1000 Ang^3
#
#
#
# Elastic Constant Matrix: (Units=GPa)
#
#
# Indices 1 2 3 4 5 6 
#
# 1 123.2091 68.7085 64.4727 -11.8778 30.4921 25.2847
# 2 68.7085 144.1205 60.3076 -32.4377 26.0450 22.8859
# 3 64.4727 60.3076 125.0253 -22.2204 46.0209 1.8349
# 4 -11.8778 -32.4377 -22.2204 42.5101 -6.8682 3.3943
# 5 30.4921 26.0450 46.0209 -6.8682 54.1974 0.2894
# 6 25.2847 22.8859 1.8349 3.3943 0.2894 38.5855
#
#
#
# Elastic Compliance Matrix: (Units=1/GPa)
#
#
# Indices 1 2 3 4 5 6 
#
# 1 0.014718 -0.003565 -0.005095 -0.001076 -0.002339 -0.007176
# 2 -0.003565 0.012364 -0.002363 0.007492 -0.000951 -0.005537
# 3 -0.005095 -0.002363 0.015504 0.003155 -0.008783 0.003792
# 4 -0.001076 0.007492 0.003155 0.030836 -0.001731 -0.006588
# 5 -0.002339 -0.000951 -0.008783 -0.001731 0.027449 0.002461
# 6 -0.007176 -0.005537 0.003792 -0.006588 0.002461 0.034284
#
#
# Mechanical properties :
#
#
# Convention : Reuss Voigt Hill
#
# Bulk Modulus (GPa) = 48.68511 86.59251 67.63881
# Shear Modulus (GPa) = 30.47893 40.31635 35.39764
#
# Velocity S-wave (km/s) = 3.40877 3.92047 3.67354
# Velocity P-wave (km/s) = 5.83554 7.31477 6.61662
#
# Compressibility (1/GPa) = 0.02054016
#
# Stress axis : x y z
#
# Youngs Moduli (GPa) = 67.94335 80.87856 64.49985
#
# Poissons Ratio (x) = 0.28830 0.32865
# Poissons Ratio (y) = 0.24219 0.15242
# Poissons Ratio (z) = 0.34619 0.19113
#
# Static dielectric constant tensor:
#      x y z
#    x 2.163580 -0.211020 -0.039960 
#    y -0.211020 2.153430 0.048540 
#    z -0.039960 0.048540 2.119260 
# 
# From -- ./inp_files/446801.got.cif
#   From: 2010.05.17/outbox.cif.g08.bks.cpg/sg2_224_cif.got.tgz:446801.got - 2010.06.03 11:33:40.
