data_PCOD9083619
_publ_section_title
;
Structure prediction by ZEFSAII (Michael W. Deem and Ramdas Pophale) SiO2 
 PCOD9083619
Probable space group: P -1
;
_chemical_formula_sum "Si O2"
_cell_formula_units_Z 16
_cell_length_a 6.626443
_cell_length_b 16.657656
_cell_length_c 14.536244
_cell_angle_alpha 149.786779
_cell_angle_beta 105.412078
_cell_angle_gamma 90.067078
_cell_volume 684.631571
_symmetry_space_group_name_H-M "P -1"
_symmetry_group_IT_number 2
_symmetry_cell_setting 'triclinic'
loop_
_space_group_symop_operation_xyz
x,y,z
-x,-y,-z
loop_
_atom_site_type_symbol
_atom_site_label
_atom_site_fract_x
_atom_site_fract_y
_atom_site_fract_z
Si Si1 0.140514 0.799782 0.291014
Si Si2 0.081463 0.029925 0.676976
Si Si3 0.066463 0.205510 0.222915
Si Si4 0.629037 0.440619 0.879564
Si Si5 0.770225 0.099746 0.261976
Si Si6 0.306109 0.708181 0.796089
Si Si7 0.624165 0.385289 0.489856
Si Si8 0.545567 0.577881 0.828370
O O1 0.129110 0.921923 0.325927
O O2 0.338178 0.733107 0.259749
O O3 0.123698 0.914262 0.488441
O O4 0.893969 0.610713 0.069526
O O5 0.077893 0.928081 0.668231
O O6 0.308406 0.227809 0.912888
O O7 0.948844 0.198169 0.298900
O O8 0.913174 0.252417 0.179158
O O9 0.347110 0.315608 0.366395
O O10 0.000000 0.000000 0.000000
O O11 0.503073 0.431165 0.756808
O O12 0.500000 0.500000 0.000000
O O13 0.657764 0.232143 0.398073
O O14 0.550275 0.901661 0.013124
O O15 0.278176 0.611074 0.597802
O O16 0.330143 0.591503 0.765818
O O17 0.688280 0.548984 0.731438
#
# Coordination Sequence:
#
# PCOD9083619 Si02
#       8
#     2   2   2   2   2   2   2   2
#     4   9  19  40  64  82 113 149 181 234 282 334
#     4   9  19  38  59  85 113 147 191 228 278 331
#     4  11  19  34  54  80 108 146 186 228 274 327
#     4  10  21  40  62  86 116 144 184 231 288 337
#     4  10  19  34  57  82 109 146 190 229 272 333
#     4  10  20  37  55  78 112 147 189 231 273 327
#     4  11  20  35  58  78 114 153 183 229 282 321
#     4  10  22  37  55  85 112 148 187 230 277 332
#
# _framework density 23.370234
#
# number of rings (size 3 to 8) (size 9 to 14) (size 15 to 20)
#    0.000    2.000    2.500    1.875    0.000    1.500 
#    2.250    9.375    0.000    0.000    0.000    0.000 
#    0.000    0.000    0.000    0.000    0.000    0.000 
#
# Total GULP energy -89292.390823 kJ/mol
# GULP energy per Si atom -5580.774426 kJ/mol
# Density = 2.331704 g / cm^3
# Si number density = 23.370234 Si / 1000 Ang^3
#
#
#
# Elastic Constant Matrix: (Units=GPa)
#
#
# Indices 1 2 3 4 5 6 
#
# 1 94.8356 68.6285 7.0061 9.3281 -12.1467 -36.1141
# 2 68.6285 190.8586 26.9048 -11.2257 -19.9668 -73.9253
# 3 7.0061 26.9048 86.6158 15.2852 -5.9646 -20.2954
# 4 9.3281 -11.2257 15.2852 29.0156 -4.1311 -11.7886
# 5 -12.1467 -19.9668 -5.9646 -4.1311 34.5731 16.5434
# 6 -36.1141 -73.9253 -20.2954 -11.7886 16.5434 41.5181
#
#
#
# Elastic Compliance Matrix: (Units=1/GPa)
#
#
# Indices 1 2 3 4 5 6 
#
# 1 0.016327 -0.002855 0.002417 -0.003882 -0.000445 0.009375
# 2 -0.002855 0.067074 -0.002266 0.085453 -0.024076 0.149695
# 3 0.002417 -0.002266 0.014102 -0.007981 -0.000334 0.002828
# 4 -0.003882 0.085453 -0.007981 0.149716 -0.031094 0.199776
# 5 -0.000445 -0.024076 -0.000334 -0.031094 0.044594 -0.070017
# 6 0.009375 0.149695 0.002828 0.199776 -0.070017 0.384787
#
#
# Mechanical properties :
#
#
# Convention : Reuss Voigt Hill
#
# Bulk Modulus (GPa) = 10.85833 64.15432 37.50632
# Shear Modulus (GPa) = 7.01551 39.00607 23.01079
#
# Velocity S-wave (km/s) = 1.73448 4.08983 3.14127
# Velocity P-wave (km/s) = 2.94407 7.05785 5.40744
#
# Compressibility (1/GPa) = 0.09209522
#
# Stress axis : x y z
#
# Youngs Moduli (GPa) = 61.24831 14.90881 70.91358
#
# Poissons Ratio (x) = 0.04257 -0.17142
# Poissons Ratio (y) = 0.17489 0.16068
# Poissons Ratio (z) = -0.14805 0.03378
#
# Static dielectric constant tensor:
#      x y z
#    x 2.186820 -0.044220 -0.158810 
#    y -0.044220 1.974630 0.014410 
#    z -0.158810 0.014410 1.993490 
# 
# From -- ./inp_files/48348.got.cif
#   From: 2010.05.17/outbox.cif.g08.bks.cpg/sg2_25_cif.got.tgz:48348.got - 2010.06.03 11:33:40.
