data_PCOD9083018
_publ_section_title
;
Structure prediction by ZEFSAII (Michael W. Deem and Ramdas Pophale) SiO2 
 PCOD9083018
Probable space group: P -1
;
_chemical_formula_sum "Si O2"
_cell_formula_units_Z 14
_cell_length_a 7.089554
_cell_length_b 5.072995
_cell_length_c 19.826138
_cell_angle_alpha 63.978686
_cell_angle_beta 102.146644
_cell_angle_gamma 116.134295
_cell_volume 575.130788
_symmetry_space_group_name_H-M "P -1"
_symmetry_group_IT_number 2
_symmetry_cell_setting 'triclinic'
loop_
_space_group_symop_operation_xyz
x,y,z
-x,-y,-z
loop_
_atom_site_type_symbol
_atom_site_label
_atom_site_fract_x
_atom_site_fract_y
_atom_site_fract_z
Si Si1 0.840346 0.384453 0.430558
Si Si2 0.984211 0.089229 0.068015
Si Si3 0.006378 0.062399 0.309306
Si Si4 0.832216 0.595152 0.224197
Si Si5 0.471012 0.144464 0.319915
Si Si6 0.695461 0.435900 0.552412
Si Si7 0.352018 0.644545 0.008049
O O1 0.651711 0.246929 0.379138
O O2 0.747153 0.259245 0.511021
O O3 0.058462 0.339323 0.438769
O O4 0.904855 0.768617 0.386917
O O5 0.210781 0.350704 0.078298
O O6 0.897694 0.762391 0.139008
O O7 0.829257 0.269675 0.050426
O O8 0.000000 0.000000 0.000000
O O9 0.946765 0.362078 0.276717
O O10 0.256111 0.180672 0.314541
O O11 0.907393 0.881204 0.252008
O O12 0.588336 0.359130 0.241496
O O13 0.390584 0.761923 0.363297
O O14 0.500000 0.500000 0.500000
O O15 0.500000 0.500000 0.000000
O O16 0.500000 0.000000 0.000000
#
# Coordination Sequence:
#
# PCOD9083018 Si02
#       7
#     2   2   2   2   2   2   2
#     4   9  20  37  58  93 131 170 224 280 325 397
#     4  11  26  45  73 106 142 178 234 293 352 420
#     4  10  24  43  64  95 132 179 224 275 334 404
#     4  11  26  43  68  95 136 173 224 275 340 402
#     4  10  22  41  61  91 132 177 224 274 336 400
#     4  10  19  33  60  92 129 173 222 274 337 390
#     4  11  24  44  70 102 138 176 221 280 348 418
#
# _framework density 24.342286000000001
#
# number of rings (size 3 to 8) (size 9 to 14) (size 15 to 20)
#    0.000    1.714    1.429    1.286    4.000    8.571 
#    0.000    0.000    0.000    0.000    0.000    0.000 
#    0.000    0.000    0.000    0.000    0.000    0.000 
#
# Total GULP energy -78041.257022 kJ/mol
# GULP energy per Si atom -5574.375502 kJ/mol
# Density = 2.428688 g / cm^3
# Si number density = 24.342286 Si / 1000 Ang^3
#
#
#
# Elastic Constant Matrix: (Units=GPa)
#
#
# Indices 1 2 3 4 5 6 
#
# 1 175.3357 41.3945 17.5160 -23.1564 -0.5863 25.9868
# 2 41.3945 88.3037 31.4163 -21.4996 -18.1522 12.2440
# 3 17.5160 31.4163 111.0266 -26.8997 -32.7174 7.1246
# 4 -23.1564 -21.4996 -26.8997 43.1545 8.9840 -6.4998
# 5 -0.5863 -18.1522 -32.7174 8.9840 33.3518 -13.3157
# 6 25.9868 12.2440 7.1246 -6.4998 -13.3157 45.6023
#
#
#
# Elastic Compliance Matrix: (Units=1/GPa)
#
#
# Indices 1 2 3 4 5 6 
#
# 1 0.007422 -0.002976 -0.000886 0.002274 -0.004704 -0.004342
# 2 -0.002976 0.015357 -0.001054 0.004124 0.006218 0.000140
# 3 -0.000886 -0.001054 0.014614 0.005793 0.013492 0.003270
# 4 0.002274 0.004124 0.005793 0.030163 0.000270 0.001070
# 5 -0.004704 0.006218 0.013492 0.000270 0.052099 0.014154
# 6 -0.004342 0.000140 0.003270 0.001070 0.014154 0.028140
#
#
# Mechanical properties :
#
#
# Convention : Reuss Voigt Hill
#
# Bulk Modulus (GPa) = 36.27921 61.70220 48.99071
# Shear Modulus (GPa) = 29.97354 43.37766 36.67560
#
# Velocity S-wave (km/s) = 3.51285 4.22594 3.88579
# Velocity P-wave (km/s) = 5.60264 7.01528 6.34838
#
# Compressibility (1/GPa) = 0.02756399
#
# Stress axis : x y z
#
# Youngs Moduli (GPa) = 134.72760 65.11637 68.42568
#
# Poissons Ratio (x) = 0.19377 0.06060
# Poissons Ratio (y) = 0.40091 0.07210
# Poissons Ratio (z) = 0.11932 0.06861
#
# Static dielectric constant tensor:
#      x y z
#    x 2.000350 0.033370 -0.055190 
#    y 0.033370 2.043760 -0.002920 
#    z -0.055190 -0.002920 2.005200 
# 
# From -- ./inp_files/602848.got.cif
#   From: 2010.05.17/outbox.cif.g08.bks.cpg/sg2_302_cif.got.tgz:602848.got - 2010.06.03 11:33:40.
