data_PCOD9083673
_publ_section_title
;
Structure prediction by ZEFSAII (Michael W. Deem and Ramdas Pophale) SiO2 
 PCOD9083673
Probable space group: P -1
;
_chemical_formula_sum "Si O2"
_cell_formula_units_Z 14
_cell_length_a 16.222101
_cell_length_b 7.734313
_cell_length_c 9.413753
_cell_angle_alpha 89.076044
_cell_angle_beta 147.362622
_cell_angle_gamma 74.507790
_cell_volume 543.832911
_symmetry_space_group_name_H-M "P -1"
_symmetry_group_IT_number 2
_symmetry_cell_setting 'triclinic'
loop_
_space_group_symop_operation_xyz
x,y,z
-x,-y,-z
loop_
_atom_site_type_symbol
_atom_site_label
_atom_site_fract_x
_atom_site_fract_y
_atom_site_fract_z
Si Si1 0.981263 0.785653 0.456357
Si Si2 0.930836 0.509377 0.177671
Si Si3 0.006006 0.249937 0.053125
Si Si4 0.480986 0.224802 0.373415
Si Si5 0.578673 0.094551 0.818735
Si Si6 0.390134 0.539625 0.619746
Si Si7 0.895682 0.145883 0.632084
O O1 0.020173 0.599935 0.406506
O O2 0.064433 0.673103 0.724102
O O3 0.053660 0.893446 0.457404
O O4 0.768632 0.927745 0.157820
O O5 0.037191 0.404504 0.187995
O O6 0.721479 0.677736 0.863170
O O7 0.788609 0.365325 0.740283
O O8 0.030642 0.188742 0.922831
O O9 0.095974 0.039579 0.270698
O O10 0.598603 0.163123 0.687610
O O11 0.493408 0.382496 0.288603
O O12 0.526415 0.023468 0.355591
O O13 0.481525 0.300704 0.762061
O O14 0.301075 0.658940 0.633802
#
# Coordination Sequence:
#
# PCOD9083673 Si02
#       7
#     2   2   2   2   2   2   2
#     4  10  22  38  58  84 120 143 196 243 276 352
#     4  10  21  38  58  85 113 157 187 236 294 335
#     4   9  19  36  56  86 113 150 192 228 295 336
#     4  10  19  34  57  85 114 145 200 237 276 346
#     4  10  20  33  60  86 108 155 194 234 293 328
#     4  10  19  36  57  83 118 145 187 247 280 337
#     4   9  20  37  54  86 118 148 189 237 289 339
#
# _framework density 25.743199000000001
#
# number of rings (size 3 to 8) (size 9 to 14) (size 15 to 20)
#    0.857    1.429    1.429    1.286    2.000    1.143 
#    2.571    0.714    0.000    2.571    0.000    0.000 
#    0.000    0.000    0.000    0.000    0.000    0.000 
#
# Total GULP energy -78224.880093 kJ/mol
# GULP energy per Si atom -5587.491435 kJ/mol
# Density = 2.568461 g / cm^3
# Si number density = 25.743199 Si / 1000 Ang^3
#
#
#
# Elastic Constant Matrix: (Units=GPa)
#
#
# Indices 1 2 3 4 5 6 
#
# 1 91.5739 0.6227 19.7037 -6.5031 -14.1058 -14.0990
# 2 0.6227 98.2296 26.0807 -24.2606 3.7331 -18.2163
# 3 19.7037 26.0807 73.8203 -20.5348 -5.0407 -7.6013
# 4 -6.5031 -24.2606 -20.5348 42.1213 0.7680 -0.0788
# 5 -14.1058 3.7331 -5.0407 0.7680 33.6773 -0.3698
# 6 -14.0990 -18.2163 -7.6013 -0.0788 -0.3698 41.2286
#
#
#
# Elastic Compliance Matrix: (Units=1/GPa)
#
#
# Indices 1 2 3 4 5 6 
#
# 1 0.013126 0.001767 -0.002865 0.001567 0.004890 0.004788
# 2 0.001767 0.013830 -0.002903 0.006859 -0.001316 0.006181
# 3 -0.002865 -0.002903 0.017292 0.006289 0.001577 0.000952
# 4 0.001567 0.006859 0.006289 0.031005 0.000183 0.004787
# 5 0.004890 -0.001316 0.001577 0.000183 0.032138 0.001670
# 6 0.004788 0.006181 0.000952 0.004787 0.001670 0.028823
#
#
# Mechanical properties :
#
#
# Convention : Reuss Voigt Hill
#
# Bulk Modulus (GPa) = 27.58995 39.60423 33.59709
# Shear Modulus (GPa) = 31.99012 37.88655 34.93834
#
# Velocity S-wave (km/s) = 3.52897 3.84045 3.68800
# Velocity P-wave (km/s) = 5.22929 5.92310 5.58698
#
# Compressibility (1/GPa) = 0.03624508
#
# Stress axis : x y z
#
# Youngs Moduli (GPa) = 76.18300 72.30662 57.83097
#
# Poissons Ratio (x) = -0.12773 0.16568
# Poissons Ratio (y) = -0.13458 0.16790
# Poissons Ratio (z) = 0.21825 0.20992
#
# Static dielectric constant tensor:
#      x y z
#    x 2.062460 0.036610 -0.024050 
#    y 0.036610 2.213840 0.037580 
#    z -0.024050 0.037580 1.956930 
# 
# From -- ./inp_files/378140.got.cif
#   From: 2010.05.17/outbox.cif.g08.bks.cpg/sg2_190_cif.got.tgz:378140.got - 2010.06.03 11:33:40.
