data_PCOD9083709
_publ_section_title
;
Structure prediction by ZEFSAII (Michael W. Deem and Ramdas Pophale) SiO2 
 PCOD9083709
Probable space group: P -1
;
_chemical_formula_sum "Si O2"
_cell_formula_units_Z 16
_cell_length_a 10.435220
_cell_length_b 17.452477
_cell_length_c 12.335457
_cell_angle_alpha 28.820700
_cell_angle_beta 140.850240
_cell_angle_gamma 128.048184
_cell_volume 668.881423
_symmetry_space_group_name_H-M "P -1"
_symmetry_group_IT_number 2
_symmetry_cell_setting 'triclinic'
loop_
_space_group_symop_operation_xyz
x,y,z
-x,-y,-z
loop_
_atom_site_type_symbol
_atom_site_label
_atom_site_fract_x
_atom_site_fract_y
_atom_site_fract_z
Si Si1 0.955780 0.693301 0.241355
Si Si2 0.431073 0.255731 0.207742
Si Si3 0.519935 0.996866 0.250763
Si Si4 0.848126 0.578562 0.707899
Si Si5 0.777231 0.137629 0.945857
Si Si6 0.823042 0.398947 0.288207
Si Si7 0.900615 0.863885 0.512680
Si Si8 0.345079 0.707225 0.100230
O O1 0.000000 0.500000 0.500000
O O2 0.099879 0.751853 0.175568
O O3 0.049986 0.714339 0.394336
O O4 0.719774 0.768091 0.960611
O O5 0.476061 0.104108 0.509122
O O6 0.643360 0.307046 0.245285
O O7 0.300046 0.420380 0.978116
O O8 0.357350 0.939872 0.132622
O O9 0.740908 0.929797 0.420779
O O10 0.504595 0.193672 0.988810
O O11 0.782143 0.756526 0.492635
O O12 0.000895 0.576737 0.709638
O O13 0.668445 0.481277 0.690724
O O14 0.000000 0.500000 0.000000
O O15 0.660364 0.236399 0.848341
O O16 0.937985 0.997768 0.286277
O O17 0.114604 0.779022 0.810969
#
# Coordination Sequence:
#
# PCOD9083709 Si02
#       8
#     2   2   2   2   2   2   2   2
#     4  10  19  34  57  88 118 151 194 247 300 343
#     4  10  19  34  61  89 118 149 195 251 298 337
#     4  11  20  35  59  92 118 151 201 250 294 347
#     4  10  21  39  61  84 120 158 195 241 300 360
#     4  11  20  35  57  89 121 151 202 253 289 349
#     4  10  20  36  58  88 117 152 197 243 292 357
#     4  10  20  35  59  85 116 162 194 241 304 347
#     4  10  19  34  58  84 115 153 198 243 293 350
#
# _framework density 23.920534
#
# number of rings (size 3 to 8) (size 9 to 14) (size 15 to 20)
#    0.000    1.750    1.250    7.500    0.000    0.000 
#    0.000    3.125   11.000    3.750    0.000    0.000 
#    0.000    0.000    0.000    0.000    0.000    0.000 
#
# Total GULP energy -89328.129919 kJ/mol
# GULP energy per Si atom -5583.008120 kJ/mol
# Density = 2.386609 g / cm^3
# Si number density = 23.920534 Si / 1000 Ang^3
#
#
#
# Elastic Constant Matrix: (Units=GPa)
#
#
# Indices 1 2 3 4 5 6 
#
# 1 24.2139 29.9878 81.7269 -4.9565 -10.4794 18.4753
# 2 29.9878 154.1710 57.1283 2.9751 0.5189 38.1634
# 3 81.7269 57.1283 63.8326 25.6712 -40.8479 15.2506
# 4 -4.9565 2.9751 25.6712 56.0859 13.2427 0.2364
# 5 -10.4794 0.5189 -40.8479 13.2427 31.1998 -6.9180
# 6 18.4753 38.1634 15.2506 0.2364 -6.9180 34.3850
#
#
#
# Elastic Compliance Matrix: (Units=1/GPa)
#
#
# Indices 1 2 3 4 5 6 
#
# 1 0.011660 -0.007818 0.014101 -0.011589 0.027834 0.001837
# 2 -0.007818 0.010037 -0.000216 0.000049 -0.004829 -0.007815
# 3 0.014101 -0.000216 -0.002641 0.002810 -0.001342 -0.006455
# 4 -0.011589 0.000049 0.002810 0.017083 -0.006697 0.003461
# 5 0.027834 -0.004829 -0.001342 -0.006697 0.042476 -0.000408
# 6 0.001837 -0.007815 -0.006455 0.003461 -0.000408 0.039526
#
#
# Mechanical properties :
#
#
# Convention : Reuss Voigt Hill
#
# Bulk Modulus (GPa) = 32.06209 64.43371 48.24790
# Shear Modulus (GPa) = 42.95342 29.22578 36.08960
#
# Velocity S-wave (km/s) = 4.24213 3.49920 3.88845
# Velocity P-wave (km/s) = 6.11776 6.58186 6.35405
#
# Compressibility (1/GPa) = 0.03118949
#
# Stress axis : x y z
#
# Youngs Moduli (GPa) = 85.76096 99.63188 -378.65737
#
# Poissons Ratio (x) = 0.77891 5.33928
# Poissons Ratio (y) = 0.67047 -0.08182
# Poissons Ratio (z) = -1.20928 0.02153
#
# Static dielectric constant tensor:
#      x y z
#    x 1.903660 -0.045450 -0.002770 
#    y -0.045450 2.012010 -0.050920 
#    z -0.002770 -0.050920 1.998410 
# 
# From -- ./inp_files/254474.got.cif
#   From: 2010.05.17/outbox.cif.g08.bks.cpg/sg2_128_cif.got.tgz:254474.got - 2010.06.03 11:33:40.
