data_PCOD9083119
_publ_section_title
;
Structure prediction by ZEFSAII (Michael W. Deem and Ramdas Pophale) SiO2 
 PCOD9083119
Probable space group: P -1
;
_chemical_formula_sum "Si O2"
_cell_formula_units_Z 16
_cell_length_a 12.343805
_cell_length_b 19.411746
_cell_length_c 21.712334
_cell_angle_alpha 19.475596
_cell_angle_beta 156.303044
_cell_angle_gamma 151.129182
_cell_volume 694.123073
_symmetry_space_group_name_H-M "P -1"
_symmetry_group_IT_number 2
_symmetry_cell_setting 'triclinic'
loop_
_space_group_symop_operation_xyz
x,y,z
-x,-y,-z
loop_
_atom_site_type_symbol
_atom_site_label
_atom_site_fract_x
_atom_site_fract_y
_atom_site_fract_z
Si Si1 0.548002 0.799772 0.231965
Si Si2 0.624495 0.546185 0.278509
Si Si3 0.983276 0.446766 0.875566
Si Si4 0.895689 0.280135 0.098684
Si Si5 0.877610 0.521786 0.555304
Si Si6 0.376704 0.070202 0.569832
Si Si7 0.564073 0.635788 0.024938
Si Si8 0.361260 0.194310 0.586093
O O1 0.268354 0.644932 0.219977
O O2 0.781361 0.696380 0.403296
O O3 0.626712 0.862216 0.289155
O O4 0.500000 0.000000 0.000000
O O5 0.871616 0.572963 0.434799
O O6 0.527932 0.297586 0.440623
O O7 0.603485 0.609835 0.142046
O O8 0.420145 0.694208 0.080466
O O9 0.882065 0.659125 0.671052
O O10 0.976000 0.292130 0.059302
O O11 0.293905 0.500393 0.974556
O O12 0.068186 0.102604 0.364259
O O13 0.000000 0.500000 0.000000
O O14 0.636996 0.341089 0.591853
O O15 0.160638 0.445078 0.787626
O O16 0.366882 0.036303 0.666630
O O17 0.516140 0.873631 0.783104
#
# Coordination Sequence:
#
# PCOD9083119 Si02
#       8
#     2   2   2   2   2   2   2   2
#     4  11  25  45  69  91 117 176 236 269 310 375
#     4  10  19  38  59  92 141 170 205 267 310 393
#     4  11  20  39  65  92 133 167 211 278 321 366
#     4  10  15  36  59  93 132 164 205 274 309 363
#     4  10  22  43  62  93 132 170 215 262 331 377
#     4  10  21  35  62 102 133 169 209 251 337 393
#     4  12  24  36  64 102 138 172 194 267 347 393
#     4  10  21  43  65  89 126 175 226 269 295 388
#
# _framework density 23.050668000000002
#
# number of rings (size 3 to 8) (size 9 to 14) (size 15 to 20)
#    0.000    1.500    7.500    1.875    1.750    5.000 
#    2.250    3.125    0.000    0.000    0.000    0.000 
#    0.000    0.000    0.000    0.000    0.000    0.000 
#
# Total GULP energy -89283.282603 kJ/mol
# GULP energy per Si atom -5580.205163 kJ/mol
# Density = 2.299820 g / cm^3
# Si number density = 23.050668 Si / 1000 Ang^3
#
#
#
# Elastic Constant Matrix: (Units=GPa)
#
#
# Indices 1 2 3 4 5 6 
#
# 1 56.0676 4.8584 30.8398 -7.4012 -20.4723 -9.2871
# 2 4.8584 59.2342 56.0763 2.7509 9.1931 -10.2557
# 3 30.8398 56.0763 190.4753 -0.7000 17.3624 7.8554
# 4 -7.4012 2.7509 -0.7000 38.9990 9.2716 -4.4252
# 5 -20.4723 9.1931 17.3624 9.2716 40.6557 6.9351
# 6 -9.2871 -10.2557 7.8554 -4.4252 6.9351 30.7888
#
#
#
# Elastic Compliance Matrix: (Units=1/GPa)
#
#
# Indices 1 2 3 4 5 6 
#
# 1 0.028841 0.003902 -0.007522 0.002578 0.014735 0.008970
# 2 0.003902 0.028031 -0.009172 0.000856 -0.002980 0.013648
# 3 -0.007522 -0.009172 0.009878 -0.000257 -0.004710 -0.006821
# 4 0.002578 0.000856 -0.000257 0.028336 -0.006380 0.006638
# 5 0.014735 -0.002980 -0.004710 -0.006380 0.036939 -0.004583
# 6 0.008970 0.013648 -0.006821 0.006638 -0.004583 0.043458
#
#
# Mechanical properties :
#
#
# Convention : Reuss Voigt Hill
#
# Bulk Modulus (GPa) = 24.29210 54.36957 39.33084
# Shear Modulus (GPa) = 23.27852 36.35553 29.81702
#
# Velocity S-wave (km/s) = 3.18132 3.97571 3.60049
# Velocity P-wave (km/s) = 4.90467 6.68679 5.86383
#
# Compressibility (1/GPa) = 0.04116565
#
# Stress axis : x y z
#
# Youngs Moduli (GPa) = 34.67228 35.67451 101.23560
#
# Poissons Ratio (x) = -0.13920 0.76150
# Poissons Ratio (y) = -0.13529 0.92857
# Poissons Ratio (z) = 0.26081 0.32722
#
# Static dielectric constant tensor:
#      x y z
#    x 1.903780 0.057210 -0.050960 
#    y 0.057210 1.986780 -0.018150 
#    z -0.050960 -0.018150 1.875440 
# 
# From -- ./inp_files/619899.got.cif
#   From: 2010.05.17/outbox.cif.g08.bks.cpg/sg2_310_cif.got.tgz:619899.got - 2010.06.03 11:33:40.
