data_PCOD9083767
_publ_section_title
;
Structure prediction by ZEFSAII (Michael W. Deem and Ramdas Pophale) SiO2 
 PCOD9083767
Probable space group: P -1
;
_chemical_formula_sum "Si O2"
_cell_formula_units_Z 12
_cell_length_a 9.177104
_cell_length_b 7.880057
_cell_length_c 11.798020
_cell_angle_alpha 131.975168
_cell_angle_beta 75.820646
_cell_angle_gamma 130.705049
_cell_volume 452.317623
_symmetry_space_group_name_H-M "P -1"
_symmetry_group_IT_number 2
_symmetry_cell_setting 'triclinic'
loop_
_space_group_symop_operation_xyz
x,y,z
-x,-y,-z
loop_
_atom_site_type_symbol
_atom_site_label
_atom_site_fract_x
_atom_site_fract_y
_atom_site_fract_z
Si Si1 0.268809 0.952134 0.609931
Si Si2 0.225346 0.303855 0.955472
Si Si3 0.225298 0.795217 0.136174
Si Si4 0.833444 0.446169 0.349362
Si Si5 0.771816 0.978569 0.974370
Si Si6 0.665479 0.761881 0.496616
O O1 0.305451 0.785848 0.620123
O O2 0.059709 0.674074 0.460298
O O3 0.227788 0.128964 0.775698
O O4 0.403171 0.181213 0.580482
O O5 0.325251 0.303722 0.049423
O O6 0.321269 0.647000 0.067277
O O7 0.986171 0.094671 0.940110
O O8 0.213248 0.929347 0.311267
O O9 0.339397 0.052855 0.131223
O O10 0.000000 0.500000 0.000000
O O11 0.814137 0.240229 0.162301
O O12 0.789331 0.654245 0.405231
O O13 0.500000 0.500000 0.500000
#
# Coordination Sequence:
#
# PCOD9083767 Si02
#       6
#     2   2   2   2   2   2
#     4  10  20  37  63  90 117 155 205 252 292 350
#     4   9  17  31  55  86 112 138 185 248 298 334
#     4  10  19  34  58  81 108 151 197 239 279 340
#     4  10  20  37  63  90 117 155 205 252 292 350
#     4   9  17  31  55  86 112 138 185 248 298 334
#     4  12  26  40  57  87 129 165 193 241 306 362
#
# _framework density 26.53003
#
# number of rings (size 3 to 8) (size 9 to 14) (size 15 to 20)
#    0.000    2.000    0.000    5.500    0.000    4.667 
#    0.000    3.333    0.000    4.000    0.000    0.000 
#    0.000    0.000    0.000    0.000    0.000    0.000 
#
# Total GULP energy -67155.919179 kJ/mol
# GULP energy per Si atom -5596.326598 kJ/mol
# Density = 2.646965 g / cm^3
# Si number density = 26.530030 Si / 1000 Ang^3
#
#
#
# Elastic Constant Matrix: (Units=GPa)
#
#
# Indices 1 2 3 4 5 6 
#
# 1 41.6733 31.5522 39.7544 7.3697 -6.1138 -11.6178
# 2 31.5522 152.9106 39.6309 -27.9374 4.0332 -50.2285
# 3 39.7544 39.6309 181.9182 -21.2085 3.2353 -17.0166
# 4 7.3697 -27.9374 -21.2085 45.5864 -3.3724 2.8136
# 5 -6.1138 4.0332 3.2353 -3.3724 38.4808 0.5660
# 6 -11.6178 -50.2285 -17.0166 2.8136 0.5660 66.2004
#
#
#
# Elastic Compliance Matrix: (Units=1/GPa)
#
#
# Indices 1 2 3 4 5 6 
#
# 1 0.045653 -0.011082 -0.010025 -0.018126 0.007702 -0.002269
# 2 -0.011082 0.012826 0.001531 0.009699 -0.002498 0.007790
# 3 -0.010025 0.001531 0.008226 0.006165 -0.001923 0.001272
# 4 -0.018126 0.009699 0.006165 0.033294 -0.001561 0.004361
# 5 0.007702 -0.002498 -0.001923 -0.001561 0.027515 -0.001207
# 6 -0.002269 0.007790 0.001272 0.004361 -0.001207 0.020770
#
#
# Mechanical properties :
#
#
# Convention : Reuss Voigt Hill
#
# Bulk Modulus (GPa) = 36.29204 66.48634 51.38919
# Shear Modulus (GPa) = 25.42976 47.75785 36.59381
#
# Velocity S-wave (km/s) = 3.09937 4.24741 3.71797
# Velocity P-wave (km/s) = 5.14951 7.01208 6.15169
#
# Compressibility (1/GPa) = 0.02755425
#
# Stress axis : x y z
#
# Youngs Moduli (GPa) = 21.90444 77.96448 121.56645
#
# Poissons Ratio (x) = 0.86402 1.21866
# Poissons Ratio (y) = 0.24275 -0.18616
# Poissons Ratio (z) = 0.21958 -0.11939
#
# Static dielectric constant tensor:
#      x y z
#    x 2.225710 0.011580 0.018390 
#    y 0.011580 2.254290 0.009730 
#    z 0.018390 0.009730 1.973760 
# 
# From -- ./inp_files/154887.got.cif
#   From: 2010.05.17/outbox.cif.g08.bks.cpg/sg2_78_cif.got.tgz:154887.got - 2010.06.03 11:33:40.
