data_PCOD9083350
_publ_section_title
;
Structure prediction by ZEFSAII (Michael W. Deem and Ramdas Pophale) SiO2 
 PCOD9083350
Probable space group: P -1
;
_chemical_formula_sum "Si O2"
_cell_formula_units_Z 16
_cell_length_a 16.383848
_cell_length_b 19.018492
_cell_length_c 9.124773
_cell_angle_alpha 36.437406
_cell_angle_beta 149.656048
_cell_angle_gamma 150.201228
_cell_volume 696.085170
_symmetry_space_group_name_H-M "P -1"
_symmetry_group_IT_number 2
_symmetry_cell_setting 'triclinic'
loop_
_space_group_symop_operation_xyz
x,y,z
-x,-y,-z
loop_
_atom_site_type_symbol
_atom_site_label
_atom_site_fract_x
_atom_site_fract_y
_atom_site_fract_z
Si Si1 0.104735 0.143152 0.768634
Si Si2 0.600720 0.203893 0.736393
Si Si3 0.258816 0.970798 0.411961
Si Si4 0.638066 0.663087 0.885154
Si Si5 0.004472 0.543653 0.186047
Si Si6 0.785593 0.544085 0.123697
Si Si7 0.426673 0.344556 0.721256
Si Si8 0.645054 0.238909 0.064511
O O1 0.206047 0.245315 0.612303
O O2 0.876930 0.070667 0.580503
O O3 0.213404 0.240853 0.917262
O O4 0.165347 0.029592 0.059757
O O5 0.506343 0.293723 0.451474
O O6 0.833368 0.312086 0.887516
O O7 0.480015 0.099730 0.588370
O O8 0.574710 0.150922 0.951079
O O9 0.269940 0.841461 0.586338
O O10 0.500000 0.500000 0.000000
O O11 0.754116 0.664390 0.922068
O O12 0.118273 0.486434 0.543155
O O13 0.910038 0.578992 0.111791
O O14 0.829305 0.408599 0.048798
O O15 0.573259 0.397675 0.999676
O O16 0.500000 0.500000 0.500000
O O17 0.481016 0.252269 0.863863
#
# Coordination Sequence:
#
# PCOD9083350 Si02
#       8
#     2   2   2   2   2   2   2   2
#     4  10  22  41  64  90 124 166 211 251 308 373
#     4  11  22  39  58  89 123 163 209 253 310 364
#     4  10  23  42  63  86 124 173 210 247 302 385
#     4  11  18  33  64  87 117 162 202 255 305 363
#     4  10  21  36  59  87 123 156 206 265 302 355
#     4  10  19  34  54  90 121 149 196 251 316 358
#     4  11  23  39  61  96 131 156 200 270 318 360
#     4  11  24  38  61  92 123 163 207 254 316 371
#
# _framework density 22.985693000000001
#
# number of rings (size 3 to 8) (size 9 to 14) (size 15 to 20)
#    0.000    1.500    2.500    3.000    0.000    2.500 
#    0.000    4.375    0.000    0.000    0.000    0.000 
#    0.000    0.000    0.000    0.000    0.000    0.000 
#
# Total GULP energy -89329.526453 kJ/mol
# GULP energy per Si atom -5583.095403 kJ/mol
# Density = 2.293338 g / cm^3
# Si number density = 22.985693 Si / 1000 Ang^3
#
#
#
# Elastic Constant Matrix: (Units=GPa)
#
#
# Indices 1 2 3 4 5 6 
#
# 1 86.6198 11.8275 5.3577 -12.0137 19.8825 7.6099
# 2 11.8275 47.3687 4.6703 -1.5002 6.7516 10.4767
# 3 5.3577 4.6703 55.8643 -20.9836 10.7750 -1.1175
# 4 -12.0137 -1.5002 -20.9836 42.5417 -8.8648 -1.6534
# 5 19.8825 6.7516 10.7750 -8.8648 33.1241 -2.6049
# 6 7.6099 10.4767 -1.1175 -1.6534 -2.6049 28.5504
#
#
#
# Elastic Compliance Matrix: (Units=1/GPa)
#
#
# Indices 1 2 3 4 5 6 
#
# 1 0.014285 -0.001605 0.001315 0.002765 -0.008231 -0.003758
# 2 -0.001605 0.024301 -0.001859 -0.001822 -0.004587 -0.009086
# 3 0.001315 -0.001859 0.022897 0.010632 -0.004903 0.001396
# 4 0.002765 -0.001822 0.010632 0.030302 0.003554 0.002427
# 5 -0.008231 -0.004587 -0.004903 0.003554 0.039199 0.007468
# 6 -0.003758 -0.009086 0.001396 0.002427 0.007468 0.040238
#
#
# Mechanical properties :
#
#
# Convention : Reuss Voigt Hill
#
# Bulk Modulus (GPa) = 17.48674 25.95155 21.71915
# Shear Modulus (GPa) = 25.69615 32.04307 28.86961
#
# Velocity S-wave (km/s) = 3.34716 3.73774 3.54783
# Velocity P-wave (km/s) = 4.74996 5.47197 5.12370
#
# Compressibility (1/GPa) = 0.05718618
#
# Stress axis : x y z
#
# Youngs Moduli (GPa) = 70.00113 41.15099 43.67350
#
# Poissons Ratio (x) = 0.06603 -0.05743
# Poissons Ratio (y) = 0.11233 0.08119
# Poissons Ratio (z) = -0.09206 0.07650
#
# Static dielectric constant tensor:
#      x y z
#    x 1.885170 0.040720 0.012050 
#    y 0.040720 1.895170 -0.006470 
#    z 0.012050 -0.006470 1.939760 
# 
# From -- ./inp_files/317993.got.cif
#   From: 2010.05.17/outbox.cif.g08.bks.cpg/sg2_159_cif.got.tgz:317993.got - 2010.06.03 11:33:40.
