data_PCOD9083123
_publ_section_title
;
Structure prediction by ZEFSAII (Michael W. Deem and Ramdas Pophale) SiO2 
 PCOD9083123
Probable space group: P -1
;
_chemical_formula_sum "Si O2"
_cell_formula_units_Z 16
_cell_length_a 7.545611
_cell_length_b 18.408954
_cell_length_c 12.832788
_cell_angle_alpha 32.925983
_cell_angle_beta 65.397479
_cell_angle_gamma 88.227665
_cell_volume 673.582463
_symmetry_space_group_name_H-M "P -1"
_symmetry_group_IT_number 2
_symmetry_cell_setting 'triclinic'
loop_
_space_group_symop_operation_xyz
x,y,z
-x,-y,-z
loop_
_atom_site_type_symbol
_atom_site_label
_atom_site_fract_x
_atom_site_fract_y
_atom_site_fract_z
Si Si1 0.773715 0.627058 0.153958
Si Si2 0.415735 0.825589 0.288071
Si Si3 0.095991 0.687169 0.185664
Si Si4 0.474371 0.726111 0.182478
Si Si5 0.023426 0.013476 0.656078
Si Si6 0.527744 0.171600 0.262177
Si Si7 0.837630 0.984896 0.153063
Si Si8 0.005245 0.488819 0.889218
O O1 0.474696 0.396694 0.732857
O O2 0.800543 0.546410 0.145468
O O3 0.871749 0.584338 0.279143
O O4 0.978127 0.837414 0.850146
O O5 0.505562 0.756105 0.263313
O O6 0.559549 0.873364 0.304932
O O7 0.122963 0.667058 0.581998
O O8 0.500000 0.000000 0.000000
O O9 0.197690 0.655809 0.300608
O O10 0.340021 0.765205 0.958145
O O11 0.076527 0.828831 0.062336
O O12 0.724731 0.924450 0.840288
O O13 0.267558 0.144892 0.364371
O O14 0.128134 0.076818 0.672038
O O15 0.500000 0.000000 0.500000
O O16 0.732582 0.324079 0.108963
O O17 0.000000 0.000000 0.000000
O O18 0.000000 0.500000 0.000000
#
# Coordination Sequence:
#
# PCOD9083123 Si02
#       8
#     2   2   2   2   2   2   2   2
#     4   8  19  40  60  95 125 166 226 279 324 404
#     4  12  24  38  63 100 138 175 224 280 344 409
#     4  10  19  33  64  89 124 171 215 271 334 391
#     4  10  20  38  61  97 125 174 227 277 330 408
#     4   9  18  34  62  90 119 164 225 274 312 400
#     4  11  18  39  65  91 126 176 227 269 338 405
#     4  11  18  34  61  90 128 177 220 267 337 402
#     4  11  24  40  69 100 133 179 227 282 346 411
#
# _framework density 23.753587
#
# number of rings (size 3 to 8) (size 9 to 14) (size 15 to 20)
#    0.750    1.000    6.250    0.750    0.000    1.000 
#    0.000    2.500    5.500    3.750    0.000    0.000 
#    0.000    0.000    0.000    0.000    0.000    0.000 
#
# Total GULP energy -89074.942323 kJ/mol
# GULP energy per Si atom -5567.183895 kJ/mol
# Density = 2.369952 g / cm^3
# Si number density = 23.753587 Si / 1000 Ang^3
#
#
#
# Elastic Constant Matrix: (Units=GPa)
#
#
# Indices 1 2 3 4 5 6 
#
# 1 57.9867 17.8698 0.7260 -11.3078 -12.7897 1.6765
# 2 17.8698 163.0546 20.3694 1.4215 -0.7968 -7.9694
# 3 0.7260 20.3694 68.4852 -8.0685 -17.7002 -2.1347
# 4 -11.3078 1.4215 -8.0685 36.3085 -0.1474 -19.0811
# 5 -12.7897 -0.7968 -17.7002 -0.1474 33.8946 2.2899
# 6 1.6765 -7.9694 -2.1347 -19.0811 2.2899 31.5652
#
#
#
# Elastic Compliance Matrix: (Units=1/GPa)
#
#
# Indices 1 2 3 4 5 6 
#
# 1 0.022259 -0.002874 0.004651 0.010085 0.010551 0.003738
# 2 -0.002874 0.006845 -0.002736 -0.001168 -0.002436 0.001166
# 3 0.004651 -0.002736 0.019488 0.008341 0.011594 0.004581
# 4 0.010085 -0.001168 0.008341 0.047224 0.006460 0.027812
# 5 0.010551 -0.002436 0.011594 0.006460 0.039466 0.000651
# 6 0.003738 0.001166 0.004581 0.027812 0.000651 0.048851
#
#
# Mechanical properties :
#
#
# Convention : Reuss Voigt Hill
#
# Bulk Modulus (GPa) = 21.42603 40.82854 31.12728
# Shear Modulus (GPa) = 24.80034 37.05774 30.92904
#
# Velocity S-wave (km/s) = 3.23471 3.95408 3.61235
# Velocity P-wave (km/s) = 4.79487 6.17026 5.52553
#
# Compressibility (1/GPa) = 0.04667221
#
# Stress axis : x y z
#
# Youngs Moduli (GPa) = 44.92638 146.09155 51.31285
#
# Poissons Ratio (x) = 0.41987 -0.23863
# Poissons Ratio (y) = 0.12912 0.14041
# Poissons Ratio (z) = -0.20893 0.39976
#
# Static dielectric constant tensor:
#      x y z
#    x 1.995460 0.002000 0.012310 
#    y 0.002000 1.964140 -0.157740 
#    z 0.012310 -0.157740 2.381160 
# 
# From -- ./inp_files/401790.got.cif
#   From: 2010.05.17/outbox.cif.g08.bks.cpg/sg2_201_cif.got.tgz:401790.got - 2010.06.03 11:33:40.
