data_PCOD9083331
_publ_section_title
;
Structure prediction by ZEFSAII (Michael W. Deem and Ramdas Pophale) SiO2 
 PCOD9083331
Probable space group: P -1
;
_chemical_formula_sum "Si O2"
_cell_formula_units_Z 14
_cell_length_a 11.694618
_cell_length_b 13.601229
_cell_length_c 6.891321
_cell_angle_alpha 112.961560
_cell_angle_beta 66.507395
_cell_angle_gamma 145.656706
_cell_volume 563.178925
_symmetry_space_group_name_H-M "P -1"
_symmetry_group_IT_number 2
_symmetry_cell_setting 'triclinic'
loop_
_space_group_symop_operation_xyz
x,y,z
-x,-y,-z
loop_
_atom_site_type_symbol
_atom_site_label
_atom_site_fract_x
_atom_site_fract_y
_atom_site_fract_z
Si Si1 0.885149 0.046411 0.161922
Si Si2 0.343907 0.302810 0.034211
Si Si3 0.728627 0.160321 0.227756
Si Si4 0.362759 0.503615 0.684265
Si Si5 0.921675 0.500221 0.255314
Si Si6 0.032326 0.908914 0.311892
Si Si7 0.268793 0.889744 0.278773
O O1 0.796017 0.104043 0.261698
O O2 0.736720 0.846648 0.168321
O O3 0.127539 0.208648 0.180235
O O4 0.893551 0.027772 0.908253
O O5 0.500000 0.500000 0.000000
O O6 0.488020 0.350472 0.138605
O O7 0.858709 0.356183 0.312574
O O8 0.493277 0.028367 0.310909
O O9 0.739555 0.137669 0.971299
O O10 0.500000 0.500000 0.500000
O O11 0.265636 0.541347 0.672265
O O12 0.163124 0.302532 0.734584
O O13 0.115387 0.702408 0.334572
O O14 0.000000 0.500000 0.000000
O O15 0.184285 0.951622 0.388832
O O16 0.000000 0.000000 0.500000
#
# Coordination Sequence:
#
# PCOD9083331 Si02
#       7
#     2   2   2   2   2   2   2
#     4  10  22  37  57  87 115 157 202 240 289 356
#     4  11  23  39  58  84 123 159 199 241 296 358
#     4   9  17  30  53  78 110 141 190 239 288 330
#     4  11  23  37  60  93 121 157 196 249 303 347
#     4   9  19  32  53  86 117 144 195 244 291 346
#     4  10  19  34  54  85 121 149 192 242 292 349
#     4   8  17  28  45  79 109 143 179 235 287 333
#
# _framework density 24.858885999999998
#
# number of rings (size 3 to 8) (size 9 to 14) (size 15 to 20)
#    0.000    2.286    1.429    1.714   10.000    0.000 
#    0.000    0.000    0.000    0.857    3.714    7.000 
#    0.000    0.000    0.000    0.000    0.000    0.000 
#
# Total GULP energy -78213.477895 kJ/mol
# GULP energy per Si atom -5586.676992 kJ/mol
# Density = 2.480231 g / cm^3
# Si number density = 24.858886 Si / 1000 Ang^3
#
#
#
# Elastic Constant Matrix: (Units=GPa)
#
#
# Indices 1 2 3 4 5 6 
#
# 1 138.9864 81.8942 21.4008 -10.7787 -39.2866 -16.0713
# 2 81.8942 169.7814 24.0874 15.6000 -21.1203 6.5528
# 3 21.4008 24.0874 75.3211 19.5980 -19.2690 -2.5797
# 4 -10.7787 15.6000 19.5980 28.3132 -2.2710 -9.1305
# 5 -39.2866 -21.1203 -19.2690 -2.2710 50.3463 1.8824
# 6 -16.0713 6.5528 -2.5797 -9.1305 1.8824 39.4836
#
#
#
# Elastic Compliance Matrix: (Units=1/GPa)
#
#
# Indices 1 2 3 4 5 6 
#
# 1 0.020519 -0.010551 -0.005326 0.022809 0.010032 0.014551
# 2 -0.010551 0.012141 0.002139 -0.015506 -0.002661 -0.009629
# 3 -0.005326 0.002139 0.019604 -0.018306 0.003630 -0.005648
# 4 0.022809 -0.015506 -0.018306 0.074651 0.006623 0.027608
# 5 0.010032 -0.002661 0.003630 0.006623 0.028077 0.004955
# 6 0.014551 -0.009629 -0.005648 0.027608 0.004955 0.038627
#
#
# Mechanical properties :
#
#
# Convention : Reuss Voigt Hill
#
# Bulk Modulus (GPa) = 40.34124 70.98376 55.66250
# Shear Modulus (GPa) = 21.79997 40.74239 31.27118
#
# Velocity S-wave (km/s) = 2.96455 4.05278 3.55060
# Velocity P-wave (km/s) = 5.28974 7.10751 6.26491
#
# Compressibility (1/GPa) = 0.02478853
#
# Stress axis : x y z
#
# Youngs Moduli (GPa) = 48.73480 82.36427 51.01044
#
# Poissons Ratio (x) = 0.86905 0.27167
# Poissons Ratio (y) = 0.51422 -0.10912
# Poissons Ratio (z) = 0.25955 -0.17619
#
# Static dielectric constant tensor:
#      x y z
#    x 1.738740 0.070040 0.188570 
#    y 0.070040 1.903350 -0.124380 
#    z 0.188570 -0.124380 2.029570 
# 
# From -- ./inp_files/270844.got.cif
#   From: 2010.05.17/outbox.cif.g08.bks.cpg/sg2_136_cif.got.tgz:270844.got - 2010.06.03 11:33:40.
