data_PCOD9083369
_publ_section_title
;
Structure prediction by ZEFSAII (Michael W. Deem and Ramdas Pophale) SiO2 
 PCOD9083369
Probable space group: P -1
;
_chemical_formula_sum "Si O2"
_cell_formula_units_Z 14
_cell_length_a 13.695919
_cell_length_b 8.023157
_cell_length_c 9.106137
_cell_angle_alpha 82.230120
_cell_angle_beta 98.156103
_cell_angle_gamma 149.757616
_cell_volume 498.715381
_symmetry_space_group_name_H-M "P -1"
_symmetry_group_IT_number 2
_symmetry_cell_setting 'triclinic'
loop_
_space_group_symop_operation_xyz
x,y,z
-x,-y,-z
loop_
_atom_site_type_symbol
_atom_site_label
_atom_site_fract_x
_atom_site_fract_y
_atom_site_fract_z
Si Si1 0.324008 0.370042 0.259153
Si Si2 0.721043 0.370560 0.631344
Si Si3 0.130916 0.294273 0.679060
Si Si4 0.210770 0.658160 0.052877
Si Si5 0.114918 0.631743 0.727013
Si Si6 0.373049 0.561821 0.944117
Si Si7 0.297471 0.004484 0.449795
O O1 0.397132 0.653123 0.311452
O O2 0.394980 0.310556 0.366492
O O3 0.370111 0.422122 0.090916
O O4 0.090993 0.040863 0.274738
O O5 0.838572 0.639624 0.496026
O O6 0.856221 0.496823 0.779403
O O7 0.620386 0.056073 0.577751
O O8 0.212124 0.594776 0.712240
O O9 0.258525 0.353292 0.795575
O O10 0.411560 0.052141 0.081079
O O11 0.116139 0.626816 0.903348
O O12 0.257696 0.546098 0.002433
O O13 0.231903 0.931526 0.613530
O O14 0.908296 0.306583 0.643710
#
# Coordination Sequence:
#
# PCOD9083369 Si02
#       7
#     2   2   2   2   2   2   2
#     4  10  19  34  55  79 104 134 174 215 259 307
#     4  10  20  33  54  81 105 133 172 216 259 307
#     4   9  17  31  53  79 104 134 174 217 259 304
#     4   9  18  33  52  77 106 140 177 208 255 315
#     4   8  16  32  52  74 106 140 170 211 260 308
#     4   9  18  33  53  75 106 143 173 211 258 306
#     4   9  18  34  54  78 105 134 171 217 260 299
#
# _framework density 28.072122
#
# number of rings (size 3 to 8) (size 9 to 14) (size 15 to 20)
#    0.000    2.857    0.000    1.714    0.000    2.286 
#    0.000    4.286    0.000    0.000    0.000    0.000 
#    0.000    0.000    0.000    0.000    0.000    0.000 
#
# Total GULP energy -78195.723923 kJ/mol
# GULP energy per Si atom -5585.408852 kJ/mol
# Density = 2.800823 g / cm^3
# Si number density = 28.072122 Si / 1000 Ang^3
#
#
#
# Elastic Constant Matrix: (Units=GPa)
#
#
# Indices 1 2 3 4 5 6 
#
# 1 67.7572 26.4050 56.7830 -3.8286 10.2823 -18.8909
# 2 26.4050 106.5139 61.3458 -9.0232 17.8661 3.9572
# 3 56.7830 61.3458 278.2829 -28.6208 -2.5329 12.1750
# 4 -3.8286 -9.0232 -28.6208 32.9569 -4.3682 7.2751
# 5 10.2823 17.8661 -2.5329 -4.3682 30.0823 -2.8737
# 6 -18.8909 3.9572 12.1750 7.2751 -2.8737 40.7782
#
#
#
# Elastic Compliance Matrix: (Units=1/GPa)
#
#
# Indices 1 2 3 4 5 6 
#
# 1 0.025823 -0.002826 -0.006117 -0.007334 -0.007309 0.014857
# 2 -0.002826 0.012584 -0.002042 0.001015 -0.006779 -0.002579
# 3 -0.006117 -0.002042 0.006151 0.005774 0.004162 -0.005209
# 4 -0.007334 0.001015 0.005774 0.038241 0.006839 -0.011561
# 5 -0.007309 -0.006779 0.004162 0.006839 0.040889 -0.002309
# 6 0.014857 -0.002579 -0.005209 -0.011561 -0.002309 0.035111
#
#
# Mechanical properties :
#
#
# Convention : Reuss Voigt Hill
#
# Bulk Modulus (GPa) = 44.27015 82.40240 63.33627
# Shear Modulus (GPa) = 26.55361 41.29814 33.92588
#
# Velocity S-wave (km/s) = 3.07890 3.83971 3.48016
# Velocity P-wave (km/s) = 5.33328 7.00538 6.22572
#
# Compressibility (1/GPa) = 0.02258859
#
# Stress axis : x y z
#
# Youngs Moduli (GPa) = 38.72531 79.46720 162.56523
#
# Poissons Ratio (x) = 0.22456 0.99441
# Poissons Ratio (y) = 0.10943 0.33195
# Poissons Ratio (z) = 0.23688 0.16227
#
# Static dielectric constant tensor:
#      x y z
#    x 2.386930 -0.001640 0.062340 
#    y -0.001640 2.172700 0.027610 
#    z 0.062340 0.027610 2.310060 
# 
# From -- ./inp_files/180413.got.cif
#   From: 2010.05.17/outbox.cif.g08.bks.cpg/sg2_91_cif.got.tgz:180413.got - 2010.06.03 11:33:40.
