data_PCOD9083062
_publ_section_title
;
Structure prediction by ZEFSAII (Michael W. Deem and Ramdas Pophale) SiO2 
 PCOD9083062
Probable space group: P -1
;
_chemical_formula_sum "Si O2"
_cell_formula_units_Z 16
_cell_length_a 15.987594
_cell_length_b 21.229773
_cell_length_c 9.087036
_cell_angle_alpha 33.005429
_cell_angle_beta 33.915875
_cell_angle_gamma 26.109861
_cell_volume 700.392012
_symmetry_space_group_name_H-M "P -1"
_symmetry_group_IT_number 2
_symmetry_cell_setting 'triclinic'
loop_
_space_group_symop_operation_xyz
x,y,z
-x,-y,-z
loop_
_atom_site_type_symbol
_atom_site_label
_atom_site_fract_x
_atom_site_fract_y
_atom_site_fract_z
Si Si1 0.774246 0.167596 0.077339
Si Si2 0.622855 0.535247 0.843298
Si Si3 0.710035 0.906660 0.291246
Si Si4 0.291209 0.401699 0.701409
Si Si5 0.966781 0.734989 0.523054
Si Si6 0.108580 0.942450 0.206699
Si Si7 0.372026 0.616763 0.595946
Si Si8 0.568519 0.936877 0.861334
O O1 0.821042 0.089684 0.003720
O O2 0.868124 0.248944 0.768668
O O3 0.539890 0.293915 0.189334
O O4 0.871315 0.069349 0.278147
O O5 0.737271 0.546474 0.529111
O O6 0.500000 0.500000 0.000000
O O7 0.709451 0.429329 0.069676
O O8 0.865862 0.763933 0.453169
O O9 0.500000 0.000000 0.500000
O O10 0.625069 0.921731 0.226175
O O11 0.800086 0.990013 0.987250
O O12 0.471452 0.380652 0.554080
O O13 0.087836 0.564110 0.747446
O O14 0.367789 0.230673 0.932101
O O15 0.783758 0.877990 0.609623
O O16 0.192322 0.785609 0.464944
O O17 0.500000 0.500000 0.500000
O O18 0.500000 0.000000 0.000000
#
# Coordination Sequence:
#
# PCOD9083062 Si02
#       8
#     2   2   2   2   2   2   2   2
#     4  10  19  35  61  94 123 157 201 249 317 361
#     4  10  20  35  56  85 127 155 198 247 304 366
#     4   9  20  38  61  87 117 162 208 251 303 365
#     4  11  22  40  63  91 125 169 204 251 320 361
#     4  10  20  41  65  87 125 163 211 255 305 376
#     4  10  19  33  61  90 123 157 203 251 302 377
#     4  11  19  36  60  92 125 158 206 250 307 372
#     4  11  24  42  64  90 124 164 212 260 306 366
#
# _framework density 22.844349999999999
#
# number of rings (size 3 to 8) (size 9 to 14) (size 15 to 20)
#    0.000    1.750    5.000    0.375    0.000    4.000 
#    0.000    6.875    0.000    0.000    0.000    0.000 
#    0.000    0.000    0.000    0.000    0.000    0.000 
#
# Total GULP energy -89163.818733 kJ/mol
# GULP energy per Si atom -5572.738671 kJ/mol
# Density = 2.279236 g / cm^3
# Si number density = 22.844350 Si / 1000 Ang^3
#
#
#
# Elastic Constant Matrix: (Units=GPa)
#
#
# Indices 1 2 3 4 5 6 
#
# 1 69.6719 1.8890 13.3034 7.4878 19.0525 -2.8074
# 2 1.8890 66.7287 6.3462 -12.6528 2.4116 -18.2399
# 3 13.3034 6.3462 60.5365 -15.3152 14.9490 -8.4514
# 4 7.4878 -12.6528 -15.3152 31.2563 -1.4897 12.6826
# 5 19.0525 2.4116 14.9490 -1.4897 33.4133 -2.6179
# 6 -2.8074 -18.2399 -8.4514 12.6826 -2.6179 27.7711
#
#
#
# Elastic Compliance Matrix: (Units=1/GPa)
#
#
# Indices 1 2 3 4 5 6 
#
# 1 0.018497 -0.000488 -0.003332 -0.008057 -0.009117 0.003356
# 2 -0.000488 0.018545 0.000650 0.003604 -0.000356 0.010649
# 3 -0.003332 0.000650 0.021947 0.011046 -0.007393 0.001027
# 4 -0.008057 0.003604 0.011046 0.047629 0.000198 -0.016818
# 5 -0.009117 -0.000356 -0.007393 0.000198 0.038479 0.000132
# 6 0.003356 0.010649 0.001027 -0.016818 0.000132 0.051348
#
#
# Mechanical properties :
#
#
# Convention : Reuss Voigt Hill
#
# Bulk Modulus (GPa) = 18.99413 26.66825 22.83119
# Shear Modulus (GPa) = 22.69271 30.18137 26.43704
#
# Velocity S-wave (km/s) = 3.15518 3.63874 3.40555
# Velocity P-wave (km/s) = 4.64825 5.41785 5.04774
#
# Compressibility (1/GPa) = 0.05264786
#
# Stress axis : x y z
#
# Youngs Moduli (GPa) = 54.06309 53.92194 45.56512
#
# Poissons Ratio (x) = 0.02630 0.15183
# Poissons Ratio (y) = 0.02637 -0.02960
# Poissons Ratio (z) = 0.18015 -0.03502
#
# Static dielectric constant tensor:
#      x y z
#    x 1.886770 -0.003790 0.009070 
#    y -0.003790 2.003870 -0.026310 
#    z 0.009070 -0.026310 1.966000 
# 
# From -- ./inp_files/319213.got.cif
#   From: 2010.05.17/outbox.cif.g08.bks.cpg/sg2_160_cif.got.tgz:319213.got - 2010.06.03 11:33:40.
