data_PCOD9083167
_publ_section_title
;
Structure prediction by ZEFSAII (Michael W. Deem and Ramdas Pophale) SiO2 
 PCOD9083167
Probable space group: P -1
;
_chemical_formula_sum "Si O2"
_cell_formula_units_Z 16
_cell_length_a 12.307388
_cell_length_b 16.973485
_cell_length_c 19.966870
_cell_angle_alpha 18.943095
_cell_angle_beta 39.716332
_cell_angle_gamma 46.875986
_cell_volume 845.550735
_symmetry_space_group_name_H-M "P -1"
_symmetry_group_IT_number 2
_symmetry_cell_setting 'triclinic'
loop_
_space_group_symop_operation_xyz
x,y,z
-x,-y,-z
loop_
_atom_site_type_symbol
_atom_site_label
_atom_site_fract_x
_atom_site_fract_y
_atom_site_fract_z
Si Si1 0.762005 0.048618 0.080530
Si Si2 0.059923 0.825149 0.490204
Si Si3 0.978497 0.784720 0.285549
Si Si4 0.548448 0.784959 0.694845
Si Si5 0.348485 0.961434 0.340447
Si Si6 0.209091 0.836125 0.641084
Si Si7 0.119672 0.375595 0.395334
Si Si8 0.231610 0.448341 0.058422
O O1 0.554959 0.995731 0.215952
O O2 0.825109 0.855829 0.256050
O O3 0.840380 0.329965 0.844040
O O4 0.852272 0.048573 0.964662
O O5 0.019089 0.706559 0.531997
O O6 0.255918 0.884485 0.375474
O O7 0.968338 0.063583 0.348371
O O8 0.946025 0.641311 0.745705
O O9 0.938828 0.796838 0.373176
O O10 0.000000 0.500000 0.500000
O O11 0.699614 0.680759 0.671022
O O12 0.372579 0.578695 0.942234
O O13 0.500000 0.000000 0.500000
O O14 0.633397 0.930252 0.602745
O O15 0.255205 0.774649 0.593425
O O16 0.294900 0.218893 0.179238
O O17 0.212757 0.632652 0.858991
#
# Coordination Sequence:
#
# PCOD9083167 Si02
#       8
#     2   2   2   2   2   2   2   2
#     4  10  21  37  64  85 104 140 186 237 288 329
#     4  10  23  35  49  82 118 153 188 221 264 334
#     4   9  21  40  62  87 106 131 183 244 292 332
#     4   9  18  29  51  85 111 145 186 226 265 320
#     4  11  22  34  54  82 113 148 192 225 271 330
#     4   9  20  32  51  77 114 158 188 227 264 320
#     4  10  20  37  58  80 114 148 183 231 278 327
#     4  10  19  34  51  76 118 154 190 225 270 315
#
# _framework density 18.922578000000001
#
# number of rings (size 3 to 8) (size 9 to 14) (size 15 to 20)
#    0.000    2.250    1.250    1.500    5.250    5.500 
#    0.000    0.625    0.000    6.750    0.000    0.000 
#    0.000    0.000    0.000    0.000    0.000    0.000 
#
# Total GULP energy -89207.604945 kJ/mol
# GULP energy per Si atom -5575.475309 kJ/mol
# Density = 1.887951 g / cm^3
# Si number density = 18.922578 Si / 1000 Ang^3
#
#
#
# Elastic Constant Matrix: (Units=GPa)
#
#
# Indices 1 2 3 4 5 6 
#
# 1 155.7174 50.0164 66.0387 15.9828 4.2237 -4.9085
# 2 50.0164 35.5343 26.7235 13.1790 -5.8146 1.8929
# 3 66.0387 26.7235 73.2108 7.2907 18.5177 -0.1036
# 4 15.9828 13.1790 7.2907 21.7009 -2.5920 7.7101
# 5 4.2237 -5.8146 18.5177 -2.5920 39.6970 1.6232
# 6 -4.9085 1.8929 -0.1036 7.7101 1.6232 14.7207
#
#
#
# Elastic Compliance Matrix: (Units=1/GPa)
#
#
# Indices 1 2 3 4 5 6 
#
# 1 0.015018 -0.015130 -0.007587 -0.002328 -0.000762 0.008203
# 2 -0.015130 0.073097 -0.015095 -0.024782 0.017885 -0.003543
# 3 -0.007587 -0.015095 0.029465 0.003225 -0.014921 -0.000425
# 4 -0.002328 -0.024782 0.003225 0.075121 0.001535 -0.037082
# 5 -0.000762 0.017885 -0.014921 0.001535 0.035252 -0.007350
# 6 0.008203 -0.003543 -0.000425 -0.037082 -0.007350 0.091352
#
#
# Mechanical properties :
#
#
# Convention : Reuss Voigt Hill
#
# Bulk Modulus (GPa) = 23.83482 61.11332 42.47407
# Shear Modulus (GPa) = 12.22747 23.33597 17.78172
#
# Velocity S-wave (km/s) = 2.54477 3.51555 3.06879
# Velocity P-wave (km/s) = 4.61062 6.98895 5.92044
#
# Compressibility (1/GPa) = 0.04195542
#
# Stress axis : x y z
#
# Youngs Moduli (GPa) = 66.58786 13.68043 33.93817
#
# Poissons Ratio (x) = 0.20699 0.25750
# Poissons Ratio (y) = 1.00750 0.51229
# Poissons Ratio (z) = 0.50523 0.20650
#
# Static dielectric constant tensor:
#      x y z
#    x 1.599710 -0.003340 0.008430 
#    y -0.003340 1.653550 -0.018420 
#    z 0.008430 -0.018420 1.688220 
# 
# From -- ./inp_files/595805.got.cif
#   From: 2010.05.17/outbox.cif.g08.bks.cpg/sg2_298_cif.got.tgz:595805.got - 2010.06.03 11:33:40.
