data_PCOD9083680
_publ_section_title
;
Structure prediction by ZEFSAII (Michael W. Deem and Ramdas Pophale) SiO2 
 PCOD9083680
Probable space group: P -1
;
_chemical_formula_sum "Si O2"
_cell_formula_units_Z 16
_cell_length_a 17.326882
_cell_length_b 10.725053
_cell_length_c 21.833440
_cell_angle_alpha 22.304452
_cell_angle_beta 25.499251
_cell_angle_gamma 25.209557
_cell_volume 599.575383
_symmetry_space_group_name_H-M "P -1"
_symmetry_group_IT_number 2
_symmetry_cell_setting 'triclinic'
loop_
_space_group_symop_operation_xyz
x,y,z
-x,-y,-z
loop_
_atom_site_type_symbol
_atom_site_label
_atom_site_fract_x
_atom_site_fract_y
_atom_site_fract_z
Si Si1 0.643051 0.392597 0.337386
Si Si2 0.855490 0.338021 0.908849
Si Si3 0.297652 0.077525 0.868672
Si Si4 0.423837 0.267205 0.343617
Si Si5 0.636091 0.607515 0.106838
Si Si6 0.101916 0.873434 0.219279
Si Si7 0.071611 0.511357 0.564863
Si Si8 0.047349 0.300543 0.223891
O O1 0.571344 0.733936 0.280215
O O2 0.591652 0.541494 0.237546
O O3 0.559136 0.087591 0.543695
O O4 0.887417 0.168480 0.263990
O O5 0.820191 0.670188 0.828042
O O6 0.993475 0.381336 0.737903
O O7 0.678303 0.275956 0.029605
O O8 0.000000 0.000000 0.000000
O O9 0.169970 0.386134 0.770910
O O10 0.188173 0.022000 0.033830
O O11 0.611726 0.321590 0.207611
O O12 0.279264 0.643112 0.242782
O O13 0.298421 0.279662 0.489047
O O14 0.849647 0.605930 0.950587
O O15 0.500000 0.000000 0.000000
O O16 0.048357 0.560271 0.371558
O O17 0.039974 0.920428 0.405995
#
# Coordination Sequence:
#
# PCOD9083680 Si02
#       8
#     2   2   2   2   2   2   2   2
#     4  11  21  35  57  83 117 155 191 243 287 339
#     4   9  21  36  57  85 111 151 198 251 283 328
#     4  10  19  34  59  84 113 150 198 244 282 338
#     4  11  22  36  56  92 124 152 187 236 302 356
#     4  12  24  37  55  88 127 157 185 231 303 360
#     4  10  19  34  58  87 118 150 192 245 290 342
#     4  10  19  34  57  86 113 147 198 241 286 338
#     4  11  20  37  58  85 120 153 195 237 292 340
#
# _framework density 26.685554
#
# number of rings (size 3 to 8) (size 9 to 14) (size 15 to 20)
#    0.000    1.500    2.500    4.875    1.750    0.000 
#    0.000    0.000    0.000    7.500    0.000    0.000 
#    0.000    0.000    0.000    0.000    0.000    0.000 
#
# Total GULP energy -89435.683645 kJ/mol
# GULP energy per Si atom -5589.730228 kJ/mol
# Density = 2.662482 g / cm^3
# Si number density = 26.685554 Si / 1000 Ang^3
#
#
#
# Elastic Constant Matrix: (Units=GPa)
#
#
# Indices 1 2 3 4 5 6 
#
# 1 144.4839 18.1991 66.5867 -22.1392 -19.8519 1.3057
# 2 18.1991 49.9160 28.7600 -6.7980 5.7853 -4.1921
# 3 66.5867 28.7600 147.4243 -24.3993 -29.6818 -3.1290
# 4 -22.1392 -6.7980 -24.3993 35.3751 7.5891 -3.4685
# 5 -19.8519 5.7853 -29.6818 7.5891 64.3842 -12.7774
# 6 1.3057 -4.1921 -3.1290 -3.4685 -12.7774 32.8737
#
#
#
# Elastic Compliance Matrix: (Units=1/GPa)
#
#
# Indices 1 2 3 4 5 6 
#
# 1 0.009158 -0.001228 -0.003170 0.003067 0.001097 -0.000072
# 2 -0.001228 0.024116 -0.004813 0.001666 -0.004764 0.000990
# 3 -0.003170 -0.004813 0.010744 0.003801 0.004492 0.002682
# 4 0.003067 0.001666 0.003801 0.033641 -0.000675 0.003740
# 5 0.001097 -0.004764 0.004492 -0.000675 0.019927 0.007451
# 6 -0.000072 0.000990 0.002682 0.003740 0.007451 0.034094
#
#
# Mechanical properties :
#
#
# Convention : Reuss Voigt Hill
#
# Bulk Modulus (GPa) = 39.06617 63.21288 51.13952
# Shear Modulus (GPa) = 31.51885 41.74514 36.63200
#
# Velocity S-wave (km/s) = 3.44047 3.95946 3.70905
# Velocity P-wave (km/s) = 5.51849 6.68151 6.12765
#
# Compressibility (1/GPa) = 0.02559760
#
# Stress axis : x y z
#
# Youngs Moduli (GPa) = 109.19356 41.46551 93.07273
#
# Poissons Ratio (x) = 0.05092 0.29504
# Poissons Ratio (y) = 0.13410 0.44792
# Poissons Ratio (z) = 0.34614 0.19955
#
# Static dielectric constant tensor:
#      x y z
#    x 2.155380 0.076360 -0.069830 
#    y 0.076360 2.174300 0.036760 
#    z -0.069830 0.036760 2.135820 
# 
# From -- ./inp_files/401360.got.cif
#   From: 2010.05.17/outbox.cif.g08.bks.cpg/sg2_201_cif.got.tgz:401360.got - 2010.06.03 11:33:40.
