data_PCOD9083705
_publ_section_title
;
Structure prediction by ZEFSAII (Michael W. Deem and Ramdas Pophale) SiO2 
 PCOD9083705
Probable space group: P -1
;
_chemical_formula_sum "Si O2"
_cell_formula_units_Z 16
_cell_length_a 12.123007
_cell_length_b 11.333857
_cell_length_c 15.383616
_cell_angle_alpha 36.323014
_cell_angle_beta 57.380821
_cell_angle_gamma 37.016183
_cell_volume 720.837229
_symmetry_space_group_name_H-M "P -1"
_symmetry_group_IT_number 2
_symmetry_cell_setting 'triclinic'
loop_
_space_group_symop_operation_xyz
x,y,z
-x,-y,-z
loop_
_atom_site_type_symbol
_atom_site_label
_atom_site_fract_x
_atom_site_fract_y
_atom_site_fract_z
Si Si1 0.788353 0.171026 0.887037
Si Si2 0.735339 0.937375 0.341332
Si Si3 0.019931 0.495356 0.346866
Si Si4 0.410078 0.460585 0.916933
Si Si5 0.197870 0.614086 0.561817
Si Si6 0.422916 0.327726 0.461324
Si Si7 0.803351 0.410549 0.909442
Si Si8 0.230562 0.751688 0.649012
O O1 0.621955 0.192933 0.949925
O O2 0.716693 0.414378 0.704064
O O3 0.784808 0.263699 0.930817
O O4 0.998048 0.856646 0.966576
O O5 0.870218 0.748872 0.479836
O O6 0.608515 0.876172 0.419202
O O7 0.882762 0.792909 0.284155
O O8 0.622001 0.268370 0.204853
O O9 0.165904 0.432841 0.256346
O O10 0.876512 0.527494 0.330741
O O11 0.275434 0.583206 0.818016
O O12 0.358898 0.401090 0.061120
O O13 0.342488 0.474867 0.502866
O O14 0.276505 0.586988 0.637854
O O15 0.996189 0.953272 0.431292
O O16 0.628326 0.209708 0.433884
#
# Coordination Sequence:
#
# PCOD9083705 Si02
#       8
#     2   2   2   2   2   2   2   2
#     4  10  21  33  54  81 112 149 183 219 275 342
#     4  10  19  34  57  88 113 141 179 236 288 325
#     4  10  20  34  58  83 114 146 185 227 281 329
#     4  11  22  36  56  82 116 145 186 227 272 334
#     4  10  20  37  56  80 114 143 185 233 273 322
#     4  10  20  35  57  83 112 142 181 233 280 327
#     4  11  21  36  53  78 116 156 179 216 278 339
#     4  10  21  35  57  84 107 148 187 226 276 326
#
# _framework density 22.196411999999999
#
# number of rings (size 3 to 8) (size 9 to 14) (size 15 to 20)
#    0.000    1.750    2.500    3.000    1.750    3.000 
#    0.000    1.875    0.000    3.000    0.000    0.000 
#    0.000    0.000    0.000    0.000    0.000    0.000 
#
# Total GULP energy -89380.542626 kJ/mol
# GULP energy per Si atom -5586.283914 kJ/mol
# Density = 2.214589 g / cm^3
# Si number density = 22.196412 Si / 1000 Ang^3
#
#
#
# Elastic Constant Matrix: (Units=GPa)
#
#
# Indices 1 2 3 4 5 6 
#
# 1 77.7191 13.7705 21.0868 9.0352 14.6344 15.7020
# 2 13.7705 68.3198 10.3953 18.6059 2.2582 9.7767
# 3 21.0868 10.3953 89.5704 23.7947 3.8722 7.7893
# 4 9.0352 18.6059 23.7947 41.7867 -3.9648 8.9729
# 5 14.6344 2.2582 3.8722 -3.9648 22.2677 10.7398
# 6 15.7020 9.7767 7.7893 8.9729 10.7398 30.6050
#
#
#
# Elastic Compliance Matrix: (Units=1/GPa)
#
#
# Indices 1 2 3 4 5 6 
#
# 1 0.016415 -0.001733 -0.002624 -0.001270 -0.008533 -0.003834
# 2 -0.001733 0.017223 0.000560 -0.007190 -0.000853 -0.002348
# 3 -0.002624 0.000560 0.013885 -0.008031 -0.002613 0.000905
# 4 -0.001270 -0.007190 -0.008031 0.035592 0.014351 -0.010479
# 5 -0.008533 -0.000853 -0.002613 0.014351 0.063891 -0.021313
# 6 -0.003834 -0.002348 0.000905 -0.010479 -0.021313 0.045712
#
#
# Mechanical properties :
#
#
# Convention : Reuss Voigt Hill
#
# Bulk Modulus (GPa) = 25.04365 36.23494 30.63930
# Shear Modulus (GPa) = 23.40596 31.62232 27.51414
#
# Velocity S-wave (km/s) = 3.25082 3.77856 3.52458
# Velocity P-wave (km/s) = 5.03961 5.94952 5.51337
#
# Compressibility (1/GPa) = 0.03993028
#
# Stress axis : x y z
#
# Youngs Moduli (GPa) = 60.92121 58.06072 72.02147
#
# Poissons Ratio (x) = 0.10061 0.18895
# Poissons Ratio (y) = 0.10556 -0.04034
# Poissons Ratio (z) = 0.15983 -0.03252
#
# Static dielectric constant tensor:
#      x y z
#    x 1.846380 -0.033770 -0.036450 
#    y -0.033770 1.879010 -0.049680 
#    z -0.036450 -0.049680 1.846950 
# 
# From -- ./inp_files/452634.got.cif
#   From: 2010.05.17/outbox.cif.g08.bks.cpg/sg2_227_cif.got.tgz:452634.got - 2010.06.03 11:33:40.
