data_PCOD9083122
_publ_section_title
;
Structure prediction by ZEFSAII (Michael W. Deem and Ramdas Pophale) SiO2 
 PCOD9083122
Probable space group: P -1
;
_chemical_formula_sum "Si O2"
_cell_formula_units_Z 10
_cell_length_a 5.451586
_cell_length_b 9.614098
_cell_length_c 11.298985
_cell_angle_alpha 41.442797
_cell_angle_beta 94.876189
_cell_angle_gamma 98.454969
_cell_volume 387.415164
_symmetry_space_group_name_H-M "P -1"
_symmetry_group_IT_number 2
_symmetry_cell_setting 'triclinic'
loop_
_space_group_symop_operation_xyz
x,y,z
-x,-y,-z
loop_
_atom_site_type_symbol
_atom_site_label
_atom_site_fract_x
_atom_site_fract_y
_atom_site_fract_z
Si Si1 0.940406 0.764886 0.203998
Si Si2 0.095175 0.173610 0.558723
Si Si3 0.573545 0.243319 0.384095
Si Si4 0.424799 0.752978 0.116634
Si Si5 0.790279 0.302110 0.119396
O O1 0.894410 0.780095 0.330831
O O2 0.840511 0.244307 0.456090
O O3 0.191436 0.670349 0.242574
O O4 0.000000 0.000000 0.000000
O O5 0.339425 0.279185 0.432254
O O6 0.093436 0.917553 0.709072
O O7 0.683992 0.659118 0.203334
O O8 0.609093 0.346749 0.190475
O O9 0.500000 0.000000 0.500000
O O10 0.337374 0.738030 0.987626
O O11 0.500000 0.000000 0.000000
O O12 0.000000 0.500000 0.000000
#
# Coordination Sequence:
#
# PCOD9083122 Si02
#       5
#     2   2   2   2   2
#     4  10  19  33  64  88 113 152 220 248 280 351
#     4  11  21  41  64  92 119 164 211 250 296 371
#     4  10  23  38  61  89 126 163 206 244 307 370
#     4  10  20  36  60  89 117 155 210 247 292 357
#     4  11  23  40  64  97 128 157 201 265 313 355
#
# _framework density 25.812104000000001
#
# number of rings (size 3 to 8) (size 9 to 14) (size 15 to 20)
#    0.000    1.600    4.000    3.600    8.400    1.600 
#    0.000   16.000    0.000    7.200    0.000    0.000 
#    0.000    0.000    0.000    0.000    0.000    0.000 
#
# Total GULP energy -56056.541097 kJ/mol
# GULP energy per Si atom -5605.654110 kJ/mol
# Density = 2.575335 g / cm^3
# Si number density = 25.812104 Si / 1000 Ang^3
#
#
#
# Elastic Constant Matrix: (Units=GPa)
#
#
# Indices 1 2 3 4 5 6 
#
# 1 265.2937 104.5569 85.0122 14.4458 -32.9073 -7.2150
# 2 104.5569 182.7889 86.6958 37.9187 -4.4310 -5.8077
# 3 85.0122 86.6958 131.7901 18.5964 -32.5453 -10.4552
# 4 14.4458 37.9187 18.5964 67.4050 -15.0078 1.7637
# 5 -32.9073 -4.4310 -32.5453 -15.0078 54.3056 -0.2636
# 6 -7.2150 -5.8077 -10.4552 1.7637 -0.2636 66.6115
#
#
#
# Elastic Compliance Matrix: (Units=1/GPa)
#
#
# Indices 1 2 3 4 5 6 
#
# 1 0.005536 -0.002786 -0.001235 0.001332 0.002756 0.000139
# 2 -0.002786 0.010875 -0.006098 -0.005141 -0.005877 -0.000198
# 3 -0.001235 -0.006098 0.014212 0.001443 0.007678 0.001557
# 4 0.001332 -0.005141 0.001443 0.018474 0.006355 -0.000542
# 5 0.002756 -0.005877 0.007678 0.006355 0.025967 0.000926
# 6 0.000139 -0.000198 0.001557 -0.000542 0.000926 0.015273
#
#
# Mechanical properties :
#
#
# Convention : Reuss Voigt Hill
#
# Bulk Modulus (GPa) = 96.29457 125.82250 111.05854
# Shear Modulus (GPa) = 43.84618 57.90493 50.87556
#
# Velocity S-wave (km/s) = 4.12596 4.74151 4.44441
# Velocity P-wave (km/s) = 7.75145 8.87847 8.33404
#
# Compressibility (1/GPa) = 0.01038480
#
# Stress axis : x y z
#
# Youngs Moduli (GPa) = 180.62644 91.95720 70.36495
#
# Poissons Ratio (x) = 0.25622 0.08687
# Poissons Ratio (y) = 0.50327 0.42909
# Poissons Ratio (z) = 0.22300 0.56076
#
# Static dielectric constant tensor:
#      x y z
#    x 1.963700 0.083870 0.038510 
#    y 0.083870 1.772570 -0.038990 
#    z 0.038510 -0.038990 2.041600 
# 
# From -- ./inp_files/360513.got.cif
#   From: 2010.05.17/outbox.cif.g08.bks.cpg/sg2_181_cif.got.tgz:360513.got - 2010.06.03 11:33:40.
