data_PCOD9083628
_publ_section_title
;
Structure prediction by ZEFSAII (Michael W. Deem and Ramdas Pophale) SiO2 
 PCOD9083628
Probable space group: P -1
;
_chemical_formula_sum "Si O2"
_cell_formula_units_Z 16
_cell_length_a 15.073966
_cell_length_b 11.660197
_cell_length_c 20.937256
_cell_angle_alpha 20.213393
_cell_angle_beta 32.464722
_cell_angle_gamma 36.230115
_cell_volume 680.323623
_symmetry_space_group_name_H-M "P -1"
_symmetry_group_IT_number 2
_symmetry_cell_setting 'triclinic'
loop_
_space_group_symop_operation_xyz
x,y,z
-x,-y,-z
loop_
_atom_site_type_symbol
_atom_site_label
_atom_site_fract_x
_atom_site_fract_y
_atom_site_fract_z
Si Si1 0.734941 0.283948 0.440388
Si Si2 0.825390 0.322302 0.216021
Si Si3 0.341302 0.683343 0.868409
Si Si4 0.829506 0.757567 0.414232
Si Si5 0.893524 0.219410 0.857644
Si Si6 0.487985 0.618786 0.192436
Si Si7 0.584851 0.003896 0.203575
Si Si8 0.966471 0.520355 0.786992
O O1 0.782601 0.333605 0.311372
O O2 0.650669 0.625705 0.344130
O O3 0.611321 0.001810 0.675622
O O4 0.904699 0.226091 0.404241
O O5 0.649824 0.459956 0.217037
O O6 0.845668 0.947052 0.372320
O O7 0.000000 0.500000 0.000000
O O8 0.483069 0.499070 0.836487
O O9 0.255831 0.960742 0.728541
O O10 0.377012 0.873722 0.812337
O O11 0.208848 0.422906 0.101974
O O12 0.698926 0.481413 0.629885
O O13 0.013355 0.688973 0.310252
O O14 0.947496 0.453326 0.759250
O O15 0.694533 0.218128 0.979074
O O16 0.960209 0.843905 0.037002
O O17 0.500000 0.000000 0.000000
#
# Coordination Sequence:
#
# PCOD9083628 Si02
#       8
#     2   2   2   2   2   2   2   2
#     4  10  16  24  42  78 109 128 159 213 271 301
#     4  11  21  34  56  84 111 137 176 223 263 313
#     4   9  16  32  52  73  97 134 178 211 253 306
#     4  10  18  32  54  76 105 142 181 217 257 315
#     4   8  14  26  43  71 100 131 168 210 257 296
#     4  11  23  37  54  77 107 143 181 221 263 313
#     4   9  16  25  45  74 106 130 163 216 261 308
#     4   8  14  24  45  72 102 126 160 214 256 301
#
# _framework density 23.518219999999999
#
# number of rings (size 3 to 8) (size 9 to 14) (size 15 to 20)
#    0.000    2.500    0.000    8.250    0.000    1.000 
#    0.000    0.625    0.000    3.750    0.000    0.000 
#    0.000    0.000    0.000    0.000    0.000    0.000 
#
# Total GULP energy -89237.386183 kJ/mol
# GULP energy per Si atom -5577.336636 kJ/mol
# Density = 2.346469 g / cm^3
# Si number density = 23.518220 Si / 1000 Ang^3
#
#
#
# Elastic Constant Matrix: (Units=GPa)
#
#
# Indices 1 2 3 4 5 6 
#
# 1 89.7053 43.4020 48.0009 -0.0067 -19.4711 1.2550
# 2 43.4020 91.4388 66.6897 14.8127 5.4753 27.3172
# 3 48.0009 66.6897 129.4967 20.3077 -49.9525 -5.8613
# 4 -0.0067 14.8127 20.3077 33.2238 -11.5702 -4.7443
# 5 -19.4711 5.4753 -49.9525 -11.5702 34.2875 -6.3390
# 6 1.2550 27.3172 -5.8613 -4.7443 -6.3390 15.0525
#
#
#
# Elastic Compliance Matrix: (Units=1/GPa)
#
#
# Indices 1 2 3 4 5 6 
#
# 1 0.014195 0.000748 -0.007760 0.002145 -0.003843 -0.006505
# 2 0.000748 -0.003185 0.008553 0.005332 0.018628 0.018575
# 3 -0.007760 0.008553 0.004540 -0.011751 -0.006758 -0.019658
# 4 0.002145 0.005332 -0.011751 0.031091 -0.007718 -0.007881
# 5 -0.003843 0.018628 -0.006758 -0.007718 0.004805 -0.036527
# 6 -0.006505 0.018575 -0.019658 -0.007881 -0.036527 0.007746
#
#
# Mechanical properties :
#
#
# Convention : Reuss Voigt Hill
#
# Bulk Modulus (GPa) = 53.67146 69.64735 61.65940
# Shear Modulus (GPa) = 80.23071 26.68264 53.45667
#
# Velocity S-wave (km/s) = 5.84708 3.37196 4.77276
# Velocity P-wave (km/s) = 8.27377 6.69617 7.52642
#
# Compressibility (1/GPa) = 0.01863188
#
# Stress axis : x y z
#
# Youngs Moduli (GPa) = 70.44639 -313.92286 220.27177
#
# Poissons Ratio (x) = 0.23488 1.70941
# Poissons Ratio (y) = -0.05271 -1.88407
# Poissons Ratio (z) = 0.54670 2.68511
#
# Static dielectric constant tensor:
#      x y z
#    x 1.923140 -0.074280 0.002590 
#    y -0.074280 3.066490 1.301490 
#    z 0.002590 1.301490 3.327900 
# 
# From -- ./inp_files/295606.got.cif
#   From: 2010.05.17/outbox.cif.g08.bks.cpg/sg2_148_cif.got.tgz:295606.got - 2010.06.03 11:33:40.
