data_PCOD9083354
_publ_section_title
;
Structure prediction by ZEFSAII (Michael W. Deem and Ramdas Pophale) SiO2 
 PCOD9083354
Probable space group: P -1
;
_chemical_formula_sum "Si O2"
_cell_formula_units_Z 14
_cell_length_a 9.551711
_cell_length_b 26.034174
_cell_length_c 7.903914
_cell_angle_alpha 140.500096
_cell_angle_beta 119.438362
_cell_angle_gamma 33.849335
_cell_volume 631.476101
_symmetry_space_group_name_H-M "P -1"
_symmetry_group_IT_number 2
_symmetry_cell_setting 'triclinic'
loop_
_space_group_symop_operation_xyz
x,y,z
-x,-y,-z
loop_
_atom_site_type_symbol
_atom_site_label
_atom_site_fract_x
_atom_site_fract_y
_atom_site_fract_z
Si Si1 0.436350 0.281076 0.294818
Si Si2 0.207593 0.128759 0.247090
Si Si3 0.900157 0.289154 0.154140
Si Si4 0.374588 0.670039 0.221229
Si Si5 0.106425 0.627947 0.136992
Si Si6 0.512454 0.069887 0.813528
Si Si7 0.835483 0.478552 0.461013
O O1 0.612705 0.251632 0.471785
O O2 0.387154 0.362326 0.315055
O O3 0.124515 0.398876 0.487775
O O4 0.538210 0.150906 0.971979
O O5 0.954771 0.230893 0.223641
O O6 0.170476 0.231004 0.575994
O O7 0.240708 0.049446 0.212225
O O8 0.500000 0.000000 0.000000
O O9 0.746742 0.438749 0.420272
O O10 0.782968 0.275354 0.910145
O O11 0.212653 0.186189 0.020848
O O12 0.248436 0.654886 0.237084
O O13 0.688670 0.508670 0.975432
O O14 0.084472 0.592443 0.855352
O O15 0.500000 0.000000 0.500000
#
# Coordination Sequence:
#
# PCOD9083354 Si02
#       7
#     2   2   2   2   2   2   2
#     4   9  16  28  52  78 100 127 171 219 254 288
#     4  10  20  33  52  75 103 141 177 203 240 309
#     4   9  18  32  51  75 103 134 167 208 261 302
#     4   9  17  31  53  78 104 129 165 221 262 295
#     4   9  17  32  54  78 101 133 175 211 254 299
#     4  10  19  34  55  73  97 138 181 209 238 302
#     4   8  15  30  53  77  99 128 172 220 251 290
#
# _framework density 22.170276999999999
#
# number of rings (size 3 to 8) (size 9 to 14) (size 15 to 20)
#    0.000    2.857    0.000    3.429    0.000    0.571 
#    0.000    3.571    0.000   68.571    0.000    0.000 
#    0.000    0.000    0.000    0.000    0.000    0.286 
#
# Total GULP energy -78016.308777 kJ/mol
# GULP energy per Si atom -5572.593484 kJ/mol
# Density = 2.211982 g / cm^3
# Si number density = 22.170277 Si / 1000 Ang^3
#
#
#
# Elastic Constant Matrix: (Units=GPa)
#
#
# Indices 1 2 3 4 5 6 
#
# 1 49.4765 31.5455 38.4593 -2.0895 15.2258 -1.2853
# 2 31.5455 169.6155 47.2532 -7.9681 30.6711 30.8651
# 3 38.4593 47.2532 130.6057 7.1622 27.5239 13.0657
# 4 -2.0895 -7.9681 7.1622 42.0647 -6.3173 8.6697
# 5 15.2258 30.6711 27.5239 -6.3173 35.1878 1.2700
# 6 -1.2853 30.8651 13.0657 8.6697 1.2700 27.2248
#
#
#
# Elastic Compliance Matrix: (Units=1/GPa)
#
#
# Indices 1 2 3 4 5 6 
#
# 1 0.030618 -0.005059 -0.007509 -0.001016 -0.003555 0.011274
# 2 -0.005059 0.010377 0.000056 0.003485 -0.005810 -0.012869
# 3 -0.007509 0.000056 0.011796 -0.002265 -0.006250 -0.005066
# 4 -0.001016 0.003485 -0.002265 0.027941 0.004625 -0.012025
# 5 -0.003555 -0.005810 -0.006250 0.004625 0.040522 0.006055
# 6 0.011274 -0.012869 -0.005066 -0.012025 0.006055 0.057831
#
#
# Mechanical properties :
#
#
# Convention : Reuss Voigt Hill
#
# Bulk Modulus (GPa) = 36.01385 64.91265 50.46325
# Shear Modulus (GPa) = 23.43423 36.39143 29.91283
#
# Velocity S-wave (km/s) = 3.25470 4.05588 3.67717
# Velocity P-wave (km/s) = 5.51394 7.16074 6.39061
#
# Compressibility (1/GPa) = 0.02776709
#
# Stress axis : x y z
#
# Youngs Moduli (GPa) = 32.66090 96.36708 84.77733
#
# Poissons Ratio (x) = 0.48752 0.63655
# Poissons Ratio (y) = 0.16523 -0.00474
# Poissons Ratio (z) = 0.24524 -0.00539
#
# Static dielectric constant tensor:
#      x y z
#    x 1.874240 0.010420 -0.024300 
#    y 0.010420 1.903580 0.033850 
#    z -0.024300 0.033850 1.878810 
# 
# From -- ./inp_files/286088.got.cif
#   From: 2010.05.17/outbox.cif.g08.bks.cpg/sg2_144_cif.got.tgz:286088.got - 2010.06.03 11:33:40.
