data_PCOD9083784
_publ_section_title
;
Structure prediction by ZEFSAII (Michael W. Deem and Ramdas Pophale) SiO2 
 PCOD9083784
Probable space group: P -1
;
_chemical_formula_sum "Si O2"
_cell_formula_units_Z 16
_cell_length_a 15.078084
_cell_length_b 8.360526
_cell_length_c 8.788648
_cell_angle_alpha 66.008640
_cell_angle_beta 89.225985
_cell_angle_gamma 135.377483
_cell_volume 626.810870
_symmetry_space_group_name_H-M "P -1"
_symmetry_group_IT_number 2
_symmetry_cell_setting 'triclinic'
loop_
_space_group_symop_operation_xyz
x,y,z
-x,-y,-z
loop_
_atom_site_type_symbol
_atom_site_label
_atom_site_fract_x
_atom_site_fract_y
_atom_site_fract_z
Si Si1 0.076660 0.022029 0.629775
Si Si2 0.275031 0.653341 0.442406
Si Si3 0.218336 0.775797 0.082093
Si Si4 0.028747 0.440715 0.675950
Si Si5 0.108849 0.148149 0.076017
Si Si6 0.665506 0.727435 0.930152
Si Si7 0.663319 0.762184 0.568999
Si Si8 0.543680 0.858546 0.311754
O O1 0.185206 0.333653 0.576610
O O2 0.183449 0.031405 0.593606
O O3 0.942078 0.781699 0.835100
O O4 0.000000 0.000000 0.500000
O O5 0.245580 0.690510 0.260548
O O6 0.195981 0.644511 0.580004
O O7 0.441932 0.862310 0.362123
O O8 0.050733 0.578605 0.177861
O O9 0.289958 0.069890 0.019108
O O10 0.314380 0.876085 0.893774
O O11 0.000000 0.500000 0.500000
O O12 0.939994 0.123795 0.771167
O O13 0.277052 0.375043 0.980869
O O14 0.000000 0.000000 0.000000
O O15 0.707303 0.837937 0.713623
O O16 0.500000 0.500000 0.000000
O O17 0.584354 0.800745 0.476947
O O18 0.562562 0.434240 0.671805
#
# Coordination Sequence:
#
# PCOD9083784 Si02
#       8
#     2   2   2   2   2   2   2   2
#     4  10  19  35  58  79 109 144 186 234 285 332
#     4   9  19  35  56  82 110 150 192 227 288 349
#     4  10  19  34  58  83 109 151 192 233 279 349
#     4   8  17  33  52  76 109 145 188 226 274 335
#     4  10  21  33  56  87 111 146 193 238 280 346
#     4  11  21  35  55  85 117 145 187 240 292 333
#     4  10  21  35  54  83 114 147 182 234 294 339
#     4  10  20  34  58  82 113 148 188 231 287 352
#
# _framework density 25.526040999999999
#
# number of rings (size 3 to 8) (size 9 to 14) (size 15 to 20)
#    0.000    2.250    2.500    0.375    3.500    2.000 
#    0.000    0.625    0.000    8.250    0.000    0.000 
#    0.000    0.000    0.000    0.000    0.000    0.000 
#
# Total GULP energy -89178.193403 kJ/mol
# GULP energy per Si atom -5573.637088 kJ/mol
# Density = 2.546794 g / cm^3
# Si number density = 25.526041 Si / 1000 Ang^3
#
#
#
# Elastic Constant Matrix: (Units=GPa)
#
#
# Indices 1 2 3 4 5 6 
#
# 1 157.7038 27.3440 54.4977 -11.7023 -40.3903 61.4704
# 2 27.3440 70.5570 33.1758 -13.7697 -17.7702 20.2904
# 3 54.4977 33.1758 64.1607 -10.9575 -20.9236 30.0699
# 4 -11.7023 -13.7697 -10.9575 40.9009 8.7543 7.8161
# 5 -40.3903 -17.7702 -20.9236 8.7543 42.3638 -14.1058
# 6 61.4704 20.2904 30.0699 7.8161 -14.1058 46.7864
#
#
#
# Elastic Compliance Matrix: (Units=1/GPa)
#
#
# Indices 1 2 3 4 5 6 
#
# 1 0.018461 0.004801 -0.002946 0.008724 0.008596 -0.023310
# 2 0.004801 0.021564 -0.007257 0.007723 0.004838 -0.010828
# 3 -0.002946 -0.007257 0.029695 0.006218 0.003518 -0.012046
# 4 0.008724 0.007723 0.006218 0.036315 -0.001288 -0.025263
# 5 0.008596 0.004838 0.003518 -0.001288 0.034118 -0.005152
# 6 -0.023310 -0.010828 -0.012046 -0.025263 -0.005152 0.067105
#
#
# Mechanical properties :
#
#
# Convention : Reuss Voigt Hill
#
# Bulk Modulus (GPa) = 16.97292 58.05072 37.51182
# Shear Modulus (GPa) = 21.03483 37.83718 29.43600
#
# Velocity S-wave (km/s) = 2.87375 3.85424 3.39953
# Velocity P-wave (km/s) = 4.20416 6.52671 5.48967
#
# Compressibility (1/GPa) = 0.05891736
#
# Stress axis : x y z
#
# Youngs Moduli (GPa) = 54.16693 46.37393 33.67534
#
# Poissons Ratio (x) = -0.22266 0.09920
# Poissons Ratio (y) = -0.26008 0.24440
# Poissons Ratio (z) = 0.15956 0.33655
#
# Static dielectric constant tensor:
#      x y z
#    x 2.303080 0.369880 -0.041330 
#    y 0.369880 2.568880 -0.043770 
#    z -0.041330 -0.043770 2.052620 
# 
# From -- ./inp_files/269485.got.cif
#   From: 2010.05.17/outbox.cif.g08.bks.cpg/sg2_135_cif.got.tgz:269485.got - 2010.06.03 11:33:40.
