data_PCOD9083563
_publ_section_title
;
Structure prediction by ZEFSAII (Michael W. Deem and Ramdas Pophale) SiO2 
 PCOD9083563
Probable space group: P -1
;
_chemical_formula_sum "Si O2"
_cell_formula_units_Z 16
_cell_length_a 5.268318
_cell_length_b 20.081624
_cell_length_c 9.566462
_cell_angle_alpha 128.063176
_cell_angle_beta 65.601812
_cell_angle_gamma 87.927035
_cell_volume 663.311063
_symmetry_space_group_name_H-M "P -1"
_symmetry_group_IT_number 2
_symmetry_cell_setting 'triclinic'
loop_
_space_group_symop_operation_xyz
x,y,z
-x,-y,-z
loop_
_atom_site_type_symbol
_atom_site_label
_atom_site_fract_x
_atom_site_fract_y
_atom_site_fract_z
Si Si1 0.292941 0.876642 0.921969
Si Si2 0.283698 0.150039 0.486117
Si Si3 0.163363 0.550814 0.700460
Si Si4 0.067618 0.602725 0.489551
Si Si5 0.895860 0.080090 0.354762
Si Si6 0.031377 0.639475 0.136481
Si Si7 0.381493 0.448640 0.881742
Si Si8 0.908306 0.806113 0.776851
O O1 0.493507 0.871983 0.730482
O O2 0.550925 0.859080 0.957207
O O3 0.141159 0.803067 0.843190
O O4 0.023679 0.976224 0.133459
O O5 0.536189 0.124727 0.516124
O O6 0.098116 0.086319 0.445540
O O7 0.039329 0.255577 0.676919
O O8 0.500000 0.500000 0.500000
O O9 0.029963 0.473325 0.657269
O O10 0.147433 0.611573 0.916496
O O11 0.987252 0.606131 0.674969
O O12 0.932744 0.705551 0.595169
O O13 0.422784 0.566925 0.324684
O O14 0.986734 0.140987 0.297627
O O15 0.682356 0.644769 0.211042
O O16 0.331670 0.569303 0.080928
O O17 0.000000 0.500000 0.000000
#
# Coordination Sequence:
#
# PCOD9083563 Si02
#       8
#     2   2   2   2   2   2   2   2
#     4  10  19  34  56  89 127 154 185 250 324 377
#     4  10  20  31  54  82 118 153 195 236 295 374
#     4  11  24  44  58  79 124 170 217 247 302 362
#     4  11  24  39  62  86 116 172 208 260 296 364
#     4  10  19  35  55  89 127 156 183 248 327 378
#     4  11  24  36  59  88 118 165 200 262 307 364
#     4  11  22  36  58  85 122 148 204 256 323 354
#     4  10  20  31  58  85 117 150 204 247 293 365
#
# _framework density 24.121411999999999
#
# number of rings (size 3 to 8) (size 9 to 14) (size 15 to 20)
#    0.000    1.500    2.500    5.250    7.000    0.000 
#    0.000    0.000    0.000    0.000    0.000    9.625 
#    0.000    0.000    0.000    0.000    0.000    0.000 
#
# Total GULP energy -89082.058235 kJ/mol
# GULP energy per Si atom -5567.628640 kJ/mol
# Density = 2.406651 g / cm^3
# Si number density = 24.121412 Si / 1000 Ang^3
#
#
#
# Elastic Constant Matrix: (Units=GPa)
#
#
# Indices 1 2 3 4 5 6 
#
# 1 133.3227 -6.3182 13.8046 -9.0241 -11.6843 5.5372
# 2 -6.3182 26.7309 26.6128 -7.5682 2.5097 -1.4896
# 3 13.8046 26.6128 107.7742 11.8202 -1.3700 -7.7825
# 4 -9.0241 -7.5682 11.8202 31.9110 -6.3302 1.6964
# 5 -11.6843 2.5097 -1.3700 -6.3302 40.5695 -2.0523
# 6 5.5372 -1.4896 -7.7825 1.6964 -2.0523 27.5415
#
#
#
# Elastic Compliance Matrix: (Units=1/GPa)
#
#
# Indices 1 2 3 4 5 6 
#
# 1 0.009049 0.007369 -0.003843 0.006446 0.002890 -0.002688
# 2 0.007369 0.066656 -0.020621 0.026026 0.001099 -0.005225
# 3 -0.003843 -0.020621 0.016596 -0.012587 -0.000979 0.005049
# 4 0.006446 0.026026 -0.012587 0.045620 0.006648 -0.005760
# 5 0.002890 0.001099 -0.000979 0.006648 0.026456 0.000764
# 6 -0.002688 -0.005225 0.005049 -0.005760 0.000764 0.038405
#
#
# Mechanical properties :
#
#
# Convention : Reuss Voigt Hill
#
# Bulk Modulus (GPa) = 17.20872 37.33624 27.27248
# Shear Modulus (GPa) = 19.50513 35.58631 27.54572
#
# Velocity S-wave (km/s) = 2.84671 3.84513 3.38296
# Velocity P-wave (km/s) = 4.23730 5.93510 5.15656
#
# Compressibility (1/GPa) = 0.05811007
#
# Stress axis : x y z
#
# Youngs Moduli (GPa) = 110.50889 15.00243 60.25708
#
# Poissons Ratio (x) = -0.11055 0.23157
# Poissons Ratio (y) = -0.81433 1.24256
# Poissons Ratio (z) = 0.42470 0.30937
#
# Static dielectric constant tensor:
#      x y z
#    x 2.095290 -0.337550 -0.088510 
#    y -0.337550 1.753510 -0.157580 
#    z -0.088510 -0.157580 1.782270 
# 
# From -- ./inp_files/74033.got.cif
#   From: 2010.05.17/outbox.cif.g08.bks.cpg/sg2_38_cif.got.tgz:74033.got - 2010.06.03 11:33:40.
