data_PCOD9083019
_publ_section_title
;
Structure prediction by ZEFSAII (Michael W. Deem and Ramdas Pophale) SiO2 
 PCOD9083019
Probable space group: P -1
;
_chemical_formula_sum "Si O2"
_cell_formula_units_Z 16
_cell_length_a 12.314813
_cell_length_b 9.158082
_cell_length_c 12.023866
_cell_angle_alpha 93.962230
_cell_angle_beta 127.626820
_cell_angle_gamma 59.168089
_cell_volume 860.917117
_symmetry_space_group_name_H-M "P -1"
_symmetry_group_IT_number 2
_symmetry_cell_setting 'triclinic'
loop_
_space_group_symop_operation_xyz
x,y,z
-x,-y,-z
loop_
_atom_site_type_symbol
_atom_site_label
_atom_site_fract_x
_atom_site_fract_y
_atom_site_fract_z
Si Si1 0.417213 0.102486 0.281059
Si Si2 0.751516 0.072420 0.923359
Si Si3 0.721135 0.729359 0.567517
Si Si4 0.656247 0.435191 0.510115
Si Si5 0.050243 0.169851 0.351413
Si Si6 0.673779 0.160652 0.339754
Si Si7 0.133352 0.871604 0.210736
Si Si8 0.672268 0.296282 0.108520
O O1 0.295025 0.244574 0.307801
O O2 0.510927 0.168399 0.274317
O O3 0.326709 0.036677 0.148359
O O4 0.569566 0.921972 0.430602
O O5 0.729881 0.183035 0.803443
O O6 0.689320 0.194420 0.999949
O O7 0.955442 0.932557 0.052906
O O8 0.684829 0.585286 0.506860
O O9 0.889111 0.702682 0.624386
O O10 0.500000 0.500000 0.500000
O O11 0.653436 0.329567 0.397632
O O12 0.813459 0.281518 0.675117
O O13 0.847024 0.278589 0.234380
O O14 0.157398 0.028049 0.513266
O O15 0.111042 0.036587 0.274571
O O16 0.673174 0.188974 0.210017
O O17 0.500000 0.500000 0.000000
#
# Coordination Sequence:
#
# PCOD9083019 Si02
#       8
#     2   2   2   2   2   2   2   2
#     4  10  19  35  60  87 115 148 190 241 288 350
#     4  10  20  37  60  80 120 156 191 227 293 359
#     4  10  19  33  60  93 112 142 191 250 300 320
#     4  11  20  33  60  90 118 142 191 252 287 330
#     4   9  19  42  64  83 114 154 200 242 282 350
#     4  10  22  39  60  86 116 159 199 228 289 352
#     4   9  19  35  60  88 110 152 192 236 294 346
#     4  11  25  39  59  86 120 161 193 236 290 350
#
# _framework density 18.584831999999999
#
# number of rings (size 3 to 8) (size 9 to 14) (size 15 to 20)
#    0.000    2.000    2.500    1.125    3.500    0.500 
#    2.250    1.250    2.750    0.000    0.000    0.000 
#    0.000    0.000    0.000    0.000    0.000    0.000 
#
# Total GULP energy -89230.693721 kJ/mol
# GULP energy per Si atom -5576.918358 kJ/mol
# Density = 1.854253 g / cm^3
# Si number density = 18.584832 Si / 1000 Ang^3
#
#
#
# Elastic Constant Matrix: (Units=GPa)
#
#
# Indices 1 2 3 4 5 6 
#
# 1 131.8412 59.2091 54.7018 9.5397 -0.8870 18.1076
# 2 59.2091 55.6871 18.3828 11.2883 10.0561 9.0487
# 3 54.7018 18.3828 78.4441 10.3301 4.4387 -0.3956
# 4 9.5397 11.2883 10.3301 18.7651 2.3599 6.0312
# 5 -0.8870 10.0561 4.4387 2.3599 33.3403 5.8129
# 6 18.1076 9.0487 -0.3956 6.0312 5.8129 28.1535
#
#
#
# Elastic Compliance Matrix: (Units=1/GPa)
#
#
# Indices 1 2 3 4 5 6 
#
# 1 0.026329 -0.025630 -0.014849 0.013274 0.011947 -0.014215
# 2 -0.025630 0.047696 0.010644 -0.022507 -0.016556 0.009544
# 3 -0.014849 0.010644 0.022947 -0.014079 -0.007588 0.011035
# 4 0.013274 -0.022507 -0.014079 0.072914 0.007096 -0.018586
# 5 0.011947 -0.016556 -0.007588 0.007096 0.037872 -0.011809
# 6 -0.014215 0.009544 0.011035 -0.018586 -0.011809 0.048170
#
#
# Mechanical properties :
#
#
# Convention : Reuss Voigt Hill
#
# Bulk Modulus (GPa) = 26.80810 58.95109 42.87960
# Shear Modulus (GPa) = 15.24244 24.96369 20.10306
#
# Velocity S-wave (km/s) = 2.86694 3.66899 3.29248
# Velocity P-wave (km/s) = 5.04135 7.05248 6.12995
#
# Compressibility (1/GPa) = 0.03730215
#
# Stress axis : x y z
#
# Youngs Moduli (GPa) = 37.98155 20.96603 43.57782
#
# Poissons Ratio (x) = 0.53736 0.64710
# Poissons Ratio (y) = 0.97347 -0.46386
# Poissons Ratio (z) = 0.56400 -0.22317
#
# Static dielectric constant tensor:
#      x y z
#    x 1.662450 -0.005960 -0.006880 
#    y -0.005960 1.640780 -0.020520 
#    z -0.006880 -0.020520 1.676370 
# 
# From -- ./inp_files/308332.got.cif
#   From: 2010.05.17/outbox.cif.g08.bks.cpg/sg2_155_cif.got.tgz:308332.got - 2010.06.03 11:33:40.
