data_PCOD9083089
_publ_section_title
;
Structure prediction by ZEFSAII (Michael W. Deem and Ramdas Pophale) SiO2 
 PCOD9083089
Probable space group: P -1
;
_chemical_formula_sum "Si O2"
_cell_formula_units_Z 14
_cell_length_a 9.795374
_cell_length_b 15.643845
_cell_length_c 10.637179
_cell_angle_alpha 52.240965
_cell_angle_beta 72.897384
_cell_angle_gamma 35.195363
_cell_volume 662.253833
_symmetry_space_group_name_H-M "P -1"
_symmetry_group_IT_number 2
_symmetry_cell_setting 'triclinic'
loop_
_space_group_symop_operation_xyz
x,y,z
-x,-y,-z
loop_
_atom_site_type_symbol
_atom_site_label
_atom_site_fract_x
_atom_site_fract_y
_atom_site_fract_z
Si Si1 0.657229 0.450371 0.186890
Si Si2 0.481712 0.099139 0.805241
Si Si3 0.343740 0.793547 0.367175
Si Si4 0.224514 0.012584 0.411754
Si Si5 0.921294 0.385419 0.699475
Si Si6 0.164535 0.793233 0.190239
Si Si7 0.579341 0.619293 0.806388
O O1 0.450529 0.605364 0.213525
O O2 0.566194 0.395204 0.196504
O O3 0.625594 0.563973 0.988840
O O4 0.962555 0.235930 0.333124
O O5 0.600799 0.135057 0.794752
O O6 0.629898 0.000753 0.717434
O O7 0.170620 0.298893 0.676231
O O8 0.500000 0.000000 0.000000
O O9 0.159437 0.954298 0.384979
O O10 0.635025 0.587681 0.530580
O O11 0.221158 0.776615 0.336459
O O12 0.418425 0.830532 0.623002
O O13 0.980695 0.224641 0.789404
O O14 0.855723 0.441817 0.813988
O O15 0.000000 0.000000 0.000000
#
# Coordination Sequence:
#
# PCOD9083089 Si02
#       7
#     2   2   2   2   2   2   2
#     4  10  20  35  56  82 118 153 190 239 290 345
#     4  10  19  33  62  89 114 150 197 241 281 343
#     4   9  21  35  57  89 112 150 187 242 290 342
#     4   9  20  35  59  85 115 146 203 232 290 335
#     4  10  19  37  58  88 115 150 195 238 286 345
#     4  11  23  37  56  87 120 147 190 241 304 340
#     4   9  19  32  56  85 110 152 196 239 279 341
#
# _framework density 21.139928999999999
#
# number of rings (size 3 to 8) (size 9 to 14) (size 15 to 20)
#    0.857    1.429    0.000    3.000    6.000    0.000 
#    2.571    0.000    0.000    8.571    0.000    0.000 
#    0.000    0.000    0.000    0.000    0.000    0.000 
#
# Total GULP energy -77992.366806 kJ/mol
# GULP energy per Si atom -5570.883343 kJ/mol
# Density = 2.109181 g / cm^3
# Si number density = 21.139929 Si / 1000 Ang^3
#
#
#
# Elastic Constant Matrix: (Units=GPa)
#
#
# Indices 1 2 3 4 5 6 
#
# 1 34.2519 23.2905 15.6998 -4.4976 -1.0732 -7.4325
# 2 23.2905 83.2933 30.9551 -11.7080 1.9752 -15.6486
# 3 15.6998 30.9551 122.6256 0.2920 -20.6551 -2.3763
# 4 -4.4976 -11.7080 0.2920 34.2837 -4.5626 -0.3115
# 5 -1.0732 1.9752 -20.6551 -4.5626 26.4251 1.4451
# 6 -7.4325 -15.6486 -2.3763 -0.3115 1.4451 24.2565
#
#
#
# Elastic Compliance Matrix: (Units=1/GPa)
#
#
# Indices 1 2 3 4 5 6 
#
# 1 0.037494 -0.008051 -0.002635 0.002263 0.000125 0.006058
# 2 -0.008051 0.018345 -0.004222 0.004704 -0.004694 0.009294
# 3 -0.002635 -0.004222 0.010990 -0.000732 0.008836 -0.002990
# 4 0.002263 0.004704 -0.000732 0.031703 0.004434 0.003800
# 5 0.000125 -0.004694 0.008836 0.004434 0.046134 -0.004816
# 6 0.006058 0.009294 -0.002990 0.003800 -0.004816 0.049121
#
#
# Mechanical properties :
#
#
# Convention : Reuss Voigt Hill
#
# Bulk Modulus (GPa) = 27.01812 42.22906 34.62359
# Shear Modulus (GPa) = 21.19181 28.34144 24.76663
#
# Velocity S-wave (km/s) = 3.16959 3.66547 3.42651
# Velocity P-wave (km/s) = 5.11893 6.15903 5.66291
#
# Compressibility (1/GPa) = 0.03701219
#
# Stress axis : x y z
#
# Youngs Moduli (GPa) = 26.67124 54.51126 90.99073
#
# Poissons Ratio (x) = 0.43890 0.23975
# Poissons Ratio (y) = 0.21474 0.38415
# Poissons Ratio (z) = 0.07027 0.23014
#
# Static dielectric constant tensor:
#      x y z
#    x 1.747140 -0.011480 -0.027450 
#    y -0.011480 1.780130 0.011430 
#    z -0.027450 0.011430 1.881240 
# 
# From -- ./inp_files/435571.got.cif
#   From: 2010.05.17/outbox.cif.g08.bks.cpg/sg2_218_cif.got.tgz:435571.got - 2010.06.03 11:33:40.
