data_PCOD9083902
_publ_section_title
;
Structure prediction by ZEFSAII (Michael W. Deem and Ramdas Pophale) SiO2 
 PCOD9083902
Probable space group: P -1
;
_chemical_formula_sum "Si O2"
_cell_formula_units_Z 15
_cell_length_a 6.753603
_cell_length_b 9.737519
_cell_length_c 13.744587
_cell_angle_alpha 54.927171
_cell_angle_beta 126.035308
_cell_angle_gamma 102.379968
_cell_volume 587.680802
_symmetry_space_group_name_H-M "P -1"
_symmetry_group_IT_number 2
_symmetry_cell_setting 'triclinic'
loop_
_space_group_symop_operation_xyz
x,y,z
-x,-y,-z
loop_
_atom_site_type_symbol
_atom_site_label
_atom_site_fract_x
_atom_site_fract_y
_atom_site_fract_z
Si Si1 0.313031 0.293588 0.644345
Si Si2 0.703558 0.850721 0.776907
Si Si3 0.261165 0.613410 0.619512
Si Si4 0.553525 0.802429 0.483833
Si Si5 0.000000 0.500000 0.000000
Si Si6 0.727830 0.809452 0.031660
Si Si7 0.211544 0.969016 0.865780
Si Si8 0.079406 0.570221 0.776965
O O1 0.386651 0.429156 0.686119
O O2 0.485995 0.259470 0.613070
O O3 0.035142 0.367273 0.494816
O O4 0.284935 0.119138 0.760342
O O5 0.952009 0.918909 0.786496
O O6 0.477843 0.993281 0.616443
O O7 0.714444 0.850222 0.897467
O O8 0.765765 0.654538 0.845012
O O9 0.361209 0.747616 0.525806
O O10 0.267549 0.632464 0.729987
O O11 0.822417 0.701758 0.634074
O O12 0.867783 0.457463 0.083119
O O13 0.908366 0.627520 0.173792
O O14 0.807641 0.955998 0.061170
O O15 0.443785 0.813576 0.984065
#
# Coordination Sequence:
#
# PCOD9083902 Si02
#       8
#     2   2   2   2   1   2   2   2
#     4  10  19  34  58  97 137 162 190 246 307 382
#     4  11  23  42  66  89 124 166 214 261 315 359
#     4  10  20  36  60  95 134 163 196 242 315 378
#     4  11  22  37  66  95 124 162 207 256 314 377
#     4  10  26  50  62  86 124 164 220 274 302 366
#     4  10  22  39  59  95 137 163 205 249 305 385
#     4  11  20  37  63  94 129 171 204 245 312 380
#     4  10  23  43  65  89 126 164 208 263 310 364
#
# _framework density 25.524059999999999
#
# number of rings (size 3 to 8) (size 9 to 14) (size 15 to 20)
#    0.000    1.600    4.000    0.800    0.000    3.733 
#    0.000    6.667    0.000    0.000    0.000    0.000 
#    0.000    0.000    0.000    0.000    0.000    0.000 
#
# Total GULP energy -83606.691974 kJ/mol
# GULP energy per Si atom -5573.779465 kJ/mol
# Density = 2.546597 g / cm^3
# Si number density = 25.524060 Si / 1000 Ang^3
#
#
#
# Elastic Constant Matrix: (Units=GPa)
#
#
# Indices 1 2 3 4 5 6 
#
# 1 113.9851 37.5905 49.5137 2.8425 -26.8557 -29.6449
# 2 37.5905 55.6075 37.1454 -13.4081 2.3912 -23.1343
# 3 49.5137 37.1454 166.9363 -35.5971 -10.7649 -22.2805
# 4 2.8425 -13.4081 -35.5971 42.7789 -23.9636 -1.1557
# 5 -26.8557 2.3912 -10.7649 -23.9636 61.7610 14.3825
# 6 -29.6449 -23.1343 -22.2805 -1.1557 14.3825 27.8348
#
#
#
# Elastic Compliance Matrix: (Units=1/GPa)
#
#
# Indices 1 2 3 4 5 6 
#
# 1 0.014455 -0.006442 -0.002396 -0.002788 0.003605 0.006145
# 2 -0.006442 0.036503 -0.001817 0.006485 -0.008192 0.026526
# 3 -0.002396 -0.001817 0.009819 0.010175 0.004212 0.002044
# 4 -0.002788 0.006485 0.010175 0.043211 0.016140 0.004020
# 5 0.003605 -0.008192 0.004212 0.016140 0.028218 -0.013509
# 6 0.006145 0.026526 0.002044 0.004020 -0.013509 0.073301
#
#
# Mechanical properties :
#
#
# Convention : Reuss Voigt Hill
#
# Bulk Modulus (GPa) = 25.33694 65.00314 45.17004
# Shear Modulus (GPa) = 20.83567 40.62688 30.73128
#
# Velocity S-wave (km/s) = 2.86022 3.99395 3.47365
# Velocity P-wave (km/s) = 4.56684 6.84043 5.81582
#
# Compressibility (1/GPa) = 0.03946806
#
# Stress axis : x y z
#
# Youngs Moduli (GPa) = 69.17858 27.39514 101.83847
#
# Poissons Ratio (x) = 0.17648 0.24400
# Poissons Ratio (y) = 0.44565 0.18502
# Poissons Ratio (z) = 0.16575 0.04977
#
# Static dielectric constant tensor:
#      x y z
#    x 1.995800 -0.016240 0.017130 
#    y -0.016240 2.008510 0.061320 
#    z 0.017130 0.061320 1.977180 
# 
# From -- ./inp_files/74369.got.cif
#   From: 2010.05.17/outbox.cif.g08.bks.cpg/sg2_38_cif.got.tgz:74369.got - 2010.06.03 11:33:40.
