data_PCOD9083376
_publ_section_title
;
Structure prediction by ZEFSAII (Michael W. Deem and Ramdas Pophale) SiO2 
 PCOD9083376
Probable space group: P -1
;
_chemical_formula_sum "Si O2"
_cell_formula_units_Z 16
_cell_length_a 15.219591
_cell_length_b 14.215559
_cell_length_c 7.729413
_cell_angle_alpha 49.104987
_cell_angle_beta 44.158780
_cell_angle_gamma 28.781667
_cell_volume 559.244809
_symmetry_space_group_name_H-M "P -1"
_symmetry_group_IT_number 2
_symmetry_cell_setting 'triclinic'
loop_
_space_group_symop_operation_xyz
x,y,z
-x,-y,-z
loop_
_atom_site_type_symbol
_atom_site_label
_atom_site_fract_x
_atom_site_fract_y
_atom_site_fract_z
Si Si1 0.205678 0.058394 0.354387
Si Si2 0.339991 0.284730 0.887690
Si Si3 0.745058 0.525318 0.869075
Si Si4 0.746032 0.728723 0.330545
Si Si5 0.303027 0.799525 0.067563
Si Si6 0.234682 0.613405 0.509700
Si Si7 0.277676 0.061557 0.609202
Si Si8 0.138730 0.817958 0.728214
O O1 0.430412 0.921278 0.142659
O O2 0.198392 0.913684 0.570379
O O3 0.183251 0.154665 0.445912
O O4 0.997691 0.240402 0.334091
O O5 0.218646 0.301718 0.889979
O O6 0.360000 0.396244 0.613016
O O7 0.230676 0.408882 0.069671
O O8 0.791405 0.573540 0.575435
O O9 0.507807 0.680143 0.010547
O O10 0.840075 0.314747 0.008770
O O11 0.812498 0.795410 0.273840
O O12 0.506612 0.924234 0.433968
O O13 0.292005 0.661050 0.216351
O O14 0.093890 0.991390 0.224063
O O15 0.284083 0.909172 0.807156
O O16 0.268974 0.670861 0.561446
#
# Coordination Sequence:
#
# PCOD9083376 Si02
#       8
#     2   2   2   2   2   2   2   2
#     4  10  19  34  55  79 113 148 177 225 281 325
#     4  10  20  36  59  83 111 149 184 223 280 329
#     4  10  20  36  59  83 111 149 184 223 280 329
#     4   9  20  40  58  81 113 143 191 242 265 317
#     4  10  19  34  55  79 113 148 177 225 281 325
#     4  10  20  33  53  85 115 141 183 227 271 339
#     4   9  20  37  56  80 110 146 191 231 273 330
#     4  10  20  33  53  85 115 141 183 227 271 339
#
# _framework density 28.610011
#
# number of rings (size 3 to 8) (size 9 to 14) (size 15 to 20)
#    0.000    2.250    0.000    3.750    0.000    6.000 
#    0.000   18.750    0.000    3.000    0.000    0.000 
#    0.000    0.000    0.000    0.000    0.000    0.000 
#
# Total GULP energy -89464.909962 kJ/mol
# GULP energy per Si atom -5591.556873 kJ/mol
# Density = 2.854489 g / cm^3
# Si number density = 28.610011 Si / 1000 Ang^3
#
#
#
# Elastic Constant Matrix: (Units=GPa)
#
#
# Indices 1 2 3 4 5 6 
#
# 1 84.6601 43.5230 24.2500 7.0436 16.6008 10.6073
# 2 43.5230 139.4676 44.9586 -10.4406 2.4247 -9.8849
# 3 24.2500 44.9586 116.2554 -22.7903 -14.9153 -5.3129
# 4 7.0436 -10.4406 -22.7903 51.7320 2.9336 -1.2447
# 5 16.6008 2.4247 -14.9153 2.9336 48.8103 -7.9110
# 6 10.6073 -9.8849 -5.3129 -1.2447 -7.9110 16.4674
#
#
#
# Elastic Compliance Matrix: (Units=1/GPa)
#
#
# Indices 1 2 3 4 5 6 
#
# 1 0.025868 -0.008372 -0.007203 -0.008289 -0.015267 -0.031973
# 2 -0.008372 0.011201 -0.000791 0.003156 0.004143 0.014090
# 3 -0.007203 -0.000791 0.013345 0.006543 0.008271 0.012939
# 4 -0.008289 0.003156 0.006543 0.024001 0.005452 0.013778
# 5 -0.015267 0.004143 0.008271 0.005452 0.032718 0.031120
# 6 -0.031973 0.014090 0.012939 0.013778 0.031120 0.109945
#
#
# Mechanical properties :
#
#
# Convention : Reuss Voigt Hill
#
# Bulk Modulus (GPa) = 56.55458 62.87180 59.71319
# Shear Modulus (GPa) = 19.55389 38.57871 29.06630
#
# Velocity S-wave (km/s) = 2.61715 3.67609 3.19085
# Velocity P-wave (km/s) = 5.37987 6.32782 5.87300
#
# Compressibility (1/GPa) = 0.01768203
#
# Stress axis : x y z
#
# Youngs Moduli (GPa) = 38.65706 89.28143 74.93312
#
# Poissons Ratio (x) = 0.74745 0.53976
# Poissons Ratio (y) = 0.32363 0.05928
# Poissons Ratio (z) = 0.27846 0.07063
#
# Static dielectric constant tensor:
#      x y z
#    x 2.220260 0.033070 -0.035580 
#    y 0.033070 2.157970 -0.043710 
#    z -0.035580 -0.043710 2.304900 
# 
# From -- ./inp_files/218617.got.cif
#   From: 2010.05.17/outbox.cif.g08.bks.cpg/sg2_110_cif.got.tgz:218617.got - 2010.06.03 11:33:40.
