data_PCOD9083898
_publ_section_title
;
Structure prediction by ZEFSAII (Michael W. Deem and Ramdas Pophale) SiO2 
 PCOD9083898
Probable space group: P -1
;
_chemical_formula_sum "Si O2"
_cell_formula_units_Z 14
_cell_length_a 9.454878
_cell_length_b 10.406334
_cell_length_c 8.455554
_cell_angle_alpha 99.796719
_cell_angle_beta 79.598356
_cell_angle_gamma 125.118050
_cell_volume 667.047373
_symmetry_space_group_name_H-M "P -1"
_symmetry_group_IT_number 2
_symmetry_cell_setting 'triclinic'
loop_
_space_group_symop_operation_xyz
x,y,z
-x,-y,-z
loop_
_atom_site_type_symbol
_atom_site_label
_atom_site_fract_x
_atom_site_fract_y
_atom_site_fract_z
Si Si1 0.943002 0.614593 0.810517
Si Si2 0.693787 0.152140 0.320227
Si Si3 0.786810 0.651368 0.547851
Si Si4 0.118776 0.713581 0.353262
Si Si5 0.480835 0.667430 0.608952
Si Si6 0.384557 0.554156 0.955933
Si Si7 0.446885 0.876945 0.125557
O O1 0.868354 0.678866 0.710800
O O2 0.925241 0.461889 0.702040
O O3 0.147576 0.744082 0.813064
O O4 0.182257 0.441341 0.025003
O O5 0.782159 0.209049 0.485185
O O6 0.558186 0.201184 0.347544
O O7 0.585910 0.970194 0.257913
O O8 0.679471 0.727830 0.558404
O O9 0.642232 0.463210 0.523058
O O10 0.939262 0.699538 0.403271
O O11 0.255471 0.816863 0.212334
O O12 0.416864 0.572013 0.766819
O O13 0.500000 0.500000 0.000000
O O14 0.444540 0.726001 0.042965
O O15 0.500000 0.000000 0.000000
#
# Coordination Sequence:
#
# PCOD9083898 Si02
#       7
#     2   2   2   2   2   2   2
#     4  10  19  36  62  87 120 154 205 239 299 353
#     4  11  20  38  59  94 117 158 196 256 293 352
#     4  10  19  34  58  93 113 154 198 255 282 351
#     4  10  20  38  60  87 122 156 203 238 301 356
#     4  11  20  33  62  88 123 145 203 243 301 335
#     4  11  23  40  61  86 122 162 197 245 303 358
#     4  11  24  38  61  89 123 158 200 248 301 355
#
# _framework density 20.988014
#
# number of rings (size 3 to 8) (size 9 to 14) (size 15 to 20)
#    0.000    1.429    5.714    1.286    0.000    1.714 
#    0.000    1.429    0.000    0.000    0.000    0.000 
#    0.000    0.000    0.000    0.000    0.000    0.000 
#
# Total GULP energy -78238.568672 kJ/mol
# GULP energy per Si atom -5588.469191 kJ/mol
# Density = 2.094024 g / cm^3
# Si number density = 20.988014 Si / 1000 Ang^3
#
#
#
# Elastic Constant Matrix: (Units=GPa)
#
#
# Indices 1 2 3 4 5 6 
#
# 1 169.1350 41.4432 28.1193 -7.8790 -21.6137 14.4999
# 2 41.4432 69.0306 5.4977 -2.2004 -8.8509 13.0431
# 3 28.1193 5.4977 44.7303 -6.1776 -13.0147 4.2534
# 4 -7.8790 -2.2004 -6.1776 28.1845 8.2186 -2.1396
# 5 -21.6137 -8.8509 -13.0147 8.2186 28.2581 -6.4934
# 6 14.4999 13.0431 4.2534 -2.1396 -6.4934 27.0281
#
#
#
# Elastic Compliance Matrix: (Units=1/GPa)
#
#
# Indices 1 2 3 4 5 6 
#
# 1 0.007928 -0.003890 -0.003526 0.000208 0.002907 -0.001106
# 2 -0.003890 0.018174 0.001341 -0.000442 0.001980 -0.006454
# 3 -0.003526 0.001341 0.027583 0.002315 0.009615 -0.000603
# 4 0.000208 -0.000442 0.002315 0.039006 -0.010170 0.000382
# 5 0.002907 0.001980 0.009615 -0.010170 0.047107 0.006485
# 6 -0.001106 -0.006454 -0.000603 0.000382 0.006485 0.042389
#
#
# Mechanical properties :
#
#
# Convention : Reuss Voigt Hill
#
# Bulk Modulus (GPa) = 24.07720 48.11294 36.09507
# Shear Modulus (GPa) = 24.01725 30.54985 27.28355
#
# Velocity S-wave (km/s) = 3.38647 3.81935 3.60941
# Velocity P-wave (km/s) = 5.17568 6.51335 5.88266
#
# Compressibility (1/GPa) = 0.04153306
#
# Stress axis : x y z
#
# Youngs Moduli (GPa) = 126.13714 55.02241 36.25481
#
# Poissons Ratio (x) = 0.21406 0.12783
# Poissons Ratio (y) = 0.49073 -0.04860
# Poissons Ratio (z) = 0.44476 -0.07376
#
# Static dielectric constant tensor:
#      x y z
#    x 1.753470 0.018540 -0.001230 
#    y 0.018540 1.749600 -0.003160 
#    z -0.001230 -0.003160 1.813100 
# 
# From -- ./inp_files/170730.got.cif
#   From: 2010.05.17/outbox.cif.g08.bks.cpg/sg2_86_cif.got.tgz:170730.got - 2010.06.03 11:33:40.
