data_PCOD9083386
_publ_section_title
;
Structure prediction by ZEFSAII (Michael W. Deem and Ramdas Pophale) SiO2 
 PCOD9083386
Probable space group: P -1
;
_chemical_formula_sum "Si O2"
_cell_formula_units_Z 16
_cell_length_a 18.476006
_cell_length_b 5.493292
_cell_length_c 7.356026
_cell_angle_alpha 89.589922
_cell_angle_beta 115.977748
_cell_angle_gamma 92.892539
_cell_volume 670.212594
_symmetry_space_group_name_H-M "P -1"
_symmetry_group_IT_number 2
_symmetry_cell_setting 'triclinic'
loop_
_space_group_symop_operation_xyz
x,y,z
-x,-y,-z
loop_
_atom_site_type_symbol
_atom_site_label
_atom_site_fract_x
_atom_site_fract_y
_atom_site_fract_z
Si Si1 0.824765 0.967450 0.036897
Si Si2 0.271690 0.939649 0.388602
Si Si3 0.422658 0.985532 0.282617
Si Si4 0.988821 0.014257 0.770552
Si Si5 0.423293 0.487141 0.048686
Si Si6 0.990320 0.512471 0.768943
Si Si7 0.273508 0.438797 0.610467
Si Si8 0.827488 0.467437 0.182237
O O1 0.791135 0.690177 0.026711
O O2 0.811800 0.042634 0.814138
O O3 0.918518 0.962666 0.192859
O O4 0.791074 0.192972 0.108661
O O5 0.342688 0.974727 0.318406
O O6 0.277859 0.672519 0.481532
O O7 0.277770 0.173335 0.526035
O O8 0.424266 0.735144 0.168648
O O9 0.500000 0.000000 0.500000
O O10 0.424351 0.235505 0.166066
O O11 0.950674 0.758179 0.671966
O O12 0.949168 0.256956 0.666573
O O13 0.000000 0.000000 0.000000
O O14 0.500000 0.500000 0.000000
O O15 0.345535 0.473755 0.834070
O O16 0.080060 0.533947 0.782868
O O17 0.000000 0.500000 0.000000
O O18 0.193118 0.460098 0.638903
#
# Coordination Sequence:
#
# PCOD9083386 Si02
#       8
#     2   2   2   2   2   2   2   2
#     4  10  19  34  55  81 108 142 188 235 280 330
#     4  12  24  39  57  84 118 154 190 233 286 341
#     4  12  24  42  64  88 117 152 193 238 283 337
#     4   8  14  25  45  75 101 128 172 228 272 318
#     4  12  24  42  64  88 117 152 193 238 283 337
#     4   8  14  25  45  75 101 128 172 228 272 318
#     4  12  24  39  57  84 118 154 190 233 286 341
#     4  10  19  34  55  81 108 142 188 235 280 330
#
# _framework density 23.873021999999999
#
# number of rings (size 3 to 8) (size 9 to 14) (size 15 to 20)
#    0.000    1.500    0.000    6.750    0.000    0.000 
#    0.000    0.000    0.000    0.000    0.000   84.000 
#    0.000    0.000    0.000    0.000    0.000    0.000 
#
# Total GULP energy -89427.507425 kJ/mol
# GULP energy per Si atom -5589.219214 kJ/mol
# Density = 2.381869 g / cm^3
# Si number density = 23.873022 Si / 1000 Ang^3
#
#
#
# Elastic Constant Matrix: (Units=GPa)
#
#
# Indices 1 2 3 4 5 6 
#
# 1 95.4081 6.8357 39.6860 7.9506 -20.4895 -8.8228
# 2 6.8357 222.9660 40.4424 1.5430 1.4082 -28.4741
# 3 39.6860 40.4424 86.0541 3.3484 1.6751 -6.1609
# 4 7.9506 1.5430 3.3484 64.0066 -0.6711 -11.6247
# 5 -20.4895 1.4082 1.6751 -0.6711 54.7430 2.1717
# 6 -8.8228 -28.4741 -6.1609 -11.6247 2.1717 22.6715
#
#
#
# Elastic Compliance Matrix: (Units=1/GPa)
#
#
# Indices 1 2 3 4 5 6 
#
# 1 0.015189 0.001477 -0.007436 -0.000583 0.005673 0.004903
# 2 0.001477 0.005980 -0.002979 0.001266 0.000192 0.007906
# 3 -0.007436 -0.002979 0.016376 -0.000261 -0.003131 -0.002018
# 4 -0.000583 0.001266 -0.000261 0.017551 -0.000438 0.010334
# 5 0.005673 0.000192 -0.003131 -0.000438 0.020499 -0.000590
# 6 0.004903 0.007906 -0.002018 0.010334 -0.000590 0.060753
#
#
# Mechanical properties :
#
#
# Convention : Reuss Voigt Hill
#
# Bulk Modulus (GPa) = 50.83636 64.26182 57.54909
# Shear Modulus (GPa) = 31.09867 49.44849 40.27358
#
# Velocity S-wave (km/s) = 3.61317 4.55610 4.11176
# Velocity P-wave (km/s) = 6.22474 7.39284 6.83379
#
# Compressibility (1/GPa) = 0.01967096
#
# Stress axis : x y z
#
# Youngs Moduli (GPa) = 65.83849 167.23306 61.06440
#
# Poissons Ratio (x) = -0.24708 0.45405
# Poissons Ratio (y) = -0.09727 0.18188
# Poissons Ratio (z) = 0.48955 0.49811
#
# Static dielectric constant tensor:
#      x y z
#    x 1.916600 -0.003400 -0.012250 
#    y -0.003400 1.976650 0.005560 
#    z -0.012250 0.005560 1.895970 
# 
# From -- ./inp_files/114678.got.cif
#   From: 2010.05.17/outbox.cif.g08.bks.cpg/sg2_58_cif.got.tgz:114678.got - 2010.06.03 11:33:40.
