data_PCOD9083024
_publ_section_title
;
Structure prediction by ZEFSAII (Michael W. Deem and Ramdas Pophale) SiO2 
 PCOD9083024
Probable space group: P -1
;
_chemical_formula_sum "Si O2"
_cell_formula_units_Z 16
_cell_length_a 16.241713
_cell_length_b 8.441228
_cell_length_c 8.979479
_cell_angle_alpha 73.375216
_cell_angle_beta 91.715333
_cell_angle_gamma 139.510748
_cell_volume 730.266959
_symmetry_space_group_name_H-M "P -1"
_symmetry_group_IT_number 2
_symmetry_cell_setting 'triclinic'
loop_
_space_group_symop_operation_xyz
x,y,z
-x,-y,-z
loop_
_atom_site_type_symbol
_atom_site_label
_atom_site_fract_x
_atom_site_fract_y
_atom_site_fract_z
Si Si1 0.485467 0.607309 0.749930
Si Si2 0.195220 0.634006 0.123677
Si Si3 0.430530 0.881164 0.686268
Si Si4 0.843915 0.363227 0.210543
Si Si5 0.267047 0.110691 0.484849
Si Si6 0.081223 0.724640 0.319564
Si Si7 0.446559 0.223635 0.963608
Si Si8 0.334246 0.562173 0.277992
O O1 0.402705 0.641781 0.755787
O O2 0.593693 0.762913 0.582762
O O3 0.405288 0.310591 0.831453
O O4 0.563376 0.734665 0.878171
O O5 0.147924 0.694310 0.223814
O O6 0.209561 0.477129 0.242753
O O7 0.124851 0.556366 0.983357
O O8 0.347700 0.918613 0.017207
O O9 0.293545 0.760323 0.728363
O O10 0.500000 0.000000 0.500000
O O11 0.548711 0.138321 0.727646
O O12 0.967561 0.630073 0.239573
O O13 0.812773 0.125939 0.334493
O O14 0.300088 0.356827 0.444091
O O15 0.184882 0.985321 0.357744
O O16 0.000000 0.500000 0.500000
O O17 0.593344 0.405687 0.869737
#
# Coordination Sequence:
#
# PCOD9083024 Si02
#       8
#     2   2   2   2   2   2   2   2
#     4  10  19  34  59  93 120 161 194 248 306 367
#     4  12  21  41  66  92 124 162 208 258 307 363
#     4  12  22  36  61  93 129 157 204 248 313 364
#     4  11  24  39  64  93 125 165 206 258 301 365
#     4  10  21  42  64  90 125 164 209 248 304 367
#     4  10  23  44  67  84 119 172 215 245 304 372
#     4  10  19  33  60  93 124 151 198 245 313 361
#     4  11  23  37  65  96 127 159 199 259 312 370
#
# _framework density 21.909794999999999
#
# number of rings (size 3 to 8) (size 9 to 14) (size 15 to 20)
#    0.000    1.250    5.000    1.500    1.750    1.500 
#    0.000    3.125    2.750    0.000    0.000    0.000 
#    0.000    0.000    0.000    0.000    0.000    0.000 
#
# Total GULP energy -89155.321987 kJ/mol
# GULP energy per Si atom -5572.207624 kJ/mol
# Density = 2.185993 g / cm^3
# Si number density = 21.909795 Si / 1000 Ang^3
#
#
#
# Elastic Constant Matrix: (Units=GPa)
#
#
# Indices 1 2 3 4 5 6 
#
# 1 83.3627 30.8641 32.2413 5.6165 23.8355 -1.1023
# 2 30.8641 45.8036 3.2503 13.4173 11.5524 2.9719
# 3 32.2413 3.2503 58.4324 10.9173 -1.9900 -1.5863
# 4 5.6165 13.4173 10.9173 30.9632 -4.7172 6.2932
# 5 23.8355 11.5524 -1.9900 -4.7172 33.9613 -3.2747
# 6 -1.1023 2.9719 -1.5863 6.2932 -3.2747 25.9007
#
#
#
# Elastic Compliance Matrix: (Units=1/GPa)
#
#
# Indices 1 2 3 4 5 6 
#
# 1 0.027529 -0.015238 -0.015842 0.005227 -0.014450 -0.001147
# 2 -0.015238 0.037550 0.009395 -0.017290 -0.003996 -0.000686
# 3 -0.015842 0.009395 0.027655 -0.010380 0.008442 0.003531
# 4 0.005227 -0.017290 -0.010380 0.045315 0.007075 -0.008545
# 5 -0.014450 -0.003996 0.008442 0.007075 0.042815 0.004055
# 6 -0.001147 -0.000686 0.003531 -0.008545 0.004055 0.041444
#
#
# Mechanical properties :
#
#
# Convention : Reuss Voigt Hill
#
# Bulk Modulus (GPa) = 20.25757 35.59002 27.92379
# Shear Modulus (GPa) = 17.72218 26.24791 21.98504
#
# Velocity S-wave (km/s) = 2.84715 3.46497 3.17114
# Velocity P-wave (km/s) = 4.48044 5.68218 5.11671
#
# Compressibility (1/GPa) = 0.04936426
#
# Stress axis : x y z
#
# Youngs Moduli (GPa) = 36.32573 26.63091 36.15992
#
# Poissons Ratio (x) = 0.40579 0.57284
# Poissons Ratio (y) = 0.55352 -0.33971
# Poissons Ratio (z) = 0.57546 -0.25019
#
# Static dielectric constant tensor:
#      x y z
#    x 1.895620 -0.038280 0.124010 
#    y -0.038280 1.891100 0.009810 
#    z 0.124010 0.009810 1.921870 
# 
# From -- ./inp_files/328734.got.cif
#   From: 2010.05.17/outbox.cif.g08.bks.cpg/sg2_165_cif.got.tgz:328734.got - 2010.06.03 11:33:40.
