data_PCOD9083708
_publ_section_title
;
Structure prediction by ZEFSAII (Michael W. Deem and Ramdas Pophale) SiO2 
 PCOD9083708
Probable space group: P -1
;
_chemical_formula_sum "Si O2"
_cell_formula_units_Z 16
_cell_length_a 11.638989
_cell_length_b 8.041952
_cell_length_c 16.691241
_cell_angle_alpha 142.924592
_cell_angle_beta 104.703687
_cell_angle_gamma 63.395018
_cell_volume 826.465901
_symmetry_space_group_name_H-M "P -1"
_symmetry_group_IT_number 2
_symmetry_cell_setting 'triclinic'
loop_
_space_group_symop_operation_xyz
x,y,z
-x,-y,-z
loop_
_atom_site_type_symbol
_atom_site_label
_atom_site_fract_x
_atom_site_fract_y
_atom_site_fract_z
Si Si1 0.136011 0.192270 0.619369
Si Si2 0.025858 0.210846 0.783074
Si Si3 0.877407 0.762759 0.780987
Si Si4 0.935619 0.915809 0.078409
Si Si5 0.702110 0.446004 0.167633
Si Si6 0.346257 0.618444 0.041934
Si Si7 0.211786 0.661626 0.302984
Si Si8 0.555852 0.639650 0.879496
O O1 0.105385 0.134702 0.684063
O O2 0.243619 0.329466 0.696214
O O3 0.000178 0.444872 0.653300
O O4 0.184968 0.892294 0.459861
O O5 0.080351 0.043163 0.812108
O O6 0.892971 0.179233 0.724569
O O7 0.990042 0.562942 0.931517
O O8 0.818377 0.620631 0.783151
O O9 0.743953 0.022556 0.819416
O O10 0.962241 0.954512 0.884793
O O11 0.799980 0.114091 0.087971
O O12 0.557985 0.475364 0.173347
O O13 0.710854 0.464626 0.080107
O O14 0.351557 0.446267 0.058573
O O15 0.500000 0.500000 0.000000
O O16 0.356766 0.529889 0.245045
O O17 0.500000 0.000000 0.000000
#
# Coordination Sequence:
#
# PCOD9083708 Si02
#       8
#     2   2   2   2   2   2   2   2
#     4  10  22  38  58  82 121 164 192 234 286 347
#     4  10  19  34  57  88 118 146 192 242 294 342
#     4  10  19  36  58  85 117 148 190 236 287 339
#     4  10  20  34  61  91 114 148 191 251 298 333
#     4  10  21  38  58  84 117 150 192 238 293 345
#     4  10  20  36  60  87 113 146 189 242 296 340
#     4  11  22  38  58  84 120 160 197 232 284 352
#     4  11  23  39  63  87 114 149 193 248 294 346
#
# _framework density 19.359541
#
# number of rings (size 3 to 8) (size 9 to 14) (size 15 to 20)
#    0.000    1.750    0.000    6.750    0.000    7.000 
#    0.000   11.250    0.000    9.000    0.000    0.000 
#    0.000    0.000    0.000    0.000    0.000    0.000 
#
# Total GULP energy -89106.103956 kJ/mol
# GULP energy per Si atom -5569.131497 kJ/mol
# Density = 1.931548 g / cm^3
# Si number density = 19.359541 Si / 1000 Ang^3
#
#
#
# Elastic Constant Matrix: (Units=GPa)
#
#
# Indices 1 2 3 4 5 6 
#
# 1 109.2367 17.1236 53.1887 -1.3635 -11.5349 -1.5827
# 2 17.1236 125.9650 52.1791 -0.6049 -9.1523 -4.5552
# 3 53.1887 52.1791 119.4105 -12.3564 -14.5789 7.3235
# 4 -1.3635 -0.6049 -12.3564 16.8777 0.7541 -0.6549
# 5 -11.5349 -9.1523 -14.5789 0.7541 30.3583 0.9775
# 6 -1.5827 -4.5552 7.3235 -0.6549 0.9775 20.5683
#
#
#
# Elastic Compliance Matrix: (Units=1/GPa)
#
#
# Indices 1 2 3 4 5 6 
#
# 1 0.012246 0.001188 -0.006298 -0.003541 0.001970 0.003242
# 2 0.001188 0.010261 -0.005524 -0.003456 0.000843 0.004181
# 3 -0.006298 -0.005524 0.015493 0.010212 0.003355 -0.007059
# 4 -0.003541 -0.003456 0.010212 0.066172 0.000957 -0.002613
# 5 0.001970 0.000843 0.003355 0.000957 0.035611 -0.002518
# 6 0.003242 0.004181 -0.007059 -0.002613 -0.002518 0.052344
#
#
# Mechanical properties :
#
#
# Convention : Reuss Voigt Hill
#
# Bulk Modulus (GPa) = 59.76997 66.62166 63.19581
# Shear Modulus (GPa) = 22.83383 29.03560 25.93472
#
# Velocity S-wave (km/s) = 3.43805 3.87694 3.66407
# Velocity P-wave (km/s) = 6.83381 7.38433 7.11440
#
# Compressibility (1/GPa) = 0.01673081
#
# Stress axis : x y z
#
# Youngs Moduli (GPa) = 81.66090 97.45300 64.54498
#
# Poissons Ratio (x) = -0.11574 0.40653
# Poissons Ratio (y) = -0.09698 0.35655
# Poissons Ratio (z) = 0.51433 0.53833
#
# Static dielectric constant tensor:
#      x y z
#    x 1.715090 -0.011250 -0.023080 
#    y -0.011250 1.734170 -0.011500 
#    z -0.023080 -0.011500 1.665270 
# 
# From -- ./inp_files/392539.got.cif
#   From: 2010.05.17/outbox.cif.g08.bks.cpg/sg2_197_cif.got.tgz:392539.got - 2010.06.03 11:33:40.
