data_PCOD9083805
_publ_section_title
;
Structure prediction by ZEFSAII (Michael W. Deem and Ramdas Pophale) SiO2 
 PCOD9083805
Probable space group: P -1
;
_chemical_formula_sum "Si O2"
_cell_formula_units_Z 16
_cell_length_a 10.898623
_cell_length_b 11.934222
_cell_length_c 5.989309
_cell_angle_alpha 103.185788
_cell_angle_beta 117.196864
_cell_angle_gamma 94.358650
_cell_volume 659.839092
_symmetry_space_group_name_H-M "P -1"
_symmetry_group_IT_number 2
_symmetry_cell_setting 'triclinic'
loop_
_space_group_symop_operation_xyz
x,y,z
-x,-y,-z
loop_
_atom_site_type_symbol
_atom_site_label
_atom_site_fract_x
_atom_site_fract_y
_atom_site_fract_z
Si Si1 0.836728 0.372007 0.861753
Si Si2 0.904305 0.753777 0.485303
Si Si3 0.412752 0.541193 0.151106
Si Si4 0.104354 0.468061 0.386405
Si Si5 0.497832 0.206483 0.817394
Si Si6 0.204294 0.835819 0.972915
Si Si7 0.688773 0.710233 0.917217
Si Si8 0.749057 0.909929 0.690586
O O1 0.748408 0.437763 0.990713
O O2 0.806601 0.418362 0.612980
O O3 0.799760 0.235490 0.828492
O O4 0.000415 0.406669 0.076229
O O5 0.829835 0.636466 0.509254
O O6 0.839340 0.723378 0.175249
O O7 0.856390 0.869607 0.587861
O O8 0.070861 0.775379 0.683382
O O9 0.481549 0.680832 0.285230
O O10 0.500000 0.500000 0.000000
O O11 0.383111 0.427886 0.241519
O O12 0.000000 0.500000 0.500000
O O13 0.644976 0.177317 0.000974
O O14 0.414624 0.244959 0.973377
O O15 0.396928 0.096747 0.565733
O O16 0.198870 0.968306 0.087021
O O17 0.719030 0.803714 0.791276
#
# Coordination Sequence:
#
# PCOD9083805 Si02
#       8
#     2   2   2   2   2   2   2   2
#     4   9  19  35  55  84 116 147 190 239 291 347
#     4  10  22  38  59  88 118 150 195 245 296 356
#     4   9  17  35  60  85 117 151 191 244 296 351
#     4  10  19  34  58  84 114 149 185 238 300 351
#     4   9  21  40  59  84 116 153 202 246 289 352
#     4  10  21  40  60  84 120 157 198 246 289 345
#     4  10  21  37  60  88 119 156 192 240 300 353
#     4  11  22  39  61  83 117 162 200 239 291 348
#
# _framework density 24.248335000000001
#
# number of rings (size 3 to 8) (size 9 to 14) (size 15 to 20)
#    0.000    2.250    0.000    2.250    0.000    3.500 
#    0.000   22.500    0.000    0.000    0.000    0.000 
#    0.000    0.000    0.000    0.000    0.000    0.000 
#
# Total GULP energy -89220.581534 kJ/mol
# GULP energy per Si atom -5576.286346 kJ/mol
# Density = 2.419314 g / cm^3
# Si number density = 24.248335 Si / 1000 Ang^3
#
#
#
# Elastic Constant Matrix: (Units=GPa)
#
#
# Indices 1 2 3 4 5 6 
#
# 1 97.9890 29.3103 43.3486 0.3858 14.2607 -14.7295
# 2 29.3103 97.5524 24.4403 18.5111 -1.9499 -17.0438
# 3 43.3486 24.4403 66.5008 9.1439 22.7329 -5.4832
# 4 0.3858 18.5111 9.1439 32.6160 -0.2124 1.4434
# 5 14.2607 -1.9499 22.7329 -0.2124 28.5459 1.2566
# 6 -14.7295 -17.0438 -5.4832 1.4434 1.2566 26.1189
#
#
#
# Elastic Compliance Matrix: (Units=1/GPa)
#
#
# Indices 1 2 3 4 5 6 
#
# 1 0.015893 -0.002160 -0.009265 0.003388 -0.000924 0.005465
# 2 -0.002160 0.014799 -0.004024 -0.007557 0.004896 0.007776
# 3 -0.009265 -0.004024 0.030101 -0.006163 -0.019653 -0.000246
# 4 0.003388 -0.007557 -0.006163 0.036946 0.003261 -0.006514
# 5 -0.000924 0.004896 -0.019653 0.003261 0.051684 -0.004119
# 6 0.005465 0.007776 -0.000246 -0.006514 -0.004119 0.046949
#
#
# Mechanical properties :
#
#
# Convention : Reuss Voigt Hill
#
# Bulk Modulus (GPa) = 33.45191 50.69341 42.07266
# Shear Modulus (GPa) = 21.07623 28.45238 24.76430
#
# Velocity S-wave (km/s) = 2.95139 3.42917 3.19921
# Velocity P-wave (km/s) = 5.04378 6.05229 5.57091
#
# Compressibility (1/GPa) = 0.02989366
#
# Stress axis : x y z
#
# Youngs Moduli (GPa) = 62.92172 67.57393 33.22158
#
# Poissons Ratio (x) = 0.14598 0.30780
# Poissons Ratio (y) = 0.13593 0.13368
# Poissons Ratio (z) = 0.58297 0.27191
#
# Static dielectric constant tensor:
#      x y z
#    x 1.986630 0.039640 0.001440 
#    y 0.039640 1.925280 -0.041700 
#    z 0.001440 -0.041700 1.975440 
# 
# From -- ./inp_files/71502.got.cif
#   From: 2010.05.17/outbox.cif.g08.bks.cpg/sg2_36_cif.got.tgz:71502.got - 2010.06.03 11:33:40.
