data_PCOD9083504
_publ_section_title
;
Structure prediction by ZEFSAII (Michael W. Deem and Ramdas Pophale) SiO2 
 PCOD9083504
Probable space group: P -1
;
_chemical_formula_sum "Si O2"
_cell_formula_units_Z 16
_cell_length_a 9.359513
_cell_length_b 19.122225
_cell_length_c 9.427614
_cell_angle_alpha 41.005932
_cell_angle_beta 44.823252
_cell_angle_gamma 35.949858
_cell_volume 628.400302
_symmetry_space_group_name_H-M "P -1"
_symmetry_group_IT_number 2
_symmetry_cell_setting 'triclinic'
loop_
_space_group_symop_operation_xyz
x,y,z
-x,-y,-z
loop_
_atom_site_type_symbol
_atom_site_label
_atom_site_fract_x
_atom_site_fract_y
_atom_site_fract_z
Si Si1 0.949262 0.863963 0.914708
Si Si2 0.674681 0.543332 0.773991
Si Si3 0.048174 0.497236 0.803443
Si Si4 0.858528 0.896176 0.612955
Si Si5 0.772585 0.688517 0.287571
Si Si6 0.692087 0.025728 0.093355
Si Si7 0.920244 0.756630 0.515845
Si Si8 0.363008 0.835537 0.811468
O O1 0.988305 0.870634 0.710910
O O2 0.222312 0.777190 0.933588
O O3 0.769027 0.815506 0.120686
O O4 0.794594 0.001813 0.899311
O O5 0.785495 0.550266 0.832546
O O6 0.601464 0.668199 0.539395
O O7 0.932939 0.420868 0.706695
O O8 0.500000 0.500000 0.000000
O O9 0.104093 0.604705 0.570912
O O10 0.231104 0.359935 0.795957
O O11 0.000000 0.500000 0.000000
O O12 0.003837 0.782530 0.566059
O O13 0.598798 0.914015 0.796121
O O14 0.758859 0.033841 0.399638
O O15 0.838491 0.877796 0.284682
O O16 0.722398 0.114569 0.043032
O O17 0.655462 0.776190 0.696800
#
# Coordination Sequence:
#
# PCOD9083504 Si02
#       8
#     2   2   2   2   2   2   2   2
#     4  12  19  31  56  81 109 138 174 237 276 309
#     4   9  20  40  59  75 117 145 188 233 273 332
#     4  10  19  34  56  84 114 145 181 235 285 324
#     4   9  19  35  51  79 109 142 181 220 272 330
#     4   9  22  35  57  88 112 144 193 223 280 342
#     4   9  19  34  52  74 104 145 179 218 268 329
#     4   9  18  35  55  71 105 149 180 213 275 335
#     4   9  20  34  52  78 105 142 189 214 267 341
#
# _framework density 25.461476999999999
#
# number of rings (size 3 to 8) (size 9 to 14) (size 15 to 20)
#    0.750    1.750    0.000    4.125    1.750    0.000 
#    0.000    0.625    0.000    3.000    0.000    0.000 
#    0.000    0.000    0.000    0.000    0.000    0.000 
#
# Total GULP energy -89234.001321 kJ/mol
# GULP energy per Si atom -5577.125083 kJ/mol
# Density = 2.540353 g / cm^3
# Si number density = 25.461477 Si / 1000 Ang^3
#
#
#
# Elastic Constant Matrix: (Units=GPa)
#
#
# Indices 1 2 3 4 5 6 
#
# 1 103.6951 44.9453 46.5703 14.1125 15.3702 46.9381
# 2 44.9453 56.5816 21.2303 0.9329 4.8115 34.3826
# 3 46.5703 21.2303 90.2235 3.8642 -6.5308 16.4761
# 4 14.1125 0.9329 3.8642 33.6347 6.3665 -0.8051
# 5 15.3702 4.8115 -6.5308 6.3665 39.6000 14.2793
# 6 46.9381 34.3826 16.4761 -0.8051 14.2793 47.4570
#
#
#
# Elastic Compliance Matrix: (Units=1/GPa)
#
#
# Indices 1 2 3 4 5 6 
#
# 1 0.025674 -0.006447 -0.008415 -0.009491 -0.002879 -0.017096
# 2 -0.006447 0.034966 -0.000820 0.000325 0.005381 -0.020285
# 3 -0.008415 -0.000820 0.015588 0.000848 0.005083 0.001991
# 4 -0.009491 0.000325 0.000848 0.034990 -0.005888 0.011222
# 5 -0.002879 0.005381 0.005083 -0.005888 0.032027 -0.012552
# 6 -0.017096 -0.020285 0.001991 0.011222 -0.012552 0.055954
#
#
# Mechanical properties :
#
#
# Convention : Reuss Voigt Hill
#
# Bulk Modulus (GPa) = 22.28942 52.88803 37.58872
# Shear Modulus (GPa) = 20.36505 33.32197 26.84351
#
# Velocity S-wave (km/s) = 2.83121 3.62155 3.25049
# Velocity P-wave (km/s) = 4.41144 6.18905 5.37425
#
# Compressibility (1/GPa) = 0.04486433
#
# Stress axis : x y z
#
# Youngs Moduli (GPa) = 38.94940 28.59909 64.15077
#
# Poissons Ratio (x) = 0.18437 0.53984
# Poissons Ratio (y) = 0.25110 0.05262
# Poissons Ratio (z) = 0.32777 0.02346
#
# Static dielectric constant tensor:
#      x y z
#    x 2.027050 -0.025200 0.021270 
#    y -0.025200 2.151980 -0.025390 
#    z 0.021270 -0.025390 2.096510 
# 
# From -- ./inp_files/211880.got.cif
#   From: 2010.05.17/outbox.cif.g08.bks.cpg/sg2_106_cif.got.tgz:211880.got - 2010.06.03 11:33:40.
