data_PCOD9083640
_publ_section_title
;
Structure prediction by ZEFSAII (Michael W. Deem and Ramdas Pophale) SiO2 
 PCOD9083640
Probable space group: P -1
;
_chemical_formula_sum "Si O2"
_cell_formula_units_Z 16
_cell_length_a 7.515979
_cell_length_b 17.016874
_cell_length_c 7.071188
_cell_angle_alpha 121.770551
_cell_angle_beta 57.765033
_cell_angle_gamma 106.382026
_cell_volume 650.372294
_symmetry_space_group_name_H-M "P -1"
_symmetry_group_IT_number 2
_symmetry_cell_setting 'triclinic'
loop_
_space_group_symop_operation_xyz
x,y,z
-x,-y,-z
loop_
_atom_site_type_symbol
_atom_site_label
_atom_site_fract_x
_atom_site_fract_y
_atom_site_fract_z
Si Si1 0.383345 0.710025 0.737227
Si Si2 0.284000 0.919337 0.373915
Si Si3 0.738839 0.270889 0.724192
Si Si4 0.447370 0.105407 0.125858
Si Si5 0.281666 0.312655 0.951303
Si Si6 0.863123 0.884252 0.363107
Si Si7 0.940444 0.441686 0.277447
Si Si8 0.180773 0.368466 0.514432
O O1 0.402889 0.813244 0.777171
O O2 0.618916 0.671822 0.541993
O O3 0.216762 0.637891 0.665171
O O4 0.312572 0.716063 0.006320
O O5 0.244221 0.840621 0.451625
O O6 0.107318 0.903652 0.289109
O O7 0.249310 0.028257 0.565269
O O8 0.509989 0.892670 0.120270
O O9 0.533144 0.309064 0.782116
O O10 0.956620 0.322182 0.627211
O O11 0.231418 0.121407 0.376970
O O12 0.500000 0.000000 0.000000
O O13 0.185995 0.212360 0.830104
O O14 0.146054 0.390235 0.017094
O O15 0.235968 0.339072 0.229155
O O16 0.000000 0.500000 0.500000
O O17 0.833443 0.520525 0.311733
#
# Coordination Sequence:
#
# PCOD9083640 Si02
#       8
#     2   2   2   2   2   2   2   2
#     4  10  20  38  62  86 113 147 192 238 282 340
#     4   9  19  35  55  83 115 147 190 233 276 342
#     4  10  21  37  57  83 115 150 188 232 284 344
#     4   9  18  33  58  87 112 143 182 227 281 336
#     4  10  22  37  55  84 115 148 192 239 286 340
#     4  10  19  34  57  83 113 149 188 234 284 336
#     4  10  22  40  59  82 115 150 191 243 288 332
#     4  10  22  40  59  79 112 153 192 236 288 334
#
# _framework density 24.601293999999999
#
# number of rings (size 3 to 8) (size 9 to 14) (size 15 to 20)
#    0.000    2.250    0.000    2.625    0.000    4.500 
#    0.000    3.125    0.000    0.000    0.000    0.000 
#    0.000    0.000    0.000    0.000    0.000    0.000 
#
# Total GULP energy -89340.351738 kJ/mol
# GULP energy per Si atom -5583.771984 kJ/mol
# Density = 2.454530 g / cm^3
# Si number density = 24.601294 Si / 1000 Ang^3
#
#
#
# Elastic Constant Matrix: (Units=GPa)
#
#
# Indices 1 2 3 4 5 6 
#
# 1 90.4832 44.5311 43.6433 11.9213 -13.3978 10.5688
# 2 44.5311 125.8948 41.6641 22.1841 -24.7421 15.4623
# 3 43.6433 41.6641 115.3797 17.7863 -27.9248 4.5104
# 4 11.9213 22.1841 17.7863 51.8460 2.1314 -6.2122
# 5 -13.3978 -24.7421 -27.9248 2.1314 37.1588 6.6063
# 6 10.5688 15.4623 4.5104 -6.2122 6.6063 28.6398
#
#
#
# Elastic Compliance Matrix: (Units=1/GPa)
#
#
# Indices 1 2 3 4 5 6 
#
# 1 0.015348 -0.003160 -0.004029 -0.001307 0.001166 -0.003876
# 2 -0.003160 0.013339 0.000215 -0.006644 0.010031 -0.009824
# 3 -0.004029 0.000215 0.013317 -0.004605 0.009665 -0.003955
# 4 -0.001307 -0.006644 -0.004605 0.026104 -0.012213 0.013274
# 5 0.001166 0.010031 0.009665 -0.012213 0.045627 -0.020542
# 6 -0.003876 -0.009824 -0.003955 0.013274 -0.020542 0.049891
#
#
# Mechanical properties :
#
#
# Convention : Reuss Voigt Hill
#
# Bulk Modulus (GPa) = 35.64459 65.71498 50.67979
# Shear Modulus (GPa) = 26.74849 36.99019 31.86934
#
# Velocity S-wave (km/s) = 3.30097 3.88182 3.60312
# Velocity P-wave (km/s) = 5.38970 6.84553 6.16077
#
# Compressibility (1/GPa) = 0.02805475
#
# Stress axis : x y z
#
# Youngs Moduli (GPa) = 65.15560 74.97060 75.08956
#
# Poissons Ratio (x) = 0.23690 0.30256
# Poissons Ratio (y) = 0.20589 -0.01612
# Poissons Ratio (z) = 0.26253 -0.01610
#
# Static dielectric constant tensor:
#      x y z
#    x 2.008000 -0.060390 0.017980 
#    y -0.060390 2.014450 -0.006990 
#    z 0.017980 -0.006990 1.988650 
# 
# From -- ./inp_files/215714.got.cif
#   From: 2010.05.17/outbox.cif.g08.bks.cpg/sg2_108_cif.got.tgz:215714.got - 2010.06.03 11:33:40.
