data_PCOD9083411
_publ_section_title
;
Structure prediction by ZEFSAII (Michael W. Deem and Ramdas Pophale) SiO2 
 PCOD9083411
Probable space group: P -1
;
_chemical_formula_sum "Si O2"
_cell_formula_units_Z 16
_cell_length_a 13.825053
_cell_length_b 12.817624
_cell_length_c 9.148673
_cell_angle_alpha 142.369872
_cell_angle_beta 120.551170
_cell_angle_gamma 83.351197
_cell_volume 714.468721
_symmetry_space_group_name_H-M "P -1"
_symmetry_group_IT_number 2
_symmetry_cell_setting 'triclinic'
loop_
_space_group_symop_operation_xyz
x,y,z
-x,-y,-z
loop_
_atom_site_type_symbol
_atom_site_label
_atom_site_fract_x
_atom_site_fract_y
_atom_site_fract_z
Si Si1 0.988763 0.610395 0.476115
Si Si2 0.214688 0.057824 0.132042
Si Si3 0.587469 0.851840 0.980231
Si Si4 0.977453 0.959717 0.264404
Si Si5 0.665043 0.550144 0.806643
Si Si6 0.774434 0.667928 0.310317
Si Si7 0.137847 0.484727 0.280834
Si Si8 0.377884 0.893521 0.988002
O O1 0.045992 0.576634 0.330831
O O2 0.000000 0.500000 0.500000
O O3 0.838100 0.541628 0.261721
O O4 0.082487 0.848908 0.852585
O O5 0.250495 0.244827 0.468254
O O6 0.158204 0.070870 0.944417
O O7 0.334984 0.021426 0.189380
O O8 0.669011 0.754259 0.989661
O O9 0.463013 0.653482 0.583317
O O10 0.519596 0.915850 0.123009
O O11 0.643060 0.038275 0.115138
O O12 0.953442 0.740144 0.975061
O O13 0.000000 0.000000 0.500000
O O14 0.106175 0.139329 0.477455
O O15 0.792282 0.544658 0.839546
O O16 0.657319 0.546074 0.970247
O O17 0.266778 0.654660 0.659726
#
# Coordination Sequence:
#
# PCOD9083411 Si02
#       8
#     2   2   2   2   2   2   2   2
#     4  10  20  36  55  81 121 157 185 227 279 340
#     4  10  21  37  57  82 119 157 186 228 284 352
#     4   9  19  38  60  81 112 139 198 256 291 323
#     4  11  20  35  57  88 119 152 191 224 274 346
#     4  10  20  36  58  84 108 153 193 242 288 336
#     4  11  22  37  56  85 123 155 192 223 281 350
#     4  10  19  34  55  84 114 146 192 226 279 340
#     4   9  19  36  59  82 109 150 189 244 294 330
#
# _framework density 22.394262999999999
#
# number of rings (size 3 to 8) (size 9 to 14) (size 15 to 20)
#    0.000    2.000    1.250    3.750    0.000    0.500 
#    4.500    5.000    0.000    0.000    0.000    0.000 
#    0.000    0.000    0.000    0.000    0.000    0.000 
#
# Total GULP energy -89094.813819 kJ/mol
# GULP energy per Si atom -5568.425864 kJ/mol
# Density = 2.234329 g / cm^3
# Si number density = 22.394263 Si / 1000 Ang^3
#
#
#
# Elastic Constant Matrix: (Units=GPa)
#
#
# Indices 1 2 3 4 5 6 
#
# 1 76.1038 4.6057 31.3621 -18.5427 -28.9066 -15.5831
# 2 4.6057 69.4405 26.0311 -16.0315 -12.2512 -3.7161
# 3 31.3621 26.0311 45.0138 -7.5627 -20.3922 -12.4774
# 4 -18.5427 -16.0315 -7.5627 22.3134 5.4628 -1.8864
# 5 -28.9066 -12.2512 -20.3922 5.4628 25.5549 11.9856
# 6 -15.5831 -3.7161 -12.4774 -1.8864 11.9856 24.6064
#
#
#
# Elastic Compliance Matrix: (Units=1/GPa)
#
#
# Indices 1 2 3 4 5 6 
#
# 1 0.039306 0.016520 -0.016289 0.032583 0.028871 0.007563
# 2 0.016520 0.027845 -0.017521 0.025082 0.011767 0.001974
# 3 -0.016289 -0.017521 0.048508 -0.012300 0.012310 0.004697
# 4 0.032583 0.025082 -0.012300 0.084314 0.012289 0.018663
# 5 0.028871 0.011767 0.012310 0.012289 0.093121 -0.018114
# 6 0.007563 0.001974 0.004697 0.018663 -0.018114 0.058363
#
#
# Mechanical properties :
#
#
# Convention : Reuss Voigt Hill
#
# Bulk Modulus (GPa) = 12.33346 34.95067 23.64207
# Shear Modulus (GPa) = 12.10465 23.06558 17.58511
#
# Velocity S-wave (km/s) = 2.32744 3.21281 2.80527
# Velocity P-wave (km/s) = 3.56960 5.42252 4.59052
#
# Compressibility (1/GPa) = 0.08108023
#
# Stress axis : x y z
#
# Youngs Moduli (GPa) = 25.44121 35.91269 20.61496
#
# Poissons Ratio (x) = -0.59328 0.33581
# Poissons Ratio (y) = -0.42029 0.36118
# Poissons Ratio (z) = 0.41442 0.62921
#
# Static dielectric constant tensor:
#      x y z
#    x 1.936730 0.001840 -0.002950 
#    y 0.001840 1.879620 -0.002950 
#    z -0.002950 -0.002950 1.814000 
# 
# From -- ./inp_files/308861.got.cif
#   From: 2010.05.17/outbox.cif.g08.bks.cpg/sg2_155_cif.got.tgz:308861.got - 2010.06.03 11:33:40.
