data_PCOD9083205
_publ_section_title
;
Structure prediction by ZEFSAII (Michael W. Deem and Ramdas Pophale) SiO2 
 PCOD9083205
Probable space group: P -1
;
_chemical_formula_sum "Si O2"
_cell_formula_units_Z 10
_cell_length_a 6.607032
_cell_length_b 14.871110
_cell_length_c 14.994512
_cell_angle_alpha 18.208087
_cell_angle_beta 47.868113
_cell_angle_gamma 47.524288
_cell_volume 336.768930
_symmetry_space_group_name_H-M "P -1"
_symmetry_group_IT_number 2
_symmetry_cell_setting 'triclinic'
loop_
_space_group_symop_operation_xyz
x,y,z
-x,-y,-z
loop_
_atom_site_type_symbol
_atom_site_label
_atom_site_fract_x
_atom_site_fract_y
_atom_site_fract_z
Si Si1 0.731197 0.577786 0.763662
Si Si2 0.959874 0.753243 0.348134
Si Si3 0.331534 0.134682 0.313397
Si Si4 0.541978 0.659844 0.243790
Si Si5 0.638789 0.037595 0.717182
O O1 0.923754 0.607105 0.593783
O O2 0.833360 0.705290 0.705346
O O3 0.449632 0.800913 0.614378
O O4 0.611196 0.283175 0.090205
O O5 0.683111 0.978789 0.198124
O O6 0.000000 0.500000 0.500000
O O7 0.243493 0.877240 0.133970
O O8 0.205215 0.120772 0.265417
O O9 0.500000 0.500000 0.500000
O O10 0.594172 0.383016 0.421862
O O11 0.726906 0.865829 0.944100
#
# Coordination Sequence:
#
# PCOD9083205 Si02
#       5
#     2   2   2   2   2
#     4   9  17  27  46  74 100 122 155 203 242 279
#     4   9  18  32  52  75  99 127 164 201 241 288
#     4   9  16  29  47  72  98 123 158 200 243 280
#     4  11  22  34  50  73 102 131 161 202 248 291
#     4  10  19  34  53  72  96 130 167 201 240 290
#
# _framework density 29.693950999999998
#
# number of rings (size 3 to 8) (size 9 to 14) (size 15 to 20)
#    0.000    2.400    0.000    4.800    0.000    4.800 
#    0.000    0.000    0.000    2.400    0.000    0.000 
#    0.000    0.000    0.000    0.000    0.000    0.000 
#
# Total GULP energy -55862.127490 kJ/mol
# GULP energy per Si atom -5586.212749 kJ/mol
# Density = 2.962637 g / cm^3
# Si number density = 29.693951 Si / 1000 Ang^3
#
#
#
# Elastic Constant Matrix: (Units=GPa)
#
#
# Indices 1 2 3 4 5 6 
#
# 1 55.5110 57.3931 1.1374 12.5715 5.1279 7.0295
# 2 57.3931 269.9436 32.6063 32.4661 -2.0178 49.8447
# 3 1.1374 32.6063 96.4185 15.7474 22.6807 18.4119
# 4 12.5715 32.4661 15.7474 52.4150 11.3066 -1.9863
# 5 5.1279 -2.0178 22.6807 11.3066 26.6429 6.3603
# 6 7.0295 49.8447 18.4119 -1.9863 6.3603 84.6161
#
#
#
# Elastic Compliance Matrix: (Units=1/GPa)
#
#
# Indices 1 2 3 4 5 6 
#
# 1 0.024885 -0.005774 0.003564 -0.001742 -0.007785 0.001102
# 2 -0.005774 0.006203 -0.002220 -0.003108 0.005549 -0.003181
# 3 0.003564 -0.002220 0.014407 -0.001198 -0.012318 -0.001226
# 4 -0.001742 -0.003108 -0.001198 0.024059 -0.009938 0.003548
# 5 -0.007785 0.005549 -0.012318 -0.009938 0.055187 -0.004323
# 6 0.001102 -0.003181 -0.001226 0.003548 -0.004323 0.014275
#
#
# Mechanical properties :
#
#
# Convention : Reuss Voigt Hill
#
# Bulk Modulus (GPa) = 27.29507 67.12741 47.21124
# Shear Modulus (GPa) = 31.23291 54.78390 43.00840
#
# Velocity S-wave (km/s) = 3.24671 4.29995 3.80990
# Velocity P-wave (km/s) = 4.82358 6.87810 5.94033
#
# Compressibility (1/GPa) = 0.03663665
#
# Stress axis : x y z
#
# Youngs Moduli (GPa) = 40.18530 161.21741 69.40917
#
# Poissons Ratio (x) = 0.93079 -0.24738
# Poissons Ratio (y) = 0.23201 0.15407
# Poissons Ratio (z) = -0.14323 0.35786
#
# Static dielectric constant tensor:
#      x y z
#    x 2.710300 0.034690 -0.026580 
#    y 0.034690 2.329630 0.087340 
#    z -0.026580 0.087340 2.173140 
# 
# From -- ./inp_files/18355.got.cif
#   From: 2010.05.17/outbox.cif.g08.bks.cpg/sg2_10_cif.got.tgz:18355.got - 2010.06.03 11:33:40.
