data_PCOD9083292
_publ_section_title
;
Structure prediction by ZEFSAII (Michael W. Deem and Ramdas Pophale) SiO2 
 PCOD9083292
Probable space group: P -1
;
_chemical_formula_sum "Si O2"
_cell_formula_units_Z 12
_cell_length_a 15.379165
_cell_length_b 5.432011
_cell_length_c 7.889930
_cell_angle_alpha 59.474439
_cell_angle_beta 113.323056
_cell_angle_gamma 102.906343
_cell_volume 521.169705
_symmetry_space_group_name_H-M "P -1"
_symmetry_group_IT_number 2
_symmetry_cell_setting 'triclinic'
loop_
_space_group_symop_operation_xyz
x,y,z
-x,-y,-z
loop_
_atom_site_type_symbol
_atom_site_label
_atom_site_fract_x
_atom_site_fract_y
_atom_site_fract_z
Si Si1 0.692505 0.176801 0.927471
Si Si2 0.088353 0.287839 0.633951
Si Si3 0.216051 0.726675 0.699353
Si Si4 0.393134 0.447941 0.992759
Si Si5 0.069893 0.044374 0.232645
Si Si6 0.139993 0.580358 0.229565
O O1 0.637923 0.884910 0.935570
O O2 0.756352 0.306918 0.781473
O O3 0.767457 0.121651 0.159384
O O4 0.627853 0.415197 0.885027
O O5 0.161161 0.418437 0.782073
O O6 0.134222 0.371059 0.461067
O O7 0.000000 0.500000 0.500000
O O8 0.028156 0.999057 0.722483
O O9 0.321421 0.637967 0.758615
O O10 0.156662 0.902034 0.458298
O O11 0.500000 0.500000 0.000000
O O12 0.098367 0.374398 0.124098
O O13 0.077081 0.846392 0.141306
#
# Coordination Sequence:
#
# PCOD9083292 Si02
#       6
#     2   2   2   2   2   2
#     4  10  21  35  57  82 107 136 176 225 271 305
#     4   8  17  35  53  78 107 149 179 208 251 317
#     4   8  20  33  58  79 104 136 191 210 257 316
#     4  10  21  37  59  79 104 137 177 221 270 326
#     4  10  20  35  56  77 110 150 180 206 255 318
#     4  10  19  34  54  79 111 144 170 223 268 298
#
# _framework density 23.025131999999999
#
# number of rings (size 3 to 8) (size 9 to 14) (size 15 to 20)
#    1.000    2.000    0.000    2.000    4.667    0.000 
#    0.000    8.333    0.000   14.000    0.000    0.000 
#    0.000    0.000    0.000    0.000    0.000    0.000 
#
# Total GULP energy -66871.931832 kJ/mol
# GULP energy per Si atom -5572.660986 kJ/mol
# Density = 2.297273 g / cm^3
# Si number density = 23.025132 Si / 1000 Ang^3
#
#
#
# Elastic Constant Matrix: (Units=GPa)
#
#
# Indices 1 2 3 4 5 6 
#
# 1 206.1175 85.1598 44.9509 -1.5757 1.7121 14.7565
# 2 85.1598 217.5309 11.0240 10.8762 -4.1652 3.0493
# 3 44.9509 11.0240 66.4457 -2.8282 -6.1837 3.5626
# 4 -1.5757 10.8762 -2.8282 21.3885 -2.0122 -2.4498
# 5 1.7121 -4.1652 -6.1837 -2.0122 33.0602 7.6984
# 6 14.7565 3.0493 3.5626 -2.4498 7.6984 40.3249
#
#
#
# Elastic Compliance Matrix: (Units=1/GPa)
#
#
# Indices 1 2 3 4 5 6 
#
# 1 0.006977 -0.002559 -0.004256 0.000958 -0.001018 -0.001731
# 2 -0.002559 0.005721 0.000725 -0.002915 0.000785 0.000113
# 3 -0.004256 0.000725 0.018312 0.002032 0.004038 -0.000763
# 4 0.000958 -0.002915 0.002032 0.049057 0.002435 0.002206
# 5 -0.001018 0.000785 0.004038 0.002435 0.032734 -0.006145
# 6 -0.001731 0.000113 -0.000763 0.002206 -0.006145 0.026798
#
#
# Mechanical properties :
#
#
# Convention : Reuss Voigt Hill
#
# Bulk Modulus (GPa) = 53.10841 85.81815 69.46328
# Shear Modulus (GPa) = 31.63416 42.21869 36.92643
#
# Velocity S-wave (km/s) = 3.71063 4.28669 4.00902
# Velocity P-wave (km/s) = 6.44002 7.86469 7.18774
#
# Compressibility (1/GPa) = 0.01882941
#
# Stress axis : x y z
#
# Youngs Moduli (GPa) = 143.33353 174.78772 54.60788
#
# Poissons Ratio (x) = 0.44723 0.23244
# Poissons Ratio (y) = 0.36675 -0.03958
# Poissons Ratio (z) = 0.61010 -0.12667
#
# Static dielectric constant tensor:
#      x y z
#    x 1.884760 -0.103100 -0.017520 
#    y -0.103100 2.081310 0.053080 
#    z -0.017520 0.053080 2.012490 
# 
# From -- ./inp_files/408374.got.cif
#   From: 2010.05.17/outbox.cif.g08.bks.cpg/sg2_205_cif.got.tgz:408374.got - 2010.06.03 11:33:40.
