data_PCOD9083753
_publ_section_title
;
Structure prediction by ZEFSAII (Michael W. Deem and Ramdas Pophale) SiO2 
 PCOD9083753
Probable space group: P -1
;
_chemical_formula_sum "Si O2"
_cell_formula_units_Z 16
_cell_length_a 14.647513
_cell_length_b 12.501947
_cell_length_c 5.368750
_cell_angle_alpha 84.839941
_cell_angle_beta 67.759535
_cell_angle_gamma 58.185934
_cell_volume 765.738843
_symmetry_space_group_name_H-M "P -1"
_symmetry_group_IT_number 2
_symmetry_cell_setting 'triclinic'
loop_
_space_group_symop_operation_xyz
x,y,z
-x,-y,-z
loop_
_atom_site_type_symbol
_atom_site_label
_atom_site_fract_x
_atom_site_fract_y
_atom_site_fract_z
Si Si1 0.920243 0.204987 0.611115
Si Si2 0.363633 0.094161 0.674145
Si Si3 0.843789 0.017536 0.496033
Si Si4 0.228487 0.809130 0.850408
Si Si5 0.625524 0.124755 0.009793
Si Si6 0.351160 0.232542 0.170025
Si Si7 0.367108 0.545564 0.625848
Si Si8 0.733251 0.489428 0.741816
O O1 0.852222 0.354003 0.586659
O O2 0.059615 0.122331 0.486517
O O3 0.881349 0.114351 0.541609
O O4 0.871128 0.208839 0.935466
O O5 0.318964 0.172710 0.446905
O O6 0.500000 0.000000 0.500000
O O7 0.333627 0.993133 0.821253
O O8 0.346178 0.179369 0.916807
O O9 0.838816 0.047259 0.204874
O O10 0.712660 0.064794 0.699027
O O11 0.332136 0.788169 0.929943
O O12 0.296695 0.695998 0.608408
O O13 0.488250 0.190727 0.077089
O O14 0.266740 0.384334 0.232510
O O15 0.500000 0.500000 0.500000
O O16 0.342080 0.480762 0.438185
O O17 0.325798 0.527755 0.944380
#
# Coordination Sequence:
#
# PCOD9083753 Si02
#       8
#     2   2   2   2   2   2   2   2
#     4   9  20  37  51  83 113 154 193 228 276 331
#     4  10  22  40  59  85 116 147 186 243 288 339
#     4  10  19  34  58  78 115 147 195 235 275 334
#     4  10  20  32  54  83 114 151 186 234 279 337
#     4  10  22  33  56  87 109 144 189 237 295 332
#     4  11  23  38  61  84 117 150 189 234 288 347
#     4  11  22  34  53  82 121 149 184 226 276 342
#     4  11  22  38  56  81 113 158 187 224 279 346
#
# _framework density 20.894850999999999
#
# number of rings (size 3 to 8) (size 9 to 14) (size 15 to 20)
#    0.000    1.750    1.250    3.750    7.000    0.000 
#    0.000    0.000    0.000    1.500    0.000    0.000 
#    0.000    0.000    0.000    0.000    0.000    0.000 
#
# Total GULP energy -89073.491645 kJ/mol
# GULP energy per Si atom -5567.093228 kJ/mol
# Density = 2.084729 g / cm^3
# Si number density = 20.894851 Si / 1000 Ang^3
#
#
#
# Elastic Constant Matrix: (Units=GPa)
#
#
# Indices 1 2 3 4 5 6 
#
# 1 15.3857 4.8943 7.2149 11.5059 4.8242 -0.6631
# 2 4.8943 103.7900 12.5172 15.5329 1.2648 -3.6695
# 3 7.2149 12.5172 62.8042 4.0459 18.0979 2.0127
# 4 11.5059 15.5329 4.0459 31.9649 9.7844 1.5474
# 5 4.8242 1.2648 18.0979 9.7844 23.0565 5.7836
# 6 -0.6631 -3.6695 2.0127 1.5474 5.7836 26.1823
#
#
#
# Elastic Compliance Matrix: (Units=1/GPa)
#
#
# Indices 1 2 3 4 5 6 
#
# 1 0.094363 0.001983 -0.009413 -0.034220 0.000741 0.005250
# 2 0.001983 0.010965 -0.003191 -0.006960 0.004107 0.001336
# 3 -0.009413 -0.003191 0.022662 0.007928 -0.019354 0.001379
# 4 -0.034220 -0.006960 0.007928 0.052349 -0.020650 -0.000984
# 5 0.000741 0.004107 -0.019354 -0.020650 0.069997 -0.012159
# 6 0.005250 0.001336 0.001379 -0.000984 -0.012159 0.041152
#
#
# Mechanical properties :
#
#
# Convention : Reuss Voigt Hill
#
# Bulk Modulus (GPa) = 9.36781 25.69253 17.53017
# Shear Modulus (GPa) = 14.35494 26.73098 20.54296
#
# Velocity S-wave (km/s) = 2.62393 3.58062 3.13894
# Velocity P-wave (km/s) = 3.69771 5.42377 4.64168
#
# Compressibility (1/GPa) = 0.10674851
#
# Stress axis : x y z
#
# Youngs Moduli (GPa) = 10.59737 91.19938 44.12649
#
# Poissons Ratio (x) = -0.18087 0.41536
# Poissons Ratio (y) = -0.02102 0.14081
# Poissons Ratio (z) = 0.09975 0.29102
#
# Static dielectric constant tensor:
#      x y z
#    x 1.776740 -0.019800 0.084540 
#    y -0.019800 1.867090 -0.058220 
#    z 0.084540 -0.058220 1.894910 
# 
# From -- ./inp_files/78573.got.cif
#   From: 2010.05.17/outbox.cif.g08.bks.cpg/sg2_40_cif.got.tgz:78573.got - 2010.06.03 11:33:40.
