data_PCOD9083656
_publ_section_title
;
Structure prediction by ZEFSAII (Michael W. Deem and Ramdas Pophale) SiO2 
 PCOD9083656
Probable space group: P -1
;
_chemical_formula_sum "Si O2"
_cell_formula_units_Z 16
_cell_length_a 9.295927
_cell_length_b 10.607819
_cell_length_c 9.228576
_cell_angle_alpha 110.082945
_cell_angle_beta 44.162916
_cell_angle_gamma 96.674041
_cell_volume 583.575233
_symmetry_space_group_name_H-M "P -1"
_symmetry_group_IT_number 2
_symmetry_cell_setting 'triclinic'
loop_
_space_group_symop_operation_xyz
x,y,z
-x,-y,-z
loop_
_atom_site_type_symbol
_atom_site_label
_atom_site_fract_x
_atom_site_fract_y
_atom_site_fract_z
Si Si1 0.829265 0.948318 0.810428
Si Si2 0.243239 0.722539 0.443548
Si Si3 0.873070 0.941684 0.205283
Si Si4 0.292011 0.256387 0.379894
Si Si5 0.979511 0.471447 0.170560
Si Si6 0.700294 0.557297 0.825034
Si Si7 0.522118 0.891330 0.248956
Si Si8 0.394986 0.658746 0.609787
O O1 0.780519 0.884856 0.664922
O O2 0.027994 0.828960 0.666815
O O3 0.937596 0.078928 0.819201
O O4 0.627259 0.950985 0.058592
O O5 0.179673 0.579662 0.399867
O O6 0.390249 0.779160 0.243735
O O7 0.403447 0.700242 0.454357
O O8 0.670555 0.021667 0.481015
O O9 0.729598 0.853421 0.186857
O O10 0.000000 0.000000 0.000000
O O11 0.130104 0.378131 0.626328
O O12 0.330165 0.325820 0.226876
O O13 0.498310 0.248103 0.327163
O O14 0.847477 0.350132 0.210659
O O15 0.175236 0.422909 0.113387
O O16 0.000000 0.500000 0.000000
O O17 0.500000 0.500000 0.000000
O O18 0.500000 0.500000 0.500000
#
# Coordination Sequence:
#
# PCOD9083656 Si02
#       8
#     2   2   2   2   2   2   2   2
#     4  10  19  34  57  84 114 149 190 241 290 346
#     4  11  20  35  53  80 115 151 197 247 285 341
#     4   8  16  33  57  88 120 141 172 240 291 348
#     4  11  21  38  53  75 115 153 198 242 292 333
#     4  11  22  35  52  75 107 151 200 244 292 338
#     4  12  22  34  55  77 108 156 200 246 291 340
#     4   9  18  32  57  89 113 143 189 228 294 358
#     4  10  21  37  51  70 110 157 196 243 288 324
#
# _framework density 27.417200999999999
#
# number of rings (size 3 to 8) (size 9 to 14) (size 15 to 20)
#    0.000    1.750    3.750    2.625    1.750    0.000 
#    0.000    0.000    0.000    0.750    0.000   29.750 
#    0.000    0.000    0.000    0.000    0.000    0.000 
#
# Total GULP energy -89205.834141 kJ/mol
# GULP energy per Si atom -5575.364634 kJ/mol
# Density = 2.735480 g / cm^3
# Si number density = 27.417201 Si / 1000 Ang^3
#
#
#
# Elastic Constant Matrix: (Units=GPa)
#
#
# Indices 1 2 3 4 5 6 
#
# 1 215.2786 30.4291 57.8084 1.2588 11.7462 46.5509
# 2 30.4291 54.2171 35.5139 7.5411 -2.3747 28.3333
# 3 57.8084 35.5139 163.1483 -6.1337 2.3343 6.5369
# 4 1.2588 7.5411 -6.1337 49.7212 10.3043 -0.9126
# 5 11.7462 -2.3747 2.3343 10.3043 48.8920 -1.8164
# 6 46.5509 28.3333 6.5369 -0.9126 -1.8164 58.2815
#
#
#
# Elastic Compliance Matrix: (Units=1/GPa)
#
#
# Indices 1 2 3 4 5 6 
#
# 1 0.006341 0.000482 -0.002135 -0.000274 -0.001530 -0.005111
# 2 0.000482 0.031316 -0.006667 -0.006379 0.002515 -0.014883
# 3 -0.002135 -0.006667 0.008268 0.002270 -0.000534 0.004038
# 4 -0.000274 -0.006379 0.002270 0.022455 -0.004964 0.003262
# 5 -0.001530 0.002515 -0.000534 -0.004964 0.022040 0.000669
# 6 -0.005111 -0.014883 0.004038 0.003262 0.000669 0.028095
#
#
# Mechanical properties :
#
#
# Convention : Reuss Voigt Hill
#
# Bulk Modulus (GPa) = 34.14744 75.57187 54.85966
# Shear Modulus (GPa) = 34.50249 51.97177 43.23713
#
# Velocity S-wave (km/s) = 3.55128 4.35856 3.97546
# Velocity P-wave (km/s) = 5.41269 7.27687 6.41288
#
# Compressibility (1/GPa) = 0.02928477
#
# Stress axis : x y z
#
# Youngs Moduli (GPa) = 157.71061 31.93248 120.94125
#
# Poissons Ratio (x) = -0.01540 0.25824
# Poissons Ratio (y) = -0.07605 0.80634
# Poissons Ratio (z) = 0.33676 0.21290
#
# Static dielectric constant tensor:
#      x y z
#    x 2.145690 0.018530 -0.023550 
#    y 0.018530 2.371730 0.145820 
#    z -0.023550 0.145820 2.304230 
# 
# From -- ./inp_files/208165.got.cif
#   From: 2010.05.17/outbox.cif.g08.bks.cpg/sg2_105_cif.got.tgz:208165.got - 2010.06.03 11:33:40.
