data_PCOD9083044
_publ_section_title
;
Structure prediction by ZEFSAII (Michael W. Deem and Ramdas Pophale) SiO2 
 PCOD9083044
Probable space group: P -1
;
_chemical_formula_sum "Si O2"
_cell_formula_units_Z 14
_cell_length_a 8.290779
_cell_length_b 13.656365
_cell_length_c 7.244568
_cell_angle_alpha 39.883841
_cell_angle_beta 77.176391
_cell_angle_gamma 87.826074
_cell_volume 501.222101
_symmetry_space_group_name_H-M "P -1"
_symmetry_group_IT_number 2
_symmetry_cell_setting 'triclinic'
loop_
_space_group_symop_operation_xyz
x,y,z
-x,-y,-z
loop_
_atom_site_type_symbol
_atom_site_label
_atom_site_fract_x
_atom_site_fract_y
_atom_site_fract_z
Si Si1 0.531236 0.850609 0.941508
Si Si2 0.797106 0.123818 0.486488
Si Si3 0.553444 0.632405 0.553268
Si Si4 0.706452 0.753774 0.686895
Si Si5 0.263258 0.560771 0.455267
Si Si6 0.055426 0.919239 0.864389
Si Si7 0.979350 0.322339 0.449102
O O1 0.641079 0.778327 0.869774
O O2 0.602661 0.034658 0.635883
O O3 0.342995 0.744589 0.118762
O O4 0.900999 0.998595 0.725076
O O5 0.826950 0.258243 0.435921
O O6 0.143815 0.338019 0.258377
O O7 0.890796 0.165152 0.208933
O O8 0.559372 0.665662 0.718323
O O9 0.388002 0.539293 0.624406
O O10 0.700781 0.547757 0.563125
O O11 0.578582 0.800383 0.204809
O O12 0.791427 0.932539 0.349372
O O13 0.078583 0.544156 0.610716
O O14 0.011426 0.810037 0.209098
#
# Coordination Sequence:
#
# PCOD9083044 Si02
#       7
#     2   2   2   2   2   2   2
#     4   9  18  36  55  77 100 144 171 210 252 328
#     4   9  17  32  54  78 110 137 169 202 268 312
#     4   9  19  41  55  69 104 150 168 216 259 320
#     4  10  19  33  61  76  99 138 185 200 263 310
#     4   9  22  38  53  73 112 134 179 212 270 295
#     4   9  18  32  52  82 109 137 164 214 258 318
#     4  11  20  34  52  87 104 134 171 227 246 308
#
# _framework density 27.931730000000002
#
# number of rings (size 3 to 8) (size 9 to 14) (size 15 to 20)
#    0.857    1.714    0.000    4.286    0.000    1.714 
#    2.571    2.143    0.000    0.000    0.000    0.000 
#    0.000    0.000    0.000    0.000    0.000    0.000 
#
# Total GULP energy -78297.681328 kJ/mol
# GULP energy per Si atom -5592.691523 kJ/mol
# Density = 2.786816 g / cm^3
# Si number density = 27.931730 Si / 1000 Ang^3
#
#
#
# Elastic Constant Matrix: (Units=GPa)
#
#
# Indices 1 2 3 4 5 6 
#
# 1 79.5075 22.9926 9.3469 6.8207 -3.5988 -6.2640
# 2 22.9926 147.9573 8.7953 22.4411 -3.7780 -0.2937
# 3 9.3469 8.7953 87.2805 4.4271 -14.5912 1.4637
# 4 6.8207 22.4411 4.4271 39.2170 -2.0762 -8.7502
# 5 -3.5988 -3.7780 -14.5912 -2.0762 20.5695 4.8956
# 6 -6.2640 -0.2937 1.4637 -8.7502 4.8956 53.8130
#
#
#
# Elastic Compliance Matrix: (Units=1/GPa)
#
#
# Indices 1 2 3 4 5 6 
#
# 1 0.013465 -0.001884 -0.001098 -0.000787 0.000822 0.001384
# 2 -0.001884 0.007724 -0.000226 -0.004235 0.000722 -0.000925
# 3 -0.001098 -0.000226 0.013250 -0.001014 0.009423 -0.001512
# 4 -0.000787 -0.004235 -0.001014 0.029221 0.000209 0.004645
# 5 0.000822 0.000722 0.009423 0.000209 0.056857 -0.005295
# 6 0.001384 -0.000925 -0.001512 0.004645 -0.005295 0.020017
#
#
# Mechanical properties :
#
#
# Convention : Reuss Voigt Hill
#
# Bulk Modulus (GPa) = 35.68447 44.11277 39.89862
# Shear Modulus (GPa) = 31.99161 40.96060 36.47610
#
# Velocity S-wave (km/s) = 3.38797 3.83359 3.61765
# Velocity P-wave (km/s) = 5.30168 5.95168 5.63606
#
# Compressibility (1/GPa) = 0.02802340
#
# Stress axis : x y z
#
# Youngs Moduli (GPa) = 74.26573 129.46977 75.47365
#
# Poissons Ratio (x) = 0.24393 0.08287
# Poissons Ratio (y) = 0.13992 0.01703
# Poissons Ratio (z) = 0.08154 0.02921
#
# Static dielectric constant tensor:
#      x y z
#    x 2.248360 -0.007750 0.012850 
#    y -0.007750 2.074290 -0.072130 
#    z 0.012850 -0.072130 2.186370 
# 
# From -- ./inp_files/199425.got.cif
#   From: 2010.05.17/outbox.cif.g08.bks.cpg/sg2_100_cif.got.tgz:199425.got - 2010.06.03 11:33:40.
