data_PCOD9083207
_publ_section_title
;
Structure prediction by ZEFSAII (Michael W. Deem and Ramdas Pophale) SiO2 
 PCOD9083207
Probable space group: P -1
;
_chemical_formula_sum "Si O2"
_cell_formula_units_Z 10
_cell_length_a 12.518552
_cell_length_b 7.882017
_cell_length_c 9.010180
_cell_angle_alpha 135.554104
_cell_angle_beta 134.457643
_cell_angle_gamma 59.458874
_cell_volume 444.292166
_symmetry_space_group_name_H-M "P -1"
_symmetry_group_IT_number 2
_symmetry_cell_setting 'triclinic'
loop_
_space_group_symop_operation_xyz
x,y,z
-x,-y,-z
loop_
_atom_site_type_symbol
_atom_site_label
_atom_site_fract_x
_atom_site_fract_y
_atom_site_fract_z
Si Si1 0.009393 0.382781 0.167231
Si Si2 0.430486 0.661584 0.356712
Si Si3 0.704546 0.854591 0.602368
Si Si4 0.744872 0.688063 0.213907
Si Si5 0.185524 0.766697 0.401467
O O1 0.122551 0.181982 0.214790
O O2 0.116705 0.603654 0.360364
O O3 0.884012 0.499200 0.224392
O O4 0.922830 0.284255 0.876944
O O5 0.601055 0.735241 0.551285
O O6 0.350901 0.687811 0.454470
O O7 0.348705 0.871196 0.306478
O O8 0.382603 0.411470 0.080283
O O9 0.682927 0.723069 0.340869
O O10 0.804629 0.948194 0.381131
#
# Coordination Sequence:
#
# PCOD9083207 Si02
#       5
#     2   2   2   2   2
#     4  10  20  34  53  76 101 132 168 205 248 296
#     4   9  20  36  52  73 103 134 165 205 249 295
#     4  10  20  34  53  76 101 132 168 205 248 296
#     4  10  19  34  53  74 102 132 165 208 249 292
#     4   9  20  36  52  73 103 134 165 205 249 295
#
# _framework density 22.507709999999999
#
# number of rings (size 3 to 8) (size 9 to 14) (size 15 to 20)
#    0.000    2.400    0.000    1.800    0.000    9.600 
#    0.000    1.000    0.000    0.000    0.000    0.000 
#    0.000    0.000    0.000    0.000    0.000    0.000 
#
# Total GULP energy -55872.105946 kJ/mol
# GULP energy per Si atom -5587.210595 kJ/mol
# Density = 2.245648 g / cm^3
# Si number density = 22.507710 Si / 1000 Ang^3
#
#
#
# Elastic Constant Matrix: (Units=GPa)
#
#
# Indices 1 2 3 4 5 6 
#
# 1 84.6496 5.4708 18.4223 12.3919 25.5462 1.4412
# 2 5.4708 58.6140 11.8932 14.2516 1.9572 0.5453
# 3 18.4223 11.8932 58.2665 30.4618 7.3356 -7.2259
# 4 12.3919 14.2516 30.4618 26.5707 7.8048 0.8729
# 5 25.5462 1.9572 7.3356 7.8048 27.9653 8.0699
# 6 1.4412 0.5453 -7.2259 0.8729 8.0699 27.6136
#
#
#
# Elastic Compliance Matrix: (Units=1/GPa)
#
#
# Indices 1 2 3 4 5 6 
#
# 1 0.017198 -0.000587 -0.003306 0.000631 -0.015800 0.002846
# 2 -0.000587 0.020082 0.004298 -0.016131 0.002336 0.000586
# 3 -0.003306 0.004298 0.049428 -0.058471 0.001945 0.014302
# 4 0.000631 -0.016131 -0.058471 0.117183 -0.012464 -0.015077
# 5 -0.015800 0.002336 0.001945 -0.012464 0.057348 -0.015078
# 6 0.002846 0.000586 0.014302 -0.015077 -0.015078 0.044679
#
#
# Mechanical properties :
#
#
# Convention : Reuss Voigt Hill
#
# Bulk Modulus (GPa) = 11.42611 30.34476 20.88543
# Shear Modulus (GPa) = 14.95756 27.47950 21.21853
#
# Velocity S-wave (km/s) = 2.58069 3.49792 3.07371
# Velocity P-wave (km/s) = 3.73731 5.46124 4.67935
#
# Compressibility (1/GPa) = 0.08751887
#
# Stress axis : x y z
#
# Youngs Moduli (GPa) = 58.14620 49.79579 20.23162
#
# Poissons Ratio (x) = 0.02922 0.06688
# Poissons Ratio (y) = 0.03412 -0.08696
# Poissons Ratio (z) = 0.19221 -0.21403
#
# Static dielectric constant tensor:
#      x y z
#    x 1.843590 -0.002960 0.032480 
#    y -0.002960 1.878620 -0.011990 
#    z 0.032480 -0.011990 1.784420 
# 
# From -- ./inp_files/138420.got.cif
#   From: 2010.05.17/outbox.cif.g08.bks.cpg/sg2_70_cif.got.tgz:138420.got - 2010.06.03 11:33:40.
