data_PCOD9083892
_publ_section_title
;
Structure prediction by ZEFSAII (Michael W. Deem and Ramdas Pophale) SiO2 
 PCOD9083892
Probable space group: P -1
;
_chemical_formula_sum "Si O2"
_cell_formula_units_Z 13
_cell_length_a 4.739602
_cell_length_b 11.216962
_cell_length_c 9.071306
_cell_angle_alpha 103.451292
_cell_angle_beta 87.695914
_cell_angle_gamma 101.829439
_cell_volume 459.061307
_symmetry_space_group_name_H-M "P -1"
_symmetry_group_IT_number 2
_symmetry_cell_setting 'triclinic'
loop_
_space_group_symop_operation_xyz
x,y,z
-x,-y,-z
loop_
_atom_site_type_symbol
_atom_site_label
_atom_site_fract_x
_atom_site_fract_y
_atom_site_fract_z
Si Si1 0.000000 0.000000 0.500000
Si Si2 0.709766 0.063521 0.221506
Si Si3 0.236863 0.828197 0.042629
Si Si4 0.724155 0.644789 0.128117
Si Si5 0.469014 0.142585 0.668935
Si Si6 0.450994 0.600758 0.817718
Si Si7 0.732970 0.780108 0.634787
O O1 0.259274 0.915488 0.412841
O O2 0.711627 0.835930 0.483715
O O3 0.934353 0.193820 0.323185
O O4 0.416453 0.120410 0.249940
O O5 0.493617 0.905441 0.159676
O O6 0.824919 0.081983 0.057290
O O7 0.974237 0.764824 0.131355
O O8 0.322291 0.711471 0.924052
O O9 0.489786 0.712102 0.233729
O O10 0.760223 0.533403 0.203921
O O11 0.674163 0.591281 0.946014
O O12 0.178591 0.018508 0.663766
O O13 0.584979 0.647051 0.670229
#
# Coordination Sequence:
#
# PCOD9083892 Si02
#       7
#     1   2   2   2   2   2   2
#     4  10  24  44  60  78 122 162 206 246 292 344
#     4  10  21  37  61  90 122 152 194 251 307 357
#     4  10  19  34  58  92 121 151 191 245 308 358
#     4  10  19  35  59  88 121 152 193 240 304 359
#     4  10  23  36  55  88 115 160 199 247 291 356
#     4   9  19  36  58  89 121 152 191 242 302 361
#     4  10  21  40  62  87 117 162 202 241 297 353
#
# _framework density 28.318660999999999
#
# number of rings (size 3 to 8) (size 9 to 14) (size 15 to 20)
#    0.000    2.154    1.538    0.923    4.308    3.077 
#    0.000    0.769    0.000    0.923    0.000    0.000 
#    0.000    0.000    0.000    0.000    0.000    0.000 
#
# Total GULP energy -72379.752656 kJ/mol
# GULP energy per Si atom -5567.673281 kJ/mol
# Density = 2.825421 g / cm^3
# Si number density = 28.318661 Si / 1000 Ang^3
#
#
#
# Elastic Constant Matrix: (Units=GPa)
#
#
# Indices 1 2 3 4 5 6 
#
# 1 123.1353 31.3647 46.5174 -23.4939 19.3569 7.1013
# 2 31.3647 255.3158 80.2774 -63.7410 -1.8970 -11.8151
# 3 46.5174 80.2774 111.3378 -20.7363 26.0724 -10.9455
# 4 -23.4939 -63.7410 -20.7363 56.3356 -18.4147 3.1273
# 5 19.3569 -1.8970 26.0724 -18.4147 68.0756 -3.3866
# 6 7.1013 -11.8151 -10.9455 3.1273 -3.3866 38.0138
#
#
#
# Elastic Compliance Matrix: (Units=1/GPa)
#
#
# Indices 1 2 3 4 5 6 
#
# 1 0.010628 0.000982 -0.004680 0.003906 -0.000314 -0.003377
# 2 0.000982 0.007620 -0.005294 0.008458 0.004266 0.000345
# 3 -0.004680 -0.005294 0.015668 -0.004267 -0.005794 0.003575
# 4 0.003906 0.008458 -0.004267 0.030351 0.008918 -0.001032
# 5 -0.000314 0.004266 -0.005794 0.008918 0.019565 0.000725
# 6 -0.003377 0.000345 0.003575 -0.001032 0.000725 0.028223
#
#
# Mechanical properties :
#
#
# Convention : Reuss Voigt Hill
#
# Bulk Modulus (GPa) = 62.76595 89.56753 76.16674
# Shear Modulus (GPa) = 36.94153 54.59362 45.76757
#
# Velocity S-wave (km/s) = 3.61570 4.39547 4.02451
# Velocity P-wave (km/s) = 6.29629 7.58006 6.96781
#
# Compressibility (1/GPa) = 0.01593220
#
# Stress axis : x y z
#
# Youngs Moduli (GPa) = 94.08929 131.23654 63.82522
#
# Poissons Ratio (x) = -0.12893 0.29869
# Poissons Ratio (y) = -0.09244 0.33791
# Poissons Ratio (z) = 0.44033 0.69482
#
# Static dielectric constant tensor:
#      x y z
#    x 1.648820 -0.611480 -0.069940 
#    y -0.611480 1.571620 -0.287020 
#    z -0.069940 -0.287020 2.069550 
# 
# From -- ./inp_files/91358.got.cif
#   From: 2010.05.17/outbox.cif.g08.bks.cpg/sg2_46_cif.got.tgz:91358.got - 2010.06.03 11:33:40.
