data_PCOD9083305
_publ_section_title
;
Structure prediction by ZEFSAII (Michael W. Deem and Ramdas Pophale) SiO2 
 PCOD9083305
Probable space group: P -1
;
_chemical_formula_sum "Si O2"
_cell_formula_units_Z 14
_cell_length_a 16.921499
_cell_length_b 7.093207
_cell_length_c 9.246266
_cell_angle_alpha 97.311748
_cell_angle_beta 81.100199
_cell_angle_gamma 39.166778
_cell_volume 635.825234
_symmetry_space_group_name_H-M "P -1"
_symmetry_group_IT_number 2
_symmetry_cell_setting 'triclinic'
loop_
_space_group_symop_operation_xyz
x,y,z
-x,-y,-z
loop_
_atom_site_type_symbol
_atom_site_label
_atom_site_fract_x
_atom_site_fract_y
_atom_site_fract_z
Si Si1 0.323849 0.688919 0.352686
Si Si2 0.131794 0.752203 0.330346
Si Si3 0.582638 0.331546 0.307456
Si Si4 0.258027 0.252506 0.476584
Si Si5 0.014470 0.175606 0.865438
Si Si6 0.313280 0.497392 0.646493
Si Si7 0.891384 0.600593 0.217624
O O1 0.500000 0.500000 0.500000
O O2 0.213681 0.792046 0.297741
O O3 0.486672 0.378447 0.244190
O O4 0.299778 0.634531 0.510051
O O5 0.233980 0.413790 0.353653
O O6 0.087471 0.754545 0.190811
O O7 0.000000 0.000000 0.500000
O O8 0.598123 0.526831 0.284758
O O9 0.700953 0.038956 0.602330
O O10 0.735118 0.954659 0.246510
O O11 0.346185 0.219445 0.557987
O O12 0.121836 0.476361 0.632731
O O13 0.033232 0.342134 0.793403
O O14 0.162987 0.792212 0.786772
O O15 0.962221 0.334560 0.052463
#
# Coordination Sequence:
#
# PCOD9083305 Si02
#       7
#     2   2   2   2   2   2   2
#     4  10  19  34  54  82 108 142 180 222 264 315
#     4  11  21  37  53  79 116 141 177 222 263 322
#     4   9  16  35  54  78 114 136 176 229 267 307
#     4  11  19  33  58  86 101 140 189 213 271 317
#     4  10  19  38  53  78 119 140 172 223 276 316
#     4   9  18  33  51  82 110 136 174 231 263 309
#     4  10  20  34  60  83 103 148 177 220 278 311
#
# _framework density 22.018628
#
# number of rings (size 3 to 8) (size 9 to 14) (size 15 to 20)
#    0.000    2.000    7.143    0.000    0.000    3.429 
#    2.571    0.714    0.000    0.857    0.000    0.000 
#    0.000    0.000    0.000    0.000    0.000    0.000 
#
# Total GULP energy -77995.387335 kJ/mol
# GULP energy per Si atom -5571.099095 kJ/mol
# Density = 2.196851 g / cm^3
# Si number density = 22.018628 Si / 1000 Ang^3
#
#
#
# Elastic Constant Matrix: (Units=GPa)
#
#
# Indices 1 2 3 4 5 6 
#
# 1 183.5939 48.2284 18.6394 1.1879 24.6069 -23.1694
# 2 48.2284 45.7149 12.0398 14.8093 13.0566 -7.6845
# 3 18.6394 12.0398 28.6046 9.3574 11.9963 -3.5209
# 4 1.1879 14.8093 9.3574 19.2672 1.4452 3.2713
# 5 24.6069 13.0566 11.9963 1.4452 28.4953 -7.8945
# 6 -23.1694 -7.6845 -3.5209 3.2713 -7.8945 47.6225
#
#
#
# Elastic Compliance Matrix: (Units=1/GPa)
#
#
# Indices 1 2 3 4 5 6 
#
# 1 0.009004 -0.011016 -0.003629 0.009521 -0.001276 0.001469
# 2 -0.011016 0.048842 0.004783 -0.038897 -0.011918 0.003572
# 3 -0.003629 0.004783 0.052780 -0.027902 -0.019417 0.001606
# 4 0.009521 -0.038897 -0.027902 0.095020 0.014352 -0.007855
# 5 -0.001276 -0.011918 -0.019417 0.014352 0.050024 0.003327
# 6 0.001469 0.003572 0.001606 -0.007855 0.003327 0.023500
#
#
# Mechanical properties :
#
#
# Convention : Reuss Voigt Hill
#
# Bulk Modulus (GPa) = 11.00109 46.19206 28.59657
# Shear Modulus (GPa) = 15.18862 31.01072 23.09967
#
# Velocity S-wave (km/s) = 2.62927 3.75692 3.24249
# Velocity P-wave (km/s) = 3.77154 6.31216 5.19942
#
# Compressibility (1/GPa) = 0.09090012
#
# Stress axis : x y z
#
# Youngs Moduli (GPa) = 111.06367 20.47433 18.94674
#
# Poissons Ratio (x) = 0.22555 0.06876
# Poissons Ratio (y) = 1.22348 -0.09062
# Poissons Ratio (z) = 0.40306 -0.09792
#
# Static dielectric constant tensor:
#      x y z
#    x 1.926340 -0.029000 0.027320 
#    y -0.029000 1.948360 -0.010720 
#    z 0.027320 -0.010720 1.776790 
# 
# From -- ./inp_files/443348.got.cif
#   From: 2010.05.17/outbox.cif.g08.bks.cpg/sg2_222_cif.got.tgz:443348.got - 2010.06.03 11:33:40.
