data_PCOD9083294
_publ_section_title
;
Structure prediction by ZEFSAII (Michael W. Deem and Ramdas Pophale) SiO2 
 PCOD9083294
Probable space group: P -1
;
_chemical_formula_sum "Si O2"
_cell_formula_units_Z 16
_cell_length_a 21.480960
_cell_length_b 6.272108
_cell_length_c 21.692925
_cell_angle_alpha 105.647865
_cell_angle_beta 160.824272
_cell_angle_gamma 63.758287
_cell_volume 744.701745
_symmetry_space_group_name_H-M "P -1"
_symmetry_group_IT_number 2
_symmetry_cell_setting 'triclinic'
loop_
_space_group_symop_operation_xyz
x,y,z
-x,-y,-z
loop_
_atom_site_type_symbol
_atom_site_label
_atom_site_fract_x
_atom_site_fract_y
_atom_site_fract_z
Si Si1 0.428517 0.131291 0.089850
Si Si2 0.412514 0.917315 0.185297
Si Si3 0.906969 0.227750 0.184701
Si Si4 0.042428 0.487158 0.942343
Si Si5 0.394747 0.843963 0.862446
Si Si6 0.231726 0.813164 0.825882
Si Si7 0.255510 0.150309 0.417843
Si Si8 0.357117 0.398212 0.329748
O O1 0.202449 0.449521 0.896007
O O2 0.361197 0.940103 0.983618
O O3 0.477009 0.042657 0.199703
O O4 0.625101 0.099156 0.225046
O O5 0.632340 0.744624 0.423559
O O6 0.210226 0.166478 0.057710
O O7 0.299809 0.780458 0.038329
O O8 0.956461 0.117765 0.292343
O O9 0.137640 0.052982 0.345188
O O10 0.948315 0.632928 0.800863
O O11 0.822995 0.570072 0.785701
O O12 0.196920 0.554069 0.131506
O O13 0.190113 0.904161 0.722551
O O14 0.592396 0.517742 0.030727
O O15 0.500000 0.000000 0.000000
O O16 0.454523 0.910206 0.541752
O O17 0.500000 0.500000 0.500000
#
# Coordination Sequence:
#
# PCOD9083294 Si02
#       8
#     2   2   2   2   2   2   2   2
#     4   9  16  31  51  76 115 149 191 239 281 336
#     4  10  21  37  54  82 115 147 192 238 282 340
#     4  10  19  34  54  79 113 152 189 237 288 336
#     4  10  21  39  57  81 118 142 186 241 276 342
#     4   8  13  24  47  81 112 151 195 230 285 339
#     4   8  15  26  48  80 113 149 194 235 281 339
#     4  11  22  37  58  83 113 152 188 232 288 340
#     4  10  22  38  59  85 111 148 187 230 287 340
#
# _framework density 21.485112000000001
#
# number of rings (size 3 to 8) (size 9 to 14) (size 15 to 20)
#    0.000    2.500    1.250    1.125    0.000    1.500 
#    2.250    0.000    0.000    0.750    0.000   78.750 
#    0.000    0.000    0.000    0.000    0.000    0.000 
#
# Total GULP energy -89103.324514 kJ/mol
# GULP energy per Si atom -5568.957782 kJ/mol
# Density = 2.143621 g / cm^3
# Si number density = 21.485112 Si / 1000 Ang^3
#
#
#
# Elastic Constant Matrix: (Units=GPa)
#
#
# Indices 1 2 3 4 5 6 
#
# 1 135.6217 20.6417 28.3290 1.7789 8.1165 -0.5608
# 2 20.6417 88.2551 21.7994 12.9438 -6.4574 -4.2269
# 3 28.3290 21.7994 79.7066 17.9899 -14.1844 -0.1055
# 4 1.7789 12.9438 17.9899 14.1473 -0.2065 -3.0845
# 5 8.1165 -6.4574 -14.1844 -0.2065 22.8252 3.5775
# 6 -0.5608 -4.2269 -0.1055 -3.0845 3.5775 21.4554
#
#
#
# Elastic Compliance Matrix: (Units=1/GPa)
#
#
# Indices 1 2 3 4 5 6 
#
# 1 0.009458 -0.002549 -0.006298 0.009570 -0.008300 0.002474
# 2 -0.002549 0.014087 0.001224 -0.014096 0.005563 -0.000239
# 3 -0.006298 0.001224 0.025681 -0.034444 0.019487 -0.007998
# 4 0.009570 -0.014096 -0.034444 0.130349 -0.030940 0.021202
# 5 -0.008300 0.005563 0.019487 -0.030940 0.062340 -0.013868
# 6 0.002474 -0.000239 -0.007998 0.021202 -0.013868 0.051947
#
#
# Mechanical properties :
#
#
# Convention : Reuss Voigt Hill
#
# Bulk Modulus (GPa) = 29.42808 49.45818 39.44313
# Shear Modulus (GPa) = 15.60376 27.20646 21.40511
#
# Velocity S-wave (km/s) = 2.69784 3.56236 3.15981
# Velocity P-wave (km/s) = 4.84058 6.32379 5.63123
#
# Compressibility (1/GPa) = 0.03398115
#
# Stress axis : x y z
#
# Youngs Moduli (GPa) = 105.72656 70.98494 38.93938
#
# Poissons Ratio (x) = 0.18093 0.24525
# Poissons Ratio (y) = 0.26948 -0.04767
# Poissons Ratio (z) = 0.66588 -0.08690
#
# Static dielectric constant tensor:
#      x y z
#    x 1.871710 0.003350 -0.002550 
#    y 0.003350 1.752310 0.003090 
#    z -0.002550 0.003090 1.797920 
# 
# From -- ./inp_files/600802.got.cif
#   From: 2010.05.17/outbox.cif.g08.bks.cpg/sg2_301_cif.got.tgz:600802.got - 2010.06.03 11:33:40.
