data_PCOD9083340
_publ_section_title
;
Structure prediction by ZEFSAII (Michael W. Deem and Ramdas Pophale) SiO2 
 PCOD9083340
Probable space group: P -1
;
_chemical_formula_sum "Si O2"
_cell_formula_units_Z 16
_cell_length_a 29.527628
_cell_length_b 22.529460
_cell_length_c 17.863342
_cell_angle_alpha 18.231285
_cell_angle_beta 166.785995
_cell_angle_gamma 166.599601
_cell_volume 628.673881
_symmetry_space_group_name_H-M "P -1"
_symmetry_group_IT_number 2
_symmetry_cell_setting 'triclinic'
loop_
_space_group_symop_operation_xyz
x,y,z
-x,-y,-z
loop_
_atom_site_type_symbol
_atom_site_label
_atom_site_fract_x
_atom_site_fract_y
_atom_site_fract_z
Si Si1 0.710367 0.234945 0.836624
Si Si2 0.894907 0.438260 0.296754
Si Si3 0.331622 0.922461 0.494339
Si Si4 0.103924 0.180085 0.807500
Si Si5 0.407006 0.740333 0.124482
Si Si6 0.084919 0.912547 0.541696
Si Si7 0.536372 0.546667 0.177297
Si Si8 0.403877 0.404416 0.294991
O O1 0.543077 0.319645 0.467033
O O2 0.636010 0.099496 0.799230
O O3 0.000000 0.500000 0.000000
O O4 0.712988 0.085399 0.086001
O O5 0.817980 0.224319 0.489875
O O6 0.198021 0.699135 0.486999
O O7 0.809878 0.360089 0.167741
O O8 0.726203 0.510506 0.968686
O O9 0.272517 0.096129 0.162143
O O10 0.284141 0.412421 0.877259
O O11 0.049226 0.249158 0.557803
O O12 0.827871 0.905951 0.721903
O O13 0.350521 0.553963 0.322647
O O14 0.676755 0.808031 0.444021
O O15 0.500000 0.000000 0.000000
O O16 0.824642 0.798990 0.306780
O O17 0.496265 0.568257 0.172606
#
# Coordination Sequence:
#
# PCOD9083340 Si02
#       8
#     2   2   2   2   2   2   2   2
#     4   9  17  31  57  84 114 155 200 238 284 354
#     4  10  20  37  59  84 123 157 193 247 307 355
#     4   9  18  35  59  83 113 158 195 241 302 349
#     4   9  19  33  56  85 117 154 201 244 294 342
#     4  11  22  37  61  90 118 152 205 256 296 348
#     4  10  19  34  54  87 117 155 191 250 295 346
#     4  10  19  34  56  84 122 153 198 240 298 357
#     4  10  21  35  57  91 115 157 199 250 297 355
#
# _framework density 25.450398
#
# number of rings (size 3 to 8) (size 9 to 14) (size 15 to 20)
#    0.000    2.250    1.250    1.875    1.750    0.000 
#    6.750    0.625    0.000    0.750    0.000    0.000 
#    0.000    0.000    0.000    0.000    0.000    0.000 
#
# Total GULP energy -89148.244644 kJ/mol
# GULP energy per Si atom -5571.765290 kJ/mol
# Density = 2.539247 g / cm^3
# Si number density = 25.450398 Si / 1000 Ang^3
#
#
#
# Elastic Constant Matrix: (Units=GPa)
#
#
# Indices 1 2 3 4 5 6 
#
# 1 99.3197 22.9121 48.9743 23.5405 -19.1798 -24.8122
# 2 22.9121 75.0887 30.3460 19.6105 -0.9513 -24.4014
# 3 48.9743 30.3460 134.9096 15.0440 -42.7569 -19.0052
# 4 23.5405 19.6105 15.0440 49.0578 -10.3319 -5.4641
# 5 -19.1798 -0.9513 -42.7569 -10.3319 40.4523 16.4305
# 6 -24.8122 -24.4014 -19.0052 -5.4641 16.4305 39.6406
#
#
#
# Elastic Compliance Matrix: (Units=1/GPa)
#
#
# Indices 1 2 3 4 5 6 
#
# 1 0.015116 0.001750 -0.004970 -0.006124 -0.003101 0.008597
# 2 0.001750 0.023814 -0.007592 -0.009486 -0.016170 0.017509
# 3 -0.004970 -0.007592 0.014920 0.003641 0.017095 -0.007215
# 4 -0.006124 -0.009486 0.003641 0.027396 0.011309 -0.008838
# 5 -0.003101 -0.016170 0.017095 0.011309 0.053745 -0.024416
# 6 0.008597 0.017509 -0.007215 -0.008838 -0.024416 0.046828
#
#
# Mechanical properties :
#
#
# Convention : Reuss Voigt Hill
#
# Bulk Modulus (GPa) = 31.03030 57.08700 44.05865
# Shear Modulus (GPa) = 23.34434 39.63587 31.49010
#
# Velocity S-wave (km/s) = 3.03190 3.95064 3.52136
# Velocity P-wave (km/s) = 4.94727 6.57947 5.82087
#
# Compressibility (1/GPa) = 0.03222657
#
# Stress axis : x y z
#
# Youngs Moduli (GPa) = 66.15592 41.99125 67.02498
#
# Poissons Ratio (x) = -0.07349 0.33309
# Poissons Ratio (y) = -0.11577 0.50887
# Poissons Ratio (z) = 0.32877 0.31881
#
# Static dielectric constant tensor:
#      x y z
#    x 2.024490 -0.128430 0.008510 
#    y -0.128430 2.031660 0.025310 
#    z 0.008510 0.025310 2.157130 
# 
# From -- ./inp_files/543165.got.cif
#   From: 2010.05.17/outbox.cif.g08.bks.cpg/sg2_272_cif.got.tgz:543165.got - 2010.06.03 11:33:40.
