data_PCOD9083547
_publ_section_title
;
Structure prediction by ZEFSAII (Michael W. Deem and Ramdas Pophale) SiO2 
 PCOD9083547
Probable space group: P -1
;
_chemical_formula_sum "Si O2"
_cell_formula_units_Z 16
_cell_length_a 10.258344
_cell_length_b 17.070230
_cell_length_c 23.343419
_cell_angle_alpha 158.900117
_cell_angle_beta 49.123214
_cell_angle_gamma 143.835217
_cell_volume 768.833504
_symmetry_space_group_name_H-M "P -1"
_symmetry_group_IT_number 2
_symmetry_cell_setting 'triclinic'
loop_
_space_group_symop_operation_xyz
x,y,z
-x,-y,-z
loop_
_atom_site_type_symbol
_atom_site_label
_atom_site_fract_x
_atom_site_fract_y
_atom_site_fract_z
Si Si1 0.977745 0.346962 0.261670
Si Si2 0.092057 0.617991 0.118269
Si Si3 0.049510 0.724657 0.969113
Si Si4 0.215557 0.274497 0.668027
Si Si5 0.061958 0.737000 0.406946
Si Si6 0.485075 0.294587 0.292718
Si Si7 0.429747 0.731576 0.620053
Si Si8 0.774732 0.834508 0.876185
O O1 0.124235 0.648981 0.384472
O O2 0.805490 0.329434 0.341853
O O3 0.141446 0.320651 0.229524
O O4 0.809773 0.049757 0.062770
O O5 0.893753 0.608138 0.193437
O O6 0.365665 0.972573 0.277377
O O7 0.000000 0.500000 0.000000
O O8 0.090742 0.416363 0.025882
O O9 0.338560 0.993855 0.089690
O O10 0.047681 0.925179 0.062654
O O11 0.960331 0.441084 0.763061
O O12 0.483215 0.555984 0.755041
O O13 0.000000 0.000000 0.500000
O O14 0.232823 0.098173 0.589931
O O15 0.780169 0.566174 0.382427
O O16 0.375090 0.436582 0.414230
O O17 0.451428 0.194648 0.300312
#
# Coordination Sequence:
#
# PCOD9083547 Si02
#       8
#     2   2   2   2   2   2   2   2
#     4   9  21  43  62  83 116 164 208 239 287 358
#     4  12  23  35  55  93 126 155 188 243 319 361
#     4  11  22  34  58  83 120 157 196 246 300 351
#     4  12  23  37  62  96 125 147 196 262 305 350
#     4  10  20  35  60  88 116 154 195 252 301 342
#     4  10  19  34  56  87 118 150 195 245 297 361
#     4  10  20  35  57  82 120 154 190 245 296 358
#     4  10  23  40  62  86 116 160 209 247 286 349
#
# _framework density 20.810748
#
# number of rings (size 3 to 8) (size 9 to 14) (size 15 to 20)
#    0.000    1.500    3.750    1.875    3.500    0.500 
#    0.000    1.250    0.000    0.000    0.000    0.000 
#    0.000    0.000    0.000    0.000    0.000    0.000 
#
# Total GULP energy -89317.487471 kJ/mol
# GULP energy per Si atom -5582.342967 kJ/mol
# Density = 2.076338 g / cm^3
# Si number density = 20.810748 Si / 1000 Ang^3
#
#
#
# Elastic Constant Matrix: (Units=GPa)
#
#
# Indices 1 2 3 4 5 6 
#
# 1 62.5622 31.7746 19.0195 -0.5203 -18.2655 -19.2064
# 2 31.7746 88.4530 13.1517 16.5984 -15.9729 -24.5050
# 3 19.0195 13.1517 36.5858 2.0984 -13.3694 -6.9903
# 4 -0.5203 16.5984 2.0984 37.5657 -7.6579 -9.4682
# 5 -18.2655 -15.9729 -13.3694 -7.6579 31.7430 7.7252
# 6 -19.2064 -24.5050 -6.9903 -9.4682 7.7252 26.5125
#
#
#
# Elastic Compliance Matrix: (Units=1/GPa)
#
#
# Indices 1 2 3 4 5 6 
#
# 1 0.027634 -0.004944 -0.007103 0.008313 0.009042 0.013911
# 2 -0.004944 0.017151 -0.000737 -0.004735 0.001943 0.009819
# 3 -0.007103 -0.000737 0.035151 0.000524 0.010322 0.000620
# 4 0.008313 -0.004735 0.000524 0.033270 0.007882 0.011370
# 5 0.009042 0.001943 0.010322 0.007882 0.043649 0.001163
# 6 0.013911 0.009819 0.000620 0.011370 0.001163 0.060756
#
#
# Mechanical properties :
#
#
# Convention : Reuss Voigt Hill
#
# Bulk Modulus (GPa) = 18.39392 35.05473 26.72432
# Shear Modulus (GPa) = 19.13488 27.40792 23.27140
#
# Velocity S-wave (km/s) = 3.03557 3.63300 3.34764
# Velocity P-wave (km/s) = 4.59827 5.87191 5.27368
#
# Compressibility (1/GPa) = 0.05436579
#
# Stress axis : x y z
#
# Youngs Moduli (GPa) = 36.18703 58.30666 28.44858
#
# Poissons Ratio (x) = 0.28828 0.20208
# Poissons Ratio (y) = 0.17892 0.02098
# Poissons Ratio (z) = 0.25705 0.04299
#
# Static dielectric constant tensor:
#      x y z
#    x 1.799810 -0.072000 -0.014850 
#    y -0.072000 1.757980 0.016030 
#    z -0.014850 0.016030 1.768300 
# 
# From -- ./inp_files/610793.got.cif
#   From: 2010.05.17/outbox.cif.g08.bks.cpg/sg2_306_cif.got.tgz:610793.got - 2010.06.03 11:33:40.
