data_PCOD9083966
_publ_section_title
;
Structure prediction by ZEFSAII (Michael W. Deem and Ramdas Pophale) SiO2 
 PCOD9083966
Probable space group: P -1
;
_chemical_formula_sum "Si O2"
_cell_formula_units_Z 16
_cell_length_a 6.802700
_cell_length_b 5.451880
_cell_length_c 21.146394
_cell_angle_alpha 72.011694
_cell_angle_beta 68.034394
_cell_angle_gamma 102.447610
_cell_volume 641.210450
_symmetry_space_group_name_H-M "P -1"
_symmetry_group_IT_number 2
_symmetry_cell_setting 'triclinic'
loop_
_space_group_symop_operation_xyz
x,y,z
-x,-y,-z
loop_
_atom_site_type_symbol
_atom_site_label
_atom_site_fract_x
_atom_site_fract_y
_atom_site_fract_z
Si Si1 0.733181 0.911678 0.410289
Si Si2 0.284927 0.276402 0.430855
Si Si3 0.818641 0.523501 0.335409
Si Si4 0.767241 0.865297 0.984991
Si Si5 0.143677 0.254322 0.815543
Si Si6 0.431664 0.864492 0.789278
Si Si7 0.361928 0.753935 0.946296
Si Si8 0.280457 0.829028 0.386545
O O1 0.673074 0.798388 0.497003
O O2 0.853853 0.734802 0.372199
O O3 0.499447 0.860453 0.403191
O O4 0.858835 0.242939 0.366450
O O5 0.544530 0.423222 0.360254
O O6 0.167480 0.499072 0.422059
O O7 0.162078 0.003299 0.425622
O O8 0.947080 0.671663 0.245580
O O9 0.528959 0.777935 0.982791
O O10 0.795362 0.572127 0.014168
O O11 0.944967 0.086307 0.900372
O O12 0.749294 0.022874 0.038855
O O13 0.298048 0.552241 0.803766
O O14 0.274754 0.049878 0.797705
O O15 0.491144 0.834812 0.857374
O O16 0.627178 0.026106 0.702822
#
# Coordination Sequence:
#
# PCOD9083966 Si02
#       8
#     2   2   2   2   2   2   2   2
#     4  10  16  25  41  61  99 143 167 195 251 307
#     4  10  16  25  41  61  99 143 167 195 251 307
#     4  10  16  27  38  66 100 132 159 208 252 298
#     4  10  23  42  59  77 104 139 178 216 257 317
#     4  12  21  34  55  80 111 138 165 222 272 307
#     4  12  21  34  55  80 111 138 165 222 272 307
#     4  10  23  42  59  77 104 139 178 216 257 317
#     4  10  16  27  38  66 100 132 159 208 252 298
#
# _framework density 24.952805999999999
#
# number of rings (size 3 to 8) (size 9 to 14) (size 15 to 20)
#    0.000    1.500    5.000    5.250    0.000    3.000 
#    0.000    0.000    0.000    0.000    0.000    0.000 
#    0.000   11.000    0.000    0.000    0.000    0.000 
#
# Total GULP energy -89598.629538 kJ/mol
# GULP energy per Si atom -5599.914346 kJ/mol
# Density = 2.489601 g / cm^3
# Si number density = 24.952806 Si / 1000 Ang^3
#
#
#
# Elastic Constant Matrix: (Units=GPa)
#
#
# Indices 1 2 3 4 5 6 
#
# 1 45.3539 34.7908 -2.5676 -6.9376 1.1433 -5.9944
# 2 34.7908 237.0128 53.4263 1.0146 8.9684 -29.2429
# 3 -2.5676 53.4263 143.4617 11.0153 10.8700 2.4758
# 4 -6.9376 1.0146 11.0153 50.5721 0.3229 6.8804
# 5 1.1433 8.9684 10.8700 0.3229 32.1741 -1.5136
# 6 -5.9944 -29.2429 2.4758 6.8804 -1.5136 42.1457
#
#
#
# Elastic Compliance Matrix: (Units=1/GPa)
#
#
# Indices 1 2 3 4 5 6 
#
# 1 0.025885 -0.004189 0.001803 0.003227 -0.000388 0.000128
# 2 -0.004189 0.005806 -0.002205 -0.000705 -0.000545 0.003658
# 3 0.001803 -0.002205 0.008118 -0.001241 -0.002256 -0.001629
# 4 0.003227 -0.000705 -0.001241 0.020959 0.000132 -0.003374
# 5 -0.000388 -0.000545 -0.002256 0.000132 0.032047 0.000828
# 6 0.000128 0.003658 -0.001629 -0.003374 0.000828 0.026960
#
#
# Mechanical properties :
#
#
# Convention : Reuss Voigt Hill
#
# Bulk Modulus (GPa) = 32.65165 66.34747 49.49956
# Shear Modulus (GPa) = 35.92825 47.65698 41.79261
#
# Velocity S-wave (km/s) = 3.79865 4.37496 4.09695
# Velocity P-wave (km/s) = 5.68801 7.22269 6.50080
#
# Compressibility (1/GPa) = 0.03062632
#
# Stress axis : x y z
#
# Youngs Moduli (GPa) = 38.63262 172.23286 123.17974
#
# Poissons Ratio (x) = 0.72154 -0.22206
# Poissons Ratio (y) = 0.16184 0.27159
# Poissons Ratio (z) = -0.06965 0.37975
#
# Static dielectric constant tensor:
#      x y z
#    x 2.019560 -0.000570 0.003170 
#    y -0.000570 2.024110 0.006520 
#    z 0.003170 0.006520 1.894470 
# 
# From -- ./inp_files/53763.got.cif
#   From: 2010.05.17/outbox.cif.g08.bks.cpg/sg2_27_cif.got.tgz:53763.got - 2010.06.03 11:33:40.
