data_PCOD9083296
_publ_section_title
;
Structure prediction by ZEFSAII (Michael W. Deem and Ramdas Pophale) SiO2 
 PCOD9083296
Probable space group: P -1
;
_chemical_formula_sum "Si O2"
_cell_formula_units_Z 16
_cell_length_a 7.000663
_cell_length_b 13.874532
_cell_length_c 12.499989
_cell_angle_alpha 58.558253
_cell_angle_beta 47.324319
_cell_angle_gamma 80.627032
_cell_volume 725.510957
_symmetry_space_group_name_H-M "P -1"
_symmetry_group_IT_number 2
_symmetry_cell_setting 'triclinic'
loop_
_space_group_symop_operation_xyz
x,y,z
-x,-y,-z
loop_
_atom_site_type_symbol
_atom_site_label
_atom_site_fract_x
_atom_site_fract_y
_atom_site_fract_z
Si Si1 0.672243 0.924946 0.418330
Si Si2 0.775018 0.874029 0.173733
Si Si3 0.181496 0.351747 0.059750
Si Si4 0.177222 0.762670 0.187044
Si Si5 0.232311 0.546561 0.742813
Si Si6 0.750637 0.878949 0.936241
Si Si7 0.236447 0.536153 0.195841
Si Si8 0.248613 0.307416 0.448158
O O1 0.610268 0.887437 0.336882
O O2 0.643005 0.801567 0.563274
O O3 0.500000 0.000000 0.500000
O O4 0.991536 0.005665 0.244402
O O5 0.948904 0.784498 0.184189
O O6 0.663681 0.849040 0.110495
O O7 0.000000 0.000000 0.000000
O O8 0.217090 0.448763 0.896198
O O9 0.455262 0.398847 0.000837
O O10 0.157849 0.226794 0.089899
O O11 0.916776 0.358519 0.217494
O O12 0.222141 0.635034 0.230491
O O13 0.046248 0.757955 0.355317
O O14 0.458407 0.867055 0.000900
O O15 0.550328 0.618822 0.576433
O O16 0.031444 0.481513 0.763373
O O17 0.231413 0.408281 0.315125
#
# Coordination Sequence:
#
# PCOD9083296 Si02
#       8
#     2   2   2   2   2   2   2   2
#     4  10  21  39  60  84 116 151 189 236 286 335
#     4   9  20  36  59  85 109 148 192 228 277 337
#     4   9  19  34  56  84 109 148 192 231 283 337
#     4  10  21  37  58  86 113 145 191 235 282 336
#     4  10  19  34  54  79 117 150 184 235 284 333
#     4  10  20  38  62  82 113 150 189 238 282 332
#     4  10  20  35  57  83 113 148 187 232 285 342
#     4  10  22  35  53  83 114 149 189 230 283 341
#
# _framework density 22.053422999999999
#
# number of rings (size 3 to 8) (size 9 to 14) (size 15 to 20)
#    0.000    2.250    0.000    2.250    0.000    7.000 
#    0.000    6.250    0.000   13.500    0.000    0.000 
#    0.000    0.000    0.000    0.000    0.000    0.000 
#
# Total GULP energy -89069.178959 kJ/mol
# GULP energy per Si atom -5566.823685 kJ/mol
# Density = 2.200323 g / cm^3
# Si number density = 22.053423 Si / 1000 Ang^3
#
#
#
# Elastic Constant Matrix: (Units=GPa)
#
#
# Indices 1 2 3 4 5 6 
#
# 1 60.3977 14.6723 11.0959 2.8648 -15.0943 3.0689
# 2 14.6723 103.0918 16.8648 0.5680 7.1190 -5.3954
# 3 11.0959 16.8648 59.7291 -4.3877 -16.3778 -6.5023
# 4 2.8648 0.5680 -4.3877 26.8035 1.2284 -2.8732
# 5 -15.0943 7.1190 -16.3778 1.2284 28.7042 -5.2487
# 6 3.0689 -5.3954 -6.5023 -2.8732 -5.2487 30.9987
#
#
#
# Elastic Compliance Matrix: (Units=1/GPa)
#
#
# Indices 1 2 3 4 5 6 
#
# 1 0.020578 -0.003810 0.000198 -0.002726 0.011829 -0.000909
# 2 -0.003810 0.011515 -0.004586 -0.000232 -0.007441 0.000138
# 3 0.000198 -0.004586 0.023371 0.003944 0.015707 0.007110
# 4 -0.002726 -0.000232 0.003944 0.038747 0.000068 0.004660
# 5 0.011829 -0.007441 0.015707 0.000068 0.053678 0.009924
# 6 -0.000909 0.000138 0.007110 0.004660 0.009924 0.035977
#
#
# Mechanical properties :
#
#
# Convention : Reuss Voigt Hill
#
# Bulk Modulus (GPa) = 25.59710 34.27608 29.93659
# Shear Modulus (GPa) = 23.44274 29.34031 26.39153
#
# Velocity S-wave (km/s) = 3.26390 3.65145 3.46310
# Velocity P-wave (km/s) = 5.08293 5.77525 5.44011
#
# Compressibility (1/GPa) = 0.03906693
#
# Stress axis : x y z
#
# Youngs Moduli (GPa) = 48.59523 86.84378 42.78794
#
# Poissons Ratio (x) = 0.33092 -0.00845
# Poissons Ratio (y) = 0.18517 0.19621
# Poissons Ratio (z) = -0.00960 0.39824
#
# Static dielectric constant tensor:
#      x y z
#    x 1.887780 0.031030 -0.001140 
#    y 0.031030 1.840180 0.014080 
#    z -0.001140 0.014080 1.838600 
# 
# From -- ./inp_files/313283.got.cif
#   From: 2010.05.17/outbox.cif.g08.bks.cpg/sg2_157_cif.got.tgz:313283.got - 2010.06.03 11:33:40.
