data_PCOD9083856
_publ_section_title
;
Structure prediction by ZEFSAII (Michael W. Deem and Ramdas Pophale) SiO2 
 PCOD9083856
Probable space group: P -1
;
_chemical_formula_sum "Si O2"
_cell_formula_units_Z 14
_cell_length_a 7.437739
_cell_length_b 9.108579
_cell_length_c 14.370639
_cell_angle_alpha 133.535614
_cell_angle_beta 109.075983
_cell_angle_gamma 92.764341
_cell_volume 611.643551
_symmetry_space_group_name_H-M "P -1"
_symmetry_group_IT_number 2
_symmetry_cell_setting 'triclinic'
loop_
_space_group_symop_operation_xyz
x,y,z
-x,-y,-z
loop_
_atom_site_type_symbol
_atom_site_label
_atom_site_fract_x
_atom_site_fract_y
_atom_site_fract_z
Si Si1 0.777157 0.939036 0.841296
Si Si2 0.055083 0.704899 0.821367
Si Si3 0.817907 0.199710 0.589442
Si Si4 0.719355 0.774327 0.298362
Si Si5 0.255315 0.361404 0.961988
Si Si6 0.515354 0.336853 0.163964
Si Si7 0.240549 0.822087 0.219892
O O1 0.665503 0.978624 0.749477
O O2 0.618443 0.779255 0.820329
O O3 0.893154 0.174447 0.016586
O O4 0.948179 0.840603 0.806313
O O5 0.277248 0.712454 0.829370
O O6 0.882037 0.456175 0.689604
O O7 0.716407 0.140417 0.647642
O O8 0.044409 0.195851 0.637286
O O9 0.706979 0.008848 0.412571
O O10 0.669895 0.667775 0.141195
O O11 0.599588 0.602131 0.284319
O O12 0.005963 0.237400 0.860890
O O13 0.366416 0.268152 0.017529
O O14 0.281295 0.609089 0.102425
#
# Coordination Sequence:
#
# PCOD9083856 Si02
#       7
#     2   2   2   2   2   2   2
#     4  11  21  35  57  88 123 155 191 239 297 355
#     4  10  21  37  59  85 117 156 196 241 294 347
#     4   9  18  37  60  81 114 155 197 243 290 344
#     4   9  19  34  58  86 114 150 195 246 294 342
#     4  10  19  35  61  89 114 149 201 251 290 339
#     4  11  21  36  60  90 119 151 194 245 297 351
#     4  10  19  34  58  87 117 153 196 243 292 346
#
# _framework density 22.889150000000001
#
# number of rings (size 3 to 8) (size 9 to 14) (size 15 to 20)
#    0.000    2.000    0.000    6.857    0.000    0.000 
#    0.000    6.429    0.000   24.857    0.000    3.000 
#    0.000    0.000    0.000    0.000    0.000    0.000 
#
# Total GULP energy -78196.674212 kJ/mol
# GULP energy per Si atom -5585.476729 kJ/mol
# Density = 2.283705 g / cm^3
# Si number density = 22.889150 Si / 1000 Ang^3
#
#
#
# Elastic Constant Matrix: (Units=GPa)
#
#
# Indices 1 2 3 4 5 6 
#
# 1 85.3666 54.0213 26.0894 9.7924 4.4996 -6.6978
# 2 54.0213 129.3833 55.0003 7.9281 -16.9984 3.2589
# 3 26.0894 55.0003 118.4617 17.9802 -18.2166 1.5538
# 4 9.7924 7.9281 17.9802 27.2063 -9.0008 -0.0104
# 5 4.4996 -16.9984 -18.2166 -9.0008 17.0900 -2.6301
# 6 -6.6978 3.2589 1.5538 -0.0104 -2.6301 41.3275
#
#
#
# Elastic Compliance Matrix: (Units=1/GPa)
#
#
# Indices 1 2 3 4 5 6 
#
# 1 0.022076 -0.011028 -0.001757 -0.011614 -0.024315 0.002963
# 2 -0.011028 0.015720 -0.003091 0.007736 0.019057 -0.001696
# 3 -0.001757 -0.003091 0.012110 -0.003708 0.008348 0.000034
# 4 -0.011614 0.007736 -0.003708 0.052527 0.034441 -0.000148
# 5 -0.024315 0.019057 0.008348 0.034441 0.111112 0.001323
# 6 0.002963 -0.001696 0.000034 -0.000148 0.001323 0.024894
#
#
# Mechanical properties :
#
#
# Convention : Reuss Voigt Hill
#
# Bulk Modulus (GPa) = 55.08444 67.04817 61.06631
# Shear Modulus (GPa) = 18.10008 30.33149 24.21578
#
# Velocity S-wave (km/s) = 2.81512 3.64421 3.25616
# Velocity P-wave (km/s) = 5.88935 6.86026 6.39326
#
# Compressibility (1/GPa) = 0.01815395
#
# Stress axis : x y z
#
# Youngs Moduli (GPa) = 45.29774 63.61324 82.57784
#
# Poissons Ratio (x) = 0.70153 0.14508
# Poissons Ratio (y) = 0.49955 0.25526
# Poissons Ratio (z) = 0.07958 0.19664
#
# Static dielectric constant tensor:
#      x y z
#    x 1.913610 0.026720 0.059320 
#    y 0.026720 1.851640 0.035630 
#    z 0.059320 0.035630 1.896630 
# 
# From -- ./inp_files/491648.got.cif
#   From: 2010.05.17/outbox.cif.g08.bks.cpg/sg2_246_cif.got.tgz:491648.got - 2010.06.03 11:33:40.
