data_PCOD9083730
_publ_section_title
;
Structure prediction by ZEFSAII (Michael W. Deem and Ramdas Pophale) SiO2 
 PCOD9083730
Probable space group: P -1
;
_chemical_formula_sum "Si O2"
_cell_formula_units_Z 16
_cell_length_a 9.406205
_cell_length_b 9.133885
_cell_length_c 10.367623
_cell_angle_alpha 125.658412
_cell_angle_beta 73.970155
_cell_angle_gamma 100.793464
_cell_volume 695.194934
_symmetry_space_group_name_H-M "P -1"
_symmetry_group_IT_number 2
_symmetry_cell_setting 'triclinic'
loop_
_space_group_symop_operation_xyz
x,y,z
-x,-y,-z
loop_
_atom_site_type_symbol
_atom_site_label
_atom_site_fract_x
_atom_site_fract_y
_atom_site_fract_z
Si Si1 0.774685 0.827849 0.112231
Si Si2 0.166488 0.208955 0.622059
Si Si3 0.500057 0.366717 0.604193
Si Si4 0.487953 0.769421 0.742745
Si Si5 0.545939 0.301125 0.846380
Si Si6 0.979234 0.527940 0.866132
Si Si7 0.825744 0.126986 0.050280
Si Si8 0.763599 0.035348 0.752877
O O1 0.821040 0.848075 0.260627
O O2 0.597055 0.826159 0.148238
O O3 0.844699 0.980702 0.081328
O O4 0.826130 0.631504 0.948624
O O5 0.322314 0.324887 0.624106
O O6 0.028356 0.337582 0.700756
O O7 0.831310 0.949269 0.564182
O O8 0.529143 0.579913 0.697763
O O9 0.563889 0.276893 0.414441
O O10 0.560456 0.292512 0.684056
O O11 0.350380 0.843007 0.891116
O O12 0.630644 0.898374 0.759618
O O13 0.690519 0.225004 0.836079
O O14 0.500000 0.500000 0.000000
O O15 0.093056 0.679533 0.857318
O O16 0.000000 0.500000 0.000000
O O17 0.866386 0.058291 0.862645
#
# Coordination Sequence:
#
# PCOD9083730 Si02
#       8
#     2   2   2   2   2   2   2   2
#     4  10  23  39  64  87 116 164 206 240 287 359
#     4   9  20  41  61  88 118 161 201 243 289 359
#     4   9  19  33  57  87 121 163 195 230 297 363
#     4  10  19  34  57  90 124 153 192 243 298 358
#     4  11  23  36  59  90 131 156 192 241 308 362
#     4  10  22  43  66  82 115 164 212 239 287 363
#     4  12  22  38  62  92 120 154 199 254 300 346
#     4  11  24  36  61  95 127 150 190 253 314 345
#
# _framework density 23.015129000000002
#
# number of rings (size 3 to 8) (size 9 to 14) (size 15 to 20)
#    0.000    1.750    2.500    1.500    7.000    1.500 
#    0.000    3.125    0.000    0.000    0.000    0.000 
#    0.000    0.000    0.000    0.000    0.000    0.000 
#
# Total GULP energy -89492.525137 kJ/mol
# GULP energy per Si atom -5593.282821 kJ/mol
# Density = 2.296275 g / cm^3
# Si number density = 23.015129 Si / 1000 Ang^3
#
#
#
# Elastic Constant Matrix: (Units=GPa)
#
#
# Indices 1 2 3 4 5 6 
#
# 1 56.9970 26.4698 31.6709 -6.9322 -9.9860 -4.0818
# 2 26.4698 136.7089 46.3401 -1.3967 -0.9903 -4.7621
# 3 31.6709 46.3401 123.5780 -0.5348 -13.3948 -18.7618
# 4 -6.9322 -1.3967 -0.5348 34.2388 -3.7989 -4.7158
# 5 -9.9860 -0.9903 -13.3948 -3.7989 22.9353 -4.4911
# 6 -4.0818 -4.7621 -18.7618 -4.7158 -4.4911 34.0383
#
#
#
# Elastic Compliance Matrix: (Units=1/GPa)
#
#
# Indices 1 2 3 4 5 6 
#
# 1 0.023499 -0.003189 -0.003357 0.006007 0.009643 0.002626
# 2 -0.003189 0.008896 -0.003081 -0.000879 -0.003221 -0.001383
# 3 -0.003357 -0.003081 0.011882 0.001072 0.006848 0.006768
# 4 0.006007 -0.000879 0.001072 0.032472 0.009953 0.007001
# 5 0.009643 -0.003221 0.006848 0.009953 0.055900 0.013235
# 6 0.002626 -0.001383 0.006768 0.007001 0.013235 0.035947
#
#
# Mechanical properties :
#
#
# Convention : Reuss Voigt Hill
#
# Bulk Modulus (GPa) = 39.96358 58.47172 49.21765
# Shear Modulus (GPa) = 25.48519 32.42936 28.95728
#
# Velocity S-wave (km/s) = 3.33126 3.75780 3.55094
# Velocity P-wave (km/s) = 5.67434 6.65500 6.18414
#
# Compressibility (1/GPa) = 0.02502278
#
# Stress axis : x y z
#
# Youngs Moduli (GPa) = 42.55466 112.40484 84.15967
#
# Poissons Ratio (x) = 0.35852 0.28248
# Poissons Ratio (y) = 0.13573 0.25934
# Poissons Ratio (z) = 0.14284 0.34637
#
# Static dielectric constant tensor:
#      x y z
#    x 1.865440 0.023670 -0.019200 
#    y 0.023670 1.849210 0.013290 
#    z -0.019200 0.013290 1.855260 
# 
# From -- ./inp_files/380300.got.cif
#   From: 2010.05.17/outbox.cif.g08.bks.cpg/sg2_191_cif.got.tgz:380300.got - 2010.06.03 11:33:40.
