data_PCOD9083016
_publ_section_title
;
Structure prediction by ZEFSAII (Michael W. Deem and Ramdas Pophale) SiO2 
 PCOD9083016
Probable space group: P -1
;
_chemical_formula_sum "Si O2"
_cell_formula_units_Z 16
_cell_length_a 13.806782
_cell_length_b 7.825974
_cell_length_c 13.409642
_cell_angle_alpha 124.664611
_cell_angle_beta 149.083652
_cell_angle_gamma 64.621089
_cell_volume 606.229279
_symmetry_space_group_name_H-M "P -1"
_symmetry_group_IT_number 2
_symmetry_cell_setting 'triclinic'
loop_
_space_group_symop_operation_xyz
x,y,z
-x,-y,-z
loop_
_atom_site_type_symbol
_atom_site_label
_atom_site_fract_x
_atom_site_fract_y
_atom_site_fract_z
Si Si1 0.288849 0.406652 0.907649
Si Si2 0.632778 0.017004 0.262824
Si Si3 0.736284 0.070509 0.825942
Si Si4 0.909638 0.681736 0.108122
Si Si5 0.802506 0.096721 0.128642
Si Si6 0.103156 0.322374 0.137617
Si Si7 0.853437 0.395152 0.455809
Si Si8 0.608786 0.760758 0.343268
O O1 0.342314 0.185606 0.848780
O O2 0.075406 0.413362 0.683808
O O3 0.261310 0.417626 0.005673
O O4 0.454036 0.594338 0.091030
O O5 0.684475 0.946382 0.396292
O O6 0.737823 0.216959 0.364581
O O7 0.409335 0.021839 0.078979
O O8 0.526823 0.137424 0.665272
O O9 0.750339 0.824592 0.741146
O O10 0.817156 0.117998 0.028012
O O11 0.892607 0.194243 0.931667
O O12 0.861886 0.654424 0.941026
O O13 0.085338 0.552511 0.238795
O O14 0.932266 0.929164 0.228355
O O15 0.830381 0.298204 0.291472
O O16 0.767735 0.614702 0.462857
#
# Coordination Sequence:
#
# PCOD9083016 Si02
#       8
#     2   2   2   2   2   2   2   2
#     4  12  23  40  65  95 135 174 212 260 314 393
#     4  11  23  41  60  92 138 173 214 258 308 391
#     4   9  19  35  61  89 122 160 216 268 320 376
#     4  10  19  33  60  92 122 159 218 266 318 376
#     4  10  20  36  61  92 127 173 205 253 323 388
#     4   9  18  34  58  94 116 156 219 276 320 366
#     4  12  25  40  64  97 139 175 209 254 322 390
#     4  11  24  43  63  94 134 174 214 264 317 385
#
# _framework density 26.392655999999999
#
# number of rings (size 3 to 8) (size 9 to 14) (size 15 to 20)
#    0.000    1.500    3.750    1.875    1.750    0.500 
#    0.000    0.000    0.000    1.500    0.000    0.000 
#    0.000    0.000    0.000    0.000    0.000    0.000 
#
# Total GULP energy -89564.807161 kJ/mol
# GULP energy per Si atom -5597.800448 kJ/mol
# Density = 2.633259 g / cm^3
# Si number density = 26.392656 Si / 1000 Ang^3
#
#
#
# Elastic Constant Matrix: (Units=GPa)
#
#
# Indices 1 2 3 4 5 6 
#
# 1 165.5316 44.5889 25.0223 0.2319 5.5943 14.6107
# 2 44.5889 171.4501 33.3084 -42.7970 5.5040 -19.0174
# 3 25.0223 33.3084 94.3827 -14.2235 29.8474 10.0818
# 4 0.2319 -42.7970 -14.2235 23.4093 -7.7149 5.0246
# 5 5.5943 5.5040 29.8474 -7.7149 27.6167 -0.1245
# 6 14.6107 -19.0174 10.0818 5.0246 -0.1245 62.6484
#
#
#
# Elastic Compliance Matrix: (Units=1/GPa)
#
#
# Indices 1 2 3 4 5 6 
#
# 1 0.007523 -0.003967 -0.000963 -0.008096 -0.001964 -0.002158
# 2 -0.003967 0.014070 -0.003127 0.025929 0.008638 0.003637
# 3 -0.000963 -0.003127 0.018377 -0.000027 -0.019067 -0.003718
# 4 -0.008096 0.025929 -0.000027 0.097595 0.023774 0.001983
# 5 -0.001964 0.008638 -0.019067 0.023774 0.062155 0.004365
# 6 -0.002158 0.003637 -0.003718 0.001983 0.004365 0.018017
#
#
# Mechanical properties :
#
#
# Convention : Reuss Voigt Hill
#
# Bulk Modulus (GPa) = 41.91564 70.80041 56.35803
# Shear Modulus (GPa) = 20.67808 44.63119 32.65464
#
# Velocity S-wave (km/s) = 2.80211 4.11669 3.52129
# Velocity P-wave (km/s) = 5.13664 7.03422 6.15895
#
# Compressibility (1/GPa) = 0.02385744
#
# Stress axis : x y z
#
# Youngs Moduli (GPa) = 132.91800 71.07331 54.41666
#
# Poissons Ratio (x) = 0.28192 0.05241
# Poissons Ratio (y) = 0.52724 0.17014
# Poissons Ratio (z) = 0.12802 0.22221
#
# Static dielectric constant tensor:
#      x y z
#    x 2.045320 -0.008530 -0.043770 
#    y -0.008530 2.130230 -0.044850 
#    z -0.043770 -0.044850 2.040700 
# 
# From -- ./inp_files/528991.got.cif
#   From: 2010.05.17/outbox.cif.g08.bks.cpg/sg2_265_cif.got.tgz:528991.got - 2010.06.03 11:33:40.
