data_PCOD9083401
_publ_section_title
;
Structure prediction by ZEFSAII (Michael W. Deem and Ramdas Pophale) SiO2 
 PCOD9083401
Probable space group: P -1
;
_chemical_formula_sum "Si O2"
_cell_formula_units_Z 15
_cell_length_a 11.976863
_cell_length_b 11.856614
_cell_length_c 8.272367
_cell_angle_alpha 82.361480
_cell_angle_beta 50.723473
_cell_angle_gamma 118.637070
_cell_volume 611.771732
_symmetry_space_group_name_H-M "P -1"
_symmetry_group_IT_number 2
_symmetry_cell_setting 'triclinic'
loop_
_space_group_symop_operation_xyz
x,y,z
-x,-y,-z
loop_
_atom_site_type_symbol
_atom_site_label
_atom_site_fract_x
_atom_site_fract_y
_atom_site_fract_z
Si Si1 0.479792 0.309627 0.812885
Si Si2 0.742539 0.504828 0.052085
Si Si3 0.285281 0.171083 0.683216
Si Si4 0.173959 0.681317 0.110815
Si Si5 0.500000 0.500000 0.000000
Si Si6 0.313806 0.814000 0.284621
Si Si7 0.134839 0.321253 0.762454
Si Si8 0.625841 0.001359 0.519683
O O1 0.308070 0.192839 0.851694
O O2 0.592502 0.253837 0.739916
O O3 0.657521 0.505828 0.554222
O O4 0.412360 0.325188 0.040431
O O5 0.523382 0.336969 0.371269
O O6 0.672222 0.532081 0.952950
O O7 0.836801 0.636791 0.082706
O O8 0.878430 0.471188 0.888995
O O9 0.142447 0.191538 0.746171
O O10 0.242151 0.022002 0.680221
O O11 0.141774 0.690017 0.327026
O O12 0.059221 0.716243 0.115472
O O13 0.428186 0.831922 0.829116
O O14 0.253677 0.848314 0.493886
O O15 0.500000 0.000000 0.000000
O O16 0.500000 0.000000 0.500000
#
# Coordination Sequence:
#
# PCOD9083401 Si02
#       8
#     2   2   2   2   1   2   2   2
#     4  11  20  34  60  85 113 150 189 233 281 341
#     4  10  19  34  55  83 116 149 183 225 278 351
#     4  10  19  36  59  83 110 152 191 230 273 342
#     4  10  22  36  56  84 120 147 179 241 290 329
#     4  12  18  32  56  88 112 140 200 228 278 330
#     4  10  21  37  57  82 108 150 201 233 266 330
#     4  11  21  37  54  88 123 146 177 232 304 341
#     4  10  20  38  63  79 103 154 207 226 261 335
#
# _framework density 24.518948999999999
#
# number of rings (size 3 to 8) (size 9 to 14) (size 15 to 20)
#    0.000    1.600    5.333    1.200    0.000    0.533 
#    0.000    1.333    0.000    0.000    0.000    0.000 
#    0.000    0.000    0.000    0.000    0.000    0.000 
#
# Total GULP energy -83627.875556 kJ/mol
# GULP energy per Si atom -5575.191704 kJ/mol
# Density = 2.446314 g / cm^3
# Si number density = 24.518949 Si / 1000 Ang^3
#
#
#
# Elastic Constant Matrix: (Units=GPa)
#
#
# Indices 1 2 3 4 5 6 
#
# 1 170.1313 79.4548 -9.6177 32.9431 -9.8424 -19.9855
# 2 79.4548 196.5288 15.2932 39.0501 -16.0548 -19.0005
# 3 -9.6177 15.2932 53.8436 0.0007 -9.2696 -1.9425
# 4 32.9431 39.0501 0.0007 30.5370 -6.3357 -8.1356
# 5 -9.8424 -16.0548 -9.2696 -6.3357 24.5591 9.5165
# 6 -19.9855 -19.0005 -1.9425 -8.1356 9.5165 47.4165
#
#
#
# Elastic Compliance Matrix: (Units=1/GPa)
#
#
# Indices 1 2 3 4 5 6 
#
# 1 0.008366 -0.002238 0.002308 -0.005587 0.000689 0.001627
# 2 -0.002238 0.007740 -0.002368 -0.007070 0.001210 0.000605
# 3 0.002308 -0.002368 0.021020 0.002101 0.007991 -0.000359
# 4 -0.005587 -0.007070 0.002101 0.049629 0.005869 0.002235
# 5 0.000689 0.001210 0.007991 0.005869 0.049335 -0.007792
# 6 0.001627 0.000605 -0.000359 0.002235 -0.007792 0.023951
#
#
# Mechanical properties :
#
#
# Convention : Reuss Voigt Hill
#
# Bulk Modulus (GPa) = 30.74199 65.64050 48.19124
# Shear Modulus (GPa) = 28.49318 42.86076 35.67697
#
# Velocity S-wave (km/s) = 3.41264 4.18552 3.81869
# Velocity P-wave (km/s) = 5.30032 7.08432 6.25624
#
# Compressibility (1/GPa) = 0.03252880
#
# Stress axis : x y z
#
# Youngs Moduli (GPa) = 119.52561 129.20303 47.57411
#
# Poissons Ratio (x) = 0.28920 -0.10978
# Poissons Ratio (y) = 0.26754 0.11265
# Poissons Ratio (z) = -0.27581 0.30593
#
# Static dielectric constant tensor:
#      x y z
#    x 1.909420 0.001850 0.086780 
#    y 0.001850 2.003380 0.003790 
#    z 0.086780 0.003790 2.174180 
# 
# From -- ./inp_files/172786.got.cif
#   From: 2010.05.17/outbox.cif.g08.bks.cpg/sg2_87_cif.got.tgz:172786.got - 2010.06.03 11:33:40.
