data_PCOD9083649
_publ_section_title
;
Structure prediction by ZEFSAII (Michael W. Deem and Ramdas Pophale) SiO2 
 PCOD9083649
Probable space group: P -1
;
_chemical_formula_sum "Si O2"
_cell_formula_units_Z 16
_cell_length_a 9.977306
_cell_length_b 22.730637
_cell_length_c 16.120254
_cell_angle_alpha 15.417217
_cell_angle_beta 138.492459
_cell_angle_gamma 140.684450
_cell_volume 615.693760
_symmetry_space_group_name_H-M "P -1"
_symmetry_group_IT_number 2
_symmetry_cell_setting 'triclinic'
loop_
_space_group_symop_operation_xyz
x,y,z
-x,-y,-z
loop_
_atom_site_type_symbol
_atom_site_label
_atom_site_fract_x
_atom_site_fract_y
_atom_site_fract_z
Si Si1 0.352450 0.490409 0.319483
Si Si2 0.551979 0.697323 0.825107
Si Si3 0.229695 0.677163 0.846773
Si Si4 0.758046 0.381433 0.444646
Si Si5 0.124511 0.195942 0.854223
Si Si6 0.006378 0.018695 0.738391
Si Si7 0.675172 0.230329 0.797059
Si Si8 0.536966 0.063035 0.186013
O O1 0.158198 0.256165 0.528885
O O2 0.540978 0.374986 0.586227
O O3 0.373305 0.613325 0.070837
O O4 0.286731 0.682596 0.085960
O O5 0.344942 0.670299 0.822613
O O6 0.594918 0.925891 0.476867
O O7 0.500000 0.500000 0.000000
O O8 0.706526 0.603405 0.082787
O O9 0.170349 0.916105 0.486566
O O10 0.000000 0.500000 0.000000
O O11 0.745143 0.365002 0.559911
O O12 0.995526 0.382018 0.528648
O O13 0.580247 0.142988 0.652631
O O14 0.358923 0.189558 0.952109
O O15 0.000000 0.000000 0.000000
O O16 0.087750 0.124754 0.029272
O O17 0.146923 0.887094 0.931905
O O18 0.500000 0.000000 0.000000
#
# Coordination Sequence:
#
# PCOD9083649 Si02
#       8
#     2   2   2   2   2   2   2   2
#     4  10  20  34  55  84 111 138 183 238 280 318
#     4  10  19  34  57  84 108 149 190 225 273 341
#     4  10  19  34  57  84 108 149 190 225 273 341
#     4   9  18  34  54  77 106 147 184 219 272 338
#     4   9  17  33  54  77 101 145 185 218 265 338
#     4   9  18  34  54  77 106 147 184 219 272 338
#     4   9  17  33  54  77 101 145 185 218 265 338
#     4  10  20  34  55  84 111 138 183 238 280 318
#
# _framework density 25.986944999999999
#
# number of rings (size 3 to 8) (size 9 to 14) (size 15 to 20)
#    0.000    2.500    2.500    0.000    0.000    0.500 
#    0.000   13.750    0.000   12.000    0.000    0.000 
#    0.000    0.000    0.000    0.000    0.000    0.000 
#
# Total GULP energy -89160.413952 kJ/mol
# GULP energy per Si atom -5572.525872 kJ/mol
# Density = 2.592780 g / cm^3
# Si number density = 25.986945 Si / 1000 Ang^3
#
#
#
# Elastic Constant Matrix: (Units=GPa)
#
#
# Indices 1 2 3 4 5 6 
#
# 1 47.2808 23.9233 35.1998 12.5123 2.8454 -3.7738
# 2 23.9233 92.7490 37.7757 11.5320 11.0469 -14.0894
# 3 35.1998 37.7757 211.8820 -8.9117 30.8124 -3.1827
# 4 12.5123 11.5320 -8.9117 58.0968 -2.8019 11.6544
# 5 2.8454 11.0469 30.8124 -2.8019 31.9920 14.1872
# 6 -3.7738 -14.0894 -3.1827 11.6544 14.1872 27.6426
#
#
#
# Elastic Compliance Matrix: (Units=1/GPa)
#
#
# Indices 1 2 3 4 5 6 
#
# 1 0.028549 -0.004400 -0.004344 -0.006562 0.001101 0.003356
# 2 -0.004400 0.017359 -0.000345 -0.006895 -0.013987 0.018293
# 3 -0.004344 -0.000345 0.006654 0.001010 -0.007282 0.003309
# 4 -0.006562 -0.006895 0.001010 0.025269 0.014026 -0.022146
# 5 0.001101 -0.013987 -0.007282 0.014026 0.065148 -0.047167
# 6 0.003356 0.018293 0.003309 -0.022146 -0.047167 0.079884
#
#
# Mechanical properties :
#
#
# Convention : Reuss Voigt Hill
#
# Bulk Modulus (GPa) = 29.08362 60.63437 44.85900
# Shear Modulus (GPa) = 19.80184 40.54716 30.17450
#
# Velocity S-wave (km/s) = 2.76341 3.95434 3.41125
# Velocity P-wave (km/s) = 4.62578 6.65074 5.72845
#
# Compressibility (1/GPa) = 0.03438361
#
# Stress axis : x y z
#
# Youngs Moduli (GPa) = 35.02799 57.60547 150.28695
#
# Poissons Ratio (x) = 0.25346 0.65285
# Poissons Ratio (y) = 0.15412 0.05189
# Poissons Ratio (z) = 0.15216 0.01989
#
# Static dielectric constant tensor:
#      x y z
#    x 2.180130 0.340960 -0.134080 
#    y 0.340960 2.561560 -0.225450 
#    z -0.134080 -0.225450 2.100240 
# 
# From -- ./inp_files/270296.got.cif
#   From: 2010.05.17/outbox.cif.g08.bks.cpg/sg2_136_cif.got.tgz:270296.got - 2010.06.03 11:33:40.
