data_PCOD9083283
_publ_section_title
;
Structure prediction by ZEFSAII (Michael W. Deem and Ramdas Pophale) SiO2 
 PCOD9083283
Probable space group: P -1
;
_chemical_formula_sum "Si O2"
_cell_formula_units_Z 16
_cell_length_a 7.422687
_cell_length_b 13.690237
_cell_length_c 8.085133
_cell_angle_alpha 66.740804
_cell_angle_beta 56.261731
_cell_angle_gamma 76.005622
_cell_volume 627.427366
_symmetry_space_group_name_H-M "P -1"
_symmetry_group_IT_number 2
_symmetry_cell_setting 'triclinic'
loop_
_space_group_symop_operation_xyz
x,y,z
-x,-y,-z
loop_
_atom_site_type_symbol
_atom_site_label
_atom_site_fract_x
_atom_site_fract_y
_atom_site_fract_z
Si Si1 0.356062 0.215650 0.850026
Si Si2 0.902034 0.571321 0.146209
Si Si3 0.324385 0.615227 0.479203
Si Si4 0.112564 0.299638 0.455149
Si Si5 0.716525 0.884385 0.727758
Si Si6 0.010311 0.863914 0.119133
Si Si7 0.299848 0.520472 0.208328
Si Si8 0.123125 0.951149 0.690959
O O1 0.183501 0.310161 0.928913
O O2 0.529967 0.285174 0.618374
O O3 0.226150 0.139775 0.846363
O O4 0.430840 0.148666 0.018683
O O5 0.698815 0.501849 0.352445
O O6 0.092826 0.567987 0.185297
O O7 0.000000 0.500000 0.000000
O O8 0.077209 0.659956 0.596106
O O9 0.356296 0.594228 0.281891
O O10 0.990721 0.241736 0.703210
O O11 0.265270 0.214275 0.340995
O O12 0.233934 0.403566 0.381949
O O13 0.699657 0.991174 0.551896
O O14 0.951271 0.898935 0.689985
O O15 0.002998 0.955359 0.200965
O O16 0.176387 0.875399 0.872952
O O17 0.500000 0.500000 0.000000
#
# Coordination Sequence:
#
# PCOD9083283 Si02
#       8
#     2   2   2   2   2   2   2   2
#     4  11  20  33  54  80 107 144 185 222 260 318
#     4  11  22  36  54  80 112 146 187 225 264 310
#     4  11  22  36  52  76 115 151 183 221 266 311
#     4  10  19  34  54  78 106 146 183 217 264 325
#     4   9  17  32  55  79 104 132 180 223 276 330
#     4   9  17  31  55  80 101 129 183 227 272 323
#     4  11  22  37  55  79 114 150 182 220 267 316
#     4   8  16  31  55  79 100 133 172 229 281 323
#
# _framework density 25.500957
#
# number of rings (size 3 to 8) (size 9 to 14) (size 15 to 20)
#    0.000    2.000    0.000    6.375    0.000    1.000 
#    0.000    0.000    0.000   28.500    0.000    0.000 
#    0.000    0.000    0.000    0.000    0.000    0.000 
#
# Total GULP energy -89355.288375 kJ/mol
# GULP energy per Si atom -5584.705523 kJ/mol
# Density = 2.544292 g / cm^3
# Si number density = 25.500957 Si / 1000 Ang^3
#
#
#
# Elastic Constant Matrix: (Units=GPa)
#
#
# Indices 1 2 3 4 5 6 
#
# 1 64.3179 7.0648 27.4889 -4.6612 9.0170 4.7570
# 2 7.0648 63.1384 24.0560 -12.7948 -9.4976 14.4314
# 3 27.4889 24.0560 118.2330 -23.1028 16.8657 -4.3449
# 4 -4.6612 -12.7948 -23.1028 50.9489 -3.3605 2.1654
# 5 9.0170 -9.4976 16.8657 -3.3605 43.9486 -6.2413
# 6 4.7570 14.4314 -4.3449 2.1654 -6.2413 18.4746
#
#
#
# Elastic Compliance Matrix: (Units=1/GPa)
#
#
# Indices 1 2 3 4 5 6 
#
# 1 0.018235 0.000820 -0.004238 0.000068 -0.002975 -0.007345
# 2 0.000820 0.023881 -0.005512 0.004699 0.004754 -0.019106
# 3 -0.004238 -0.005512 0.011949 0.003120 -0.003734 0.006580
# 4 0.000068 0.004699 0.003120 0.022506 0.000768 -0.005332
# 5 -0.002975 0.004754 -0.003734 0.000768 0.026604 0.005072
# 6 -0.007345 -0.019106 0.006580 -0.005332 0.005072 0.074831
#
#
# Mechanical properties :
#
#
# Convention : Reuss Voigt Hill
#
# Bulk Modulus (GPa) = 27.62160 40.32318 33.97239
# Shear Modulus (GPa) = 24.04622 35.14640 29.59631
#
# Velocity S-wave (km/s) = 3.07409 3.71649 3.41045
# Velocity P-wave (km/s) = 4.84305 5.85347 5.37207
#
# Compressibility (1/GPa) = 0.03620355
#
# Stress axis : x y z
#
# Youngs Moduli (GPa) = 54.84094 41.87470 83.68993
#
# Poissons Ratio (x) = -0.03432 0.35472
# Poissons Ratio (y) = -0.04495 0.46126
# Poissons Ratio (z) = 0.23244 0.23079
#
# Static dielectric constant tensor:
#      x y z
#    x 2.132170 -0.033710 0.006560 
#    y -0.033710 1.955010 -0.053260 
#    z 0.006560 -0.053260 2.116600 
# 
# From -- ./inp_files/200625.got.cif
#   From: 2010.05.17/outbox.cif.g08.bks.cpg/sg2_101_cif.got.tgz:200625.got - 2010.06.03 11:33:40.
