data_PCOD9083204
_publ_section_title
;
Structure prediction by ZEFSAII (Michael W. Deem and Ramdas Pophale) SiO2 
 PCOD9083204
Probable space group: P -1
;
_chemical_formula_sum "Si O2"
_cell_formula_units_Z 16
_cell_length_a 5.686591
_cell_length_b 15.590720
_cell_length_c 10.336219
_cell_angle_alpha 67.469133
_cell_angle_beta 85.403731
_cell_angle_gamma 51.627215
_cell_volume 647.668242
_symmetry_space_group_name_H-M "P -1"
_symmetry_group_IT_number 2
_symmetry_cell_setting 'triclinic'
loop_
_space_group_symop_operation_xyz
x,y,z
-x,-y,-z
loop_
_atom_site_type_symbol
_atom_site_label
_atom_site_fract_x
_atom_site_fract_y
_atom_site_fract_z
Si Si1 0.049989 0.696638 0.653792
Si Si2 0.458403 0.620437 0.925739
Si Si3 0.919802 0.523904 0.288046
Si Si4 0.363915 0.090930 0.828905
Si Si5 0.996303 0.992458 0.164167
Si Si6 0.503653 0.389787 0.528065
Si Si7 0.579554 0.784884 0.814193
Si Si8 0.014519 0.294825 0.918123
O O1 0.250077 0.685277 0.769892
O O2 0.122729 0.567989 0.713120
O O3 0.182849 0.705413 0.510126
O O4 0.702873 0.793192 0.667699
O O5 0.681841 0.650779 0.887029
O O6 0.500000 0.500000 0.000000
O O7 0.294391 0.675860 0.039599
O O8 0.615402 0.627138 0.325230
O O9 0.002924 0.590042 0.157632
O O10 0.221129 0.440617 0.414144
O O11 0.133432 0.224640 0.820426
O O12 0.165285 0.066460 0.773226
O O13 0.657928 0.070691 0.771113
O O14 0.500000 0.000000 0.000000
O O15 0.772073 0.116253 0.184764
O O16 0.000000 0.000000 0.000000
O O17 0.500000 0.500000 0.500000
O O18 0.754609 0.785779 0.927892
#
# Coordination Sequence:
#
# PCOD9083204 Si02
#       8
#     2   2   2   2   2   2   2   2
#     4  10  20  33  50  76 105 141 180 218 265 325
#     4  11  21  31  46  75 115 145 174 215 264 333
#     4  10  20  36  54  77 106 141 180 225 269 322
#     4  10  19  35  51  76 108 147 186 233 267 325
#     4  10  19  34  53  72 110 146 189 230 268 319
#     4   9  19  37  55  72 103 137 182 229 268 316
#     4  11  21  31  51  76 111 148 181 216 270 332
#     4  11  21  31  52  78 108 146 182 218 277 325
#
# _framework density 24.704004000000001
#
# number of rings (size 3 to 8) (size 9 to 14) (size 15 to 20)
#    0.000    1.750    2.500    4.500    1.750    3.000 
#    0.000    0.000    0.000    0.000    0.000    1.750 
#    0.000    0.000    0.000    0.000    0.000    0.000 
#
# Total GULP energy -89238.583237 kJ/mol
# GULP energy per Si atom -5577.411452 kJ/mol
# Density = 2.464778 g / cm^3
# Si number density = 24.704004 Si / 1000 Ang^3
#
#
#
# Elastic Constant Matrix: (Units=GPa)
#
#
# Indices 1 2 3 4 5 6 
#
# 1 113.4343 27.2166 37.9955 15.4495 -25.4454 13.0890
# 2 27.2166 93.3601 28.7720 27.8107 -13.1484 2.0853
# 3 37.9955 28.7720 82.4778 29.7849 -25.6004 -15.9530
# 4 15.4495 27.8107 29.7849 37.1830 -13.1151 -17.4321
# 5 -25.4454 -13.1484 -25.6004 -13.1151 41.5961 17.8928
# 6 13.0890 2.0853 -15.9530 -17.4321 17.8928 43.4396
#
#
#
# Elastic Compliance Matrix: (Units=1/GPa)
#
#
# Indices 1 2 3 4 5 6 
#
# 1 0.014440 0.000205 -0.004186 -0.004906 0.009916 -0.011951
# 2 0.000205 0.015704 -0.001170 -0.013423 0.003634 -0.008129
# 3 -0.004186 -0.001170 0.020447 -0.010827 0.005241 0.002323
# 4 -0.004906 -0.013423 -0.010827 0.056405 -0.006152 0.023316
# 5 0.009916 0.003634 0.005241 -0.006152 0.041486 -0.020795
# 6 -0.011951 -0.008129 0.002323 0.023316 -0.020795 0.045787
#
#
# Mechanical properties :
#
#
# Convention : Reuss Voigt Hill
#
# Bulk Modulus (GPa) = 24.82024 53.02670 38.92347
# Shear Modulus (GPa) = 22.93585 37.46294 30.19940
#
# Velocity S-wave (km/s) = 3.05031 3.89842 3.50015
# Velocity P-wave (km/s) = 4.74075 6.46335 5.66788
#
# Compressibility (1/GPa) = 0.04028970
#
# Stress axis : x y z
#
# Youngs Moduli (GPa) = 69.25147 63.67937 48.90754
#
# Poissons Ratio (x) = -0.01307 0.20473
# Poissons Ratio (y) = -0.01421 0.05720
# Poissons Ratio (z) = 0.28989 0.07448
#
# Static dielectric constant tensor:
#      x y z
#    x 2.185020 -0.496230 -0.100090 
#    y -0.496230 2.951630 0.204780 
#    z -0.100090 0.204780 1.975510 
# 
# From -- ./inp_files/69705.got.cif
#   From: 2010.05.17/outbox.cif.g08.bks.cpg/sg2_35_cif.got.tgz:69705.got - 2010.06.03 11:33:40.
