data_PCOD9083011
_publ_section_title
;
Structure prediction by ZEFSAII (Michael W. Deem and Ramdas Pophale) SiO2 
 PCOD9083011
Probable space group: P -1
;
_chemical_formula_sum "Si O2"
_cell_formula_units_Z 16
_cell_length_a 9.369406
_cell_length_b 9.070995
_cell_length_c 9.235520
_cell_angle_alpha 111.866571
_cell_angle_beta 86.177560
_cell_angle_gamma 116.944447
_cell_volume 644.412391
_symmetry_space_group_name_H-M "P -1"
_symmetry_group_IT_number 2
_symmetry_cell_setting 'triclinic'
loop_
_space_group_symop_operation_xyz
x,y,z
-x,-y,-z
loop_
_atom_site_type_symbol
_atom_site_label
_atom_site_fract_x
_atom_site_fract_y
_atom_site_fract_z
Si Si1 0.112986 0.638972 0.711988
Si Si2 0.518763 0.687609 0.502444
Si Si3 0.368755 0.175684 0.153598
Si Si4 0.330807 0.647739 0.953509
Si Si5 0.011780 0.252479 0.469793
Si Si6 0.794884 0.743288 0.296997
Si Si7 0.037462 0.987284 0.158214
Si Si8 0.740800 0.509648 0.778165
O O1 0.214969 0.686056 0.867584
O O2 0.141538 0.774087 0.625462
O O3 0.111080 0.465268 0.571514
O O4 0.929344 0.582786 0.754888
O O5 0.500000 0.500000 0.500000
O O6 0.532393 0.787168 0.688557
O O7 0.679641 0.781916 0.425968
O O8 0.370981 0.636093 0.385275
O O9 0.489462 0.195166 0.023737
O O10 0.209835 0.991642 0.130846
O O11 0.313917 0.331618 0.173368
O O12 0.312066 0.464160 0.811151
O O13 0.286961 0.586718 0.099136
O O14 0.033356 0.196986 0.608710
O O15 0.082001 0.153151 0.325726
O O16 0.868416 0.840753 0.178847
O O17 0.000000 0.000000 0.000000
#
# Coordination Sequence:
#
# PCOD9083011 Si02
#       8
#     2   2   2   2   2   2   2   2
#     4  10  22  38  67  90 130 168 211 263 313 382
#     4  10  19  33  60  90 127 157 209 266 309 358
#     4  11  22  38  61  96 128 160 213 269 315 364
#     4  11  23  37  63  99 128 161 211 272 323 363
#     4  10  21  40  61  91 124 168 213 251 314 380
#     4  11  21  38  62  96 126 167 209 261 315 378
#     4  12  25  39  65  95 134 166 208 266 321 375
#     4  11  20  36  62  95 125 159 213 266 319 362
#
# _framework density 24.828821999999999
#
# number of rings (size 3 to 8) (size 9 to 14) (size 15 to 20)
#    0.000    1.250    5.000    2.625    5.250    0.000 
#    0.000    0.000    0.000    5.250    0.000    0.000 
#    0.000    0.000    0.000    0.000    0.000    0.000 
#
# Total GULP energy -89095.695793 kJ/mol
# GULP energy per Si atom -5568.480987 kJ/mol
# Density = 2.477231 g / cm^3
# Si number density = 24.828822 Si / 1000 Ang^3
#
#
#
# Elastic Constant Matrix: (Units=GPa)
#
#
# Indices 1 2 3 4 5 6 
#
# 1 81.3914 27.8138 30.1555 -3.0558 8.9998 24.3812
# 2 27.8138 58.3562 12.3882 -15.9257 -19.4080 18.3340
# 3 30.1555 12.3882 134.9946 -18.2119 11.4012 -2.8509
# 4 -3.0558 -15.9257 -18.2119 42.8885 4.1023 -9.5433
# 5 8.9998 -19.4080 11.4012 4.1023 38.5632 -2.7488
# 6 24.3812 18.3340 -2.8509 -9.5433 -2.7488 31.7643
#
#
#
# Elastic Compliance Matrix: (Units=1/GPa)
#
#
# Indices 1 2 3 4 5 6 
#
# 1 0.022582 -0.010064 -0.004504 -0.006408 -0.009367 -0.014665
# 2 -0.010064 0.032491 -0.001393 0.007410 0.017797 -0.007387
# 3 -0.004504 -0.001393 0.009548 0.004875 -0.002538 0.006363
# 4 -0.006408 0.007410 0.004875 0.029812 0.001336 0.010151
# 5 -0.009367 0.017797 -0.002538 0.001336 0.037708 0.000354
# 6 -0.014665 -0.007387 0.006363 0.010151 0.000354 0.050653
#
#
# Mechanical properties :
#
#
# Convention : Reuss Voigt Hill
#
# Bulk Modulus (GPa) = 30.58159 46.16191 38.37175
# Shear Modulus (GPa) = 22.16159 36.26886 29.21522
#
# Velocity S-wave (km/s) = 2.99084 3.82613 3.43398
# Velocity P-wave (km/s) = 4.92652 6.17669 5.58668
#
# Compressibility (1/GPa) = 0.03269941
#
# Stress axis : x y z
#
# Youngs Moduli (GPa) = 44.28285 30.77814 104.73373
#
# Poissons Ratio (x) = 0.30974 0.47172
# Poissons Ratio (y) = 0.44565 0.14589
# Poissons Ratio (z) = 0.19945 0.04287
#
# Static dielectric constant tensor:
#      x y z
#    x 2.122080 -0.009860 0.030410 
#    y -0.009860 2.103970 0.004200 
#    z 0.030410 0.004200 1.942330 
# 
# From -- ./inp_files/180399.got.cif
#   From: 2010.05.17/outbox.cif.g08.bks.cpg/sg2_91_cif.got.tgz:180399.got - 2010.06.03 11:33:40.
