data_PCOD9083147
_publ_section_title
;
Structure prediction by ZEFSAII (Michael W. Deem and Ramdas Pophale) SiO2 
 PCOD9083147
Probable space group: P -1
;
_chemical_formula_sum "Si O2"
_cell_formula_units_Z 14
_cell_length_a 5.115274
_cell_length_b 13.668495
_cell_length_c 14.955298
_cell_angle_alpha 131.846894
_cell_angle_beta 87.975253
_cell_angle_gamma 71.286952
_cell_volume 690.140012
_symmetry_space_group_name_H-M "P -1"
_symmetry_group_IT_number 2
_symmetry_cell_setting 'triclinic'
loop_
_space_group_symop_operation_xyz
x,y,z
-x,-y,-z
loop_
_atom_site_type_symbol
_atom_site_label
_atom_site_fract_x
_atom_site_fract_y
_atom_site_fract_z
Si Si1 0.843422 0.768813 0.018756
Si Si2 0.071175 0.696656 0.605222
Si Si3 0.076956 0.975329 0.841903
Si Si4 0.287320 0.431655 0.568773
Si Si5 0.455203 0.528869 0.794640
Si Si6 0.457028 0.808848 0.892127
Si Si7 0.280707 0.460664 0.035496
O O1 0.851753 0.911359 0.146854
O O2 0.725489 0.811540 0.944013
O O3 0.647380 0.705554 0.033188
O O4 0.167818 0.632995 0.920299
O O5 0.969869 0.867322 0.731439
O O6 0.092768 0.598430 0.633196
O O7 0.401470 0.634643 0.526025
O O8 0.879198 0.661246 0.514586
O O9 0.367351 0.868923 0.830794
O O10 0.820628 0.084026 0.977958
O O11 0.362754 0.433400 0.672821
O O12 0.508136 0.641469 0.797902
O O13 0.723613 0.462744 0.821516
O O14 0.500000 0.500000 0.000000
O O15 0.000000 0.500000 0.000000
#
# Coordination Sequence:
#
# PCOD9083147 Si02
#       7
#     2   2   2   2   2   2   2
#     4  10  21  33  58  84 115 148 185 234 288 353
#     4  10  22  35  53  76 118 160 198 227 257 318
#     4  10  19  34  49  83 117 159 190 230 275 331
#     4  10  22  36  52  80 112 162 196 227 265 319
#     4  10  20  36  58  85 117 148 191 231 286 347
#     4   9  19  31  52  81 118 154 187 229 278 341
#     4  11  22  39  59  88 115 140 182 242 307 347
#
# _framework density 20.285737999999998
#
# number of rings (size 3 to 8) (size 9 to 14) (size 15 to 20)
#    0.000    2.000    2.857    0.429    6.000    1.143 
#    0.000    0.000    0.000    0.000    0.000    6.000 
#    0.000    0.000    0.000    0.000    0.000    0.000 
#
# Total GULP energy -78083.360281 kJ/mol
# GULP energy per Si atom -5577.382877 kJ/mol
# Density = 2.023957 g / cm^3
# Si number density = 20.285738 Si / 1000 Ang^3
#
#
#
# Elastic Constant Matrix: (Units=GPa)
#
#
# Indices 1 2 3 4 5 6 
#
# 1 96.6255 18.4045 34.7830 9.0578 29.1784 0.8387
# 2 18.4045 58.4237 38.6014 -6.8517 14.2670 3.3708
# 3 34.7830 38.6014 100.2851 2.7897 46.4841 4.6502
# 4 9.0578 -6.8517 2.7897 16.5174 2.2333 20.1497
# 5 29.1784 14.2670 46.4841 2.2333 41.5494 -3.6363
# 6 0.8387 3.3708 4.6502 20.1497 -3.6363 43.0313
#
#
#
# Elastic Compliance Matrix: (Units=1/GPa)
#
#
# Indices 1 2 3 4 5 6 
#
# 1 0.015757 -0.007135 0.000867 -0.023747 -0.007377 0.010654
# 2 -0.007135 0.033684 -0.011427 0.048985 0.001489 -0.024076
# 3 0.000867 -0.011427 0.026631 -0.002156 -0.026647 -0.003242
# 4 -0.023747 0.048985 -0.002156 0.240381 -0.020933 -0.117470
# 5 -0.007377 0.001489 -0.026647 -0.020933 0.061239 0.017884
# 6 0.010654 -0.024076 -0.003242 -0.117470 0.017884 0.081785
#
#
# Mechanical properties :
#
#
# Convention : Reuss Voigt Hill
#
# Bulk Modulus (GPa) = 24.58070 48.76803 36.67436
# Shear Modulus (GPa) = 9.83421 31.12265 20.47843
#
# Velocity S-wave (km/s) = 2.20417 3.92115 3.18071
# Velocity P-wave (km/s) = 4.31525 6.67782 5.62204
#
# Compressibility (1/GPa) = 0.04068233
#
# Stress axis : x y z
#
# Youngs Moduli (GPa) = 63.46243 29.68727 37.55016
#
# Poissons Ratio (x) = 0.21181 -0.03255
# Poissons Ratio (y) = 0.45279 0.42910
# Poissons Ratio (z) = -0.05501 0.33924
#
# Static dielectric constant tensor:
#      x y z
#    x 1.824560 -0.011820 0.019020 
#    y -0.011820 1.771620 -0.009210 
#    z 0.019020 -0.009210 1.753930 
# 
# From -- ./inp_files/73346.got.cif
#   From: 2010.05.17/outbox.cif.g08.bks.cpg/sg2_37_cif.got.tgz:73346.got - 2010.06.03 11:33:40.
