data_PCOD9083076
_publ_section_title
;
Structure prediction by ZEFSAII (Michael W. Deem and Ramdas Pophale) SiO2 
 PCOD9083076
Probable space group: P -1
;
_chemical_formula_sum "Si O2"
_cell_formula_units_Z 12
_cell_length_a 9.051636
_cell_length_b 9.390379
_cell_length_c 11.189346
_cell_angle_alpha 139.669529
_cell_angle_beta 99.320622
_cell_angle_gamma 106.721270
_cell_volume 464.768031
_symmetry_space_group_name_H-M "P -1"
_symmetry_group_IT_number 2
_symmetry_cell_setting 'triclinic'
loop_
_space_group_symop_operation_xyz
x,y,z
-x,-y,-z
loop_
_atom_site_type_symbol
_atom_site_label
_atom_site_fract_x
_atom_site_fract_y
_atom_site_fract_z
Si Si1 0.990946 0.633552 0.209395
Si Si2 0.945626 0.610367 0.702057
Si Si3 0.665639 0.751795 0.817838
Si Si4 0.373065 0.206630 0.574257
Si Si5 0.394988 0.815674 0.750001
Si Si6 0.566680 0.205074 0.819028
O O1 0.041012 0.545665 0.282084
O O2 0.143477 0.974751 0.425703
O O3 0.000000 0.500000 0.000000
O O4 0.762788 0.470170 0.078140
O O5 0.792064 0.651417 0.754687
O O6 0.831379 0.463594 0.466294
O O7 0.158516 0.918849 0.908800
O O8 0.474247 0.502498 0.709004
O O9 0.555066 0.776522 0.712228
O O10 0.494218 0.300396 0.771223
O O11 0.406039 0.004913 0.379379
O O12 0.407993 0.010070 0.774006
O O13 0.500000 0.000000 0.000000
#
# Coordination Sequence:
#
# PCOD9083076 Si02
#       6
#     2   2   2   2   2   2
#     4  10  19  33  61  95 121 156 194 256 318 354
#     4  11  22  39  64  92 125 157 205 260 302 354
#     4  11  23  38  63  97 118 153 210 265 302 345
#     4  10  19  35  64  90 123 150 201 266 302 346
#     4  12  25  41  61  88 130 173 200 238 306 377
#     4  10  19  37  58  91 123 159 202 244 307 368
#
# _framework density 25.819330999999998
#
# number of rings (size 3 to 8) (size 9 to 14) (size 15 to 20)
#    0.000    1.333    5.000    2.500    0.000    3.333 
#    0.000    0.833    0.000    2.000    0.000    0.000 
#    0.000    0.000    0.000    0.000    0.000    0.000 
#
# Total GULP energy -66957.652544 kJ/mol
# GULP energy per Si atom -5579.804379 kJ/mol
# Density = 2.576057 g / cm^3
# Si number density = 25.819331 Si / 1000 Ang^3
#
#
#
# Elastic Constant Matrix: (Units=GPa)
#
#
# Indices 1 2 3 4 5 6 
#
# 1 55.5231 -2.3879 43.6625 0.5873 29.4054 -3.2158
# 2 -2.3879 129.7493 62.6373 -7.0023 19.8549 -6.0052
# 3 43.6625 62.6373 207.6509 -2.1640 54.2436 -13.8803
# 4 0.5873 -7.0023 -2.1640 54.9546 2.3228 11.6808
# 5 29.4054 19.8549 54.2436 2.3228 62.6768 -3.5327
# 6 -3.2158 -6.0052 -13.8803 11.6808 -3.5327 21.7337
#
#
#
# Elastic Compliance Matrix: (Units=1/GPa)
#
#
# Indices 1 2 3 4 5 6 
#
# 1 0.026978 0.004144 -0.004181 0.000389 -0.010334 0.000578
# 2 0.004144 0.009743 -0.003176 0.001104 -0.002305 0.000309
# 3 -0.004181 -0.003176 0.007796 -0.000585 -0.003577 0.003216
# 4 0.000389 0.001104 -0.000585 0.020799 -0.001440 -0.011424
# 5 -0.010334 -0.002305 -0.003577 -0.001440 0.024701 0.000339
# 6 0.000578 0.000309 0.003216 -0.011424 0.000339 0.054432
#
#
# Mechanical properties :
#
#
# Convention : Reuss Voigt Hill
#
# Bulk Modulus (GPa) = 26.25211 66.74967 46.50089
# Shear Modulus (GPa) = 30.56743 47.14043 38.85393
#
# Velocity S-wave (km/s) = 3.44451 4.27755 3.88343
# Velocity P-wave (km/s) = 5.09993 7.09262 6.17716
#
# Compressibility (1/GPa) = 0.03809217
#
# Stress axis : x y z
#
# Youngs Moduli (GPa) = 37.06670 102.63456 128.27049
#
# Poissons Ratio (x) = -0.42529 0.53625
# Poissons Ratio (y) = -0.15360 0.40738
# Poissons Ratio (z) = 0.15496 0.32596
#
# Static dielectric constant tensor:
#      x y z
#    x 2.263930 0.057190 -0.223580 
#    y 0.057190 1.922170 0.024220 
#    z -0.223580 0.024220 2.134500 
# 
# From -- ./inp_files/231818.got.cif
#   From: 2010.05.17/outbox.cif.g08.bks.cpg/sg2_116_cif.got.tgz:231818.got - 2010.06.03 11:33:40.
