data_PCOD9083661
_publ_section_title
;
Structure prediction by ZEFSAII (Michael W. Deem and Ramdas Pophale) SiO2 
 PCOD9083661
Probable space group: P -1
;
_chemical_formula_sum "Si O2"
_cell_formula_units_Z 16
_cell_length_a 10.191044
_cell_length_b 9.807244
_cell_length_c 7.930942
_cell_angle_alpha 82.297230
_cell_angle_beta 59.817879
_cell_angle_gamma 65.689758
_cell_volume 621.766403
_symmetry_space_group_name_H-M "P -1"
_symmetry_group_IT_number 2
_symmetry_cell_setting 'triclinic'
loop_
_space_group_symop_operation_xyz
x,y,z
-x,-y,-z
loop_
_atom_site_type_symbol
_atom_site_label
_atom_site_fract_x
_atom_site_fract_y
_atom_site_fract_z
Si Si1 0.366388 0.155296 0.482054
Si Si2 0.141494 0.942867 0.187100
Si Si3 0.989781 0.439116 0.238010
Si Si4 0.531544 0.218482 0.794855
Si Si5 0.762605 0.466823 0.080723
Si Si6 0.770725 0.843423 0.087947
Si Si7 0.426961 0.669278 0.599062
Si Si8 0.059998 0.194788 0.478302
O O1 0.235905 0.203904 0.710237
O O2 0.448280 0.274960 0.393026
O O3 0.253225 0.154156 0.399352
O O4 0.500000 0.000000 0.500000
O O5 0.324552 0.845041 0.154660
O O6 0.032136 0.848185 0.302017
O O7 0.060390 0.085129 0.343248
O O8 0.172526 0.020029 0.986563
O O9 0.975120 0.365585 0.435995
O O10 0.827307 0.496333 0.217868
O O11 0.095401 0.540450 0.140202
O O12 0.108356 0.294199 0.076561
O O13 0.402208 0.389110 0.886070
O O14 0.413446 0.127629 0.868367
O O15 0.615375 0.226382 0.558039
O O16 0.713833 0.328982 0.180164
O O17 0.500000 0.500000 0.500000
#
# Coordination Sequence:
#
# PCOD9083661 Si02
#       8
#     2   2   2   2   2   2   2   2
#     4  11  23  38  58  89 122 149 188 250 301 338
#     4  10  19  34  57  84 116 157 195 231 288 360
#     4   9  18  34  57  84 113 149 195 240 283 344
#     4   9  16  29  54  83 107 140 195 243 274 328
#     4   9  17  31  57  81 103 146 200 236 270 337
#     4   9  19  33  55  83 116 152 190 236 292 348
#     4   9  18  34  57  81 110 154 198 230 281 353
#     4  10  21  35  54  84 119 152 190 241 296 342
#
# _framework density 25.733135999999998
#
# number of rings (size 3 to 8) (size 9 to 14) (size 15 to 20)
#    0.000    2.500    0.000    3.375    0.000    4.500 
#    0.000    0.625    0.000   36.750    0.000    0.000 
#    0.000    0.000    0.000    0.000    0.000    0.000 
#
# Total GULP energy -89349.769532 kJ/mol
# GULP energy per Si atom -5584.360596 kJ/mol
# Density = 2.567457 g / cm^3
# Si number density = 25.733136 Si / 1000 Ang^3
#
#
#
# Elastic Constant Matrix: (Units=GPa)
#
#
# Indices 1 2 3 4 5 6 
#
# 1 83.7349 30.9596 26.5955 -18.1530 -32.3874 19.8306
# 2 30.9596 82.5391 30.8062 -17.6262 -18.8642 12.1348
# 3 26.5955 30.8062 104.7828 -38.2825 -35.8939 22.7383
# 4 -18.1530 -17.6262 -38.2825 41.5528 12.6742 -13.5976
# 5 -32.3874 -18.8642 -35.8939 12.6742 35.9727 -9.0535
# 6 19.8306 12.1348 22.7383 -13.5976 -9.0535 43.3092
#
#
#
# Elastic Compliance Matrix: (Units=1/GPa)
#
#
# Indices 1 2 3 4 5 6 
#
# 1 0.021774 -0.003728 0.005507 0.004946 0.019863 -0.006112
# 2 -0.003728 0.015207 -0.002006 0.002320 0.001693 -0.000418
# 3 0.005507 -0.002006 0.021417 0.013851 0.019176 -0.004846
# 4 0.004946 0.002320 0.013851 0.039096 0.006588 0.003465
# 5 0.019863 0.001693 0.019176 0.006588 0.062236 -0.004559
# 6 -0.006112 -0.000418 -0.004846 0.003465 -0.004559 0.028685
#
#
# Mechanical properties :
#
#
# Convention : Reuss Voigt Hill
#
# Bulk Modulus (GPa) = 17.25835 49.75327 33.50581
# Shear Modulus (GPa) = 24.01736 36.34662 30.18199
#
# Velocity S-wave (km/s) = 3.05835 3.76233 3.42846
# Velocity P-wave (km/s) = 4.38093 6.18464 5.35921
#
# Compressibility (1/GPa) = 0.05794297
#
# Stress axis : x y z
#
# Youngs Moduli (GPa) = 45.92595 65.76107 46.69280
#
# Poissons Ratio (x) = 0.24517 -0.25714
# Poissons Ratio (y) = 0.17122 0.09366
# Poissons Ratio (z) = -0.25291 0.13191
#
# Static dielectric constant tensor:
#      x y z
#    x 2.029830 0.035820 -0.017590 
#    y 0.035820 2.094860 0.025910 
#    z -0.017590 0.025910 2.100280 
# 
# From -- ./inp_files/176067.got.cif
#   From: 2010.05.17/outbox.cif.g08.bks.cpg/sg2_89_cif.got.tgz:176067.got - 2010.06.03 11:33:40.
