data_PCOD9083611
_publ_section_title
;
Structure prediction by ZEFSAII (Michael W. Deem and Ramdas Pophale) SiO2 
 PCOD9083611
Probable space group: P -1
;
_chemical_formula_sum "Si O2"
_cell_formula_units_Z 16
_cell_length_a 17.005817
_cell_length_b 10.691128
_cell_length_c 9.096222
_cell_angle_alpha 128.624586
_cell_angle_beta 35.325208
_cell_angle_gamma 132.907288
_cell_volume 691.123295
_symmetry_space_group_name_H-M "P -1"
_symmetry_group_IT_number 2
_symmetry_cell_setting 'triclinic'
loop_
_space_group_symop_operation_xyz
x,y,z
-x,-y,-z
loop_
_atom_site_type_symbol
_atom_site_label
_atom_site_fract_x
_atom_site_fract_y
_atom_site_fract_z
Si Si1 0.107453 0.670523 0.881732
Si Si2 0.168322 0.239144 0.347525
Si Si3 0.344622 0.841569 0.452756
Si Si4 0.588914 0.795358 0.224807
Si Si5 0.838252 0.117993 0.786349
Si Si6 0.426770 0.629921 0.649624
Si Si7 0.341228 0.054482 0.339960
Si Si8 0.179903 0.306955 0.718070
O O1 0.204732 0.775814 0.946175
O O2 0.995109 0.754910 0.055478
O O3 0.212247 0.672786 0.590875
O O4 0.000000 0.500000 0.000000
O O5 0.216391 0.323361 0.498115
O O6 0.003734 0.229816 0.556721
O O7 0.146747 0.041323 0.267380
O O8 0.294307 0.286265 0.066305
O O9 0.491130 0.809777 0.246028
O O10 0.344278 0.008672 0.669279
O O11 0.324263 0.901920 0.367309
O O12 0.487805 0.689751 0.436016
O O13 0.714589 0.035296 0.795288
O O14 0.500000 0.500000 0.500000
O O15 0.497484 0.798610 0.768763
O O16 0.257952 0.496928 0.808267
O O17 0.237037 0.166920 0.599027
#
# Coordination Sequence:
#
# PCOD9083611 Si02
#       8
#     2   2   2   2   2   2   2   2
#     4  11  21  36  60  83 111 157 189 234 290 346
#     4   9  17  33  59  85 109 152 190 240 282 326
#     4  10  21  35  55  86 114 150 195 231 285 342
#     4  10  19  34  57  81 119 151 193 237 272 343
#     4   9  18  36  57  85 115 143 195 236 284 343
#     4   9  18  35  53  82 118 148 186 228 289 336
#     4   9  19  36  60  82 115 149 184 249 278 329
#     4   9  19  35  58  84 116 148 193 232 284 343
#
# _framework density 23.150718000000001
#
# number of rings (size 3 to 8) (size 9 to 14) (size 15 to 20)
#    0.000    2.500    1.250    1.500    0.000    1.000 
#    4.500    3.125    8.250    0.000    0.000    0.000 
#    0.000    0.000    0.000    0.000    0.000    0.000 
#
# Total GULP energy -89209.862742 kJ/mol
# GULP energy per Si atom -5575.616421 kJ/mol
# Density = 2.309803 g / cm^3
# Si number density = 23.150718 Si / 1000 Ang^3
#
#
#
# Elastic Constant Matrix: (Units=GPa)
#
#
# Indices 1 2 3 4 5 6 
#
# 1 96.4706 29.6929 25.7433 -1.1080 1.5558 -0.4558
# 2 29.6929 68.5561 3.9511 -19.1078 10.5397 4.3511
# 3 25.7433 3.9511 81.0764 -9.1943 -13.2533 0.2092
# 4 -1.1080 -19.1078 -9.1943 20.2440 -6.1308 0.7725
# 5 1.5558 10.5397 -13.2533 -6.1308 29.7369 7.8653
# 6 -0.4558 4.3511 0.2092 0.7725 7.8653 48.7912
#
#
#
# Elastic Compliance Matrix: (Units=1/GPa)
#
#
# Indices 1 2 3 4 5 6 
#
# 1 0.014560 -0.008688 -0.005961 -0.011096 -0.003051 0.001604
# 2 -0.008688 0.025456 0.004285 0.025380 -0.000724 -0.002655
# 3 -0.005961 0.004285 0.017372 0.014794 0.010219 -0.002394
# 4 -0.011096 0.025380 0.014794 0.084999 0.017445 -0.006588
# 5 -0.003051 -0.000724 0.010219 0.017445 0.044153 -0.007402
# 6 0.001604 -0.002655 -0.002394 -0.006588 -0.007402 0.022055
#
#
# Mechanical properties :
#
#
# Convention : Reuss Voigt Hill
#
# Bulk Modulus (GPa) = 27.27746 40.54198 33.90972
# Shear Modulus (GPa) = 20.70020 32.20217 26.45118
#
# Velocity S-wave (km/s) = 2.99348 3.73363 3.38385
# Velocity P-wave (km/s) = 4.87401 6.01139 5.47233
#
# Compressibility (1/GPa) = 0.03666031
#
# Stress axis : x y z
#
# Youngs Moduli (GPa) = 68.68159 39.28318 57.56309
#
# Poissons Ratio (x) = 0.34129 0.34312
# Poissons Ratio (y) = 0.59671 -0.24665
# Poissons Ratio (z) = 0.40940 -0.16832
#
# Static dielectric constant tensor:
#      x y z
#    x 1.893210 0.018300 -0.030640 
#    y 0.018300 1.945370 -0.000090 
#    z -0.030640 -0.000090 1.951500 
# 
# From -- ./inp_files/331232.got.cif
#   From: 2010.05.17/outbox.cif.g08.bks.cpg/sg2_166_cif.got.tgz:331232.got - 2010.06.03 11:33:40.
