data_PCOD9083965
_publ_section_title
;
Structure prediction by ZEFSAII (Michael W. Deem and Ramdas Pophale) SiO2 
 PCOD9083965
Probable space group: P -1
;
_chemical_formula_sum "Si O2"
_cell_formula_units_Z 14
_cell_length_a 9.066827
_cell_length_b 16.867103
_cell_length_c 11.885029
_cell_angle_alpha 42.747161
_cell_angle_beta 52.510283
_cell_angle_gamma 30.135147
_cell_volume 617.502882
_symmetry_space_group_name_H-M "P -1"
_symmetry_group_IT_number 2
_symmetry_cell_setting 'triclinic'
loop_
_space_group_symop_operation_xyz
x,y,z
-x,-y,-z
loop_
_atom_site_type_symbol
_atom_site_label
_atom_site_fract_x
_atom_site_fract_y
_atom_site_fract_z
Si Si1 0.306643 0.894873 0.302004
Si Si2 0.732083 0.615791 0.088046
Si Si3 0.616032 0.380625 0.904853
Si Si4 0.366811 0.742630 0.736986
Si Si5 0.306729 0.489274 0.554640
Si Si6 0.221720 0.294519 0.558030
Si Si7 0.810724 0.996830 0.018248
O O1 0.467885 0.690833 0.443681
O O2 0.546559 0.857752 0.294101
O O3 0.260354 0.935589 0.148339
O O4 0.979130 0.067219 0.322148
O O5 0.552322 0.592969 0.148069
O O6 0.794722 0.549839 0.256862
O O7 0.514113 0.834156 0.954300
O O8 0.000000 0.500000 0.000000
O O9 0.477550 0.568575 0.811492
O O10 0.591943 0.301200 0.103166
O O11 0.960542 0.219826 0.881552
O O12 0.563186 0.748666 0.587652
O O13 0.500000 0.500000 0.500000
O O14 0.005839 0.673057 0.441357
O O15 0.000000 0.500000 0.500000
O O16 0.000000 0.000000 0.000000
#
# Coordination Sequence:
#
# PCOD9083965 Si02
#       7
#     2   2   2   2   2   2   2
#     4   9  19  36  61  86 118 159 192 245 300 349
#     4  10  19  34  59  86 118 151 196 250 299 344
#     4   9  19  33  60  86 112 153 197 239 291 363
#     4  10  19  36  60  86 118 152 198 244 300 348
#     4  10  22  39  61  85 119 162 199 243 298 363
#     4  10  21  36  57  84 119 159 194 241 295 355
#     4   8  16  34  57  88 117 153 191 237 302 347
#
# _framework density 22.671961
#
# number of rings (size 3 to 8) (size 9 to 14) (size 15 to 20)
#    0.000    2.571    0.000    1.286    4.000    0.000 
#    0.000    3.571    9.429   14.571    0.000    0.000 
#    0.000    0.000    0.000    0.000    0.000    0.000 
#
# Total GULP energy -78028.990154 kJ/mol
# GULP energy per Si atom -5573.499297 kJ/mol
# Density = 2.262036 g / cm^3
# Si number density = 22.671961 Si / 1000 Ang^3
#
#
#
# Elastic Constant Matrix: (Units=GPa)
#
#
# Indices 1 2 3 4 5 6 
#
# 1 101.7709 38.6453 23.9888 -12.8578 22.3510 -26.2988
# 2 38.6453 211.0148 35.8633 -2.9395 3.5618 -15.5318
# 3 23.9888 35.8633 96.5080 15.4077 34.1783 -14.1873
# 4 -12.8578 -2.9395 15.4077 24.9646 -4.4190 3.7446
# 5 22.3510 3.5618 34.1783 -4.4190 34.6432 -5.8918
# 6 -26.2988 -15.5318 -14.1873 3.7446 -5.8918 42.3065
#
#
#
# Elastic Compliance Matrix: (Units=1/GPa)
#
#
# Indices 1 2 3 4 5 6 
#
# 1 0.014610 -0.001958 -0.000115 0.005044 -0.007301 0.006862
# 2 -0.001958 0.005697 -0.003759 0.002820 0.004750 0.000026
# 3 -0.000115 -0.003759 0.025388 -0.021646 -0.026447 0.005295
# 4 0.005044 0.002820 -0.021646 0.061496 0.024792 -0.005079
# 5 -0.007301 0.004750 -0.026447 0.024792 0.061441 -0.005301
# 6 0.006862 0.000026 0.005295 -0.005079 -0.005301 0.029399
#
#
# Mechanical properties :
#
#
# Convention : Reuss Voigt Hill
#
# Bulk Modulus (GPa) = 29.38425 67.36539 48.37482
# Shear Modulus (GPa) = 22.62045 41.10261 31.86153
#
# Velocity S-wave (km/s) = 3.16211 4.26247 3.75284
# Velocity P-wave (km/s) = 5.13037 7.34863 6.33731
#
# Compressibility (1/GPa) = 0.03403184
#
# Stress axis : x y z
#
# Youngs Moduli (GPa) = 68.44475 175.51745 39.38903
#
# Poissons Ratio (x) = 0.34360 0.00453
# Poissons Ratio (y) = 0.13399 0.14807
# Poissons Ratio (z) = 0.00788 0.65980
#
# Static dielectric constant tensor:
#      x y z
#    x 1.909280 -0.006560 -0.035070 
#    y -0.006560 1.839210 -0.002450 
#    z -0.035070 -0.002450 1.976780 
# 
# From -- ./inp_files/402956.got.cif
#   From: 2010.05.17/outbox.cif.g08.bks.cpg/sg2_202_cif.got.tgz:402956.got - 2010.06.03 11:33:40.
