data_PCOD9083829
_publ_section_title
;
Structure prediction by ZEFSAII (Michael W. Deem and Ramdas Pophale) SiO2 
 PCOD9083829
Probable space group: P -1
;
_chemical_formula_sum "Si O2"
_cell_formula_units_Z 16
_cell_length_a 10.256885
_cell_length_b 15.279679
_cell_length_c 5.439643
_cell_angle_alpha 96.891478
_cell_angle_beta 63.620491
_cell_angle_gamma 123.001995
_cell_volume 632.008862
_symmetry_space_group_name_H-M "P -1"
_symmetry_group_IT_number 2
_symmetry_cell_setting 'triclinic'
loop_
_space_group_symop_operation_xyz
x,y,z
-x,-y,-z
loop_
_atom_site_type_symbol
_atom_site_label
_atom_site_fract_x
_atom_site_fract_y
_atom_site_fract_z
Si Si1 0.674460 0.712781 0.308679
Si Si2 0.948849 0.077277 0.959464
Si Si3 0.108372 0.474575 0.590594
Si Si4 0.432101 0.856807 0.046333
Si Si5 0.505423 0.849583 0.487594
Si Si6 0.119691 0.875049 0.464570
Si Si7 0.739492 0.652288 0.734120
Si Si8 0.775474 0.333401 0.120366
O O1 0.586923 0.779867 0.410204
O O2 0.641894 0.649121 0.565456
O O3 0.641681 0.648989 0.062905
O O4 0.879731 0.804540 0.160212
O O5 0.837687 0.080827 0.278638
O O6 0.891101 0.054210 0.716173
O O7 0.000000 0.000000 0.000000
O O8 0.214295 0.435338 0.349217
O O9 0.222657 0.574326 0.707265
O O10 0.000000 0.500000 0.500000
O O11 0.965020 0.383826 0.863659
O O12 0.544866 0.899859 0.207896
O O13 0.259086 0.854362 0.228749
O O14 0.534462 0.913952 0.731803
O O15 0.363005 0.733932 0.004129
O O16 0.294534 0.761367 0.655694
O O17 0.928193 0.765393 0.607581
#
# Coordination Sequence:
#
# PCOD9083829 Si02
#       8
#     2   2   2   2   2   2   2   2
#     4  10  22  38  58  79 108 150 182 217 260 344
#     4  10  21  36  59  86 115 140 170 224 279 323
#     4  11  21  34  55  82 113 139 181 243 286 306
#     4  10  19  34  59  81 106 142 187 233 255 318
#     4  10  20  37  56  77 109 147 194 209 271 323
#     4  10  19  34  58  86 109 137 185 222 270 315
#     4  10  21  35  55  81 108 141 188 225 268 319
#     4   9  22  32  56  79 111 142 186 227 283 310
#
# _framework density 25.316102999999998
#
# number of rings (size 3 to 8) (size 9 to 14) (size 15 to 20)
#    0.750    1.250    1.250    2.625    3.500    0.000 
#    0.000    1.250    0.000    4.500    0.000    0.000 
#    0.000    0.000    0.000    0.000    0.000    0.000 
#
# Total GULP energy -89394.676534 kJ/mol
# GULP energy per Si atom -5587.167283 kJ/mol
# Density = 2.525848 g / cm^3
# Si number density = 25.316103 Si / 1000 Ang^3
#
#
#
# Elastic Constant Matrix: (Units=GPa)
#
#
# Indices 1 2 3 4 5 6 
#
# 1 70.4509 23.8669 52.1802 1.5941 26.9111 -10.5429
# 2 23.8669 52.0765 32.5720 2.2889 19.6175 -4.3737
# 3 52.1802 32.5720 183.3121 29.8398 22.4739 -8.5512
# 4 1.5941 2.2889 29.8398 32.2862 5.5267 -11.6721
# 5 26.9111 19.6175 22.4739 5.5267 43.7659 -1.0762
# 6 -10.5429 -4.3737 -8.5512 -11.6721 -1.0762 53.1229
#
#
#
# Elastic Compliance Matrix: (Units=1/GPa)
#
#
# Indices 1 2 3 4 5 6 
#
# 1 0.024985 -0.003010 -0.006314 0.008772 -0.011747 0.005384
# 2 -0.003010 0.025704 -0.003129 0.003223 -0.008433 0.001553
# 3 -0.006314 -0.003129 0.008921 -0.008719 0.001757 -0.001955
# 4 0.008772 0.003223 -0.008719 0.043266 -0.007580 0.009956
# 5 -0.011747 -0.008433 0.001757 -0.007580 0.033815 -0.003723
# 6 0.005384 0.001553 -0.001955 0.009956 -0.003723 0.021818
#
#
# Mechanical properties :
#
#
# Convention : Reuss Voigt Hill
#
# Bulk Modulus (GPa) = 28.81418 58.11973 43.46696
# Shear Modulus (GPa) = 25.64325 38.98304 32.31315
#
# Velocity S-wave (km/s) = 3.18610 3.92835 3.57653
# Velocity P-wave (km/s) = 4.99414 6.60177 5.85341
#
# Compressibility (1/GPa) = 0.03470513
#
# Stress axis : x y z
#
# Youngs Moduli (GPa) = 40.02477 38.90375 112.09397
#
# Poissons Ratio (x) = 0.11709 0.70773
# Poissons Ratio (y) = 0.12047 0.35073
# Poissons Ratio (z) = 0.25271 0.12173
#
# Static dielectric constant tensor:
#      x y z
#    x 2.062430 0.011100 0.030520 
#    y 0.011100 1.991970 -0.009930 
#    z 0.030520 -0.009930 2.036740 
# 
# From -- ./inp_files/51174.got.cif
#   From: 2010.05.17/outbox.cif.g08.bks.cpg/sg2_26_cif.got.tgz:51174.got - 2010.06.03 11:33:40.
