data_PCOD9083978
_publ_section_title
;
Structure prediction by ZEFSAII (Michael W. Deem and Ramdas Pophale) SiO2 
 PCOD9083978
Probable space group: P -1
;
_chemical_formula_sum "Si O2"
_cell_formula_units_Z 16
_cell_length_a 17.118830
_cell_length_b 5.424164
_cell_length_c 9.497013
_cell_angle_alpha 82.409765
_cell_angle_beta 121.382036
_cell_angle_gamma 83.546185
_cell_volume 728.944414
_symmetry_space_group_name_H-M "P -1"
_symmetry_group_IT_number 2
_symmetry_cell_setting 'triclinic'
loop_
_space_group_symop_operation_xyz
x,y,z
-x,-y,-z
loop_
_atom_site_type_symbol
_atom_site_label
_atom_site_fract_x
_atom_site_fract_y
_atom_site_fract_z
Si Si1 0.110000 0.896601 0.148079
Si Si2 0.874055 0.076395 0.522298
Si Si3 0.442196 0.588878 0.225554
Si Si4 0.694780 0.953601 0.477440
Si Si5 0.512960 0.909074 0.859584
Si Si6 0.648857 0.449906 0.573144
Si Si7 0.899063 0.565335 0.980933
Si Si8 0.949160 0.366830 0.344513
O O1 0.117477 0.805534 0.323888
O O2 0.147790 0.661948 0.099005
O O3 0.147135 0.152472 0.133881
O O4 0.000000 0.000000 0.000000
O O5 0.969289 0.861684 0.618566
O O6 0.780634 0.966484 0.453608
O O7 0.874227 0.253141 0.373289
O O8 0.443687 0.386556 0.114980
O O9 0.545996 0.516813 0.397565
O O10 0.370699 0.541835 0.280630
O O11 0.429218 0.890056 0.163228
O O12 0.592279 0.033342 0.305248
O O13 0.693665 0.171462 0.577554
O O14 0.700168 0.669618 0.557210
O O15 0.500000 0.000000 0.000000
O O16 0.911840 0.540028 0.162710
O O17 0.000000 0.500000 0.000000
O O18 0.000000 0.500000 0.500000
#
# Coordination Sequence:
#
# PCOD9083978 Si02
#       8
#     2   2   2   2   2   2   2   2
#     4  10  19  36  58  81 104 143 188 244 287 349
#     4  11  24  37  60  86 117 155 205 254 298 359
#     4   9  17  32  60  86 108 146 193 235 268 348
#     4  10  22  36  57  85 117 151 189 243 295 339
#     4  10  19  34  59  87 118 161 192 222 282 352
#     4   9  18  35  57  85 114 140 187 239 293 329
#     4  10  19  35  58  81 108 137 191 247 289 348
#     4  11  23  37  61  86 112 160 209 250 298 358
#
# _framework density 21.949549000000001
#
# number of rings (size 3 to 8) (size 9 to 14) (size 15 to 20)
#    0.000    2.000    2.500    2.625    3.500    3.000 
#    0.000    0.000    8.250    0.000    0.000    0.000 
#    0.000    0.000    0.000    0.000    0.000    0.000 
#
# Total GULP energy -89307.795591 kJ/mol
# GULP energy per Si atom -5581.737224 kJ/mol
# Density = 2.189959 g / cm^3
# Si number density = 21.949549 Si / 1000 Ang^3
#
#
#
# Elastic Constant Matrix: (Units=GPa)
#
#
# Indices 1 2 3 4 5 6 
#
# 1 101.1642 52.1953 25.8540 -2.8672 -24.3415 25.6608
# 2 52.1953 148.8369 38.6965 16.5948 -7.1026 17.2716
# 3 25.8540 38.6965 68.5243 13.9491 -26.0707 -2.0012
# 4 -2.8672 16.5948 13.9491 37.8588 -4.2528 -6.0631
# 5 -24.3415 -7.1026 -26.0707 -4.2528 30.8909 -6.3497
# 6 25.6608 17.2716 -2.0012 -6.0631 -6.3497 31.3220
#
#
#
# Elastic Compliance Matrix: (Units=1/GPa)
#
#
# Indices 1 2 3 4 5 6 
#
# 1 0.017464 -0.004754 -0.000837 0.003479 0.010608 -0.008916
# 2 -0.004754 0.010856 -0.006930 -0.004375 -0.008761 -0.005157
# 3 -0.000837 -0.006930 0.028864 -0.003297 0.023820 0.010542
# 4 0.003479 -0.004375 -0.003297 0.031340 0.004572 0.006345
# 5 0.010608 -0.008761 0.023820 0.004572 0.061723 0.011060
# 6 -0.008916 -0.005157 0.010542 0.006345 0.011060 0.046219
#
#
# Mechanical properties :
#
#
# Convention : Reuss Voigt Hill
#
# Bulk Modulus (GPa) = 31.11164 61.33522 46.22343
# Shear Modulus (GPa) = 21.53121 33.46633 27.49877
#
# Velocity S-wave (km/s) = 3.13540 3.90897 3.54336
# Velocity P-wave (km/s) = 5.22614 6.95541 6.15184
#
# Compressibility (1/GPa) = 0.03214231
#
# Stress axis : x y z
#
# Youngs Moduli (GPa) = 57.26012 92.11658 34.64491
#
# Poissons Ratio (x) = 0.43790 0.02901
# Poissons Ratio (y) = 0.27220 0.24009
# Poissons Ratio (z) = 0.04794 0.63836
#
# Static dielectric constant tensor:
#      x y z
#    x 1.817780 0.024670 0.021900 
#    y 0.024670 1.859970 0.011490 
#    z 0.021900 0.011490 1.848550 
# 
# From -- ./inp_files/51474.got.cif
#   From: 2010.05.17/outbox.cif.g08.bks.cpg/sg2_26_cif.got.tgz:51474.got - 2010.06.03 11:33:40.
