data_PCOD9083721
_publ_section_title
;
Structure prediction by ZEFSAII (Michael W. Deem and Ramdas Pophale) SiO2 
 PCOD9083721
Probable space group: P -1
;
_chemical_formula_sum "Si O2"
_cell_formula_units_Z 16
_cell_length_a 17.840157
_cell_length_b 18.167347
_cell_length_c 9.358689
_cell_angle_alpha 62.914212
_cell_angle_beta 74.636235
_cell_angle_gamma 19.368844
_cell_volume 743.552941
_symmetry_space_group_name_H-M "P -1"
_symmetry_group_IT_number 2
_symmetry_cell_setting 'triclinic'
loop_
_space_group_symop_operation_xyz
x,y,z
-x,-y,-z
loop_
_atom_site_type_symbol
_atom_site_label
_atom_site_fract_x
_atom_site_fract_y
_atom_site_fract_z
Si Si1 0.403855 0.398662 0.595879
Si Si2 0.780896 0.330950 0.251490
Si Si3 0.640370 0.764713 0.967665
Si Si4 0.136412 0.500226 0.622589
Si Si5 0.027640 0.709590 0.946996
Si Si6 0.407413 0.634647 0.578157
Si Si7 0.033093 0.352281 0.727613
Si Si8 0.252018 0.224496 0.327875
O O1 0.309552 0.532284 0.677215
O O2 0.201868 0.529847 0.547968
O O3 0.420234 0.456532 0.421397
O O4 0.711803 0.050701 0.769577
O O5 0.596738 0.435783 0.242698
O O6 0.796224 0.386594 0.075812
O O7 0.093571 0.982719 0.416073
O O8 0.653444 0.748060 0.146214
O O9 0.856865 0.476886 0.055345
O O10 0.701828 0.789958 0.841611
O O11 0.351929 0.027816 0.822176
O O12 0.134076 0.467370 0.492749
O O13 0.846706 0.767501 0.601683
O O14 0.045784 0.649531 0.145868
O O15 0.500000 0.500000 0.500000
O O16 0.985482 0.476572 0.748962
O O17 0.500000 0.000000 0.500000
#
# Coordination Sequence:
#
# PCOD9083721 Si02
#       8
#     2   2   2   2   2   2   2   2
#     4  10  19  34  57  89 120 151 204 240 296 350
#     4   9  15  31  55  85 123 156 194 238 291 349
#     4  11  23  43  59  87 116 154 204 246 300 357
#     4  12  23  40  63  85 119 158 195 256 296 347
#     4  10  19  37  59  84 122 154 196 247 288 357
#     4   8  16  28  52  88 122 156 191 241 286 352
#     4  11  24  42  59  85 122 154 200 251 299 353
#     4  11  25  44  61  83 118 157 203 248 304 355
#
# _framework density 21.518308000000001
#
# number of rings (size 3 to 8) (size 9 to 14) (size 15 to 20)
#    0.000    1.750    3.750    0.750    0.000    1.500 
#    0.000    0.000    0.000    0.750    0.000   35.875 
#    0.000    0.000    0.000    0.000    0.000    0.000 
#
# Total GULP energy -89246.301901 kJ/mol
# GULP energy per Si atom -5577.893869 kJ/mol
# Density = 2.146933 g / cm^3
# Si number density = 21.518308 Si / 1000 Ang^3
#
#
#
# Elastic Constant Matrix: (Units=GPa)
#
#
# Indices 1 2 3 4 5 6 
#
# 1 138.1297 40.6660 47.0041 21.1362 -29.6745 -52.2983
# 2 40.6660 107.6224 22.7378 -1.1125 -13.6487 3.8332
# 3 47.0041 22.7378 83.1347 26.4806 -8.6101 -13.4640
# 4 21.1362 -1.1125 26.4806 37.5000 -11.4928 -19.3237
# 5 -29.6745 -13.6487 -8.6101 -11.4928 27.5420 20.8690
# 6 -52.2983 3.8332 -13.4640 -19.3237 20.8690 50.0301
#
#
#
# Elastic Compliance Matrix: (Units=1/GPa)
#
#
# Indices 1 2 3 4 5 6 
#
# 1 0.017876 -0.005538 -0.006907 0.004717 0.002737 0.017932
# 2 -0.005538 0.013270 -0.001994 0.002400 0.008552 -0.009983
# 3 -0.006907 -0.001994 0.019671 -0.014148 -0.003947 -0.005592
# 4 0.004717 0.002400 -0.014148 0.044252 0.009725 0.013975
# 5 0.002737 0.008552 -0.003947 0.009725 0.062296 -0.021085
# 6 0.017932 -0.009983 -0.005592 0.013975 -0.021085 0.052186
#
#
# Mechanical properties :
#
#
# Convention : Reuss Voigt Hill
#
# Bulk Modulus (GPa) = 45.57923 61.07808 53.32865
# Shear Modulus (GPa) = 20.34644 37.57969 28.96306
#
# Velocity S-wave (km/s) = 3.07830 4.18354 3.67273
# Velocity P-wave (km/s) = 5.81912 7.19596 6.54385
#
# Compressibility (1/GPa) = 0.02193982
#
# Stress axis : x y z
#
# Youngs Moduli (GPa) = 55.94038 75.35527 50.83502
#
# Poissons Ratio (x) = 0.41733 0.35113
# Poissons Ratio (y) = 0.30980 0.10136
# Poissons Ratio (z) = 0.38639 0.15025
#
# Static dielectric constant tensor:
#      x y z
#    x 1.843950 -0.039890 -0.046780 
#    y -0.039890 1.820040 0.008510 
#    z -0.046780 0.008510 1.760290 
# 
# From -- ./inp_files/336498.got.cif
#   From: 2010.05.17/outbox.cif.g08.bks.cpg/sg2_169_cif.got.tgz:336498.got - 2010.06.03 11:33:40.
