data_PCOD9083944
_publ_section_title
;
Structure prediction by ZEFSAII (Michael W. Deem and Ramdas Pophale) SiO2 
 PCOD9083944
Probable space group: P -1
;
_chemical_formula_sum "Si O2"
_cell_formula_units_Z 12
_cell_length_a 9.492538
_cell_length_b 9.492460
_cell_length_c 19.207184
_cell_angle_alpha 145.713609
_cell_angle_beta 145.713790
_cell_angle_gamma 48.488482
_cell_volume 548.142547
_symmetry_space_group_name_H-M "P -1"
_symmetry_group_IT_number 2
_symmetry_cell_setting 'triclinic'
loop_
_space_group_symop_operation_xyz
x,y,z
-x,-y,-z
loop_
_atom_site_type_symbol
_atom_site_label
_atom_site_fract_x
_atom_site_fract_y
_atom_site_fract_z
Si Si1 0.212014 0.320786 0.728774
Si Si2 0.179220 0.287990 0.271229
Si Si3 0.553237 0.053239 0.426127
Si Si4 0.716394 0.612267 0.059366
Si Si5 0.112254 0.216399 0.059361
Si Si6 0.208687 0.708699 0.239397
O O1 0.255950 0.095074 0.602826
O O2 0.262463 0.252187 0.802026
O O3 0.951634 0.451633 0.669512
O O4 0.435911 0.534715 0.892452
O O5 0.404936 0.244057 0.397179
O O6 0.247808 0.237542 0.197971
O O7 0.965298 0.064086 0.107552
O O8 0.347130 0.847142 0.289338
O O9 0.681382 0.181380 0.598111
O O10 0.910895 0.740727 0.136518
O O11 0.849698 0.349706 0.020507
O O12 0.240707 0.410902 0.136511
#
# Coordination Sequence:
#
# PCOD9083944 Si02
#       6
#     2   2   2   2   2   2
#     4  10  19  34  59  85 106 140 186 232 271 320
#     4  10  19  34  59  85 106 140 186 232 271 320
#     4  11  21  37  59  77 116 151 180 221 275 328
#     4   8  17  36  55  78 110 140 178 225 272 319
#     4   8  17  36  55  78 110 140 178 225 272 319
#     4   9  21  39  55  77 116 157 174 219 281 326
#
# _framework density 21.892115
#
# number of rings (size 3 to 8) (size 9 to 14) (size 15 to 20)
#    1.000    1.667    1.667    0.000    2.333    4.000 
#    0.000    8.333    0.000    0.000    0.000    0.000 
#    0.000    0.000    0.000    0.000    0.000    0.000 
#
# Total GULP energy -66959.297071 kJ/mol
# GULP energy per Si atom -5579.941423 kJ/mol
# Density = 2.184229 g / cm^3
# Si number density = 21.892115 Si / 1000 Ang^3
#
#
#
# Elastic Constant Matrix: (Units=GPa)
#
#
# Indices 1 2 3 4 5 6 
#
# 1 75.7257 33.1104 38.7421 3.4851 -4.0561 7.1247
# 2 33.1104 79.0139 32.6051 -10.5613 -11.1152 -9.0908
# 3 38.7421 32.6051 83.3114 -5.7396 -12.3027 3.6483
# 4 3.4851 -10.5613 -5.7396 35.3437 6.9515 -0.5974
# 5 -4.0561 -11.1152 -12.3027 6.9515 47.0083 8.3905
# 6 7.1247 -9.0908 3.6483 -0.5974 8.3905 24.9915
#
#
#
# Elastic Compliance Matrix: (Units=1/GPa)
#
#
# Indices 1 2 3 4 5 6 
#
# 1 0.021068 -0.007663 -0.006758 -0.005706 0.000531 -0.008122
# 2 -0.007663 0.019531 -0.004066 0.006056 0.000221 0.009953
# 3 -0.006758 -0.004066 0.017483 0.001574 0.003369 -0.003198
# 4 -0.005706 0.006056 0.001574 0.031887 -0.004407 0.005842
# 5 0.000531 0.000221 0.003369 -0.004407 0.024491 -0.008891
# 6 -0.008122 0.009953 -0.003198 0.005842 -0.008891 0.049541
#
#
# Mechanical properties :
#
#
# Convention : Reuss Voigt Hill
#
# Bulk Modulus (GPa) = 47.37297 49.66291 48.51794
# Shear Modulus (GPa) = 24.03724 30.37491 27.20608
#
# Velocity S-wave (km/s) = 3.31718 3.72893 3.52907
# Velocity P-wave (km/s) = 6.02975 6.42452 6.23026
#
# Compressibility (1/GPa) = 0.02110908
#
# Stress axis : x y z
#
# Youngs Moduli (GPa) = 47.46445 51.20169 57.19825
#
# Poissons Ratio (x) = 0.39234 0.38652
# Poissons Ratio (y) = 0.36370 0.23259
# Poissons Ratio (z) = 0.32074 0.20820
#
# Static dielectric constant tensor:
#      x y z
#    x 1.799500 0.020690 0.033660 
#    y 0.020690 1.764780 0.015690 
#    z 0.033660 0.015690 1.873540 
# 
# From -- ./inp_files/209642.got.cif
#   From: 2010.05.17/outbox.cif.g08.bks.cpg/sg2_105_cif.got.tgz:209642.got - 2010.06.03 11:33:40.
