data_PCOD9083913
_publ_section_title
;
Structure prediction by ZEFSAII (Michael W. Deem and Ramdas Pophale) SiO2 
 PCOD9083913
Probable space group: P -1
;
_chemical_formula_sum "Si O2"
_cell_formula_units_Z 16
_cell_length_a 21.674165
_cell_length_b 8.676543
_cell_length_c 6.475922
_cell_angle_alpha 110.354015
_cell_angle_beta 129.442490
_cell_angle_gamma 51.099967
_cell_volume 729.278920
_symmetry_space_group_name_H-M "P -1"
_symmetry_group_IT_number 2
_symmetry_cell_setting 'triclinic'
loop_
_space_group_symop_operation_xyz
x,y,z
-x,-y,-z
loop_
_atom_site_type_symbol
_atom_site_label
_atom_site_fract_x
_atom_site_fract_y
_atom_site_fract_z
Si Si1 0.873771 0.544643 0.315454
Si Si2 0.407955 0.013420 0.711022
Si Si3 0.317746 0.359245 0.971441
Si Si4 0.941752 0.185665 0.617082
Si Si5 0.980032 0.652665 0.845036
Si Si6 0.272111 0.658565 0.668210
Si Si7 0.415546 0.258586 0.525457
Si Si8 0.422066 0.735107 0.919011
O O1 0.907011 0.372724 0.477948
O O2 0.886361 0.702857 0.538293
O O3 0.938816 0.462151 0.212057
O O4 0.769342 0.602360 0.055503
O O5 0.396651 0.098594 0.499487
O O6 0.324519 0.204224 0.749845
O O7 0.500000 0.000000 0.000000
O O8 0.411612 0.822684 0.707228
O O9 0.407512 0.279068 0.273960
O O10 0.299738 0.545787 0.894659
O O11 0.844114 0.221324 0.526861
O O12 0.000000 0.000000 0.500000
O O13 0.008345 0.186573 0.940221
O O14 0.000000 0.500000 0.000000
O O15 0.333112 0.474162 0.550112
O O16 0.320599 0.780979 0.802407
O O17 0.520641 0.193632 0.797197
O O18 0.500000 0.500000 0.000000
#
# Coordination Sequence:
#
# PCOD9083913 Si02
#       8
#     2   2   2   2   2   2   2   2
#     4   9  19  36  59  83 110 149 201 242 285 348
#     4   9  19  35  54  81 114 145 188 236 277 336
#     4  10  19  34  59  81 107 149 199 233 279 341
#     4  10  20  35  59  82 118 153 189 241 299 355
#     4   9  18  36  58  81 108 146 193 241 293 338
#     4   9  19  36  55  81 115 148 189 237 288 347
#     4   9  18  34  60  81 109 153 191 233 286 338
#     4   9  18  35  55  79 116 149 179 233 287 340
#
# _framework density 21.939481000000001
#
# number of rings (size 3 to 8) (size 9 to 14) (size 15 to 20)
#    0.000    2.750    0.000    1.500    0.000    4.000 
#    6.750    2.500    8.250    0.000    0.000    0.000 
#    0.000    0.000    0.000    0.000    0.000    0.000 
#
# Total GULP energy -89079.722834 kJ/mol
# GULP energy per Si atom -5567.482677 kJ/mol
# Density = 2.188955 g / cm^3
# Si number density = 21.939481 Si / 1000 Ang^3
#
#
#
# Elastic Constant Matrix: (Units=GPa)
#
#
# Indices 1 2 3 4 5 6 
#
# 1 136.9777 27.5223 32.1657 12.7385 13.6757 9.2881
# 2 27.5223 53.5315 18.4231 10.4471 8.3399 6.1075
# 3 32.1657 18.4231 99.1738 20.0864 2.4887 5.5047
# 4 12.7385 10.4471 20.0864 24.0527 -1.4917 -11.8591
# 5 13.6757 8.3399 2.4887 -1.4917 25.8221 -5.6140
# 6 9.2881 6.1075 5.5047 -11.8591 -5.6140 35.4575
#
#
#
# Elastic Compliance Matrix: (Units=1/GPa)
#
#
# Indices 1 2 3 4 5 6 
#
# 1 0.009382 -0.001829 -0.001060 -0.006061 -0.005692 -0.004906
# 2 -0.001829 0.025754 0.000015 -0.016385 -0.010718 -0.011136
# 3 -0.001060 0.000015 0.013943 -0.014941 -0.003260 -0.007403
# 4 -0.006061 -0.016385 -0.014941 0.084972 0.023294 0.038837
# 5 -0.005692 -0.010718 -0.003260 0.023294 0.051153 0.019733
# 6 -0.004906 -0.011136 -0.007403 0.038837 0.019733 0.048669
#
#
# Mechanical properties :
#
#
# Convention : Reuss Voigt Hill
#
# Bulk Modulus (GPa) = 23.07898 49.54500 36.31199
# Shear Modulus (GPa) = 19.67993 31.17125 25.42559
#
# Velocity S-wave (km/s) = 2.99826 3.77342 3.40795
# Velocity P-wave (km/s) = 4.74640 6.45109 5.66325
#
# Compressibility (1/GPa) = 0.04332947
#
# Stress axis : x y z
#
# Youngs Moduli (GPa) = 106.59196 38.82880 71.71945
#
# Poissons Ratio (x) = 0.07102 0.07605
# Poissons Ratio (y) = 0.19497 -0.00106
# Poissons Ratio (z) = 0.11302 -0.00057
#
# Static dielectric constant tensor:
#      x y z
#    x 1.870230 -0.033510 0.048640 
#    y -0.033510 1.901270 0.014750 
#    z 0.048640 0.014750 1.825330 
# 
# From -- ./inp_files/117274.got.cif
#   From: 2010.05.17/outbox.cif.g08.bks.cpg/sg2_59_cif.got.tgz:117274.got - 2010.06.03 11:33:40.
