data_PCOD9083377
_publ_section_title
;
Structure prediction by ZEFSAII (Michael W. Deem and Ramdas Pophale) SiO2 
 PCOD9083377
Probable space group: P -1
;
_chemical_formula_sum "Si O2"
_cell_formula_units_Z 12
_cell_length_a 11.187758
_cell_length_b 6.781342
_cell_length_c 13.314949
_cell_angle_alpha 78.892604
_cell_angle_beta 139.119865
_cell_angle_gamma 73.015675
_cell_volume 474.681190
_symmetry_space_group_name_H-M "P -1"
_symmetry_group_IT_number 2
_symmetry_cell_setting 'triclinic'
loop_
_space_group_symop_operation_xyz
x,y,z
-x,-y,-z
loop_
_atom_site_type_symbol
_atom_site_label
_atom_site_fract_x
_atom_site_fract_y
_atom_site_fract_z
Si Si1 0.371543 0.757387 0.025202
Si Si2 0.528086 0.522234 0.673731
Si Si3 0.844450 0.785017 0.816390
Si Si4 0.105793 0.740532 0.666680
Si Si5 0.090077 0.803920 0.224700
Si Si6 0.663452 0.882749 0.476630
O O1 0.438326 0.578805 0.183682
O O2 0.654088 0.572784 0.183211
O O3 0.214190 0.772002 0.832658
O O4 0.178702 0.066872 0.918701
O O5 0.299533 0.593078 0.460755
O O6 0.777601 0.331511 0.784207
O O7 0.438026 0.816451 0.598486
O O8 0.605483 0.021185 0.711512
O O9 0.941332 0.929112 0.827992
O O10 0.776656 0.736801 0.670109
O O11 0.000000 0.500000 0.000000
O O12 0.000000 0.000000 0.500000
O O13 0.878397 0.758310 0.544898
#
# Coordination Sequence:
#
# PCOD9083377 Si02
#       6
#     2   2   2   2   2   2
#     4  11  19  31  52  80 108 143 180 220 273 319
#     4  10  19  34  55  79 116 135 183 228 273 322
#     4  10  20  33  54  77 114 141 179 219 270 331
#     4  11  21  33  53  79 116 140 181 233 267 317
#     4  10  20  35  53  84 109 145 177 227 277 318
#     4  10  20  35  52  84 107 142 179 224 277 312
#
# _framework density 25.280127
#
# number of rings (size 3 to 8) (size 9 to 14) (size 15 to 20)
#    0.000    1.667    5.000    1.500    0.000    0.000 
#    0.000    0.000    0.000    1.000    0.000   25.667 
#    0.000    0.000    0.000    0.000    0.000    0.000 
#
# Total GULP energy -66910.761631 kJ/mol
# GULP energy per Si atom -5575.896803 kJ/mol
# Density = 2.522259 g / cm^3
# Si number density = 25.280127 Si / 1000 Ang^3
#
#
#
# Elastic Constant Matrix: (Units=GPa)
#
#
# Indices 1 2 3 4 5 6 
#
# 1 151.1643 8.6681 72.4440 -14.8097 24.6693 -29.2829
# 2 8.6681 36.1027 22.0223 -9.6369 2.4094 -17.5183
# 3 72.4440 22.0223 171.4195 -23.2909 -11.0099 -19.2622
# 4 -14.8097 -9.6369 -23.2909 47.3272 -21.5793 7.2938
# 5 24.6693 2.4094 -11.0099 -21.5793 80.4615 -15.7243
# 6 -29.2829 -17.5183 -19.2622 7.2938 -15.7243 37.8033
#
#
#
# Elastic Compliance Matrix: (Units=1/GPa)
#
#
# Indices 1 2 3 4 5 6 
#
# 1 0.010004 0.003147 -0.004183 -0.000436 -0.002669 0.006051
# 2 0.003147 0.039572 -0.003329 0.005669 0.002645 0.019086
# 3 -0.004183 -0.003329 0.008879 0.004024 0.003782 0.000538
# 4 -0.000436 0.005669 0.004024 0.027570 0.008400 0.002514
# 5 -0.002669 0.002645 0.003782 0.008400 0.017234 0.006633
# 6 0.006051 0.019086 0.000538 0.002514 0.006633 0.042532
#
#
# Mechanical properties :
#
#
# Convention : Reuss Voigt Hill
#
# Bulk Modulus (GPa) = 20.11046 62.77282 41.44164
# Shear Modulus (GPa) = 29.22325 50.15520 39.68922
#
# Velocity S-wave (km/s) = 3.40365 4.45902 3.96659
# Velocity P-wave (km/s) = 4.83930 7.16905 6.11613
#
# Compressibility (1/GPa) = 0.04972536
#
# Stress axis : x y z
#
# Youngs Moduli (GPa) = 99.95573 25.27068 112.62216
#
# Poissons Ratio (x) = -0.07953 0.47111
# Poissons Ratio (y) = -0.31459 0.37494
# Poissons Ratio (z) = 0.41812 0.08413
#
# Static dielectric constant tensor:
#      x y z
#    x 2.038070 0.062570 0.117490 
#    y 0.062570 2.159590 0.086930 
#    z 0.117490 0.086930 2.127390 
# 
# From -- ./inp_files/246575.got.cif
#   From: 2010.05.17/outbox.cif.g08.bks.cpg/sg2_124_cif.got.tgz:246575.got - 2010.06.03 11:33:40.
