data_PCOD9083036
_publ_section_title
;
Structure prediction by ZEFSAII (Michael W. Deem and Ramdas Pophale) SiO2 
 PCOD9083036
Probable space group: P -1
;
_chemical_formula_sum "Si O2"
_cell_formula_units_Z 16
_cell_length_a 24.724832
_cell_length_b 9.289247
_cell_length_c 5.333023
_cell_angle_alpha 70.076202
_cell_angle_beta 56.311502
_cell_angle_gamma 47.673676
_cell_volume 752.424669
_symmetry_space_group_name_H-M "P -1"
_symmetry_group_IT_number 2
_symmetry_cell_setting 'triclinic'
loop_
_space_group_symop_operation_xyz
x,y,z
-x,-y,-z
loop_
_atom_site_type_symbol
_atom_site_label
_atom_site_fract_x
_atom_site_fract_y
_atom_site_fract_z
Si Si1 0.707507 0.075897 0.648027
Si Si2 0.528965 0.280686 0.099393
Si Si3 0.538533 0.614524 0.289680
Si Si4 0.208570 0.265487 0.703586
Si Si5 0.849921 0.921000 0.762097
Si Si6 0.009237 0.884263 0.292873
Si Si7 0.719831 0.332616 0.116859
Si Si8 0.191561 0.483404 0.111207
O O1 0.696932 0.261462 0.456951
O O2 0.716853 0.950780 0.458602
O O3 0.791583 0.951227 0.665519
O O4 0.627209 0.142504 0.966666
O O5 0.481736 0.279157 0.455865
O O6 0.500000 0.500000 0.000000
O O7 0.505106 0.244013 0.916603
O O8 0.500000 0.500000 0.500000
O O9 0.636596 0.459538 0.092666
O O10 0.188744 0.396075 0.433826
O O11 0.141626 0.234749 0.978997
O O12 0.221827 0.345173 0.871927
O O13 0.936402 0.865267 0.492907
O O14 0.795238 0.133752 0.907411
O O15 0.098908 0.676385 0.181586
O O16 0.000000 0.000000 0.500000
O O17 0.000000 0.000000 0.000000
O O18 0.750294 0.454920 0.037867
#
# Coordination Sequence:
#
# PCOD9083036 Si02
#       8
#     2   2   2   2   2   2   2   2
#     4  11  22  42  69 102 132 173 229 277 330 397
#     4  10  19  33  60  96 131 157 214 284 329 370
#     4  10  19  34  55 103 125 161 211 284 331 377
#     4  11  27  46  65  97 139 186 223 263 336 410
#     4  11  24  44  71 102 129 181 230 270 333 394
#     4  12  26  46  71 106 138 166 223 291 336 379
#     4  11  23  37  73  98 134 170 229 282 333 397
#     4  12  26  47  66  99 138 183 215 279 339 403
#
# _framework density 21.264589000000001
#
# number of rings (size 3 to 8) (size 9 to 14) (size 15 to 20)
#    0.000    1.000    5.000    3.000    5.250    1.000 
#    0.000    0.000    0.000    4.500    0.000    0.000 
#    0.000    0.000    0.000    0.000    0.000    0.000 
#
# Total GULP energy -89367.539667 kJ/mol
# GULP energy per Si atom -5585.471229 kJ/mol
# Density = 2.121619 g / cm^3
# Si number density = 21.264589 Si / 1000 Ang^3
#
#
#
# Elastic Constant Matrix: (Units=GPa)
#
#
# Indices 1 2 3 4 5 6 
#
# 1 115.3309 55.0759 52.6197 -4.1359 7.3735 -2.1574
# 2 55.0759 58.6846 43.2845 -15.4142 -9.2220 11.4251
# 3 52.6197 43.2845 100.4617 -12.5366 17.3030 2.2803
# 4 -4.1359 -15.4142 -12.5366 32.8280 -9.1117 5.6792
# 5 7.3735 -9.2220 17.3030 -9.1117 50.9599 8.6623
# 6 -2.1574 11.4251 2.2803 5.6792 8.6623 36.1300
#
#
#
# Elastic Compliance Matrix: (Units=1/GPa)
#
#
# Indices 1 2 3 4 5 6 
#
# 1 0.032417 -0.052946 0.005907 -0.031108 -0.026878 0.029639
# 2 -0.052946 0.133843 -0.030561 0.075799 0.068013 -0.071778
# 3 0.005907 -0.030561 0.021220 -0.013283 -0.018551 0.015213
# 4 -0.031108 0.075799 -0.013283 0.077789 0.044789 -0.047954
# 5 -0.026878 0.068013 -0.018551 0.044789 0.057393 -0.042742
# 6 0.029639 -0.071778 0.015213 -0.047954 -0.042742 0.068971
#
#
# Mechanical properties :
#
#
# Convention : Reuss Voigt Hill
#
# Bulk Modulus (GPa) = 30.97847 64.04861 47.51354
# Shear Modulus (GPa) = 8.96714 32.21671 20.59193
#
# Velocity S-wave (km/s) = 2.05575 3.89657 3.11524
# Velocity P-wave (km/s) = 4.49828 7.10138 5.94408
#
# Compressibility (1/GPa) = 0.03228048
#
# Stress axis : x y z
#
# Youngs Moduli (GPa) = 30.84823 7.47143 47.12601
#
# Poissons Ratio (x) = 0.39558 -0.27838
# Poissons Ratio (y) = 1.63328 1.44023
# Poissons Ratio (z) = -0.18223 0.22834
#
# Static dielectric constant tensor:
#      x y z
#    x 1.760010 -0.009870 0.007600 
#    y -0.009870 1.783300 -0.015830 
#    z 0.007600 -0.015830 1.720990 
# 
# From -- ./inp_files/122862.got.cif
#   From: 2010.05.17/outbox.cif.g08.bks.cpg/sg2_62_cif.got.tgz:122862.got - 2010.06.03 11:33:40.
