data_PCOD9083610
_publ_section_title
;
Structure prediction by ZEFSAII (Michael W. Deem and Ramdas Pophale) SiO2 
 PCOD9083610
Probable space group: P -1
;
_chemical_formula_sum "Si O2"
_cell_formula_units_Z 16
_cell_length_a 19.612970
_cell_length_b 7.486156
_cell_length_c 21.683090
_cell_angle_alpha 134.056692
_cell_angle_beta 160.048545
_cell_angle_gamma 55.100454
_cell_volume 736.321377
_symmetry_space_group_name_H-M "P -1"
_symmetry_group_IT_number 2
_symmetry_cell_setting 'triclinic'
loop_
_space_group_symop_operation_xyz
x,y,z
-x,-y,-z
loop_
_atom_site_type_symbol
_atom_site_label
_atom_site_fract_x
_atom_site_fract_y
_atom_site_fract_z
Si Si1 0.779739 0.265742 0.745290
Si Si2 0.652570 0.536795 0.872013
Si Si3 0.916957 0.718083 0.326733
Si Si4 0.954404 0.307761 0.357274
Si Si5 0.377771 0.276539 0.461241
Si Si6 0.399641 0.171303 0.996728
Si Si7 0.029633 0.008837 0.248187
Si Si8 0.986414 0.569399 0.766482
O O1 0.566108 0.339711 0.586780
O O2 0.811895 0.131418 0.676706
O O3 0.745764 0.037310 0.713999
O O4 0.000000 0.500000 0.000000
O O5 0.501926 0.350566 0.649679
O O6 0.509337 0.634839 0.822513
O O7 0.812713 0.780734 0.028330
O O8 0.809196 0.424069 0.017828
O O9 0.887048 0.482267 0.291689
O O10 0.692616 0.680891 0.096408
O O11 0.054876 0.676905 0.375652
O O12 0.000000 0.000000 0.500000
O O13 0.000000 0.500000 0.500000
O O14 0.788993 0.048320 0.182114
O O15 0.105447 0.191464 0.417116
O O16 0.207453 0.428103 0.353949
O O17 0.500000 0.000000 0.000000
O O18 0.984306 0.183310 0.195565
#
# Coordination Sequence:
#
# PCOD9083610 Si02
#       8
#     2   2   2   2   2   2   2   2
#     4  10  19  38  64  92 126 158 202 258 308 364
#     4  10  20  39  61  86 122 160 208 251 302 369
#     4  10  19  34  57  81 118 157 198 253 301 352
#     4  10  19  34  57  86 112 158 204 232 301 365
#     4  10  21  37  67  89 118 171 200 246 322 363
#     4  10  22  34  54  85 119 155 196 255 300 347
#     4   9  19  37  60  81 125 162 187 267 306 338
#     4   9  21  38  59  89 122 157 209 255 301 366
#
# _framework density 21.729642999999999
#
# number of rings (size 3 to 8) (size 9 to 14) (size 15 to 20)
#    0.000    2.250    2.500    0.000    1.750    1.500 
#    0.000    8.750    0.000    0.000    0.000    0.000 
#    0.000    0.000    0.000    0.000    0.000    0.000 
#
# Total GULP energy -89070.005124 kJ/mol
# GULP energy per Si atom -5566.875320 kJ/mol
# Density = 2.168018 g / cm^3
# Si number density = 21.729643 Si / 1000 Ang^3
#
#
#
# Elastic Constant Matrix: (Units=GPa)
#
#
# Indices 1 2 3 4 5 6 
#
# 1 109.9049 51.5745 23.6861 -4.7680 3.0749 -32.8946
# 2 51.5745 85.3449 18.0082 -11.6236 -6.8806 -26.5066
# 3 23.6861 18.0082 62.8297 10.4567 6.8043 -6.8675
# 4 -4.7680 -11.6236 10.4567 28.8098 -1.3944 5.4756
# 5 3.0749 -6.8806 6.8043 -1.3944 32.2485 1.2059
# 6 -32.8946 -26.5066 -6.8675 5.4756 1.2059 55.0906
#
#
#
# Elastic Compliance Matrix: (Units=1/GPa)
#
#
# Indices 1 2 3 4 5 6 
#
# 1 0.014458 -0.006891 -0.002551 -0.000555 -0.002526 0.005110
# 2 -0.006891 0.019611 -0.004588 0.008002 0.006013 0.003822
# 3 -0.002551 -0.004588 0.020431 -0.009940 -0.005474 -0.000076
# 4 -0.000555 0.008002 -0.009940 0.042119 0.005755 -0.002033
# 5 -0.002526 0.006013 -0.005474 0.005755 0.033959 -0.000613
# 6 0.005110 0.003822 -0.000076 -0.002033 -0.000613 0.023248
#
#
# Mechanical properties :
#
#
# Convention : Reuss Voigt Hill
#
# Bulk Modulus (GPa) = 37.82094 49.40188 43.61141
# Shear Modulus (GPa) = 26.21886 34.21716 30.21801
#
# Velocity S-wave (km/s) = 3.47737 3.97252 3.73317
# Velocity P-wave (km/s) = 5.79361 6.62008 6.22058
#
# Compressibility (1/GPa) = 0.02644038
#
# Stress axis : x y z
#
# Youngs Moduli (GPa) = 69.16435 50.99090 48.94406
#
# Poissons Ratio (x) = 0.35139 0.12486
# Poissons Ratio (y) = 0.47662 0.22456
# Poissons Ratio (z) = 0.17644 0.23395
#
# Static dielectric constant tensor:
#      x y z
#    x 1.782670 -0.078340 0.077390 
#    y -0.078340 1.868810 0.016370 
#    z 0.077390 0.016370 1.759840 
# 
# From -- ./inp_files/613546.got.cif
#   From: 2010.05.17/outbox.cif.g08.bks.cpg/sg2_307_cif.got.tgz:613546.got - 2010.06.03 11:33:40.
