data_PCOD9083495
_publ_section_title
;
Structure prediction by ZEFSAII (Michael W. Deem and Ramdas Pophale) SiO2 
 PCOD9083495
Probable space group: P -1
;
_chemical_formula_sum "Si O2"
_cell_formula_units_Z 16
_cell_length_a 22.181735
_cell_length_b 11.324854
_cell_length_c 6.231336
_cell_angle_alpha 66.760822
_cell_angle_beta 64.195586
_cell_angle_gamma 27.923013
_cell_volume 659.748603
_symmetry_space_group_name_H-M "P -1"
_symmetry_group_IT_number 2
_symmetry_cell_setting 'triclinic'
loop_
_space_group_symop_operation_xyz
x,y,z
-x,-y,-z
loop_
_atom_site_type_symbol
_atom_site_label
_atom_site_fract_x
_atom_site_fract_y
_atom_site_fract_z
Si Si1 0.452780 0.953373 0.975200
Si Si2 0.692812 0.423965 0.135445
Si Si3 0.731550 0.162259 0.612787
Si Si4 0.774574 0.820419 0.583733
Si Si5 0.858817 0.180454 0.658433
Si Si6 0.209624 0.094709 0.931416
Si Si7 0.052736 0.568544 0.097614
Si Si8 0.258472 0.426370 0.714173
O O1 0.570923 0.657268 0.001005
O O2 0.337515 0.073338 0.198585
O O3 0.500000 0.000000 0.000000
O O4 0.381018 0.126685 0.751202
O O5 0.659289 0.361534 0.393170
O O6 0.715546 0.507107 0.196548
O O7 0.820819 0.203974 0.942451
O O8 0.827232 0.113152 0.597737
O O9 0.782547 0.953600 0.558286
O O10 0.690773 0.157507 0.904089
O O11 0.736327 0.902192 0.338209
O O12 0.908465 0.521078 0.648537
O O13 0.765124 0.457709 0.549486
O O14 0.000000 0.000000 0.500000
O O15 0.095186 0.200727 0.917342
O O16 0.129152 0.323123 0.045669
O O17 0.126853 0.569807 0.889779
#
# Coordination Sequence:
#
# PCOD9083495 Si02
#       8
#     2   2   2   2   2   2   2   2
#     4   9  20  41  62  84 114 149 194 240 291 345
#     4  10  22  40  59  81 118 157 190 242 290 332
#     4  10  22  38  55  84 115 149 196 233 281 344
#     4  10  20  36  59  82 113 153 191 239 289 336
#     4  11  23  38  59  88 119 154 195 235 285 346
#     4  10  19  34  56  83 117 151 189 236 285 345
#     4   9  19  33  52  86 117 145 190 236 288 345
#     4   9  20  37  59  87 114 149 194 235 286 346
#
# _framework density 24.251660999999999
#
# number of rings (size 3 to 8) (size 9 to 14) (size 15 to 20)
#    0.000    2.250    0.000    1.875    0.000    7.000 
#    0.000   13.750    0.000    0.000    0.000    0.000 
#    0.000    0.000    0.000    0.000    0.000    0.000 
#
# Total GULP energy -89164.245533 kJ/mol
# GULP energy per Si atom -5572.765346 kJ/mol
# Density = 2.419646 g / cm^3
# Si number density = 24.251661 Si / 1000 Ang^3
#
#
#
# Elastic Constant Matrix: (Units=GPa)
#
#
# Indices 1 2 3 4 5 6 
#
# 1 50.8516 7.7436 19.0129 -18.5570 -16.6776 4.8014
# 2 7.7436 57.7011 51.0951 -24.2942 -10.0716 -3.6900
# 3 19.0129 51.0951 147.5811 -36.6845 -11.0034 0.4590
# 4 -18.5570 -24.2942 -36.6845 31.7433 4.8158 -10.0345
# 5 -16.6776 -10.0716 -11.0034 4.8158 27.0493 0.6581
# 6 4.8014 -3.6900 0.4590 -10.0345 0.6581 21.4904
#
#
#
# Elastic Compliance Matrix: (Units=1/GPa)
#
#
# Indices 1 2 3 4 5 6 
#
# 1 0.033753 0.010533 0.000162 0.026940 0.019851 0.006235
# 2 0.010533 0.038154 -0.005410 0.033460 0.012067 0.019567
# 3 0.000162 -0.005410 0.011085 0.009686 0.000790 0.003297
# 4 0.026940 0.033460 0.009686 0.095606 0.014925 0.043703
# 5 0.019851 0.012067 0.000790 0.014925 0.051293 0.003018
# 6 0.006235 0.019567 0.003297 0.043703 0.003018 0.068742
#
#
# Mechanical properties :
#
#
# Convention : Reuss Voigt Hill
#
# Bulk Modulus (GPa) = 10.68814 45.75966 28.22390
# Shear Modulus (GPa) = 15.66174 27.94206 21.80190
#
# Velocity S-wave (km/s) = 2.54402 3.39805 3.00156
# Velocity P-wave (km/s) = 3.61194 5.85707 4.86577
#
# Compressibility (1/GPa) = 0.09356163
#
# Stress axis : x y z
#
# Youngs Moduli (GPa) = 29.62659 26.20991 90.21530
#
# Poissons Ratio (x) = -0.27608 -0.01462
# Poissons Ratio (y) = -0.31207 0.48809
# Poissons Ratio (z) = -0.00480 0.14180
#
# Static dielectric constant tensor:
#      x y z
#    x 1.923080 -0.024710 0.076280 
#    y -0.024710 2.006750 -0.063070 
#    z 0.076280 -0.063070 2.063550 
# 
# From -- ./inp_files/123559.got.cif
#   From: 2010.05.17/outbox.cif.g08.bks.cpg/sg2_62_cif.got.tgz:123559.got - 2010.06.03 11:33:40.
