data_PCOD9083342
_publ_section_title
;
Structure prediction by ZEFSAII (Michael W. Deem and Ramdas Pophale) SiO2 
 PCOD9083342
Probable space group: P -1
;
_chemical_formula_sum "Si O2"
_cell_formula_units_Z 16
_cell_length_a 14.884312
_cell_length_b 21.457491
_cell_length_c 7.501214
_cell_angle_alpha 35.851501
_cell_angle_beta 148.513209
_cell_angle_gamma 150.732653
_cell_volume 590.545364
_symmetry_space_group_name_H-M "P -1"
_symmetry_group_IT_number 2
_symmetry_cell_setting 'triclinic'
loop_
_space_group_symop_operation_xyz
x,y,z
-x,-y,-z
loop_
_atom_site_type_symbol
_atom_site_label
_atom_site_fract_x
_atom_site_fract_y
_atom_site_fract_z
Si Si1 0.210780 0.913124 0.820089
Si Si2 0.754973 0.446238 0.591416
Si Si3 0.507527 0.814683 0.914856
Si Si4 0.676782 0.170098 0.116942
Si Si5 0.694798 0.727077 0.735536
Si Si6 0.954156 0.014868 0.087487
Si Si7 0.034905 0.349886 0.808673
Si Si8 0.328182 0.530548 0.189892
O O1 0.034738 0.937915 0.506862
O O2 0.171169 0.794331 0.149322
O O3 0.439527 0.052519 0.912446
O O4 0.184481 0.859033 0.699695
O O5 0.762347 0.321168 0.879525
O O6 0.516749 0.383043 0.258307
O O7 0.737059 0.486668 0.669488
O O8 0.946414 0.566908 0.523700
O O9 0.350877 0.837835 0.698206
O O10 0.611273 0.789008 0.319443
O O11 0.418319 0.683556 0.953718
O O12 0.705511 0.942839 0.860637
O O13 0.785918 0.669864 0.898384
O O14 0.888333 0.835680 0.931510
O O15 0.000000 0.000000 0.000000
O O16 0.129084 0.440338 0.932273
O O17 0.500000 0.500000 0.500000
#
# Coordination Sequence:
#
# PCOD9083342 Si02
#       8
#     2   2   2   2   2   2   2   2
#     4  11  21  40  64  92 115 168 210 254 309 371
#     4  10  22  38  60  90 125 165 206 251 309 371
#     4  10  19  37  59  86 124 161 202 253 311 361
#     4   9  21  42  65  82 123 166 215 247 306 378
#     4  10  19  36  58  85 126 158 199 254 312 360
#     4  12  23  35  63  98 126 153 211 265 309 370
#     4  12  22  34  64  92 128 158 207 261 308 372
#     4  10  19  34  54  87 125 165 199 246 312 367
#
# _framework density 27.093599999999999
#
# number of rings (size 3 to 8) (size 9 to 14) (size 15 to 20)
#    0.000    1.750    6.250    1.500    1.750    1.500 
#    0.000    3.125    0.000    6.000    0.000    0.000 
#    0.000    0.000    0.000    0.000    0.000    0.000 
#
# Total GULP energy -89520.542825 kJ/mol
# GULP energy per Si atom -5595.033927 kJ/mol
# Density = 2.703193 g / cm^3
# Si number density = 27.093600 Si / 1000 Ang^3
#
#
#
# Elastic Constant Matrix: (Units=GPa)
#
#
# Indices 1 2 3 4 5 6 
#
# 1 156.1975 73.0927 41.2474 -14.0211 17.0668 -19.0294
# 2 73.0927 166.3400 35.3834 -12.5790 -5.6053 -15.8112
# 3 41.2474 35.3834 71.8612 -23.8548 8.1336 -7.1750
# 4 -14.0211 -12.5790 -23.8548 31.7406 -5.2999 -1.8099
# 5 17.0668 -5.6053 8.1336 -5.2999 50.6745 -7.3991
# 6 -19.0294 -15.8112 -7.1750 -1.8099 -7.3991 63.5338
#
#
#
# Elastic Compliance Matrix: (Units=1/GPa)
#
#
# Indices 1 2 3 4 5 6 
#
# 1 0.009292 -0.003372 -0.003256 -0.000076 -0.002806 0.001247
# 2 -0.003372 0.008175 -0.002034 0.000721 0.002605 0.001119
# 3 -0.003256 -0.002034 0.021645 0.013933 -0.000963 0.001248
# 4 -0.000076 0.000721 0.013933 0.042889 0.002834 0.003282
# 5 -0.002806 0.002605 -0.000963 0.002834 0.021756 0.002314
# 6 0.001247 0.001119 0.001248 0.003282 0.002314 0.016895
#
#
# Mechanical properties :
#
#
# Convention : Reuss Voigt Hill
#
# Bulk Modulus (GPa) = 45.89770 77.09397 61.49584
# Shear Modulus (GPa) = 34.42634 45.50146 39.96390
#
# Velocity S-wave (km/s) = 3.56848 4.10252 3.84478
# Velocity P-wave (km/s) = 5.82717 7.13844 6.51587
#
# Compressibility (1/GPa) = 0.02178758
#
# Stress axis : x y z
#
# Youngs Moduli (GPa) = 107.62427 122.32894 46.20016
#
# Poissons Ratio (x) = 0.41249 0.15044
# Poissons Ratio (y) = 0.36291 0.09395
# Poissons Ratio (z) = 0.35045 0.24877
#
# Static dielectric constant tensor:
#      x y z
#    x 2.087840 0.044080 -0.021020 
#    y 0.044080 2.117070 -0.003760 
#    z -0.021020 -0.003760 2.220050 
# 
# From -- ./inp_files/318900.got.cif
#   From: 2010.05.17/outbox.cif.g08.bks.cpg/sg2_160_cif.got.tgz:318900.got - 2010.06.03 11:33:40.
