data_PCOD9083086
_publ_section_title
;
Structure prediction by ZEFSAII (Michael W. Deem and Ramdas Pophale) SiO2 
 PCOD9083086
Probable space group: P -1
;
_chemical_formula_sum "Si O2"
_cell_formula_units_Z 16
_cell_length_a 15.799969
_cell_length_b 14.810217
_cell_length_c 10.385666
_cell_angle_alpha 52.850854
_cell_angle_beta 72.736395
_cell_angle_gamma 30.358906
_cell_volume 813.210137
_symmetry_space_group_name_H-M "P -1"
_symmetry_group_IT_number 2
_symmetry_cell_setting 'triclinic'
loop_
_space_group_symop_operation_xyz
x,y,z
-x,-y,-z
loop_
_atom_site_type_symbol
_atom_site_label
_atom_site_fract_x
_atom_site_fract_y
_atom_site_fract_z
Si Si1 0.045922 0.007275 0.635797
Si Si2 0.971382 0.904942 0.146721
Si Si3 0.693838 0.049441 0.680869
Si Si4 0.306582 0.914946 0.075793
Si Si5 0.508728 0.922272 0.924640
Si Si6 0.065464 0.622479 0.722176
Si Si7 0.709942 0.627132 0.431153
Si Si8 0.676432 0.327940 0.419912
O O1 0.101794 0.988696 0.765694
O O2 0.968402 0.203334 0.417657
O O3 0.853515 0.145730 0.601467
O O4 0.229591 0.746580 0.696921
O O5 0.167813 0.598143 0.337908
O O6 0.822614 0.003731 0.040071
O O7 0.000000 0.000000 0.000000
O O8 0.802496 0.933278 0.870430
O O9 0.490846 0.212209 0.654121
O O10 0.628497 0.250948 0.497509
O O11 0.853561 0.819765 0.701975
O O12 0.489999 0.620581 0.282062
O O13 0.398907 0.927740 0.976250
O O14 0.390263 0.137428 0.691621
O O15 0.747651 0.627381 0.057284
O O16 0.500000 0.000000 0.000000
O O17 0.139559 0.516924 0.632573
#
# Coordination Sequence:
#
# PCOD9083086 Si02
#       8
#     2   2   2   2   2   2   2   2
#     4   9  18  36  56  88 121 150 184 251 289 352
#     4  11  23  38  57  86 127 158 189 239 302 359
#     4  11  20  34  63  90 113 154 196 247 298 342
#     4  12  21  35  59  90 116 164 197 232 302 354
#     4  10  19  39  61  86 117 152 202 255 284 335
#     4   9  18  35  62  88 113 148 198 246 297 335
#     4  10  21  41  59  83 122 152 198 249 287 343
#     4  10  19  33  62  88 114 147 202 241 297 341
#
# _framework density 19.675111999999999
#
# number of rings (size 3 to 8) (size 9 to 14) (size 15 to 20)
#    0.000    1.750    3.750    2.625    0.000    1.500 
#    0.000    1.250    0.000    0.750    0.000    0.000 
#    0.000    0.000    0.000    0.000    0.000    0.000 
#
# Total GULP energy -89073.239314 kJ/mol
# GULP energy per Si atom -5567.077457 kJ/mol
# Density = 1.963033 g / cm^3
# Si number density = 19.675112 Si / 1000 Ang^3
#
#
#
# Elastic Constant Matrix: (Units=GPa)
#
#
# Indices 1 2 3 4 5 6 
#
# 1 93.1829 21.3683 26.9514 4.9936 10.3761 -8.6676
# 2 21.3683 80.6768 32.1530 -8.7624 13.2332 1.1689
# 3 26.9514 32.1530 91.4723 -4.8470 -12.3583 -7.6534
# 4 4.9936 -8.7624 -4.8470 17.5822 6.9684 1.4714
# 5 10.3761 13.2332 -12.3583 6.9684 35.6725 1.3711
# 6 -8.6676 1.1689 -7.6534 1.4714 1.3711 12.6437
#
#
#
# Elastic Compliance Matrix: (Units=1/GPa)
#
#
# Indices 1 2 3 4 5 6 
#
# 1 0.013708 -0.002511 -0.003178 -0.005386 -0.003439 0.008705
# 2 -0.002511 0.019645 -0.007719 0.013678 -0.011575 -0.008547
# 3 -0.003178 -0.007719 0.016390 -0.002935 0.009742 0.007742
# 4 -0.005386 0.013678 -0.002935 0.072743 -0.018226 -0.013223
# 5 -0.003439 -0.011575 0.009742 -0.018226 0.040171 0.002374
# 6 0.008705 -0.008547 0.007742 -0.013223 0.002374 0.091816
#
#
# Mechanical properties :
#
#
# Convention : Reuss Voigt Hill
#
# Bulk Modulus (GPa) = 43.61858 47.36415 45.49137
# Shear Modulus (GPa) = 17.30510 25.50365 21.40437
#
# Velocity S-wave (km/s) = 2.96893 3.60424 3.30190
# Velocity P-wave (km/s) = 5.82840 6.43786 6.14070
#
# Compressibility (1/GPa) = 0.02292601
#
# Stress axis : x y z
#
# Youngs Moduli (GPa) = 72.95045 50.90395 61.01129
#
# Poissons Ratio (x) = 0.12784 0.19388
# Poissons Ratio (y) = 0.18320 0.47097
# Poissons Ratio (z) = 0.23182 0.39295
#
# Static dielectric constant tensor:
#      x y z
#    x 1.692380 -0.017850 -0.020480 
#    y -0.017850 1.772220 0.018790 
#    z -0.020480 0.018790 1.744870 
# 
# From -- ./inp_files/417461.got.cif
#   From: 2010.05.17/outbox.cif.g08.bks.cpg/sg2_209_cif.got.tgz:417461.got - 2010.06.03 11:33:40.
