data_PCOD9083263
_publ_section_title
;
Structure prediction by ZEFSAII (Michael W. Deem and Ramdas Pophale) SiO2 
 PCOD9083263
Probable space group: P -1
;
_chemical_formula_sum "Si O2"
_cell_formula_units_Z 14
_cell_length_a 5.409871
_cell_length_b 18.086134
_cell_length_c 7.833293
_cell_angle_alpha 63.601180
_cell_angle_beta 84.020529
_cell_angle_gamma 61.583142
_cell_volume 598.156674
_symmetry_space_group_name_H-M "P -1"
_symmetry_group_IT_number 2
_symmetry_cell_setting 'triclinic'
loop_
_space_group_symop_operation_xyz
x,y,z
-x,-y,-z
loop_
_atom_site_type_symbol
_atom_site_label
_atom_site_fract_x
_atom_site_fract_y
_atom_site_fract_z
Si Si1 0.325309 0.674596 0.538757
Si Si2 0.161347 0.050805 0.104969
Si Si3 0.988799 0.896489 0.302784
Si Si4 0.222949 0.147535 0.309374
Si Si5 0.305898 0.386758 0.729429
Si Si6 0.639082 0.217507 0.132595
Si Si7 0.926085 0.601533 0.615920
O O1 0.191841 0.784225 0.392704
O O2 0.449160 0.617436 0.409454
O O3 0.608782 0.637175 0.669309
O O4 0.090846 0.648654 0.643607
O O5 0.312056 0.084031 0.198033
O O6 0.830148 0.129757 0.083258
O O7 0.205176 0.066711 0.889290
O O8 0.166441 0.952659 0.239703
O O9 0.809703 0.908846 0.472966
O O10 0.891008 0.222675 0.213465
O O11 0.439037 0.187078 0.282487
O O12 0.130552 0.366943 0.613664
O O13 0.110728 0.489239 0.715113
O O14 0.443570 0.307961 0.942438
#
# Coordination Sequence:
#
# PCOD9083263 Si02
#       7
#     2   2   2   2   2   2   2
#     4  10  19  34  53  93 115 158 199 255 297 372
#     4   9  22  43  63  97 118 174 204 255 300 381
#     4  11  21  42  67  91 131 161 209 256 312 355
#     4  10  24  43  59  94 127 168 201 259 300 373
#     4   9  19  34  61  87 119 162 199 255 299 374
#     4  10  22  40  63  87 129 156 215 244 310 364
#     4   9  20  31  58  91 120 149 213 246 309 354
#
# _framework density 23.405241
#
# number of rings (size 3 to 8) (size 9 to 14) (size 15 to 20)
#    1.714    0.571    1.429    0.857    4.000    1.714 
#    5.143    1.429    0.000    5.143    0.000    0.000 
#    0.000    0.000    0.000    0.000    0.000    0.000 
#
# Total GULP energy -78133.319940 kJ/mol
# GULP energy per Si atom -5580.951424 kJ/mol
# Density = 2.335197 g / cm^3
# Si number density = 23.405241 Si / 1000 Ang^3
#
#
#
# Elastic Constant Matrix: (Units=GPa)
#
#
# Indices 1 2 3 4 5 6 
#
# 1 132.0933 31.5003 14.4802 -8.4154 8.6060 2.3926
# 2 31.5003 94.2747 3.6894 -9.6941 15.9163 -4.3907
# 3 14.4802 3.6894 65.1416 7.5986 9.1936 -6.0061
# 4 -8.4154 -9.6941 7.5986 35.7520 -11.4667 8.3593
# 5 8.6060 15.9163 9.1936 -11.4667 21.2164 -1.2643
# 6 2.3926 -4.3907 -6.0061 8.3593 -1.2643 27.9082
#
#
#
# Elastic Compliance Matrix: (Units=1/GPa)
#
#
# Indices 1 2 3 4 5 6 
#
# 1 0.008658 -0.002796 -0.002439 0.002677 0.000942 -0.002466
# 2 -0.002796 0.013153 0.001670 -0.001254 -0.009980 0.002592
# 3 -0.002439 0.001670 0.019665 -0.010483 -0.014021 0.007209
# 4 0.002677 -0.001254 -0.010483 0.042262 0.026395 -0.014146
# 5 0.000942 -0.009980 -0.014021 0.026395 0.074030 -0.009221
# 6 -0.002466 0.002592 0.007209 -0.014146 -0.009221 0.041822
#
#
# Mechanical properties :
#
#
# Convention : Reuss Voigt Hill
#
# Bulk Modulus (GPa) = 29.11499 43.42772 36.27135
# Shear Modulus (GPa) = 22.91802 33.09796 28.00799
#
# Velocity S-wave (km/s) = 3.13259 3.76457 3.46302
# Velocity P-wave (km/s) = 5.05476 6.12298 5.61434
#
# Compressibility (1/GPa) = 0.03434657
#
# Stress axis : x y z
#
# Youngs Moduli (GPa) = 115.49439 76.02853 50.85148
#
# Poissons Ratio (x) = 0.21260 0.12403
# Poissons Ratio (y) = 0.32296 -0.08494
# Poissons Ratio (z) = 0.28169 -0.12699
#
# Static dielectric constant tensor:
#      x y z
#    x 1.915080 -0.050180 0.028230 
#    y -0.050180 1.907460 0.052650 
#    z 0.028230 0.052650 1.832140 
# 
# From -- ./inp_files/140547.got.cif
#   From: 2010.05.17/outbox.cif.g08.bks.cpg/sg2_71_cif.got.tgz:140547.got - 2010.06.03 11:33:40.
