data_PCOD9083677
_publ_section_title
;
Structure prediction by ZEFSAII (Michael W. Deem and Ramdas Pophale) SiO2 
 PCOD9083677
Probable space group: P -1
;
_chemical_formula_sum "Si O2"
_cell_formula_units_Z 16
_cell_length_a 11.583638
_cell_length_b 10.595776
_cell_length_c 15.589374
_cell_angle_alpha 114.615683
_cell_angle_beta 118.110231
_cell_angle_gamma 27.984649
_cell_volume 791.928871
_symmetry_space_group_name_H-M "P -1"
_symmetry_group_IT_number 2
_symmetry_cell_setting 'triclinic'
loop_
_space_group_symop_operation_xyz
x,y,z
-x,-y,-z
loop_
_atom_site_type_symbol
_atom_site_label
_atom_site_fract_x
_atom_site_fract_y
_atom_site_fract_z
Si Si1 0.211273 0.077113 0.257735
Si Si2 0.783576 0.289874 0.961448
Si Si3 0.368053 0.242610 0.574680
Si Si4 0.369192 0.053879 0.130263
Si Si5 0.851848 0.919321 0.086721
Si Si6 0.931759 0.669653 0.206924
Si Si7 0.302365 0.617364 0.854950
Si Si8 0.034193 0.537987 0.388307
O O1 0.304087 0.007363 0.172317
O O2 0.939037 0.250372 0.223403
O O3 0.170340 0.275753 0.326219
O O4 0.434327 0.833952 0.333188
O O5 0.598852 0.359545 0.861251
O O6 0.888989 0.311475 0.943111
O O7 0.666606 0.456683 0.054914
O O8 0.000000 0.000000 0.000000
O O9 0.217859 0.299112 0.612902
O O10 0.177464 0.476059 0.502056
O O11 0.500000 0.000000 0.500000
O O12 0.158588 0.367178 0.161521
O O13 0.661746 0.836198 0.172718
O O14 0.322912 0.022659 0.014117
O O15 0.885402 0.832699 0.168611
O O16 0.768470 0.155788 0.119997
O O17 0.000808 0.655739 0.323678
#
# Coordination Sequence:
#
# PCOD9083677 Si02
#       8
#     2   2   2   2   2   2   2   2
#     4  10  19  34  57  85 118 144 192 241 293 347
#     4   9  20  35  51  76 107 154 200 235 275 320
#     4   9  17  34  57  83 112 140 182 240 305 346
#     4  11  23  37  57  84 118 160 197 241 285 339
#     4  11  23  36  55  79 119 160 200 236 279 340
#     4  11  24  38  58  86 119 158 196 240 289 350
#     4  10  21  35  55  80 113 158 198 241 285 332
#     4   9  19  33  56  87 112 145 183 240 298 353
#
# _framework density 20.203834000000001
#
# number of rings (size 3 to 8) (size 9 to 14) (size 15 to 20)
#    0.000    2.000    2.500    0.750    3.500    5.000 
#    0.000    0.000    0.000    0.750    0.000    8.750 
#    0.000    0.000    0.000    0.000    0.000    0.000 
#
# Total GULP energy -89091.647360 kJ/mol
# GULP energy per Si atom -5568.227960 kJ/mol
# Density = 2.015785 g / cm^3
# Si number density = 20.203834 Si / 1000 Ang^3
#
#
#
# Elastic Constant Matrix: (Units=GPa)
#
#
# Indices 1 2 3 4 5 6 
#
# 1 61.4590 13.6659 45.5288 -19.0302 -9.7975 0.7891
# 2 13.6659 58.2989 15.4038 -9.5461 0.2013 -7.4973
# 3 45.5288 15.4038 138.2729 -30.6728 -6.9117 -1.4403
# 4 -19.0302 -9.5461 -30.6728 31.6214 -13.0296 8.5373
# 5 -9.7975 0.2013 -6.9117 -13.0296 39.9063 -11.1889
# 6 0.7891 -7.4973 -1.4403 8.5373 -11.1889 28.5871
#
#
#
# Elastic Compliance Matrix: (Units=1/GPa)
#
#
# Indices 1 2 3 4 5 6 
#
# 1 0.026811 -0.002851 -0.004521 0.015778 0.010293 -0.002399
# 2 -0.002851 0.019012 -0.000408 0.002937 0.001416 0.004722
# 3 -0.004521 -0.000408 0.011093 0.009686 0.003737 -0.000853
# 4 0.015778 0.002937 0.009686 0.063608 0.023824 -0.008848
# 5 0.010293 0.001416 0.003737 0.023824 0.038289 0.008147
# 6 -0.002399 0.004722 -0.000853 -0.008848 0.008147 0.042073
#
#
# Mechanical properties :
#
#
# Convention : Reuss Voigt Hill
#
# Bulk Modulus (GPa) = 24.17956 45.24754 34.71355
# Shear Modulus (GPa) = 21.71738 32.25179 26.98458
#
# Velocity S-wave (km/s) = 3.28214 3.99973 3.65857
# Velocity P-wave (km/s) = 5.13392 6.61624 5.92164
#
# Compressibility (1/GPa) = 0.04135724
#
# Stress axis : x y z
#
# Youngs Moduli (GPa) = 37.29781 52.59764 90.14990
#
# Poissons Ratio (x) = 0.14994 0.40756
# Poissons Ratio (y) = 0.10633 0.03676
# Poissons Ratio (z) = 0.16862 0.02145
#
# Static dielectric constant tensor:
#      x y z
#    x 1.705580 -0.045290 0.023300 
#    y -0.045290 2.007310 0.010060 
#    z 0.023300 0.010060 1.812550 
# 
# From -- ./inp_files/440309.got.cif
#   From: 2010.05.17/outbox.cif.g08.bks.cpg/sg2_221_cif.got.tgz:440309.got - 2010.06.03 11:33:40.
