data_PCOD9083657
_publ_section_title
;
Structure prediction by ZEFSAII (Michael W. Deem and Ramdas Pophale) SiO2 
 PCOD9083657
Probable space group: P -1
;
_chemical_formula_sum "Si O2"
_cell_formula_units_Z 14
_cell_length_a 12.388147
_cell_length_b 12.046101
_cell_length_c 11.167724
_cell_angle_alpha 131.171858
_cell_angle_beta 140.046027
_cell_angle_gamma 80.878774
_cell_volume 562.359446
_symmetry_space_group_name_H-M "P -1"
_symmetry_group_IT_number 2
_symmetry_cell_setting 'triclinic'
loop_
_space_group_symop_operation_xyz
x,y,z
-x,-y,-z
loop_
_atom_site_type_symbol
_atom_site_label
_atom_site_fract_x
_atom_site_fract_y
_atom_site_fract_z
Si Si1 0.390551 0.753979 0.480585
Si Si2 0.761421 0.644133 0.886245
Si Si3 0.118955 0.972275 0.756416
Si Si4 0.904870 0.555767 0.559681
Si Si5 0.760007 0.235013 0.397064
Si Si6 0.216363 0.888854 0.259672
Si Si7 0.194324 0.182878 0.395259
O O1 0.296522 0.533864 0.207632
O O2 0.217779 0.689017 0.398396
O O3 0.372769 0.872180 0.454998
O O4 0.654401 0.909144 0.874741
O O5 0.500000 0.500000 0.500000
O O6 0.822552 0.841977 0.133535
O O7 0.972390 0.755658 0.042895
O O8 0.075730 0.798822 0.521790
O O9 0.906308 0.862280 0.588966
O O10 0.764031 0.366124 0.398085
O O11 0.755379 0.613580 0.447437
O O12 0.000000 0.500000 0.500000
O O13 0.127756 0.757696 0.969493
O O14 0.500000 0.000000 0.000000
O O15 0.342149 0.123787 0.499527
O O16 0.000000 0.000000 0.000000
#
# Coordination Sequence:
#
# PCOD9083657 Si02
#       7
#     2   2   2   2   2   2   2
#     4  10  19  34  57  84 115 141 182 239 285 320
#     4   9  17  30  52  81 113 144 183 222 273 333
#     4   9  18  34  53  81 109 146 188 222 271 333
#     4  11  20  35  59  81 109 149 191 227 270 339
#     4  10  20  34  57  84 111 145 186 229 280 330
#     4  10  20  35  56  87 111 142 187 237 279 321
#     4   9  19  35  55  80 106 149 192 222 268 339
#
# _framework density 24.895106999999999
#
# number of rings (size 3 to 8) (size 9 to 14) (size 15 to 20)
#    0.000    2.286    2.857    0.429    0.000    0.000 
#    0.000    7.143    0.000    3.429    0.000    0.000 
#    0.000    0.000    0.000    0.000    0.000    0.000 
#
# Total GULP energy -78076.077373 kJ/mol
# GULP energy per Si atom -5576.862670 kJ/mol
# Density = 2.483845 g / cm^3
# Si number density = 24.895107 Si / 1000 Ang^3
#
#
#
# Elastic Constant Matrix: (Units=GPa)
#
#
# Indices 1 2 3 4 5 6 
#
# 1 72.9763 37.1340 13.3062 12.8652 -9.1269 -13.5576
# 2 37.1340 258.7332 46.9275 39.9163 -20.3882 -27.8192
# 3 13.3062 46.9275 63.3425 12.0957 -8.7236 -10.5684
# 4 12.8652 39.9163 12.0957 42.2371 -12.0275 -4.9976
# 5 -9.1269 -20.3882 -8.7236 -12.0275 31.8151 8.9296
# 6 -13.5576 -27.8192 -10.5684 -4.9976 8.9296 29.9674
#
#
#
# Elastic Compliance Matrix: (Units=1/GPa)
#
#
# Indices 1 2 3 4 5 6 
#
# 1 0.015992 -0.001056 -0.001062 -0.002625 0.001200 0.005084
# 2 -0.001056 0.005369 -0.002543 -0.003605 0.000255 0.002933
# 3 -0.001062 -0.002543 0.018993 -0.001864 0.001717 0.003034
# 4 -0.002625 -0.003605 -0.001864 0.030587 0.008746 -0.002697
# 5 0.001200 0.000255 0.001717 0.008746 0.038105 -0.008511
# 6 0.005084 0.002933 0.003034 -0.002697 -0.008511 0.041549
#
#
# Mechanical properties :
#
#
# Convention : Reuss Voigt Hill
#
# Bulk Modulus (GPa) = 32.22559 65.53194 48.87877
# Shear Modulus (GPa) = 29.36649 40.64954 35.00802
#
# Velocity S-wave (km/s) = 3.43827 4.04522 3.75403
# Velocity P-wave (km/s) = 5.36050 6.94253 6.20216
#
# Compressibility (1/GPa) = 0.03103123
#
# Stress axis : x y z
#
# Youngs Moduli (GPa) = 62.53254 186.24071 52.65051
#
# Poissons Ratio (x) = 0.19673 0.05591
# Poissons Ratio (y) = 0.06605 0.13391
# Poissons Ratio (z) = 0.06640 0.47367
#
# Static dielectric constant tensor:
#      x y z
#    x 2.021330 -0.077540 0.038430 
#    y -0.077540 2.070690 -0.024660 
#    z 0.038430 -0.024660 2.008460 
# 
# From -- ./inp_files/176658.got.cif
#   From: 2010.05.17/outbox.cif.g08.bks.cpg/sg2_89_cif.got.tgz:176658.got - 2010.06.03 11:33:40.
