data_PCOD9083557
_publ_section_title
;
Structure prediction by ZEFSAII (Michael W. Deem and Ramdas Pophale) SiO2 
 PCOD9083557
Probable space group: P -1
;
_chemical_formula_sum "Si O2"
_cell_formula_units_Z 16
_cell_length_a 9.500554
_cell_length_b 22.287784
_cell_length_c 8.531515
_cell_angle_alpha 56.823022
_cell_angle_beta 49.262323
_cell_angle_gamma 34.453080
_cell_volume 774.202389
_symmetry_space_group_name_H-M "P -1"
_symmetry_group_IT_number 2
_symmetry_cell_setting 'triclinic'
loop_
_space_group_symop_operation_xyz
x,y,z
-x,-y,-z
loop_
_atom_site_type_symbol
_atom_site_label
_atom_site_fract_x
_atom_site_fract_y
_atom_site_fract_z
Si Si1 0.628907 0.678096 0.999122
Si Si2 0.779293 0.448517 0.948716
Si Si3 0.098281 0.495136 0.688925
Si Si4 0.062932 0.783724 0.232536
Si Si5 0.521566 0.927674 0.206560
Si Si6 0.377794 0.551610 0.349200
Si Si7 0.752010 0.920930 0.553258
Si Si8 0.718839 0.789016 0.984094
O O1 0.340682 0.743060 0.032672
O O2 0.694865 0.603474 0.199371
O O3 0.873713 0.601295 0.805734
O O4 0.618293 0.756754 0.983692
O O5 0.641157 0.506697 0.131382
O O6 0.991406 0.323263 0.998862
O O7 0.500000 0.500000 0.000000
O O8 0.944773 0.472671 0.748059
O O9 0.250867 0.510971 0.450284
O O10 0.143888 0.677648 0.343750
O O11 0.806472 0.857682 0.195514
O O12 0.997964 0.838561 0.369832
O O13 0.286409 0.002902 0.403560
O O14 0.540636 0.855822 0.174895
O O15 0.500000 0.000000 0.000000
O O16 0.500000 0.500000 0.500000
O O17 0.741866 0.853720 0.768299
O O18 0.500000 0.000000 0.500000
#
# Coordination Sequence:
#
# PCOD9083557 Si02
#       8
#     2   2   2   2   2   2   2   2
#     4  10  19  34  56  88 121 153 198 240 286 355
#     4  11  23  37  56  89 127 160 198 233 293 363
#     4  10  20  36  54  87 131 159 194 243 275 350
#     4  11  19  34  63  89 110 157 202 234 297 358
#     4   9  20  39  58  79 113 151 198 253 304 343
#     4  12  20  34  62  89 122 159 197 238 290 352
#     4   9  19  36  59  84 105 144 207 249 290 351
#     4  10  20  36  59  82 115 156 188 246 305 340
#
# _framework density 20.666432
#
# number of rings (size 3 to 8) (size 9 to 14) (size 15 to 20)
#    0.000    1.750    2.500    3.750    0.000    0.500 
#    0.000    6.250    0.000    3.000    0.000    0.000 
#    0.000    0.000    0.000    0.000    0.000    0.000 
#
# Total GULP energy -89102.366446 kJ/mol
# GULP energy per Si atom -5568.897903 kJ/mol
# Density = 2.061939 g / cm^3
# Si number density = 20.666432 Si / 1000 Ang^3
#
#
#
# Elastic Constant Matrix: (Units=GPa)
#
#
# Indices 1 2 3 4 5 6 
#
# 1 57.8994 7.1372 8.5703 -36.4465 1.0916 13.1937
# 2 7.1372 101.9304 22.9678 -14.1403 5.3093 12.1251
# 3 8.5703 22.9678 45.1475 3.1028 -4.4293 -2.3242
# 4 -36.4465 -14.1403 3.1028 12.2808 7.4593 13.6448
# 5 1.0916 5.3093 -4.4293 7.4593 33.9968 6.9438
# 6 13.1937 12.1251 -2.3242 13.6448 6.9438 20.0948
#
#
#
# Elastic Compliance Matrix: (Units=1/GPa)
#
#
# Indices 1 2 3 4 5 6 
#
# 1 0.002190 -0.005652 0.004737 -0.018693 0.002608 0.014312
# 2 -0.005652 0.009737 -0.003346 -0.006993 -0.000742 0.002454
# 3 0.004737 -0.003346 0.022183 0.009953 0.002320 -0.006085
# 4 -0.018693 -0.006993 0.009953 -0.017999 0.000902 0.029554
# 5 0.002608 -0.000742 0.002320 0.000902 0.032149 -0.012718
# 6 0.014312 0.002454 -0.006085 0.029554 -0.012718 0.022509
#
#
# Mechanical properties :
#
#
# Convention : Reuss Voigt Hill
#
# Bulk Modulus (GPa) = 39.08279 31.36979 35.22629
# Shear Modulus (GPa) = 56.93439 24.36129 40.64784
#
# Velocity S-wave (km/s) = 5.25443 3.43707 4.43973
# Velocity P-wave (km/s) = 7.46755 5.56447 6.58512
#
# Compressibility (1/GPa) = 0.02558671
#
# Stress axis : x y z
#
# Youngs Moduli (GPa) = 456.70175 102.70073 45.07953
#
# Poissons Ratio (x) = 0.58049 -0.21355
# Poissons Ratio (y) = 2.58139 0.15085
# Poissons Ratio (z) = -2.16346 0.34367
#
# Static dielectric constant tensor:
#      x y z
#    x 1.836580 0.067180 0.026240 
#    y 0.067180 1.777700 0.052820 
#    z 0.026240 0.052820 1.727220 
# 
# From -- ./inp_files/223367.got.cif
#   From: 2010.05.17/outbox.cif.g08.bks.cpg/sg2_112_cif.got.tgz:223367.got - 2010.06.03 11:33:40.
