data_PCOD9083746
_publ_section_title
;
Structure prediction by ZEFSAII (Michael W. Deem and Ramdas Pophale) SiO2 
 PCOD9083746
Probable space group: P -1
;
_chemical_formula_sum "Si O2"
_cell_formula_units_Z 16
_cell_length_a 12.400609
_cell_length_b 9.011182
_cell_length_c 11.988977
_cell_angle_alpha 131.414479
_cell_angle_beta 116.393241
_cell_angle_gamma 94.386592
_cell_volume 750.681744
_symmetry_space_group_name_H-M "P -1"
_symmetry_group_IT_number 2
_symmetry_cell_setting 'triclinic'
loop_
_space_group_symop_operation_xyz
x,y,z
-x,-y,-z
loop_
_atom_site_type_symbol
_atom_site_label
_atom_site_fract_x
_atom_site_fract_y
_atom_site_fract_z
Si Si1 0.560913 0.738042 0.920946
Si Si2 0.853220 0.357132 0.618322
Si Si3 0.351865 0.848713 0.973323
Si Si4 0.208811 0.136614 0.730847
Si Si5 0.671740 0.156552 0.640291
Si Si6 0.278366 0.242418 0.561963
Si Si7 0.149691 0.515195 0.916561
Si Si8 0.131181 0.472115 0.518432
O O1 0.493868 0.843304 0.027075
O O2 0.430240 0.470471 0.705255
O O3 0.689572 0.765620 0.065685
O O4 0.609876 0.890590 0.905617
O O5 0.716114 0.252479 0.582776
O O6 0.858041 0.523357 0.606853
O O7 0.997721 0.488961 0.824479
O O8 0.851719 0.140492 0.447941
O O9 0.251772 0.693294 0.952418
O O10 0.265331 0.705261 0.751574
O O11 0.287746 0.242790 0.700972
O O12 0.114465 0.249905 0.753692
O O13 0.500000 0.000000 0.500000
O O14 0.733065 0.989867 0.601230
O O15 0.757680 0.367548 0.872097
O O16 0.148059 0.269486 0.478768
O O17 0.000000 0.500000 0.500000
#
# Coordination Sequence:
#
# PCOD9083746 Si02
#       8
#     2   2   2   2   2   2   2   2
#     4  10  19  34  57  95 127 156 207 267 320 366
#     4  11  24  41  65  94 130 169 208 268 325 380
#     4  10  21  33  60  95 126 161 203 267 318 374
#     4  11  20  35  66  94 124 163 214 271 322 377
#     4  11  27  45  65  89 131 180 216 259 317 383
#     4  10  22  39  61  95 125 165 216 268 314 375
#     4  12  23  42  63  95 130 167 215 263 322 385
#     4  11  19  40  66  96 128 160 208 266 327 379
#
# _framework density 21.313960000000002
#
# number of rings (size 3 to 8) (size 9 to 14) (size 15 to 20)
#    0.000    1.250    5.000    1.875    3.500    1.000 
#    0.000    4.375    0.000    0.000    0.000    0.000 
#    0.000    0.000    0.000    0.000    0.000    0.000 
#
# Total GULP energy -89290.389439 kJ/mol
# GULP energy per Si atom -5580.649340 kJ/mol
# Density = 2.126545 g / cm^3
# Si number density = 21.313960 Si / 1000 Ang^3
#
#
#
# Elastic Constant Matrix: (Units=GPa)
#
#
# Indices 1 2 3 4 5 6 
#
# 1 66.6274 19.9126 -0.6155 -9.3354 8.0903 7.5281
# 2 19.9126 100.5850 -2.3941 -4.6684 2.0809 3.5568
# 3 -0.6155 -2.3941 50.6938 -4.9397 -11.8037 -5.1105
# 4 -9.3354 -4.6684 -4.9397 28.8864 -6.0989 3.3181
# 5 8.0903 2.0809 -11.8037 -6.0989 18.3103 -2.1762
# 6 7.5281 3.5568 -5.1105 3.3181 -2.1762 27.3175
#
#
#
# Elastic Compliance Matrix: (Units=1/GPa)
#
#
# Indices 1 2 3 4 5 6 
#
# 1 0.018186 -0.003075 -0.002139 0.003930 -0.008489 -0.006165
# 2 -0.003075 0.010616 0.000746 0.001101 0.000946 -0.000454
# 3 -0.002139 0.000746 0.025933 0.007561 0.020820 0.006084
# 4 0.003930 0.001101 0.007561 0.041209 0.016320 -0.003517
# 5 -0.008489 0.000946 0.020820 0.016320 0.078347 0.010370
# 6 -0.006165 -0.000454 0.006084 -0.003517 0.010370 0.040756
#
#
# Mechanical properties :
#
#
# Convention : Reuss Voigt Hill
#
# Bulk Modulus (GPa) = 21.83504 27.96803 24.90154
# Shear Modulus (GPa) = 20.89848 28.30307 24.60078
#
# Velocity S-wave (km/s) = 3.13470 3.64801 3.40105
# Velocity P-wave (km/s) = 4.83410 5.55827 5.20878
#
# Compressibility (1/GPa) = 0.04579794
#
# Stress axis : x y z
#
# Youngs Moduli (GPa) = 54.98682 94.19777 38.56028
#
# Poissons Ratio (x) = 0.28967 0.08250
# Poissons Ratio (y) = 0.16909 -0.02876
# Poissons Ratio (z) = 0.11764 -0.07026
#
# Static dielectric constant tensor:
#      x y z
#    x 1.819810 -0.022150 0.041320 
#    y -0.022150 1.830310 0.023080 
#    z 0.041320 0.023080 1.782280 
# 
# From -- ./inp_files/184352.got.cif
#   From: 2010.05.17/outbox.cif.g08.bks.cpg/sg2_93_cif.got.tgz:184352.got - 2010.06.03 11:33:40.
