data_PCOD9083558
_publ_section_title
;
Structure prediction by ZEFSAII (Michael W. Deem and Ramdas Pophale) SiO2 
 PCOD9083558
Probable space group: P -1
;
_chemical_formula_sum "Si O2"
_cell_formula_units_Z 16
_cell_length_a 12.199515
_cell_length_b 17.879706
_cell_length_c 8.379896
_cell_angle_alpha 30.874390
_cell_angle_beta 113.279916
_cell_angle_gamma 123.426739
_cell_volume 769.874882
_symmetry_space_group_name_H-M "P -1"
_symmetry_group_IT_number 2
_symmetry_cell_setting 'triclinic'
loop_
_space_group_symop_operation_xyz
x,y,z
-x,-y,-z
loop_
_atom_site_type_symbol
_atom_site_label
_atom_site_fract_x
_atom_site_fract_y
_atom_site_fract_z
Si Si1 0.239983 0.913951 0.119696
Si Si2 0.357880 0.882066 0.709607
Si Si3 0.666107 0.324465 0.198946
Si Si4 0.872791 0.048705 0.707949
Si Si5 0.385052 0.112248 0.567677
Si Si6 0.085672 0.401120 0.266534
Si Si7 0.870297 0.857606 0.765057
Si Si8 0.022103 0.361310 0.673857
O O1 0.279347 0.789846 0.467836
O O2 0.182010 0.996108 0.063425
O O3 0.121283 0.797069 0.147814
O O4 0.361838 0.057511 0.837241
O O5 0.339362 0.716409 0.919852
O O6 0.235506 0.911290 0.520700
O O7 0.500000 0.000000 0.500000
O O8 0.372263 0.945526 0.780722
O O9 0.520997 0.261274 0.310366
O O10 0.777712 0.509265 0.919101
O O11 0.005251 0.216863 0.495771
O O12 0.880496 0.909583 0.862067
O O13 0.262250 0.146484 0.378878
O O14 0.085913 0.404952 0.453310
O O15 0.000000 0.500000 0.000000
O O16 0.886052 0.693705 0.066580
O O17 0.000000 0.000000 0.500000
O O18 0.000000 0.500000 0.500000
#
# Coordination Sequence:
#
# PCOD9083558 Si02
#       8
#     2   2   2   2   2   2   2   2
#     4  10  19  34  58  94 118 158 194 253 294 345
#     4   8  15  28  51  80 114 153 192 239 284 340
#     4  10  19  34  56  88 125 159 201 245 298 354
#     4   9  20  35  57  85 121 148 207 232 297 356
#     4  10  20  35  57  88 120 158 204 246 299 353
#     4  11  20  36  60  88 120 164 193 245 298 349
#     4  11  23  40  62  90 118 162 196 252 302 355
#     4  11  25  38  61  93 121 150 203 252 305 357
#
# _framework density 20.782596999999999
#
# number of rings (size 3 to 8) (size 9 to 14) (size 15 to 20)
#    0.000    2.000    5.000    0.375    3.500    2.000 
#    0.000    0.625    0.000    3.000    0.000    0.000 
#    0.000    0.000    0.000    0.000    0.000    0.000 
#
# Total GULP energy -89145.698476 kJ/mol
# GULP energy per Si atom -5571.606155 kJ/mol
# Density = 2.073529 g / cm^3
# Si number density = 20.782597 Si / 1000 Ang^3
#
#
#
# Elastic Constant Matrix: (Units=GPa)
#
#
# Indices 1 2 3 4 5 6 
#
# 1 120.4746 25.7096 53.6942 -6.2814 -22.2247 9.8532
# 2 25.7096 49.8284 16.2964 -3.9793 -4.9784 -3.2209
# 3 53.6942 16.2964 81.1294 4.6725 -13.9868 -1.2031
# 4 -6.2814 -3.9793 4.6725 18.8050 1.6859 2.3718
# 5 -22.2247 -4.9784 -13.9868 1.6859 39.7584 -5.6345
# 6 9.8532 -3.2209 -1.2031 2.3718 -5.6345 33.5352
#
#
#
# Elastic Compliance Matrix: (Units=1/GPa)
#
#
# Indices 1 2 3 4 5 6 
#
# 1 0.014325 -0.004063 -0.008482 0.006311 0.003574 -0.004749
# 2 -0.004063 0.023384 -0.002143 0.003711 0.000190 0.003132
# 3 -0.008482 -0.002143 0.019421 -0.008875 0.002776 0.004077
# 4 0.006311 0.003711 -0.008875 0.059318 -0.002558 -0.006441
# 5 0.003574 0.000190 0.002776 -0.002558 0.028839 0.004094
# 6 -0.004749 0.003132 0.004077 -0.006441 0.004094 0.032805
#
#
# Mechanical properties :
#
#
# Convention : Reuss Voigt Hill
#
# Bulk Modulus (GPa) = 36.03173 49.20365 42.61769
# Shear Modulus (GPa) = 23.07142 28.80185 25.93664
#
# Velocity S-wave (km/s) = 3.33548 3.72676 3.53653
# Velocity P-wave (km/s) = 5.67530 6.49962 6.10140
#
# Compressibility (1/GPa) = 0.02775332
#
# Stress axis : x y z
#
# Youngs Moduli (GPa) = 69.80896 42.76474 51.49179
#
# Poissons Ratio (x) = 0.17375 0.43677
# Poissons Ratio (y) = 0.28362 0.11034
# Poissons Ratio (z) = 0.59214 0.09164
#
# Static dielectric constant tensor:
#      x y z
#    x 1.775570 -0.010690 -0.001080 
#    y -0.010690 1.839040 0.009410 
#    z -0.001080 0.009410 1.737450 
# 
# From -- ./inp_files/277244.got.cif
#   From: 2010.05.17/outbox.cif.g08.bks.cpg/sg2_139_cif.got.tgz:277244.got - 2010.06.03 11:33:40.
