data_PCOD9083956
_publ_section_title
;
Structure prediction by ZEFSAII (Michael W. Deem and Ramdas Pophale) SiO2 
 PCOD9083956
Probable space group: P -1
;
_chemical_formula_sum "Si O2"
_cell_formula_units_Z 16
_cell_length_a 5.457663
_cell_length_b 15.890094
_cell_length_c 9.218654
_cell_angle_alpha 66.501837
_cell_angle_beta 90.011882
_cell_angle_gamma 99.896470
_cell_volume 720.191910
_symmetry_space_group_name_H-M "P -1"
_symmetry_group_IT_number 2
_symmetry_cell_setting 'triclinic'
loop_
_space_group_symop_operation_xyz
x,y,z
-x,-y,-z
loop_
_atom_site_type_symbol
_atom_site_label
_atom_site_fract_x
_atom_site_fract_y
_atom_site_fract_z
Si Si1 0.443843 0.388016 0.055096
Si Si2 0.412156 0.323887 0.425603
Si Si3 0.302586 0.105234 0.633169
Si Si4 0.782070 0.064189 0.688013
Si Si5 0.057545 0.614576 0.113948
Si Si6 0.147553 0.795213 0.148393
Si Si7 0.034093 0.568784 0.588063
Si Si8 0.695971 0.892054 0.026669
O O1 0.418052 0.336280 0.244039
O O2 0.500000 0.500000 0.000000
O O3 0.682383 0.364997 0.986118
O O4 0.182138 0.365060 0.986158
O O5 0.358385 0.216657 0.545572
O O6 0.685919 0.372818 0.446629
O O7 0.187718 0.372926 0.446797
O O8 0.534468 0.066681 0.598046
O O9 0.032094 0.066709 0.598007
O O10 0.288789 0.077587 0.824154
O O11 0.739621 0.979181 0.859712
O O12 0.829654 0.159283 0.722251
O O13 0.002796 0.504901 0.227560
O O14 0.092174 0.684097 0.204860
O O15 0.416323 0.834249 0.049694
O O16 0.917629 0.834169 0.049781
O O17 0.000000 0.500000 0.500000
#
# Coordination Sequence:
#
# PCOD9083956 Si02
#       8
#     2   2   2   2   2   2   2   2
#     4  12  23  45  63  82 110 167 235 241 282 338
#     4  12  25  41  61  86 118 168 203 257 282 349
#     4  10  20  32  54  84 115 145 192 239 291 335
#     4  10  19  36  57  87 120 158 185 229 303 385
#     4  12  24  40  63  87 117 165 203 264 285 340
#     4  10  20  32  54  89 116 145 190 246 295 339
#     4  12  26  39  59  89 126 158 194 235 332 363
#     4  10  19  34  59  85 122 156 187 227 303 385
#
# _framework density 22.216298999999999
#
# number of rings (size 3 to 8) (size 9 to 14) (size 15 to 20)
#    0.000    1.000    2.500    6.750    7.000    0.000 
#    0.000    0.000    0.000    0.000    0.000   29.750 
#    0.000    0.000    0.000    0.000    0.000    0.000 
#
# Total GULP energy -89475.171510 kJ/mol
# GULP energy per Si atom -5592.198219 kJ/mol
# Density = 2.216573 g / cm^3
# Si number density = 22.216299 Si / 1000 Ang^3
#
#
#
# Elastic Constant Matrix: (Units=GPa)
#
#
# Indices 1 2 3 4 5 6 
#
# 1 263.3720 42.1354 50.4130 -10.4238 -0.4815 -7.0770
# 2 42.1354 71.9620 23.8558 -7.6671 0.5643 1.9699
# 3 50.4130 23.8558 54.8404 -8.9664 -0.1375 -1.3202
# 4 -10.4238 -7.6671 -8.9664 30.7548 -0.0518 -0.5997
# 5 -0.4815 0.5643 -0.1375 -0.0518 18.1015 -27.6447
# 6 -7.0770 1.9699 -1.3202 -0.5997 -27.6447 -89.3148
#
#
#
# Elastic Compliance Matrix: (Units=1/GPa)
#
#
# Indices 1 2 3 4 5 6 
#
# 1 0.004744 -0.001533 -0.003677 0.000148 -0.000270 -0.000273
# 2 -0.001533 0.016845 -0.005567 0.002067 0.000173 0.000508
# 3 -0.003677 -0.005567 0.024781 0.004586 -0.000049 -0.000213
# 4 0.000148 0.002067 0.004586 0.034414 -0.000225 -0.000195
# 5 -0.000270 0.000173 -0.000049 -0.000225 0.037531 -0.011589
# 6 -0.000273 0.000508 -0.000213 -0.000195 -0.011589 -0.007572
#
#
# Mechanical properties :
#
#
# Convention : Reuss Voigt Hill
#
# Bulk Modulus (GPa) = 40.29912 69.22032 54.75972
# Shear Modulus (GPa) = 35.56944 10.15965 22.86454
#
# Velocity S-wave (km/s) = 4.00566 2.14079 3.21156
# Velocity P-wave (km/s) = 6.29067 6.11030 6.20114
#
# Compressibility (1/GPa) = 0.02481444
#
# Stress axis : x y z
#
# Youngs Moduli (GPa) = 210.78707 59.36622 40.35286
#
# Poissons Ratio (x) = 0.09104 0.14838
# Poissons Ratio (y) = 0.32324 0.22465
# Poissons Ratio (z) = 0.77509 0.33051
#
# Static dielectric constant tensor:
#      x y z
#    x 1.990500 -0.002790 0.000660 
#    y -0.002790 1.782350 -0.002220 
#    z 0.000660 -0.002220 1.817040 
# 
# From -- ./inp_files/134996.got.cif
#   From: 2010.05.17/outbox.cif.g08.bks.cpg/sg2_68_cif.got.tgz:134996.got - 2010.06.03 11:33:40.
