data_PCOD9083814
_publ_section_title
;
Structure prediction by ZEFSAII (Michael W. Deem and Ramdas Pophale) SiO2 
 PCOD9083814
Probable space group: P -1
;
_chemical_formula_sum "Si O2"
_cell_formula_units_Z 14
_cell_length_a 12.321524
_cell_length_b 28.864729
_cell_length_c 9.315094
_cell_angle_alpha 32.444804
_cell_angle_beta 47.511479
_cell_angle_gamma 23.707208
_cell_volume 637.863094
_symmetry_space_group_name_H-M "P -1"
_symmetry_group_IT_number 2
_symmetry_cell_setting 'triclinic'
loop_
_space_group_symop_operation_xyz
x,y,z
-x,-y,-z
loop_
_atom_site_type_symbol
_atom_site_label
_atom_site_fract_x
_atom_site_fract_y
_atom_site_fract_z
Si Si1 0.895924 0.408940 0.996581
Si Si2 0.671880 0.291053 0.796450
Si Si3 0.332333 0.635901 0.077453
Si Si4 0.708212 0.818038 0.352101
Si Si5 0.745103 0.656186 0.936889
Si Si6 0.823967 0.878708 0.332829
Si Si7 0.122772 0.259336 0.897825
O O1 0.085969 0.382229 0.984078
O O2 0.063068 0.230768 0.343658
O O3 0.920603 0.410291 0.801825
O O4 0.562468 0.567172 0.945905
O O5 0.474291 0.307126 0.917067
O O6 0.722686 0.281188 0.946602
O O7 0.989214 0.131952 0.844529
O O8 0.915164 0.764515 0.419723
O O9 0.492061 0.465027 0.435605
O O10 0.032992 0.753293 0.961599
O O11 0.561788 0.821151 0.574262
O O12 0.858383 0.705479 0.367703
O O13 0.500000 0.000000 0.000000
O O14 0.466376 0.075614 0.128879
O O15 0.000000 0.500000 0.000000
#
# Coordination Sequence:
#
# PCOD9083814 Si02
#       7
#     2   2   2   2   2   2   2
#     4  10  21  35  56  85 115 147 190 233 291 338
#     4  10  19  35  59  83 109 149 196 237 273 341
#     4  10  19  34  58  85 111 145 192 240 284 333
#     4   9  19  35  57  81 112 148 190 232 279 336
#     4  11  20  36  60  84 112 153 198 233 279 348
#     4   9  19  36  59  81 108 155 193 226 280 348
#     4  11  19  34  59  83 114 147 189 237 284 343
#
# _framework density 21.948283
#
# number of rings (size 3 to 8) (size 9 to 14) (size 15 to 20)
#    0.000    2.000    2.857    1.714    0.000    0.000 
#    0.000    6.429    3.143    0.000    0.000    0.000 
#    0.000    0.000    0.000    0.000    0.000    0.000 
#
# Total GULP energy -78117.005037 kJ/mol
# GULP energy per Si atom -5579.786074 kJ/mol
# Density = 2.189833 g / cm^3
# Si number density = 21.948283 Si / 1000 Ang^3
#
#
#
# Elastic Constant Matrix: (Units=GPa)
#
#
# Indices 1 2 3 4 5 6 
#
# 1 111.2392 58.1479 19.9883 21.0883 -15.4791 -27.3346
# 2 58.1479 118.9945 16.5498 23.4026 -4.2668 -20.3768
# 3 19.9883 16.5498 43.5783 8.6081 -4.2849 -9.7632
# 4 21.0883 23.4026 8.6081 31.6603 -8.3965 7.4193
# 5 -15.4791 -4.2668 -4.2849 -8.3965 25.4791 9.4852
# 6 -27.3346 -20.3768 -9.7632 7.4193 9.4852 52.9447
#
#
#
# Elastic Compliance Matrix: (Units=1/GPa)
#
#
# Indices 1 2 3 4 5 6 
#
# 1 0.014923 -0.004640 -0.002196 -0.006267 0.003723 0.005725
# 2 -0.004640 0.013161 -0.000535 -0.009081 -0.005495 0.004828
# 3 -0.002196 -0.000535 0.026418 -0.006645 -0.000892 0.004623
# 4 -0.006267 -0.009081 -0.006645 0.053470 0.018136 -0.018698
# 5 0.003723 -0.005495 -0.000892 0.018136 0.050889 -0.012015
# 6 0.005725 0.004828 0.004623 -0.018698 -0.012015 0.029327
#
#
# Mechanical properties :
#
#
# Convention : Reuss Voigt Hill
#
# Bulk Modulus (GPa) = 25.15083 51.46489 38.30786
# Shear Modulus (GPa) = 23.12851 33.95856 28.54353
#
# Velocity S-wave (km/s) = 3.24971 3.93772 3.61014
# Velocity P-wave (km/s) = 5.05617 6.64631 5.90501
#
# Compressibility (1/GPa) = 0.03976013
#
# Stress axis : x y z
#
# Youngs Moduli (GPa) = 67.01190 75.97965 37.85287
#
# Poissons Ratio (x) = 0.35258 0.08312
# Poissons Ratio (y) = 0.31097 0.02024
# Poissons Ratio (z) = 0.14715 0.04063
#
# Static dielectric constant tensor:
#      x y z
#    x 1.826780 0.016760 -0.002370 
#    y 0.016760 1.883690 -0.028300 
#    z -0.002370 -0.028300 1.887110 
# 
# From -- ./inp_files/320920.got.cif
#   From: 2010.05.17/outbox.cif.g08.bks.cpg/sg2_161_cif.got.tgz:320920.got - 2010.06.03 11:33:40.
