data_PCOD9083926
_publ_section_title
;
Structure prediction by ZEFSAII (Michael W. Deem and Ramdas Pophale) SiO2 
 PCOD9083926
Probable space group: P -1
;
_chemical_formula_sum "Si O2"
_cell_formula_units_Z 16
_cell_length_a 11.384976
_cell_length_b 7.183316
_cell_length_c 8.952784
_cell_angle_alpha 72.792715
_cell_angle_beta 85.416232
_cell_angle_gamma 97.741271
_cell_volume 687.459819
_symmetry_space_group_name_H-M "P -1"
_symmetry_group_IT_number 2
_symmetry_cell_setting 'triclinic'
loop_
_space_group_symop_operation_xyz
x,y,z
-x,-y,-z
loop_
_atom_site_type_symbol
_atom_site_label
_atom_site_fract_x
_atom_site_fract_y
_atom_site_fract_z
Si Si1 0.805103 0.735989 0.782999
Si Si2 0.530445 0.838614 0.298799
Si Si3 0.274904 0.891939 0.967856
Si Si4 0.946395 0.297543 0.138483
Si Si5 0.282261 0.655512 0.290228
Si Si6 0.372686 0.500824 0.933733
Si Si7 0.260735 0.646184 0.642963
Si Si8 0.636107 0.927563 0.554115
O O1 0.789225 0.525111 0.750099
O O2 0.745610 0.867255 0.643731
O O3 0.942248 0.798168 0.794662
O O4 0.720965 0.682125 0.948562
O O5 0.426988 0.680676 0.272895
O O6 0.581320 0.775068 0.467268
O O7 0.630938 0.926750 0.149006
O O8 0.455823 0.008599 0.330237
O O9 0.144643 0.856228 0.914596
O O10 0.330996 0.701105 0.951365
O O11 0.261184 0.852346 0.155986
O O12 0.865843 0.369714 0.259758
O O13 0.000000 0.500000 0.000000
O O14 0.247823 0.620137 0.474010
O O15 0.346372 0.521382 0.754590
O O16 0.500000 0.500000 0.000000
O O17 0.319117 0.876174 0.592033
#
# Coordination Sequence:
#
# PCOD9083926 Si02
#       8
#     2   2   2   2   2   2   2   2
#     4  11  23  37  59  93 116 155 200 247 288 346
#     4  10  19  37  62  85 123 155 187 243 304 359
#     4  10  19  38  58  88 114 164 194 238 296 355
#     4  11  19  40  63  82 117 160 209 237 278 360
#     4  10  22  35  59  93 121 149 194 248 305 338
#     4  10  19  34  59  83 114 152 201 234 282 353
#     4  10  21  40  62  86 117 162 194 243 295 348
#     4  10  21  37  62  90 118 152 204 240 291 355
#
# _framework density 23.274089
#
# number of rings (size 3 to 8) (size 9 to 14) (size 15 to 20)
#    0.000    1.750    6.250    1.125    3.500    1.500 
#    2.250    0.000    0.000    3.000    0.000    0.000 
#    0.000    0.000    0.000    0.000    0.000    0.000 
#
# Total GULP energy -89337.236389 kJ/mol
# GULP energy per Si atom -5583.577274 kJ/mol
# Density = 2.322112 g / cm^3
# Si number density = 23.274089 Si / 1000 Ang^3
#
#
#
# Elastic Constant Matrix: (Units=GPa)
#
#
# Indices 1 2 3 4 5 6 
#
# 1 200.1936 10.8872 82.8761 -5.9837 24.8942 20.4339
# 2 10.8872 18.9262 17.1741 0.6008 -1.2877 8.3428
# 3 82.8761 17.1741 184.7463 9.3646 8.0323 6.4778
# 4 -5.9837 0.6008 9.3646 42.1172 1.1289 5.4241
# 5 24.8942 -1.2877 8.0323 1.1289 52.7385 -5.2031
# 6 20.4339 8.3428 6.4778 5.4241 -5.2031 27.7132
#
#
#
# Elastic Compliance Matrix: (Units=1/GPa)
#
#
# Indices 1 2 3 4 5 6 
#
# 1 0.007432 0.001040 -0.003186 0.002654 -0.003672 -0.006257
# 2 0.001040 0.066481 -0.006106 0.003127 0.000026 -0.019960
# 3 -0.003186 -0.006106 0.007401 -0.002418 0.000579 0.003040
# 4 0.002654 0.003127 -0.002418 0.025669 -0.002123 -0.007755
# 5 -0.003672 0.000026 0.000579 -0.002123 0.021342 0.006986
# 6 -0.006257 -0.019960 0.003040 -0.007755 0.006986 0.048825
#
#
# Mechanical properties :
#
#
# Convention : Reuss Voigt Hill
#
# Bulk Modulus (GPa) = 15.43015 69.52677 42.47846
# Shear Modulus (GPa) = 23.22804 44.04238 33.63521
#
# Velocity S-wave (km/s) = 3.16257 4.35482 3.80567
# Velocity P-wave (km/s) = 4.46990 7.43127 6.13204
#
# Compressibility (1/GPa) = 0.06480818
#
# Stress axis : x y z
#
# Youngs Moduli (GPa) = 134.54990 15.04198 135.12446
#
# Poissons Ratio (x) = -0.01564 0.43053
# Poissons Ratio (y) = -0.13993 0.82512
# Poissons Ratio (z) = 0.42870 0.09185
#
# Static dielectric constant tensor:
#      x y z
#    x 1.875850 -0.033180 -0.004410 
#    y -0.033180 1.984290 0.071310 
#    z -0.004410 0.071310 1.953860 
# 
# From -- ./inp_files/237188.got.cif
#   From: 2010.05.17/outbox.cif.g08.bks.cpg/sg2_119_cif.got.tgz:237188.got - 2010.06.03 11:33:40.
