data_PCOD9083214
_publ_section_title
;
Structure prediction by ZEFSAII (Michael W. Deem and Ramdas Pophale) SiO2 
 PCOD9083214
Probable space group: P -1
;
_chemical_formula_sum "Si O2"
_cell_formula_units_Z 12
_cell_length_a 9.268061
_cell_length_b 14.172113
_cell_length_c 5.040181
_cell_angle_alpha 78.648583
_cell_angle_beta 76.125072
_cell_angle_gamma 108.895401
_cell_volume 580.280454
_symmetry_space_group_name_H-M "P -1"
_symmetry_group_IT_number 2
_symmetry_cell_setting 'triclinic'
loop_
_space_group_symop_operation_xyz
x,y,z
-x,-y,-z
loop_
_atom_site_type_symbol
_atom_site_label
_atom_site_fract_x
_atom_site_fract_y
_atom_site_fract_z
Si Si1 0.837613 0.514333 0.133216
Si Si2 0.706037 0.573304 0.643170
Si Si3 0.473121 0.639484 0.420548
Si Si4 0.998335 0.070189 0.212265
Si Si5 0.345927 0.156009 0.060261
Si Si6 0.651272 0.974689 0.369327
O O1 0.841995 0.576801 0.367406
O O2 0.691934 0.401448 0.315459
O O3 0.778673 0.571250 0.897248
O O4 0.000000 0.500000 0.000000
O O5 0.620594 0.649549 0.546322
O O6 0.563722 0.458831 0.709918
O O7 0.515774 0.739865 0.165081
O O8 0.171685 0.164644 0.093450
O O9 0.822119 0.073082 0.283836
O O10 0.000000 0.000000 0.500000
O O11 0.000000 0.000000 0.000000
O O12 0.350616 0.066130 0.906173
O O13 0.354684 0.117632 0.374402
O O14 0.500000 0.000000 0.500000
#
# Coordination Sequence:
#
# PCOD9083214 Si02
#       6
#     2   2   2   2   2   2
#     4  10  19  34  53  75 105 144 174 208 266 310
#     4   9  20  34  55  74 108 141 175 211 261 306
#     4   9  21  33  56  78 105 136 186 211 255 303
#     4   8  16  32  50  72  95 130 164 202 255 302
#     4  10  20  33  56  77 100 137 176 215 248 312
#     4  10  20  35  54  75 107 135 167 212 272 309
#
# _framework density 20.679655
#
# number of rings (size 3 to 8) (size 9 to 14) (size 15 to 20)
#    1.000    1.667    0.000    1.500    2.333    0.000 
#    0.000    3.333    0.000    0.000    0.000    0.000 
#    0.000    0.000    0.000    0.000    0.000    0.000 
#
# Total GULP energy -66819.566699 kJ/mol
# GULP energy per Si atom -5568.297225 kJ/mol
# Density = 2.063259 g / cm^3
# Si number density = 20.679655 Si / 1000 Ang^3
#
#
#
# Elastic Constant Matrix: (Units=GPa)
#
#
# Indices 1 2 3 4 5 6 
#
# 1 113.7531 4.3982 15.8573 -1.0713 -34.2492 -18.7016
# 2 4.3982 17.7572 6.2050 2.6176 -0.1943 -1.1972
# 3 15.8573 6.2050 98.7665 12.7410 -5.5709 6.1227
# 4 -1.0713 2.6176 12.7410 28.0538 1.3752 -0.3994
# 5 -34.2492 -0.1943 -5.5709 1.3752 38.2620 12.2376
# 6 -18.7016 -1.1972 6.1227 -0.3994 12.2376 14.2499
#
#
#
# Elastic Compliance Matrix: (Units=1/GPa)
#
#
# Indices 1 2 3 4 5 6 
#
# 1 0.013590 -0.001803 -0.002589 0.001651 0.007848 0.012103
# 2 -0.001803 0.059042 -0.003664 -0.003601 -0.004162 0.007642
# 3 -0.002589 -0.003664 0.012489 -0.005784 0.003644 -0.012364
# 4 0.001651 -0.003601 -0.005784 0.038962 -0.003479 0.008428
# 5 0.007848 -0.004162 0.003644 -0.003479 0.042939 -0.028588
# 6 0.012103 0.007642 -0.012364 0.008428 -0.028588 0.116801
#
#
# Mechanical properties :
#
#
# Convention : Reuss Voigt Hill
#
# Bulk Modulus (GPa) = 14.49074 31.46645 22.97859
# Shear Modulus (GPa) = 15.48288 29.70089 22.59188
#
# Velocity S-wave (km/s) = 2.73921 3.79388 3.30884
# Velocity P-wave (km/s) = 4.12636 5.86861 5.07284
#
# Compressibility (1/GPa) = 0.06900959
#
# Stress axis : x y z
#
# Youngs Moduli (GPa) = 73.58414 16.93695 80.07127
#
# Poissons Ratio (x) = 0.03053 0.20732
# Poissons Ratio (y) = 0.13265 0.29337
# Poissons Ratio (z) = 0.19052 0.06206
#
# Static dielectric constant tensor:
#      x y z
#    x 1.776570 0.027660 -0.022030 
#    y 0.027660 1.779540 -0.001030 
#    z -0.022030 -0.001030 1.754780 
# 
# From -- ./inp_files/41454.got.cif
#   From: 2010.05.17/outbox.cif.g08.bks.cpg/sg2_21_cif.got.tgz:41454.got - 2010.06.03 11:33:40.
