data_PCOD9083446
_publ_section_title
;
Structure prediction by ZEFSAII (Michael W. Deem and Ramdas Pophale) SiO2 
 PCOD9083446
Probable space group: P -1
;
_chemical_formula_sum "Si O2"
_cell_formula_units_Z 14
_cell_length_a 14.261746
_cell_length_b 4.982889
_cell_length_c 12.219736
_cell_angle_alpha 68.166882
_cell_angle_beta 85.657444
_cell_angle_gamma 54.026522
_cell_volume 640.485772
_symmetry_space_group_name_H-M "P -1"
_symmetry_group_IT_number 2
_symmetry_cell_setting 'triclinic'
loop_
_space_group_symop_operation_xyz
x,y,z
-x,-y,-z
loop_
_atom_site_type_symbol
_atom_site_label
_atom_site_fract_x
_atom_site_fract_y
_atom_site_fract_z
Si Si1 0.811653 0.432103 0.864431
Si Si2 0.345716 0.458677 0.336417
Si Si3 0.862847 0.714665 0.011084
Si Si4 0.826900 0.817410 0.411804
Si Si5 0.131579 0.914156 0.426586
Si Si6 0.430766 0.755086 0.571947
Si Si7 0.042375 0.962215 0.764052
O O1 0.711610 0.575458 0.760184
O O2 0.798531 0.713280 0.908698
O O3 0.817167 0.118817 0.978348
O O4 0.938163 0.223365 0.821797
O O5 0.241073 0.813145 0.356983
O O6 0.467981 0.400725 0.321794
O O7 0.381840 0.144365 0.467423
O O8 0.868992 0.449220 0.138659
O O9 0.000000 0.500000 0.000000
O O10 0.839942 0.447160 0.463558
O O11 0.886398 0.814846 0.520615
O O12 0.689105 0.164353 0.385984
O O13 0.887086 0.884931 0.300225
O O14 0.027501 0.039672 0.332997
O O15 0.500000 0.500000 0.500000
#
# Coordination Sequence:
#
# PCOD9083446 Si02
#       7
#     2   2   2   2   2   2   2
#     4  10  22  36  57  81 106 141 180 219 266 310
#     4   9  20  34  55  80 106 140 177 224 260 311
#     4  10  21  36  55  80 107 142 182 218 260 312
#     4  11  22  34  52  81 111 143 170 213 270 319
#     4  10  21  34  51  81 110 142 171 208 268 326
#     4  10  19  34  56  78 109 137 182 215 262 320
#     4  10  21  35  55  78 113 139 174 218 263 319
#
# _framework density 21.858407
#
# number of rings (size 3 to 8) (size 9 to 14) (size 15 to 20)
#    0.000    2.000    1.429    2.571    2.000   11.429 
#    0.000    0.000    0.000    1.714    0.000    0.000 
#    0.000    0.000    0.000    0.000    0.000    0.000 
#
# Total GULP energy -78256.332217 kJ/mol
# GULP energy per Si atom -5589.738016 kJ/mol
# Density = 2.180866 g / cm^3
# Si number density = 21.858407 Si / 1000 Ang^3
#
#
#
# Elastic Constant Matrix: (Units=GPa)
#
#
# Indices 1 2 3 4 5 6 
#
# 1 106.8870 27.4189 43.4559 -3.3967 4.0730 -11.4793
# 2 27.4189 64.4138 6.9897 4.0465 -4.2070 1.1676
# 3 43.4559 6.9897 78.4219 -14.3441 -5.0259 -13.6716
# 4 -3.3967 4.0465 -14.3441 16.8940 6.6875 1.2169
# 5 4.0730 -4.2070 -5.0259 6.6875 35.9273 -1.8263
# 6 -11.4793 1.1676 -13.6716 1.2169 -1.8263 34.7390
#
#
#
# Elastic Compliance Matrix: (Units=1/GPa)
#
#
# Indices 1 2 3 4 5 6 
#
# 1 0.013973 -0.005303 -0.007354 -0.001132 -0.002932 0.001787
# 2 -0.005303 0.018524 -0.000079 -0.006998 0.003963 -0.001953
# 3 -0.007354 -0.000079 0.020594 0.015200 0.001141 0.005205
# 4 -0.001132 -0.006998 0.015200 0.078545 -0.013063 0.002405
# 5 -0.002932 0.003963 0.001141 -0.013063 0.031295 0.001450
# 6 0.001787 -0.001953 0.005205 0.002405 0.001450 0.031483
#
#
# Mechanical properties :
#
#
# Convention : Reuss Voigt Hill
#
# Bulk Modulus (GPa) = 36.20526 45.05020 40.62773
# Shear Modulus (GPa) = 21.82516 28.96926 25.39721
#
# Velocity S-wave (km/s) = 3.16330 3.64444 3.41236
# Velocity P-wave (km/s) = 5.47188 6.19387 5.84403
#
# Compressibility (1/GPa) = 0.02762030
#
# Stress axis : x y z
#
# Youngs Moduli (GPa) = 71.56407 53.98308 48.55698
#
# Poissons Ratio (x) = 0.28626 0.35709
# Poissons Ratio (y) = 0.37949 0.00384
# Poissons Ratio (z) = 0.52628 0.00427
#
# Static dielectric constant tensor:
#      x y z
#    x 1.862650 -0.012280 -0.003910 
#    y -0.012280 1.864480 -0.023370 
#    z -0.003910 -0.023370 1.846460 
# 
# From -- ./inp_files/67981.got.cif
#   From: 2010.05.17/outbox.cif.g08.bks.cpg/sg2_34_cif.got.tgz:67981.got - 2010.06.03 11:33:40.
