data_PCOD9083827
_publ_section_title
;
Structure prediction by ZEFSAII (Michael W. Deem and Ramdas Pophale) SiO2 
 PCOD9083827
Probable space group: P -1
;
_chemical_formula_sum "Si O2"
_cell_formula_units_Z 14
_cell_length_a 12.058363
_cell_length_b 12.188545
_cell_length_c 11.013196
_cell_angle_alpha 32.799958
_cell_angle_beta 123.078130
_cell_angle_gamma 133.397721
_cell_volume 635.036600
_symmetry_space_group_name_H-M "P -1"
_symmetry_group_IT_number 2
_symmetry_cell_setting 'triclinic'
loop_
_space_group_symop_operation_xyz
x,y,z
-x,-y,-z
loop_
_atom_site_type_symbol
_atom_site_label
_atom_site_fract_x
_atom_site_fract_y
_atom_site_fract_z
Si Si1 0.478994 0.574246 0.551823
Si Si2 0.996047 0.258107 0.365613
Si Si3 0.385541 0.398637 0.913277
Si Si4 0.093410 0.743592 0.102184
Si Si5 0.811871 0.497390 0.447422
Si Si6 0.786906 0.960012 0.316326
Si Si7 0.094286 0.002026 0.211712
O O1 0.500000 0.500000 0.500000
O O2 0.468234 0.430235 0.802513
O O3 0.315831 0.557933 0.474192
O O4 0.626782 0.830183 0.410244
O O5 0.042354 0.509740 0.211525
O O6 0.136056 0.204712 0.488377
O O7 0.907460 0.185989 0.253591
O O8 0.883887 0.077188 0.569067
O O9 0.289599 0.533931 0.702599
O O10 0.251018 0.135932 0.106572
O O11 0.500000 0.500000 0.000000
O O12 0.128937 0.675724 0.318215
O O13 0.965241 0.815910 0.971295
O O14 0.223332 0.958752 0.901439
O O15 0.947603 0.766346 0.290872
#
# Coordination Sequence:
#
# PCOD9083827 Si02
#       7
#     2   2   2   2   2   2   2
#     4  10  20  36  60  88 119 157 204 245 294 366
#     4   9  19  34  58  92 119 160 206 248 298 373
#     4  10  22  39  64  90 123 161 202 251 310 356
#     4  10  19  34  60  88 124 154 207 247 303 361
#     4   9  22  38  61  91 118 157 212 246 294 373
#     4  10  19  34  58  85 127 163 197 249 312 349
#     4  10  19  38  65  86 115 165 198 253 305 353
#
# _framework density 22.045973
#
# number of rings (size 3 to 8) (size 9 to 14) (size 15 to 20)
#    0.857    1.429    0.000    4.286    0.000    1.143 
#    0.000    2.857    3.143    5.143    0.000    0.000 
#    0.000    0.000    0.000    0.000    0.000    0.000 
#
# Total GULP energy -77995.729973 kJ/mol
# GULP energy per Si atom -5571.123570 kJ/mol
# Density = 2.199580 g / cm^3
# Si number density = 22.045973 Si / 1000 Ang^3
#
#
#
# Elastic Constant Matrix: (Units=GPa)
#
#
# Indices 1 2 3 4 5 6 
#
# 1 92.1064 37.2265 46.3653 -27.8968 -21.7698 -5.5231
# 2 37.2265 115.7579 51.8879 6.1473 6.1702 7.7492
# 3 46.3653 51.8879 141.4575 7.9895 -17.8796 8.1912
# 4 -27.8968 6.1473 7.9895 38.3762 1.5590 -12.0454
# 5 -21.7698 6.1702 -17.8796 1.5590 42.2690 -10.2884
# 6 -5.5231 7.7492 8.1912 -12.0454 -10.2884 24.0056
#
#
#
# Elastic Compliance Matrix: (Units=1/GPa)
#
#
# Indices 1 2 3 4 5 6 
#
# 1 0.157660 -0.066476 -0.035780 0.197207 0.122369 0.221340
# 2 -0.066476 0.039331 0.010798 -0.085577 -0.056288 -0.098739
# 3 -0.035780 0.010798 0.017463 -0.046423 -0.023309 -0.050960
# 4 0.197207 -0.085577 -0.046423 0.279324 0.156147 0.295916
# 5 0.122369 -0.056288 -0.023309 0.156147 0.124555 0.186010
# 6 0.221340 -0.098739 -0.050960 0.295916 0.186010 0.370046
#
#
# Mechanical properties :
#
#
# Convention : Reuss Voigt Hill
#
# Bulk Modulus (GPa) = 31.70769 68.92011 50.31390
# Shear Modulus (GPa) = 4.23081 35.18631 19.70856
#
# Velocity S-wave (km/s) = 1.38681 3.99938 2.99319
# Velocity P-wave (km/s) = 4.12045 7.25649 5.90062
#
# Compressibility (1/GPa) = 0.03153809
#
# Stress axis : x y z
#
# Youngs Moduli (GPa) = 6.34275 25.42505 57.26491
#
# Poissons Ratio (x) = 1.69016 2.04894
# Poissons Ratio (y) = 0.42164 -0.61835
# Poissons Ratio (z) = 0.22694 -0.27454
#
# Static dielectric constant tensor:
#      x y z
#    x 1.853680 -0.009120 -0.030370 
#    y -0.009120 1.848640 0.022440 
#    z -0.030370 0.022440 1.854210 
# 
# From -- ./inp_files/430814.got.cif
#   From: 2010.05.17/outbox.cif.g08.bks.cpg/sg2_216_cif.got.tgz:430814.got - 2010.06.03 11:33:40.
