data_PCOD9083127
_publ_section_title
;
Structure prediction by ZEFSAII (Michael W. Deem and Ramdas Pophale) SiO2 
 PCOD9083127
Probable space group: P -1
;
_chemical_formula_sum "Si O2"
_cell_formula_units_Z 16
_cell_length_a 10.475516
_cell_length_b 8.898888
_cell_length_c 15.353663
_cell_angle_alpha 34.457908
_cell_angle_beta 65.985428
_cell_angle_gamma 81.908744
_cell_volume 685.156594
_symmetry_space_group_name_H-M "P -1"
_symmetry_group_IT_number 2
_symmetry_cell_setting 'triclinic'
loop_
_space_group_symop_operation_xyz
x,y,z
-x,-y,-z
loop_
_atom_site_type_symbol
_atom_site_label
_atom_site_fract_x
_atom_site_fract_y
_atom_site_fract_z
Si Si1 0.910245 0.145009 0.513808
Si Si2 0.089144 0.241412 0.789620
Si Si3 0.827114 0.237405 0.242942
Si Si4 0.634949 0.850935 0.630984
Si Si5 0.419400 0.106271 0.640476
Si Si6 0.585972 0.739798 0.258910
Si Si7 0.658602 0.668098 0.087422
Si Si8 0.057379 0.002426 0.239942
O O1 0.925017 0.457347 0.327557
O O2 0.739447 0.918956 0.654605
O O3 0.965119 0.189092 0.576730
O O4 0.000000 0.000000 0.500000
O O5 0.264258 0.288657 0.727688
O O6 0.026864 0.140483 0.757573
O O7 0.000000 0.000000 0.000000
O O8 0.768481 0.489770 0.164935
O O9 0.995018 0.247206 0.173897
O O10 0.747362 0.980721 0.457048
O O11 0.741312 0.118423 0.233597
O O12 0.505134 0.541443 0.800213
O O13 0.537360 0.046233 0.574470
O O14 0.449754 0.433395 0.451602
O O15 0.450057 0.066292 0.752058
O O16 0.627984 0.817838 0.110742
O O17 0.765472 0.882229 0.885974
#
# Coordination Sequence:
#
# PCOD9083127 Si02
#       8
#     2   2   2   2   2   2   2   2
#     4  12  27  48  70  99 144 194 230 280 357 425
#     4  12  25  45  73 101 141 179 238 293 342 413
#     4  11  19  37  63 101 131 185 229 286 338 412
#     4  11  21  42  66  94 137 188 235 281 338 416
#     4  10  19  33  64  98 131 171 237 292 336 393
#     4  11  19  35  62 102 129 168 226 298 340 389
#     4  11  22  38  65 102 142 172 240 293 341 405
#     4  12  26  41  66 102 145 183 225 287 362 417
#
# _framework density 23.352326000000001
#
# number of rings (size 3 to 8) (size 9 to 14) (size 15 to 20)
#    0.000    0.750    7.500    1.500    0.000    1.500 
#    0.000    0.000    0.000    1.500    0.000    0.000 
#    0.000    0.000    0.000    0.000    0.000    0.000 
#
# Total GULP energy -89273.739801 kJ/mol
# GULP energy per Si atom -5579.608738 kJ/mol
# Density = 2.329918 g / cm^3
# Si number density = 23.352326 Si / 1000 Ang^3
#
#
#
# Elastic Constant Matrix: (Units=GPa)
#
#
# Indices 1 2 3 4 5 6 
#
# 1 62.7728 19.9673 20.4402 -0.7169 -3.3624 17.1118
# 2 19.9673 105.8057 36.8095 24.3699 -3.0287 15.8125
# 3 20.4402 36.8095 74.0997 16.5854 -9.8810 -2.4898
# 4 -0.7169 24.3699 16.5854 31.8651 -1.4577 -2.7822
# 5 -3.3624 -3.0287 -9.8810 -1.4577 28.5590 6.2093
# 6 17.1118 15.8125 -2.4898 -2.7822 6.2093 35.5685
#
#
#
# Elastic Compliance Matrix: (Units=1/GPa)
#
#
# Indices 1 2 3 4 5 6 
#
# 1 0.021300 -0.001121 -0.006146 0.003755 0.002706 -0.010358
# 2 -0.001121 0.014622 -0.005040 -0.009176 0.000765 -0.007165
# 3 -0.006146 -0.005040 0.019743 -0.005901 0.004097 0.005403
# 4 0.003755 -0.009176 -0.005901 0.041955 -0.001610 0.005423
# 5 0.002706 0.000765 0.004097 -0.001610 0.038535 -0.008208
# 6 -0.010358 -0.007165 0.005403 0.005423 -0.008208 0.038519
#
#
# Mechanical properties :
#
#
# Convention : Reuss Voigt Hill
#
# Bulk Modulus (GPa) = 32.20470 44.12358 38.16414
# Shear Modulus (GPa) = 23.85075 30.22927 27.04001
#
# Velocity S-wave (km/s) = 3.19931 3.60180 3.40651
# Velocity P-wave (km/s) = 5.24101 6.01939 5.64364
#
# Compressibility (1/GPa) = 0.03105137
#
# Stress axis : x y z
#
# Youngs Moduli (GPa) = 46.94901 68.38926 50.65133
#
# Poissons Ratio (x) = 0.07665 0.31132
# Poissons Ratio (y) = 0.05262 0.25526
# Poissons Ratio (z) = 0.28857 0.34465
#
# Static dielectric constant tensor:
#      x y z
#    x 1.957840 0.006990 0.021490 
#    y 0.006990 1.943280 0.010310 
#    z 0.021490 0.010310 1.921210 
# 
# From -- ./inp_files/271227.got.cif
#   From: 2010.05.17/outbox.cif.g08.bks.cpg/sg2_136_cif.got.tgz:271227.got - 2010.06.03 11:33:40.
