data_PCOD9083457
_publ_section_title
;
Structure prediction by ZEFSAII (Michael W. Deem and Ramdas Pophale) SiO2 
 PCOD9083457
Probable space group: P -1
;
_chemical_formula_sum "Si O2"
_cell_formula_units_Z 14
_cell_length_a 27.378423
_cell_length_b 14.293475
_cell_length_c 10.403469
_cell_angle_alpha 149.857284
_cell_angle_beta 147.674129
_cell_angle_gamma 19.883771
_cell_volume 683.165406
_symmetry_space_group_name_H-M "P -1"
_symmetry_group_IT_number 2
_symmetry_cell_setting 'triclinic'
loop_
_space_group_symop_operation_xyz
x,y,z
-x,-y,-z
loop_
_atom_site_type_symbol
_atom_site_label
_atom_site_fract_x
_atom_site_fract_y
_atom_site_fract_z
Si Si1 0.619756 0.571001 0.788243
Si Si2 0.717950 0.804225 0.593319
Si Si3 0.755129 0.918750 0.057698
Si Si4 0.492741 0.405933 0.684141
Si Si5 0.840843 0.886166 0.480894
Si Si6 0.160763 0.445133 0.716447
Si Si7 0.543002 0.720937 0.082971
O O1 0.522883 0.704284 0.604475
O O2 0.702909 0.242216 0.597866
O O3 0.741066 0.537045 0.003593
O O4 0.537119 0.738294 0.936054
O O5 0.792043 0.688426 0.481173
O O6 0.657350 0.692976 0.348823
O O7 0.574415 0.165127 0.690280
O O8 0.812955 0.738068 0.840919
O O9 0.667712 0.253835 0.237828
O O10 0.853112 0.791339 0.249347
O O11 0.620930 0.995599 0.892313
O O12 0.581377 0.449592 0.890071
O O13 0.819888 0.752409 0.374708
O O14 0.987644 0.759826 0.697666
#
# Coordination Sequence:
#
# PCOD9083457 Si02
#       7
#     2   2   2   2   2   2   2
#     4  10  19  34  56  80 103 135 170 217 257 307
#     4  11  20  35  52  81 107 135 173 208 252 321
#     4   9  21  35  53  76 109 139 164 212 262 301
#     4   9  20  30  53  79 108 135 164 209 260 308
#     4  10  21  40  52  76 105 135 178 219 249 301
#     4  10  23  34  58  76  99 142 177 212 257 295
#     4   9  20  31  52  81 107 137 161 211 267 296
#
# _framework density 20.492843000000001
#
# number of rings (size 3 to 8) (size 9 to 14) (size 15 to 20)
#    0.857    1.429    0.000    2.571    4.000    1.714 
#    0.000    0.000    0.000    0.000    0.000   13.000 
#    0.000    0.000    0.000    0.000    0.000    0.000 
#
# Total GULP energy -78117.761367 kJ/mol
# GULP energy per Si atom -5579.840098 kJ/mol
# Density = 2.044620 g / cm^3
# Si number density = 20.492843 Si / 1000 Ang^3
#
#
#
# Elastic Constant Matrix: (Units=GPa)
#
#
# Indices 1 2 3 4 5 6 
#
# 1 43.5081 9.7049 36.8878 -9.0669 3.3604 15.7967
# 2 9.7049 34.1383 2.6691 -10.2969 4.8331 8.0459
# 3 36.8878 2.6691 100.3459 -9.7243 -10.5632 20.3339
# 4 -9.0669 -10.2969 -9.7243 15.8660 2.4646 -1.2873
# 5 3.3604 4.8331 -10.5632 2.4646 32.6498 1.2081
# 6 15.7967 8.0459 20.3339 -1.2873 1.2081 14.0820
#
#
#
# Elastic Compliance Matrix: (Units=1/GPa)
#
#
# Indices 1 2 3 4 5 6 
#
# 1 0.051447 0.006036 -0.008136 0.025987 -0.009071 -0.046258
# 2 0.006036 0.049407 0.008102 0.038045 -0.006607 -0.042653
# 3 -0.008136 0.008102 0.018775 0.009405 0.005826 -0.022252
# 4 0.025987 0.038045 0.009405 0.105713 -0.011251 -0.053840
# 5 -0.009071 -0.006607 0.005826 -0.011251 0.035219 0.001488
# 6 -0.046258 -0.042653 -0.022252 -0.053840 0.001488 0.174356
#
#
# Mechanical properties :
#
#
# Convention : Reuss Voigt Hill
#
# Bulk Modulus (GPa) = 7.59699 30.72400 19.16049
# Shear Modulus (GPa) = 10.71146 21.10160 15.90653
#
# Velocity S-wave (km/s) = 2.28873 3.21238 2.78906
# Velocity P-wave (km/s) = 3.27102 5.36510 4.44319
#
# Compressibility (1/GPa) = 0.13163110
#
# Stress axis : x y z
#
# Youngs Moduli (GPa) = 19.43752 20.24019 53.26345
#
# Poissons Ratio (x) = -0.12216 0.43333
# Poissons Ratio (y) = -0.11732 -0.43151
# Poissons Ratio (z) = 0.15814 -0.16398
#
# Static dielectric constant tensor:
#      x y z
#    x 1.727270 -0.016270 -0.030170 
#    y -0.016270 1.727100 0.015240 
#    z -0.030170 0.015240 1.744830 
# 
# From -- ./inp_files/109335.got.cif
#   From: 2010.05.17/outbox.cif.g08.bks.cpg/sg2_55_cif.got.tgz:109335.got - 2010.06.03 11:33:40.
