data_PCOD9083602
_publ_section_title
;
Structure prediction by ZEFSAII (Michael W. Deem and Ramdas Pophale) SiO2 
 PCOD9083602
Probable space group: P -1
;
_chemical_formula_sum "Si O2"
_cell_formula_units_Z 16
_cell_length_a 9.053647
_cell_length_b 17.386434
_cell_length_c 7.367310
_cell_angle_alpha 76.216291
_cell_angle_beta 68.236948
_cell_angle_gamma 41.473190
_cell_volume 711.812149
_symmetry_space_group_name_H-M "P -1"
_symmetry_group_IT_number 2
_symmetry_cell_setting 'triclinic'
loop_
_space_group_symop_operation_xyz
x,y,z
-x,-y,-z
loop_
_atom_site_type_symbol
_atom_site_label
_atom_site_fract_x
_atom_site_fract_y
_atom_site_fract_z
Si Si1 0.912824 0.195493 0.283106
Si Si2 0.750521 0.560769 0.845634
Si Si3 0.797424 0.675879 0.055312
Si Si4 0.593286 0.373501 0.757143
Si Si5 0.368799 0.103171 0.147356
Si Si6 0.588443 0.551049 0.585185
Si Si7 0.305639 0.825106 0.328811
Si Si8 0.159821 0.007145 0.013433
O O1 0.693072 0.335505 0.315202
O O2 0.806387 0.153883 0.440670
O O3 0.149391 0.136607 0.313767
O O4 0.007639 0.137559 0.073924
O O5 0.716268 0.568857 0.641797
O O6 0.968966 0.431701 0.889646
O O7 0.768930 0.636944 0.901542
O O8 0.525966 0.599192 0.013065
O O9 0.584071 0.729395 0.251683
O O10 0.767007 0.777423 0.960372
O O11 0.683633 0.430042 0.668383
O O12 0.399483 0.445034 0.640087
O O13 0.745103 0.239633 0.719468
O O14 0.598777 0.057628 0.162947
O O15 0.500000 0.000000 0.000000
O O16 0.236871 0.930551 0.202058
O O17 0.000000 0.000000 0.000000
#
# Coordination Sequence:
#
# PCOD9083602 Si02
#       8
#     2   2   2   2   2   2   2   2
#     4  10  20  35  60  82 108 153 187 231 290 344
#     4  10  19  34  57  81 112 161 193 236 284 344
#     4   9  19  35  56  82 118 149 196 236 285 344
#     4   9  19  34  52  82 119 145 193 239 284 343
#     4   9  19  36  55  82 112 146 185 235 294 340
#     4  10  20  33  56  86 117 151 196 236 291 343
#     4   9  19  37  57  77 114 147 185 235 285 338
#     4  10  21  36  60  84 108 144 189 237 282 349
#
# _framework density 22.477841000000002
#
# number of rings (size 3 to 8) (size 9 to 14) (size 15 to 20)
#    0.000    2.500    0.000    1.500    5.250    0.000 
#    2.250   10.625    8.250    0.000    0.000    0.000 
#    0.000    0.000    0.000    0.000    0.000    0.000 
#
# Total GULP energy -89088.835535 kJ/mol
# GULP energy per Si atom -5568.052221 kJ/mol
# Density = 2.242668 g / cm^3
# Si number density = 22.477841 Si / 1000 Ang^3
#
#
#
# Elastic Constant Matrix: (Units=GPa)
#
#
# Indices 1 2 3 4 5 6 
#
# 1 75.6204 1.5819 8.0202 2.8314 6.4638 -11.1123
# 2 1.5819 74.3974 -2.8771 10.5463 -2.0987 13.0176
# 3 8.0202 -2.8771 33.2467 3.0557 6.0915 -4.3309
# 4 2.8314 10.5463 3.0557 24.9655 -4.9360 -15.2130
# 5 6.4638 -2.0987 6.0915 -4.9360 26.9385 -4.8788
# 6 -11.1123 13.0176 -4.3309 -15.2130 -4.8788 29.8164
#
#
#
# Elastic Compliance Matrix: (Units=1/GPa)
#
#
# Indices 1 2 3 4 5 6 
#
# 1 0.014737 -0.002674 -0.003010 0.005003 -0.000575 0.008681
# 2 -0.002674 0.021027 0.002986 -0.024695 -0.007180 -0.023518
# 3 -0.003010 0.002986 0.033022 -0.008901 -0.008797 -0.003610
# 4 0.005003 -0.024695 -0.008901 0.096290 0.028325 0.065118
# 5 -0.000575 -0.007180 -0.008797 0.028325 0.048224 0.023986
# 6 0.008681 -0.023518 -0.003610 0.065118 0.023986 0.083667
#
#
# Mechanical properties :
#
#
# Convention : Reuss Voigt Hill
#
# Bulk Modulus (GPa) = 15.77530 21.85716 18.81623
# Shear Modulus (GPa) = 15.45631 28.11338 21.78484
#
# Velocity S-wave (km/s) = 2.62510 3.54038 3.11653
# Velocity P-wave (km/s) = 4.02761 5.14367 4.61947
#
# Compressibility (1/GPa) = 0.06339023
#
# Stress axis : x y z
#
# Youngs Moduli (GPa) = 67.85826 47.55822 30.28247
#
# Poissons Ratio (x) = 0.12718 0.09115
# Poissons Ratio (y) = 0.18146 -0.09044
# Poissons Ratio (z) = 0.20426 -0.14203
#
# Static dielectric constant tensor:
#      x y z
#    x 1.909590 0.003270 -0.006070 
#    y 0.003270 1.859060 0.015190 
#    z -0.006070 0.015190 1.854470 
# 
# From -- ./inp_files/217461.got.cif
#   From: 2010.05.17/outbox.cif.g08.bks.cpg/sg2_109_cif.got.tgz:217461.got - 2010.06.03 11:33:40.
