data_PCOD9083412
_publ_section_title
;
Structure prediction by ZEFSAII (Michael W. Deem and Ramdas Pophale) SiO2 
 PCOD9083412
Probable space group: P -1
;
_chemical_formula_sum "Si O2"
_cell_formula_units_Z 16
_cell_length_a 14.873396
_cell_length_b 7.454773
_cell_length_c 14.154277
_cell_angle_alpha 57.047626
_cell_angle_beta 138.573425
_cell_angle_gamma 135.774551
_cell_volume 724.195834
_symmetry_space_group_name_H-M "P -1"
_symmetry_group_IT_number 2
_symmetry_cell_setting 'triclinic'
loop_
_space_group_symop_operation_xyz
x,y,z
-x,-y,-z
loop_
_atom_site_type_symbol
_atom_site_label
_atom_site_fract_x
_atom_site_fract_y
_atom_site_fract_z
Si Si1 0.300345 0.526198 0.894077
Si Si2 0.088344 0.990344 0.979592
Si Si3 0.998512 0.501652 0.384940
Si Si4 0.851698 0.906065 0.667230
Si Si5 0.609029 0.612244 0.186873
Si Si6 0.389925 0.033080 0.264478
Si Si7 0.526137 0.748721 0.529867
Si Si8 0.795115 0.699526 0.485619
O O1 0.205839 0.288949 0.958536
O O2 0.301718 0.399846 0.831763
O O3 0.188164 0.633656 0.759023
O O4 0.485375 0.688723 0.032035
O O5 0.209044 0.897777 0.119034
O O6 0.961261 0.849622 0.834797
O O7 0.000000 0.000000 0.000000
O O8 0.093463 0.389581 0.444147
O O9 0.000000 0.500000 0.500000
O O10 0.092989 0.804596 0.347752
O O11 0.661482 0.713568 0.600925
O O12 0.881592 0.900135 0.581160
O O13 0.502733 0.313617 0.225029
O O14 0.725784 0.768139 0.321567
O O15 0.377831 0.067259 0.357139
O O16 0.477923 0.882088 0.375323
O O17 0.363254 0.530065 0.517756
#
# Coordination Sequence:
#
# PCOD9083412 Si02
#       8
#     2   2   2   2   2   2   2   2
#     4   9  19  33  58  83 112 151 196 234 283 347
#     4  10  19  34  55  84 115 155 191 234 294 345
#     4  11  22  39  61  87 117 155 192 238 293 348
#     4  11  23  39  60  87 119 155 193 243 290 346
#     4   9  17  35  56  85 112 151 195 236 284 343
#     4   9  17  31  59  81 112 153 192 237 285 339
#     4  10  19  34  56  86 116 150 196 242 282 342
#     4  11  23  38  60  89 119 152 196 241 291 345
#
# _framework density 22.093471000000001
#
# number of rings (size 3 to 8) (size 9 to 14) (size 15 to 20)
#    0.000    2.000    2.500    2.625    1.750    0.500 
#    0.000    1.875    0.000    0.750    0.000    0.000 
#    0.000    0.000    0.000    0.000    0.000    0.000 
#
# Total GULP energy -89285.251095 kJ/mol
# GULP energy per Si atom -5580.328193 kJ/mol
# Density = 2.204319 g / cm^3
# Si number density = 22.093471 Si / 1000 Ang^3
#
#
#
# Elastic Constant Matrix: (Units=GPa)
#
#
# Indices 1 2 3 4 5 6 
#
# 1 119.7120 16.8512 48.9520 14.1914 0.8980 -0.4224
# 2 16.8512 31.8847 10.5494 -0.8076 4.1637 2.4081
# 3 48.9520 10.5494 166.9800 15.7286 18.4271 -10.2558
# 4 14.1914 -0.8076 15.7286 19.8841 5.2556 -7.6568
# 5 0.8980 4.1637 18.4271 5.2556 40.5209 -0.6691
# 6 -0.4224 2.4081 -10.2558 -7.6568 -0.6691 28.4824
#
#
#
# Elastic Compliance Matrix: (Units=1/GPa)
#
#
# Indices 1 2 3 4 5 6 
#
# 1 0.011032 -0.005306 -0.002595 -0.007562 0.002424 -0.002298
# 2 -0.005306 0.035289 -0.000946 0.006314 -0.003927 -0.001798
# 3 -0.002595 -0.000946 0.007493 -0.002590 -0.002884 0.001975
# 4 -0.007562 0.006314 -0.002590 0.066182 -0.007622 0.016034
# 5 0.002424 -0.003927 -0.002884 -0.007622 0.027294 -0.002079
# 6 -0.002298 -0.001798 0.001975 0.016034 -0.002079 0.040200
#
#
# Mechanical properties :
#
#
# Convention : Reuss Voigt Hill
#
# Bulk Modulus (GPa) = 27.68603 52.36466 40.02534
# Shear Modulus (GPa) = 23.01775 33.92574 28.47174
#
# Velocity S-wave (km/s) = 3.23125 3.92287 3.59373
# Velocity P-wave (km/s) = 5.14585 6.65367 5.94774
#
# Compressibility (1/GPa) = 0.03611930
#
# Stress axis : x y z
#
# Youngs Moduli (GPa) = 90.64874 28.33765 133.45988
#
# Poissons Ratio (x) = 0.15036 0.34635
# Poissons Ratio (y) = 0.48099 0.12621
# Poissons Ratio (z) = 0.23525 0.02680
#
# Static dielectric constant tensor:
#      x y z
#    x 1.799110 0.007420 0.025630 
#    y 0.007420 1.898740 0.050810 
#    z 0.025630 0.050810 1.865450 
# 
# From -- ./inp_files/311830.got.cif
#   From: 2010.05.17/outbox.cif.g08.bks.cpg/sg2_156_cif.got.tgz:311830.got - 2010.06.03 11:33:40.
