data_PCOD9083541
_publ_section_title
;
Structure prediction by ZEFSAII (Michael W. Deem and Ramdas Pophale) SiO2 
 PCOD9083541
Probable space group: P -1
;
_chemical_formula_sum "Si O2"
_cell_formula_units_Z 16
_cell_length_a 8.780730
_cell_length_b 6.642858
_cell_length_c 24.365034
_cell_angle_alpha 123.212998
_cell_angle_beta 146.665035
_cell_angle_gamma 55.211829
_cell_volume 633.397617
_symmetry_space_group_name_H-M "P -1"
_symmetry_group_IT_number 2
_symmetry_cell_setting 'triclinic'
loop_
_space_group_symop_operation_xyz
x,y,z
-x,-y,-z
loop_
_atom_site_type_symbol
_atom_site_label
_atom_site_fract_x
_atom_site_fract_y
_atom_site_fract_z
Si Si1 0.318809 0.464893 0.570441
Si Si2 0.938096 0.249463 0.191429
Si Si3 0.779101 0.706376 0.280720
Si Si4 0.427952 0.985418 0.634547
Si Si5 0.175342 0.522857 0.202848
Si Si6 0.616742 0.230954 0.524381
Si Si7 0.438792 0.240044 0.965519
Si Si8 0.676797 0.973673 0.890276
O O1 0.352018 0.737563 0.601045
O O2 0.560732 0.391072 0.679172
O O3 0.400462 0.269166 0.515796
O O4 0.000000 0.500000 0.500000
O O5 0.847756 0.417991 0.243081
O O6 0.233031 0.053367 0.262035
O O7 0.036733 0.416389 0.198275
O O8 0.663498 0.175142 0.073045
O O9 0.503751 0.844086 0.183024
O O10 0.064113 0.788658 0.360471
O O11 0.732061 0.787591 0.341739
O O12 0.361835 0.961170 0.547328
O O13 0.898782 0.695459 0.116612
O O14 0.301372 0.300161 0.165913
O O15 0.500000 0.500000 0.500000
O O16 0.520090 0.048108 0.911523
O O17 0.500000 0.500000 0.000000
O O18 0.000000 0.000000 0.000000
#
# Coordination Sequence:
#
# PCOD9083541 Si02
#       8
#     2   2   2   2   2   2   2   2
#     4  10  19  34  52  69  99 138 168 204 247 288
#     4  10  16  27  43  70 100 125 157 197 251 296
#     4  12  17  28  50  69 100 135 159 201 252 290
#     4  10  20  33  49  73 101 130 168 205 246 292
#     4  10  17  29  41  65 100 127 160 196 243 294
#     4  10  19  34  50  69  99 133 168 210 245 287
#     4  10  16  24  41  64  97 131 147 195 251 299
#     4  12  17  24  43  70 101 130 157 193 255 305
#
# _framework density 25.260594000000001
#
# number of rings (size 3 to 8) (size 9 to 14) (size 15 to 20)
#    0.000    1.500   11.250    0.375    0.000    0.000 
#    0.000    0.625    0.000    0.000    0.000    0.875 
#    0.000    5.000    0.000    0.000    0.000    0.000 
#
# Total GULP energy -89611.381138 kJ/mol
# GULP energy per Si atom -5600.711321 kJ/mol
# Density = 2.520310 g / cm^3
# Si number density = 25.260594 Si / 1000 Ang^3
#
#
#
# Elastic Constant Matrix: (Units=GPa)
#
#
# Indices 1 2 3 4 5 6 
#
# 1 121.9009 63.4477 56.1789 7.9297 -11.6499 -35.6165
# 2 63.4477 102.1120 36.8523 3.6500 -1.8149 -43.3251
# 3 56.1789 36.8523 198.5453 -5.2035 17.4942 -20.2675
# 4 7.9297 3.6500 -5.2035 58.1551 -13.6217 -15.3014
# 5 -11.6499 -1.8149 17.4942 -13.6217 46.6396 6.3027
# 6 -35.6165 -43.3251 -20.2675 -15.3014 6.3027 65.3564
#
#
#
# Elastic Compliance Matrix: (Units=1/GPa)
#
#
# Indices 1 2 3 4 5 6 
#
# 1 0.013997 -0.006840 -0.002873 -0.000349 0.003971 0.001738
# 2 -0.006840 0.017629 -0.000298 0.001643 -0.001566 0.008402
# 3 -0.002873 -0.000298 0.006239 0.000407 -0.003026 0.000559
# 4 -0.000349 0.001643 0.000407 0.019676 0.004873 0.005162
# 5 0.003971 -0.001566 -0.003026 0.004873 0.025078 -0.001090
# 6 0.001738 0.008402 0.000559 0.005162 -0.001090 0.023305
#
#
# Mechanical properties :
#
#
# Convention : Reuss Voigt Hill
#
# Bulk Modulus (GPa) = 56.03960 81.72400 68.88180
# Shear Modulus (GPa) = 37.90923 51.76884 44.83903
#
# Velocity S-wave (km/s) = 3.87812 4.53193 4.21772
# Velocity P-wave (km/s) = 6.50276 7.73351 7.14468
#
# Compressibility (1/GPa) = 0.01784452
#
# Stress axis : x y z
#
# Youngs Moduli (GPa) = 71.44137 56.72376 160.27940
#
# Poissons Ratio (x) = 0.38800 0.46042
# Poissons Ratio (y) = 0.48867 0.04776
# Poissons Ratio (z) = 0.20522 0.01690
#
# Static dielectric constant tensor:
#      x y z
#    x 2.020600 0.117720 0.025600 
#    y 0.117720 2.065160 0.025080 
#    z 0.025600 0.025080 1.945570 
# 
# From -- ./inp_files/616699.got.cif
#   From: 2010.05.17/outbox.cif.g08.bks.cpg/sg2_309_cif.got.tgz:616699.got - 2010.06.03 11:33:40.
