data_PCOD9083244
_publ_section_title
;
Structure prediction by ZEFSAII (Michael W. Deem and Ramdas Pophale) SiO2 
 PCOD9083244
Probable space group: P -1
;
_chemical_formula_sum "Si O2"
_cell_formula_units_Z 16
_cell_length_a 31.649376
_cell_length_b 5.487177
_cell_length_c 16.706454
_cell_angle_alpha 99.454099
_cell_angle_beta 12.993983
_cell_angle_gamma 99.987726
_cell_volume 642.328553
_symmetry_space_group_name_H-M "P -1"
_symmetry_group_IT_number 2
_symmetry_cell_setting 'triclinic'
loop_
_space_group_symop_operation_xyz
x,y,z
-x,-y,-z
loop_
_atom_site_type_symbol
_atom_site_label
_atom_site_fract_x
_atom_site_fract_y
_atom_site_fract_z
Si Si1 0.795048 0.308892 0.027617
Si Si2 0.624679 0.212116 0.174870
Si Si3 0.105246 0.594344 0.977323
Si Si4 0.636360 0.687290 0.101881
Si Si5 0.679754 0.595892 0.831612
Si Si6 0.038222 0.051105 0.024927
Si Si7 0.614793 0.051221 0.872232
Si Si8 0.944562 0.784645 0.680116
O O1 0.633603 0.261297 0.255205
O O2 0.779760 0.355659 0.151856
O O3 0.902077 0.560234 0.807879
O O4 0.902020 0.051862 0.807953
O O5 0.536497 0.432534 0.303794
O O6 0.840190 0.212663 0.745040
O O7 0.536484 0.944188 0.303874
O O8 0.887244 0.592289 0.409240
O O9 0.136491 0.323718 0.870191
O O10 0.136661 0.820708 0.870056
O O11 0.695317 0.645403 0.899943
O O12 0.807193 0.734298 0.854314
O O13 0.581856 0.323524 0.981995
O O14 0.581941 0.823019 0.981940
O O15 0.835462 0.057134 0.442520
O O16 0.000000 0.000000 0.000000
O O17 0.500000 0.000000 0.000000
#
# Coordination Sequence:
#
# PCOD9083244 Si02
#       8
#     2   2   2   2   2   2   2   2
#     4  10  17  24  35  55  82 117 154 181 210 260
#     4  10  16  22  33  51  82 119 150 178 213 257
#     4  10  18  29  46  66  90 121 158 192 226 276
#     4  10  17  24  35  55  82 117 154 181 210 260
#     4  10  18  29  46  66  90 121 158 192 226 276
#     4  10  21  35  51  70  92 121 154 193 240 281
#     4  10  21  35  51  70  92 121 154 193 240 281
#     4  10  16  22  33  51  82 119 150 178 213 257
#
# _framework density 24.909372000000001
#
# number of rings (size 3 to 8) (size 9 to 14) (size 15 to 20)
#    0.000    2.000    0.000    8.250    0.000    2.000 
#    0.000    0.000    0.000    0.000    0.000    0.000 
#    0.000    0.000    0.000   90.000    0.000   80.000 
#
# Total GULP energy -89617.681196 kJ/mol
# GULP energy per Si atom -5601.105075 kJ/mol
# Density = 2.485268 g / cm^3
# Si number density = 24.909372 Si / 1000 Ang^3
#
#
#
# Elastic Constant Matrix: (Units=GPa)
#
#
# Indices 1 2 3 4 5 6 
#
# 1 212.9173 144.9428 19.9834 3.1581 -1.1374 -3.5951
# 2 144.9428 307.1558 34.8138 7.6490 -6.0055 -16.9372
# 3 19.9834 34.8138 67.7329 -0.9768 -5.5478 -2.7986
# 4 3.1581 7.6490 -0.9768 17.9582 3.7334 1.6644
# 5 -1.1374 -6.0055 -5.5478 3.7334 35.3557 0.6930
# 6 -3.5951 -16.9372 -2.7986 1.6644 0.6930 44.2213
#
#
#
# Elastic Compliance Matrix: (Units=1/GPa)
#
#
# Indices 1 2 3 4 5 6 
#
# 1 0.006958 -0.003292 -0.000421 0.000310 -0.000420 -0.000727
# 2 -0.003292 0.005143 -0.001575 -0.001997 0.000699 0.001667
# 3 -0.000421 -0.001575 0.015897 0.001149 0.002086 0.000293
# 4 0.000310 -0.001997 0.001149 0.058094 -0.006229 -0.002756
# 5 -0.000420 0.000699 0.002086 -0.006229 0.029372 0.000140
# 6 -0.000727 0.001667 0.000293 -0.002756 0.000140 0.023313
#
#
# Mechanical properties :
#
#
# Convention : Reuss Voigt Hill
#
# Bulk Modulus (GPa) = 57.39577 109.69843 83.54710
# Shear Modulus (GPa) = 32.22514 45.37809 38.80162
#
# Velocity S-wave (km/s) = 3.60070 4.27280 3.95107
# Velocity P-wave (km/s) = 6.35441 8.27509 7.37752
#
# Compressibility (1/GPa) = 0.01742289
#
# Stress axis : x y z
#
# Youngs Moduli (GPa) = 143.72376 194.44909 62.90474
#
# Poissons Ratio (x) = 0.64005 0.02648
# Poissons Ratio (y) = 0.47308 0.09907
# Poissons Ratio (z) = 0.06049 0.30623
#
# Static dielectric constant tensor:
#      x y z
#    x 1.870440 -0.030610 0.018450 
#    y -0.030610 2.016190 0.002390 
#    z 0.018450 0.002390 2.061690 
# 
# From -- ./inp_files/92402.got.cif
#   From: 2010.05.17/outbox.cif.g08.bks.cpg/sg2_47_cif.got.tgz:92402.got - 2010.06.03 11:33:40.
