data_PCOD9083834
_publ_section_title
;
Structure prediction by ZEFSAII (Michael W. Deem and Ramdas Pophale) SiO2 
 PCOD9083834
Probable space group: P -1
;
_chemical_formula_sum "Si O2"
_cell_formula_units_Z 14
_cell_length_a 12.229133
_cell_length_b 13.987089
_cell_length_c 8.139838
_cell_angle_alpha 148.450452
_cell_angle_beta 109.596403
_cell_angle_gamma 78.516874
_cell_volume 675.605696
_symmetry_space_group_name_H-M "P -1"
_symmetry_group_IT_number 2
_symmetry_cell_setting 'triclinic'
loop_
_space_group_symop_operation_xyz
x,y,z
-x,-y,-z
loop_
_atom_site_type_symbol
_atom_site_label
_atom_site_fract_x
_atom_site_fract_y
_atom_site_fract_z
Si Si1 0.914928 0.565936 0.684779
Si Si2 0.791040 0.909194 0.055642
Si Si3 0.577134 0.979720 0.854910
Si Si4 0.010578 0.165487 0.611106
Si Si5 0.493171 0.334331 0.883937
Si Si6 0.695483 0.261408 0.093379
Si Si7 0.733903 0.884961 0.376419
O O1 0.810432 0.395521 0.407458
O O2 0.000000 0.500000 0.500000
O O3 0.979346 0.647521 0.003830
O O4 0.857319 0.734225 0.828152
O O5 0.889480 0.095747 0.352350
O O6 0.736385 0.905470 0.208377
O O7 0.690543 0.898061 0.853148
O O8 0.505927 0.849792 0.492934
O O9 0.500000 0.000000 0.000000
O O10 0.620864 0.177387 0.087565
O O11 0.136866 0.164343 0.588317
O O12 0.000000 0.000000 0.500000
O O13 0.373878 0.271053 0.840148
O O14 0.500000 0.500000 0.000000
O O15 0.610283 0.366664 0.099057
O O16 0.723982 0.082371 0.744343
#
# Coordination Sequence:
#
# PCOD9083834 Si02
#       7
#     2   2   2   2   2   2   2
#     4  10  19  34  58  86 113 147 188 233 280 329
#     4  10  19  37  60  85 113 150 187 229 281 337
#     4  11  23  38  58  85 114 149 191 232 279 335
#     4   8  17  33  57  83 111 146 183 226 279 332
#     4  11  23  38  56  82 113 149 190 233 281 334
#     4  11  21  37  57  82 113 149 187 234 281 331
#     4   9  18  37  58  79 113 152 184 227 280 332
#
# _framework density 20.722145000000001
#
# number of rings (size 3 to 8) (size 9 to 14) (size 15 to 20)
#    0.000    2.286    0.000    6.857    0.000    2.286 
#    0.000   13.571    0.000    0.000    0.000    1.000 
#    0.000    0.000    0.000    0.000    0.000    0.000 
#
# Total GULP energy -78123.578042 kJ/mol
# GULP energy per Si atom -5580.255574 kJ/mol
# Density = 2.067498 g / cm^3
# Si number density = 20.722145 Si / 1000 Ang^3
#
#
#
# Elastic Constant Matrix: (Units=GPa)
#
#
# Indices 1 2 3 4 5 6 
#
# 1 85.3105 15.1022 28.7892 5.0419 -9.5713 24.6328
# 2 15.1022 58.9338 8.9503 10.1800 -1.5779 10.8704
# 3 28.7892 8.9503 91.1776 13.5270 13.5434 15.2098
# 4 5.0419 10.1800 13.5270 23.2496 5.6226 4.4841
# 5 -9.5713 -1.5779 13.5434 5.6226 29.2985 5.4346
# 6 24.6328 10.8704 15.2098 4.4841 5.4346 28.3418
#
#
#
# Elastic Compliance Matrix: (Units=1/GPa)
#
#
# Indices 1 2 3 4 5 6 
#
# 1 0.019620 -0.000840 -0.005073 -0.000680 0.011839 -0.016170
# 2 -0.000840 0.019840 0.000059 -0.008173 0.003502 -0.006289
# 3 -0.005073 0.000059 0.014644 -0.005480 -0.007142 -0.001236
# 4 -0.000680 -0.008173 -0.005480 0.051880 -0.008087 0.000009
# 5 0.011839 0.003502 -0.007142 -0.008087 0.045882 -0.015318
# 6 -0.016170 -0.006289 -0.001236 0.000009 -0.015318 0.055349
#
#
# Mechanical properties :
#
#
# Convention : Reuss Voigt Hill
#
# Bulk Modulus (GPa) = 23.58688 37.90060 30.74374
# Shear Modulus (GPa) = 21.45414 28.34999 24.90207
#
# Velocity S-wave (km/s) = 3.22114 3.70280 3.47033
# Velocity P-wave (km/s) = 5.02409 6.05067 5.56112
#
# Compressibility (1/GPa) = 0.04239644
#
# Stress axis : x y z
#
# Youngs Moduli (GPa) = 50.96819 50.40274 68.28930
#
# Poissons Ratio (x) = 0.04235 0.34642
# Poissons Ratio (y) = 0.04283 -0.00405
# Poissons Ratio (z) = 0.25855 -0.00299
#
# Static dielectric constant tensor:
#      x y z
#    x 1.735760 -0.027640 -0.006480 
#    y -0.027640 1.739420 -0.009130 
#    z -0.006480 -0.009130 1.738640 
# 
# From -- ./inp_files/274903.got.cif
#   From: 2010.05.17/outbox.cif.g08.bks.cpg/sg2_138_cif.got.tgz:274903.got - 2010.06.03 11:33:40.
