data_PCOD9083230
_publ_section_title
;
Structure prediction by ZEFSAII (Michael W. Deem and Ramdas Pophale) SiO2 
 PCOD9083230
Probable space group: P -1
;
_chemical_formula_sum "Si O2"
_cell_formula_units_Z 12
_cell_length_a 7.993776
_cell_length_b 5.108625
_cell_length_c 22.784140
_cell_angle_alpha 62.353171
_cell_angle_beta 133.738340
_cell_angle_gamma 139.281692
_cell_volume 434.968430
_symmetry_space_group_name_H-M "P -1"
_symmetry_group_IT_number 2
_symmetry_cell_setting 'triclinic'
loop_
_space_group_symop_operation_xyz
x,y,z
-x,-y,-z
loop_
_atom_site_type_symbol
_atom_site_label
_atom_site_fract_x
_atom_site_fract_y
_atom_site_fract_z
Si Si1 0.507513 0.212331 0.923611
Si Si2 0.593936 0.951647 0.858819
Si Si3 0.043455 0.854125 0.757840
Si Si4 0.208054 0.455763 0.451968
Si Si5 0.636010 0.234279 0.293452
Si Si6 0.530501 0.312892 0.393432
O O1 0.635299 0.651080 0.918604
O O2 0.688374 0.229882 0.908971
O O3 0.141192 0.921703 0.842898
O O4 0.500000 0.000000 0.000000
O O5 0.223008 0.729333 0.787957
O O6 0.656637 0.052232 0.794214
O O7 0.692092 0.596667 0.677459
O O8 0.229217 0.319309 0.736760
O O9 0.500000 0.500000 0.500000
O O10 0.176275 0.393843 0.521438
O O11 0.892879 0.187583 0.363668
O O12 0.322216 0.888298 0.421113
O O13 0.571621 0.224470 0.347847
#
# Coordination Sequence:
#
# PCOD9083230 Si02
#       6
#     2   2   2   2   2   2
#     4   9  17  32  59  85 109 146 184 224 278 330
#     4   9  18  33  55  83 112 143 186 225 271 336
#     4   8  19  33  52  79 108 139 188 224 273 330
#     4  10  21  34  51  78 111 142 191 230 270 333
#     4  10  19  34  53  79 111 147 184 230 277 324
#     4  10  20  35  53  76 108 147 184 230 280 322
#
# _framework density 27.588208999999999
#
# number of rings (size 3 to 8) (size 9 to 14) (size 15 to 20)
#    1.000    1.667    0.000    2.000    0.000    2.000 
#    0.000    0.000    0.000    5.000    0.000    0.000 
#    0.000    0.000    0.000    0.000    0.000    0.000 
#
# Total GULP energy -66994.582036 kJ/mol
# GULP energy per Si atom -5582.881836 kJ/mol
# Density = 2.752542 g / cm^3
# Si number density = 27.588209 Si / 1000 Ang^3
#
#
#
# Elastic Constant Matrix: (Units=GPa)
#
#
# Indices 1 2 3 4 5 6 
#
# 1 100.8570 17.5424 39.3462 -7.2139 -7.0869 -34.9205
# 2 17.5424 85.9091 36.1745 6.8140 10.2569 -18.2787
# 3 39.3462 36.1745 238.2957 -30.9101 -20.2015 -3.6424
# 4 -7.2139 6.8140 -30.9101 47.8061 -7.1710 9.0477
# 5 -7.0869 10.2569 -20.2015 -7.1710 41.7758 -5.9318
# 6 -34.9205 -18.2787 -3.6424 9.0477 -5.9318 44.7663
#
#
#
# Elastic Compliance Matrix: (Units=1/GPa)
#
#
# Indices 1 2 3 4 5 6 
#
# 1 0.015156 0.000190 -0.002224 -0.001060 0.003018 0.012334
# 2 0.000190 0.015884 -0.003719 -0.006831 -0.005854 0.006936
# 3 -0.002224 -0.003719 0.006107 0.005362 0.003938 -0.003319
# 4 -0.001060 -0.006831 0.005362 0.027835 0.007764 -0.007776
# 5 0.003018 -0.005854 0.003938 0.007764 0.029496 0.002624
# 6 0.012334 0.006936 -0.003319 -0.007776 0.002624 0.036441
#
#
# Mechanical properties :
#
#
# Convention : Reuss Voigt Hill
#
# Bulk Modulus (GPa) = 39.00163 67.90978 53.45571
# Shear Modulus (GPa) = 33.11872 49.00288 41.06080
#
# Velocity S-wave (km/s) = 3.46853 4.21910 3.86209
# Velocity P-wave (km/s) = 5.49625 6.95725 6.26945
#
# Compressibility (1/GPa) = 0.02563995
#
# Stress axis : x y z
#
# Youngs Moduli (GPa) = 65.97846 62.95746 163.74984
#
# Poissons Ratio (x) = -0.01194 0.36424
# Poissons Ratio (y) = -0.01251 0.60895
# Poissons Ratio (z) = 0.14676 0.23412
#
# Static dielectric constant tensor:
#      x y z
#    x 2.253570 0.111710 -0.043980 
#    y 0.111710 2.364200 0.037700 
#    z -0.043980 0.037700 2.166230 
# 
# From -- ./inp_files/7104.got.cif
#   From: 2010.05.17/outbox.cif.g08.bks.cpg/sg2_4_cif.got.tgz:7104.got - 2010.06.03 11:33:40.
