data_PCOD9083063
_publ_section_title
;
Structure prediction by ZEFSAII (Michael W. Deem and Ramdas Pophale) SiO2 
 PCOD9083063
Probable space group: P -1
;
_chemical_formula_sum "Si O2"
_cell_formula_units_Z 16
_cell_length_a 18.736837
_cell_length_b 12.523033
_cell_length_c 9.029233
_cell_angle_alpha 82.078740
_cell_angle_beta 107.264213
_cell_angle_gamma 33.466270
_cell_volume 760.308110
_symmetry_space_group_name_H-M "P -1"
_symmetry_group_IT_number 2
_symmetry_cell_setting 'triclinic'
loop_
_space_group_symop_operation_xyz
x,y,z
-x,-y,-z
loop_
_atom_site_type_symbol
_atom_site_label
_atom_site_fract_x
_atom_site_fract_y
_atom_site_fract_z
Si Si1 0.279438 0.417570 0.264433
Si Si2 0.995361 0.516560 0.749121
Si Si3 0.134087 0.920123 0.650222
Si Si4 0.685385 0.868052 0.750276
Si Si5 0.673707 0.434828 0.885085
Si Si6 0.220263 0.985840 0.467342
Si Si7 0.712533 0.189951 0.763603
Si Si8 0.950484 0.787321 0.225980
O O1 0.333070 0.236390 0.247424
O O2 0.242869 0.559032 0.096090
O O3 0.106539 0.619905 0.231737
O O4 0.469075 0.201116 0.519569
O O5 0.831533 0.707340 0.737888
O O6 0.005543 0.396386 0.677407
O O7 0.927288 0.725959 0.617282
O O8 0.204969 0.245357 0.011800
O O9 0.037423 0.144942 0.646005
O O10 0.217821 0.875735 0.572767
O O11 0.000000 0.000000 0.500000
O O12 0.284617 0.666195 0.907449
O O13 0.439300 0.741545 0.661177
O O14 0.771643 0.226493 0.861187
O O15 0.175754 0.018392 0.261794
O O16 0.500000 0.500000 0.500000
O O17 0.742854 0.076623 0.951611
#
# Coordination Sequence:
#
# PCOD9083063 Si02
#       8
#     2   2   2   2   2   2   2   2
#     4  10  19  33  61  90 130 148 193 245 310 345
#     4  10  19  35  64  88 122 148 202 246 300 351
#     4  11  27  42  58  82 124 165 202 240 297 360
#     4   9  18  32  56 100 121 151 185 253 302 357
#     4  10  22  39  61  88 122 157 198 248 293 358
#     4  11  21  40  64  89 117 161 200 242 299 356
#     4   9  20  35  61  91 117 149 202 244 292 347
#     4  10  23  40  59  92 122 154 198 249 302 354
#
# _framework density 21.0441
#
# number of rings (size 3 to 8) (size 9 to 14) (size 15 to 20)
#    0.000    2.000    1.250    2.625    7.000    1.500 
#    0.000    1.250    0.000    1.500    0.000    0.000 
#    0.000    0.000    0.000    0.000    0.000    0.000 
#
# Total GULP energy -89192.542293 kJ/mol
# GULP energy per Si atom -5574.533893 kJ/mol
# Density = 2.099620 g / cm^3
# Si number density = 21.044100 Si / 1000 Ang^3
#
#
#
# Elastic Constant Matrix: (Units=GPa)
#
#
# Indices 1 2 3 4 5 6 
#
# 1 98.5334 9.5544 25.0376 2.8633 -11.3920 25.7531
# 2 9.5544 61.5551 27.7100 9.2076 -0.5559 24.5471
# 3 25.0376 27.7100 80.7483 3.3760 11.2792 11.8618
# 4 2.8633 9.2076 3.3760 31.9418 2.0564 -0.4706
# 5 -11.3920 -0.5559 11.2792 2.0564 30.2710 -6.4893
# 6 25.7531 24.5471 11.8618 -0.4706 -6.4893 30.9648
#
#
#
# Elastic Compliance Matrix: (Units=1/GPa)
#
#
# Indices 1 2 3 4 5 6 
#
# 1 0.015472 0.006535 -0.005395 -0.003241 0.004959 -0.014992
# 2 0.006535 0.031114 -0.008550 -0.009116 0.001105 -0.026732
# 3 -0.005395 -0.008550 0.017670 0.001655 -0.008287 0.002784
# 4 -0.003241 -0.009116 0.001655 0.034338 -0.002338 0.009320
# 5 0.004959 0.001105 -0.008287 -0.002338 0.039546 0.006426
# 6 -0.014992 -0.026732 0.002784 0.009320 0.006426 0.066377
#
#
# Mechanical properties :
#
#
# Convention : Reuss Voigt Hill
#
# Bulk Modulus (GPa) = 20.22780 40.60453 30.41617
# Shear Modulus (GPa) = 21.20300 30.53783 25.87041
#
# Velocity S-wave (km/s) = 3.17764 3.81351 3.51000
# Velocity P-wave (km/s) = 4.80584 6.22313 5.55983
#
# Compressibility (1/GPa) = 0.04943690
#
# Stress axis : x y z
#
# Youngs Moduli (GPa) = 64.63358 32.13971 56.59187
#
# Poissons Ratio (x) = -0.21004 0.30531
# Poissons Ratio (y) = -0.42239 0.48386
# Poissons Ratio (z) = 0.34869 0.27479
#
# Static dielectric constant tensor:
#      x y z
#    x 1.756950 0.023140 -0.009440 
#    y 0.023140 1.796120 -0.031390 
#    z -0.009440 -0.031390 1.819780 
# 
# From -- ./inp_files/298272.got.cif
#   From: 2010.05.17/outbox.cif.g08.bks.cpg/sg2_150_cif.got.tgz:298272.got - 2010.06.03 11:33:40.
