data_PCOD9083737
_publ_section_title
;
Structure prediction by ZEFSAII (Michael W. Deem and Ramdas Pophale) SiO2 
 PCOD9083737
Probable space group: P -1
;
_chemical_formula_sum "Si O2"
_cell_formula_units_Z 16
_cell_length_a 13.361978
_cell_length_b 7.870788
_cell_length_c 9.300388
_cell_angle_alpha 68.253697
_cell_angle_beta 133.265530
_cell_angle_gamma 107.690787
_cell_volume 659.754384
_symmetry_space_group_name_H-M "P -1"
_symmetry_group_IT_number 2
_symmetry_cell_setting 'triclinic'
loop_
_space_group_symop_operation_xyz
x,y,z
-x,-y,-z
loop_
_atom_site_type_symbol
_atom_site_label
_atom_site_fract_x
_atom_site_fract_y
_atom_site_fract_z
Si Si1 0.682350 0.906461 0.213095
Si Si2 0.903147 0.752653 0.317720
Si Si3 0.142854 0.899014 0.161253
Si Si4 0.579233 0.288118 0.061159
Si Si5 0.951266 0.322701 0.105297
Si Si6 0.175832 0.650605 0.516892
Si Si7 0.754179 0.798317 0.625171
Si Si8 0.753200 0.563606 0.971428
O O1 0.832828 0.899349 0.296856
O O2 0.582015 0.763730 0.067587
O O3 0.668636 0.835709 0.386967
O O4 0.632713 0.108590 0.093769
O O5 0.868400 0.558673 0.425052
O O6 0.066584 0.773496 0.450831
O O7 0.828481 0.721190 0.097814
O O8 0.150433 0.829600 0.028423
O O9 0.149736 0.705901 0.311937
O O10 0.244164 0.030940 0.315822
O O11 0.000000 0.000000 0.000000
O O12 0.621953 0.465084 0.951685
O O13 0.670227 0.309941 0.287496
O O14 0.866538 0.411674 0.119600
O O15 0.000000 0.500000 0.000000
O O16 0.094595 0.227946 0.285171
O O17 0.721956 0.632455 0.758622
#
# Coordination Sequence:
#
# PCOD9083737 Si02
#       8
#     2   2   2   2   2   2   2   2
#     4  11  24  42  64  90 122 171 204 257 305 376
#     4  10  23  36  65  92 128 155 209 253 314 362
#     4  10  19  34  57  92 128 161 199 254 313 361
#     4  10  24  43  62  85 130 161 212 251 314 365
#     4   9  19  33  60  91 127 155 197 253 314 357
#     4  10  20  37  60  94 123 160 203 256 302 371
#     4  10  21  36  62  90 123 161 210 248 309 364
#     4  10  22  40  60  93 126 160 202 262 304 371
#
# _framework density 24.251450999999999
#
# number of rings (size 3 to 8) (size 9 to 14) (size 15 to 20)
#    0.000    2.000    1.250    2.250    8.750    6.000 
#    0.000    0.000    2.750    2.250    0.000    0.000 
#    0.000    0.000    0.000    0.000    0.000    0.000 
#
# Total GULP energy -89353.611644 kJ/mol
# GULP energy per Si atom -5584.600728 kJ/mol
# Density = 2.419625 g / cm^3
# Si number density = 24.251451 Si / 1000 Ang^3
#
#
#
# Elastic Constant Matrix: (Units=GPa)
#
#
# Indices 1 2 3 4 5 6 
#
# 1 39.9007 14.4043 17.3430 -4.9570 -8.3098 -14.0617
# 2 14.4043 71.6263 23.6232 3.9773 -6.7285 -9.6962
# 3 17.3430 23.6232 113.6527 1.9466 -19.8158 14.7376
# 4 -4.9570 3.9773 1.9466 36.9748 3.5240 -9.5145
# 5 -8.3098 -6.7285 -19.8158 3.5240 27.9970 -2.3469
# 6 -14.0617 -9.6962 14.7376 -9.5145 -2.3469 39.8639
#
#
#
# Elastic Compliance Matrix: (Units=1/GPa)
#
#
# Indices 1 2 3 4 5 6 
#
# 1 0.037662 -0.003004 -0.006509 0.009669 0.006110 0.017628
# 2 -0.003004 0.016330 -0.003210 -0.001102 0.001227 0.003908
# 3 -0.006509 -0.003210 0.012663 -0.003916 0.006053 -0.008336
# 4 0.009669 -0.001102 -0.003916 0.032073 -0.003193 0.012057
# 5 0.006110 0.001227 0.006053 -0.003193 0.042678 0.001967
# 6 0.017628 0.003908 -0.008336 0.012057 0.001967 0.038330
#
#
# Mechanical properties :
#
#
# Convention : Reuss Voigt Hill
#
# Bulk Modulus (GPa) = 24.26637 37.32451 30.79544
# Shear Modulus (GPa) = 22.83986 32.28775 27.56381
#
# Velocity S-wave (km/s) = 3.07219 3.65276 3.37498
# Velocity P-wave (km/s) = 4.75525 5.76318 5.28330
#
# Compressibility (1/GPa) = 0.04120929
#
# Stress axis : x y z
#
# Youngs Moduli (GPa) = 26.55214 61.23853 78.97291
#
# Poissons Ratio (x) = 0.18395 0.51402
# Poissons Ratio (y) = 0.07976 0.25348
# Poissons Ratio (z) = 0.17282 0.19656
#
# Static dielectric constant tensor:
#      x y z
#    x 1.912350 0.020560 -0.012560 
#    y 0.020560 2.004210 -0.008230 
#    z -0.012560 -0.008230 1.976750 
# 
# From -- ./inp_files/298058.got.cif
#   From: 2010.05.17/outbox.cif.g08.bks.cpg/sg2_150_cif.got.tgz:298058.got - 2010.06.03 11:33:40.
