data_PCOD9083483
_publ_section_title
;
Structure prediction by ZEFSAII (Michael W. Deem and Ramdas Pophale) SiO2 
 PCOD9083483
Probable space group: P -1
;
_chemical_formula_sum "Si O2"
_cell_formula_units_Z 14
_cell_length_a 15.863275
_cell_length_b 14.773438
_cell_length_c 15.135796
_cell_angle_alpha 159.303870
_cell_angle_beta 47.118926
_cell_angle_gamma 143.676796
_cell_volume 695.661378
_symmetry_space_group_name_H-M "P -1"
_symmetry_group_IT_number 2
_symmetry_cell_setting 'triclinic'
loop_
_space_group_symop_operation_xyz
x,y,z
-x,-y,-z
loop_
_atom_site_type_symbol
_atom_site_label
_atom_site_fract_x
_atom_site_fract_y
_atom_site_fract_z
Si Si1 0.851000 0.175728 0.909079
Si Si2 0.855461 0.675828 0.111925
Si Si3 0.792117 0.651299 0.324236
Si Si4 0.569184 0.913696 0.585188
Si Si5 0.293651 0.174579 0.761563
Si Si6 0.430292 0.047714 0.677136
Si Si7 0.524446 0.637963 0.707389
O O1 0.999926 0.298366 0.966173
O O2 0.823057 0.917828 0.617584
O O3 0.699993 0.969250 0.888914
O O4 0.863276 0.477832 0.136015
O O5 0.852507 0.820922 0.339937
O O6 0.842952 0.844240 0.190417
O O7 0.697699 0.288963 0.873758
O O8 0.609187 0.349435 0.174382
O O9 0.656775 0.908926 0.436698
O O10 0.514412 0.635429 0.442929
O O11 0.427364 0.855217 0.587125
O O12 0.286177 0.984113 0.679665
O O13 0.439252 0.563957 0.033094
O O14 0.500000 0.000000 0.500000
O O15 0.500000 0.500000 0.500000
#
# Coordination Sequence:
#
# PCOD9083483 Si02
#       7
#     2   2   2   2   2   2   2
#     4  11  25  37  56  81 118 155 195 242 286 334
#     4  11  21  33  57  83 113 148 194 243 289 336
#     4  11  22  39  56  79 112 158 203 239 278 336
#     4  10  19  34  56  82 113 150 193 232 285 340
#     4   9  17  31  54  83 112 139 186 239 288 335
#     4   8  16  31  53  84 110 138 181 243 284 335
#     4  10  21  39  56  80 116 157 198 234 278 339
#
# _framework density 20.124734
#
# number of rings (size 3 to 8) (size 9 to 14) (size 15 to 20)
#    0.000    2.000    1.429    3.000    2.000    1.143 
#    0.000    0.000    0.000    0.857    0.000   34.000 
#    0.000    0.000    0.000    0.000    0.000    0.000 
#
# Total GULP energy -78036.152638 kJ/mol
# GULP energy per Si atom -5574.010903 kJ/mol
# Density = 2.007893 g / cm^3
# Si number density = 20.124734 Si / 1000 Ang^3
#
#
#
# Elastic Constant Matrix: (Units=GPa)
#
#
# Indices 1 2 3 4 5 6 
#
# 1 225.4123 45.1138 18.7492 5.4776 -20.0162 13.1390
# 2 45.1138 53.4686 0.5477 6.2344 5.6012 16.6575
# 3 18.7492 0.5477 76.2723 -15.1612 2.9001 -2.5174
# 4 5.4776 6.2344 -15.1612 23.3616 -0.6626 -3.3875
# 5 -20.0162 5.6012 2.9001 -0.6626 24.4546 -3.4590
# 6 13.1390 16.6575 -2.5174 -3.3875 -3.4590 28.0203
#
#
#
# Elastic Compliance Matrix: (Units=1/GPa)
#
#
# Indices 1 2 3 4 5 6 
#
# 1 0.006488 -0.006643 -0.001878 -0.000533 0.007263 0.001570
# 2 -0.006643 0.033713 -0.000945 -0.011472 -0.016244 -0.020404
# 3 -0.001878 -0.000945 0.016121 0.011670 -0.002348 0.004012
# 4 -0.000533 -0.011472 0.011670 0.055931 0.004506 0.015437
# 5 0.007263 -0.016244 -0.002348 0.004506 0.052811 0.013104
# 6 0.001570 -0.020404 0.004012 0.015437 0.013104 0.050926
#
#
# Mechanical properties :
#
#
# Convention : Reuss Voigt Hill
#
# Bulk Modulus (GPa) = 26.74494 53.77494 40.25994
# Shear Modulus (GPa) = 20.21131 34.55014 27.38072
#
# Velocity S-wave (km/s) = 3.17251 4.14792 3.69257
# Velocity P-wave (km/s) = 5.17090 7.05118 6.18294
#
# Compressibility (1/GPa) = 0.03739025
#
# Stress axis : x y z
#
# Youngs Moduli (GPa) = 154.12190 29.66198 62.03246
#
# Poissons Ratio (x) = 0.19705 0.11647
# Poissons Ratio (y) = 1.02384 0.05864
# Poissons Ratio (z) = 0.28938 0.02804
#
# Static dielectric constant tensor:
#      x y z
#    x 1.701740 0.167210 -0.200270 
#    y 0.167210 1.556900 0.201280 
#    z -0.200270 0.201280 1.520540 
# 
# From -- ./inp_files/35187.got.cif
#   From: 2010.05.17/outbox.cif.g08.bks.cpg/sg2_18_cif.got.tgz:35187.got - 2010.06.03 11:33:40.
