data_PCOD9083015
_publ_section_title
;
Structure prediction by ZEFSAII (Michael W. Deem and Ramdas Pophale) SiO2 
 PCOD9083015
Probable space group: P -1
;
_chemical_formula_sum "Si O2"
_cell_formula_units_Z 16
_cell_length_a 13.435555
_cell_length_b 13.667744
_cell_length_c 11.932191
_cell_angle_alpha 94.023428
_cell_angle_beta 82.341481
_cell_angle_gamma 22.355285
_cell_volume 708.951099
_symmetry_space_group_name_H-M "P -1"
_symmetry_group_IT_number 2
_symmetry_cell_setting 'triclinic'
loop_
_space_group_symop_operation_xyz
x,y,z
-x,-y,-z
loop_
_atom_site_type_symbol
_atom_site_label
_atom_site_fract_x
_atom_site_fract_y
_atom_site_fract_z
Si Si1 0.746973 0.300692 0.226117
Si Si2 0.961549 0.233746 0.620711
Si Si3 0.077250 0.184681 0.060172
Si Si4 0.733974 0.853639 0.385228
Si Si5 0.241150 0.273473 0.340998
Si Si6 0.243941 0.927362 0.792070
Si Si7 0.878058 0.018149 0.642830
Si Si8 0.549358 0.130774 0.807566
O O1 0.933752 0.216200 0.134129
O O2 0.827418 0.117769 0.159462
O O3 0.837614 0.220272 0.337992
O O4 0.392767 0.652409 0.284143
O O5 0.607645 0.588443 0.685625
O O6 0.043495 0.076861 0.504604
O O7 0.175008 0.132659 0.562038
O O8 0.044011 0.129639 0.727119
O O9 0.807065 0.514743 0.128055
O O10 0.351555 0.959913 0.084309
O O11 0.173247 0.068838 0.911646
O O12 0.047882 0.504933 0.292183
O O13 0.500000 0.000000 0.500000
O O14 0.543404 0.051076 0.318247
O O15 0.000000 0.500000 0.500000
O O16 0.341704 0.071966 0.277760
O O17 0.734344 0.049298 0.715179
#
# Coordination Sequence:
#
# PCOD9083015 Si02
#       8
#     2   2   2   2   2   2   2   2
#     4  10  22  39  63  88 117 162 210 254 291 342
#     4  12  25  39  61  91 127 161 193 246 314 370
#     4  10  22  41  63  87 120 162 213 249 282 345
#     4  10  21  37  59  87 118 153 192 237 290 365
#     4  10  19  33  60  92 119 143 184 244 306 356
#     4  12  25  41  61  86 124 168 204 245 296 357
#     4  10  21  37  58  92 126 154 198 249 308 359
#     4  10  20  37  64  93 118 153 200 258 298 341
#
# _framework density 22.568553000000001
#
# number of rings (size 3 to 8) (size 9 to 14) (size 15 to 20)
#    0.000    1.500    0.000    5.625    0.000    9.000 
#    0.000    5.000    0.000   15.000    0.000    0.000 
#    0.000    0.000    0.000    0.000    0.000    0.000 
#
# Total GULP energy -89454.767294 kJ/mol
# GULP energy per Si atom -5590.922956 kJ/mol
# Density = 2.251719 g / cm^3
# Si number density = 22.568553 Si / 1000 Ang^3
#
#
#
# Elastic Constant Matrix: (Units=GPa)
#
#
# Indices 1 2 3 4 5 6 
#
# 1 62.8749 7.2651 0.3943 1.0191 13.2240 6.5387
# 2 7.2651 136.7438 3.7926 -13.1797 6.6279 -2.7019
# 3 0.3943 3.7926 69.7928 -19.7159 19.8053 10.7465
# 4 1.0191 -13.1797 -19.7159 26.3610 0.1568 8.4193
# 5 13.2240 6.6279 19.8053 0.1568 30.6642 5.9223
# 6 6.5387 -2.7019 10.7465 8.4193 5.9223 35.6434
#
#
#
# Elastic Compliance Matrix: (Units=1/GPa)
#
#
# Indices 1 2 3 4 5 6 
#
# 1 0.018357 -0.000334 0.004398 0.003733 -0.009941 -0.003949
# 2 -0.000334 0.007964 0.002206 0.005960 -0.002852 -0.000934
# 3 0.004398 0.002206 0.029029 0.026777 -0.018828 -0.012588
# 4 0.003733 0.005960 0.026777 0.067793 -0.016368 -0.021600
# 5 -0.009941 -0.002852 -0.018828 -0.016368 0.049184 0.002978
# 6 -0.003949 -0.000934 -0.012588 -0.021600 0.002978 0.037112
#
#
# Mechanical properties :
#
#
# Convention : Reuss Voigt Hill
#
# Bulk Modulus (GPa) = 14.72968 32.47950 23.60459
# Shear Modulus (GPa) = 22.77619 35.73102 29.25360
#
# Velocity S-wave (km/s) = 3.18024 3.98329 3.60420
# Velocity P-wave (km/s) = 4.47504 5.96474 5.27277
#
# Compressibility (1/GPa) = 0.06789012
#
# Stress axis : x y z
#
# Youngs Moduli (GPa) = 54.47635 125.57006 34.44844
#
# Poissons Ratio (x) = 0.04189 -0.15151
# Poissons Ratio (y) = 0.01817 -0.07599
# Poissons Ratio (z) = -0.23960 -0.27699
#
# Static dielectric constant tensor:
#      x y z
#    x 1.907620 0.092930 -0.105900 
#    y 0.092930 1.986100 -0.178120 
#    z -0.105900 -0.178120 1.944330 
# 
# From -- ./inp_files/453890.got.cif
#   From: 2010.05.17/outbox.cif.g08.bks.cpg/sg2_227_cif.got.tgz:453890.got - 2010.06.03 11:33:40.
