data_PCOD9083519
_publ_section_title
;
Structure prediction by ZEFSAII (Michael W. Deem and Ramdas Pophale) SiO2 
 PCOD9083519
Probable space group: P -1
;
_chemical_formula_sum "Si O2"
_cell_formula_units_Z 14
_cell_length_a 11.590306
_cell_length_b 8.620280
_cell_length_c 9.784658
_cell_angle_alpha 59.942277
_cell_angle_beta 51.113287
_cell_angle_gamma 50.434602
_cell_volume 578.248607
_symmetry_space_group_name_H-M "P -1"
_symmetry_group_IT_number 2
_symmetry_cell_setting 'triclinic'
loop_
_space_group_symop_operation_xyz
x,y,z
-x,-y,-z
loop_
_atom_site_type_symbol
_atom_site_label
_atom_site_fract_x
_atom_site_fract_y
_atom_site_fract_z
Si Si1 0.145248 0.392540 0.772892
Si Si2 0.507407 0.714070 0.932652
Si Si3 0.865172 0.287244 0.078383
Si Si4 0.249259 0.654249 0.447095
Si Si5 0.430855 0.333775 0.779695
Si Si6 0.639772 0.779311 0.539963
Si Si7 0.857770 0.141904 0.854972
O O1 0.121648 0.617669 0.653916
O O2 0.316395 0.284794 0.784274
O O3 0.189036 0.273039 0.646040
O O4 0.985866 0.388774 0.955474
O O5 0.624658 0.753689 0.723208
O O6 0.500000 0.500000 0.000000
O O7 0.557697 0.731027 0.042295
O O8 0.310568 0.881202 0.990253
O O9 0.842087 0.279870 0.936258
O O10 0.689108 0.422273 0.222244
O O11 0.970000 0.062955 0.159750
O O12 0.377331 0.729252 0.375667
O O13 0.375116 0.416817 0.417531
O O14 0.161836 0.766840 0.322220
O O15 0.500000 0.000000 0.500000
#
# Coordination Sequence:
#
# PCOD9083519 Si02
#       7
#     2   2   2   2   2   2   2
#     4  10  23  36  58  89 122 148 185 246 296 334
#     4  11  17  37  63  82 106 154 201 224 275 348
#     4  11  21  35  61  86 120 147 199 232 290 339
#     4   9  20  39  61  80 116 151 195 232 290 335
#     4  11  20  39  64  83 115 160 192 229 290 355
#     4  10  19  34  56  85 112 141 191 242 277 324
#     4  10  20  37  60  87 112 157 193 241 275 348
#
# _framework density 24.211041000000002
#
# number of rings (size 3 to 8) (size 9 to 14) (size 15 to 20)
#    0.857    0.857    4.286    1.714    0.000    1.714 
#    0.000    7.143    0.000    0.000    0.000    0.000 
#    0.000    0.000    0.000    0.000    0.000    0.000 
#
# Total GULP energy -78010.106466 kJ/mol
# GULP energy per Si atom -5572.150462 kJ/mol
# Density = 2.415594 g / cm^3
# Si number density = 24.211041 Si / 1000 Ang^3
#
#
#
# Elastic Constant Matrix: (Units=GPa)
#
#
# Indices 1 2 3 4 5 6 
#
# 1 118.6689 1.6986 51.4155 -22.3314 16.0173 -19.4919
# 2 1.6986 37.3176 -2.8016 -6.8317 -6.6184 -8.5542
# 3 51.4155 -2.8016 110.5694 -16.6929 15.8329 -2.5763
# 4 -22.3314 -6.8317 -16.6929 21.5782 0.0954 2.3542
# 5 16.0173 -6.6184 15.8329 0.0954 27.2778 1.9714
# 6 -19.4919 -8.5542 -2.5763 2.3542 1.9714 24.0398
#
#
#
# Elastic Compliance Matrix: (Units=1/GPa)
#
#
# Indices 1 2 3 4 5 6 
#
# 1 0.015442 0.002914 -0.003915 0.012545 -0.007035 0.012487
# 2 0.002914 0.032784 0.001027 0.012806 0.004699 0.012500
# 3 -0.003915 0.001027 0.012424 0.006090 -0.004561 -0.001700
# 4 0.012545 0.012806 0.006090 0.067091 -0.008717 0.009526
# 5 -0.007035 0.004699 -0.004561 -0.008717 0.045141 -0.007369
# 6 0.012487 0.012500 -0.001700 0.009526 -0.007369 0.055659
#
#
# Mechanical properties :
#
#
# Convention : Reuss Voigt Hill
#
# Bulk Modulus (GPa) = 16.47336 40.79787 28.63561
# Shear Modulus (GPa) = 20.10268 28.99538 24.54903
#
# Velocity S-wave (km/s) = 2.88464 3.46440 3.18773
# Velocity P-wave (km/s) = 4.23246 5.73501 5.04004
#
# Compressibility (1/GPa) = 0.06070408
#
# Stress axis : x y z
#
# Youngs Moduli (GPa) = 64.75647 30.50227 80.49205
#
# Poissons Ratio (x) = -0.08890 0.31512
# Poissons Ratio (y) = -0.18873 -0.08268
# Poissons Ratio (z) = 0.25351 -0.03133
#
# Static dielectric constant tensor:
#      x y z
#    x 1.963840 0.052390 0.047700 
#    y 0.052390 1.997800 0.015320 
#    z 0.047700 0.015320 1.970840 
# 
# From -- ./inp_files/423002.got.cif
#   From: 2010.05.17/outbox.cif.g08.bks.cpg/sg2_212_cif.got.tgz:423002.got - 2010.06.03 11:33:40.
