data_PCOD9083035
_publ_section_title
;
Structure prediction by ZEFSAII (Michael W. Deem and Ramdas Pophale) SiO2 
 PCOD9083035
Probable space group: P -1
;
_chemical_formula_sum "Si O2"
_cell_formula_units_Z 16
_cell_length_a 21.657584
_cell_length_b 12.487010
_cell_length_c 5.234395
_cell_angle_alpha 56.823158
_cell_angle_beta 124.501803
_cell_angle_gamma 138.915357
_cell_volume 747.506412
_symmetry_space_group_name_H-M "P -1"
_symmetry_group_IT_number 2
_symmetry_cell_setting 'triclinic'
loop_
_space_group_symop_operation_xyz
x,y,z
-x,-y,-z
loop_
_atom_site_type_symbol
_atom_site_label
_atom_site_fract_x
_atom_site_fract_y
_atom_site_fract_z
Si Si1 0.288129 0.498144 0.983293
Si Si2 0.949194 0.628181 0.866593
Si Si3 0.761518 0.061971 0.506121
Si Si4 0.394156 0.819771 0.527840
Si Si5 0.158623 0.975431 0.767933
Si Si6 0.613506 0.084211 0.121019
Si Si7 0.869607 0.442400 0.418594
Si Si8 0.792158 0.685921 0.463494
O O1 0.381129 0.672377 0.840389
O O2 0.207586 0.523630 0.786735
O O3 0.254271 0.361871 0.865062
O O4 0.287184 0.434641 0.343199
O O5 0.912219 0.488507 0.744873
O O6 0.871190 0.658844 0.662363
O O7 0.052923 0.799505 0.808641
O O8 0.948436 0.569375 0.224459
O O9 0.806567 0.034162 0.413364
O O10 0.651731 0.987021 0.265151
O O11 0.821732 0.260245 0.436538
O O12 0.770072 0.994439 0.877400
O O13 0.346480 0.860775 0.568758
O O14 0.500000 0.000000 0.500000
O O15 0.348419 0.779514 0.192031
O O16 0.157169 0.126895 0.583491
O O17 0.500000 0.000000 0.000000
#
# Coordination Sequence:
#
# PCOD9083035 Si02
#       8
#     2   2   2   2   2   2   2   2
#     4  10  19  35  61  87 120 145 204 255 286 346
#     4  10  22  39  59  82 117 160 212 263 284 342
#     4  12  24  37  60  88 129 153 196 247 304 390
#     4  10  19  33  60  96 121 138 182 247 315 356
#     4  12  25  39  57  85 122 171 208 240 298 346
#     4  10  21  37  59  91 123 147 184 241 305 368
#     4  10  21  35  58  86 120 154 198 247 324 338
#     4  10  22  39  59  83 114 171 211 250 275 339
#
# _framework density 21.404496999999999
#
# number of rings (size 3 to 8) (size 9 to 14) (size 15 to 20)
#    0.000    1.500    1.250    4.125    3.500    3.000 
#    0.000    5.000    0.000    0.000    0.000   70.000 
#    0.000    0.000    0.000    0.000    0.000    0.000 
#
# Total GULP energy -89145.667862 kJ/mol
# GULP energy per Si atom -5571.604241 kJ/mol
# Density = 2.135578 g / cm^3
# Si number density = 21.404497 Si / 1000 Ang^3
#
#
#
# Elastic Constant Matrix: (Units=GPa)
#
#
# Indices 1 2 3 4 5 6 
#
# 1 90.8228 33.8693 38.0261 18.3711 -27.6344 -21.5554
# 2 33.8693 66.4964 8.3876 7.5136 -5.2546 -15.0999
# 3 38.0261 8.3876 83.5617 4.9586 -29.0342 -6.8803
# 4 18.3711 7.5136 4.9586 14.4444 -3.3024 -0.2590
# 5 -27.6344 -5.2546 -29.0342 -3.3024 39.2627 4.7813
# 6 -21.5554 -15.0999 -6.8803 -0.2590 4.7813 38.0305
#
#
#
# Elastic Compliance Matrix: (Units=1/GPa)
#
#
# Indices 1 2 3 4 5 6 
#
# 1 0.026576 -0.006872 -0.005454 -0.025804 0.010381 0.009867
# 2 -0.006872 0.019456 0.000852 -0.002123 -0.002300 0.004259
# 3 -0.005454 0.000852 0.017439 0.002662 0.009490 -0.000773
# 4 -0.025804 -0.002123 0.002662 0.100540 -0.006376 -0.013500
# 5 0.010381 -0.002300 0.009490 -0.006376 0.038733 0.001774
# 6 0.009867 0.004259 -0.000773 -0.013500 0.001774 0.033124
#
#
# Mechanical properties :
#
#
# Convention : Reuss Voigt Hill
#
# Bulk Modulus (GPa) = 24.67690 44.60521 34.64106
# Shear Modulus (GPa) = 18.36052 29.05405 23.70729
#
# Velocity S-wave (km/s) = 2.93198 3.68826 3.33165
# Velocity P-wave (km/s) = 4.79749 6.24677 5.56947
#
# Compressibility (1/GPa) = 0.04052373
#
# Stress axis : x y z
#
# Youngs Moduli (GPa) = 37.62763 51.39724 57.34245
#
# Poissons Ratio (x) = 0.35320 0.31273
# Poissons Ratio (y) = 0.25857 -0.04883
# Poissons Ratio (z) = 0.20521 -0.04377
#
# Static dielectric constant tensor:
#      x y z
#    x 1.831860 0.110540 0.056520 
#    y 0.110540 2.060220 0.170540 
#    z 0.056520 0.170540 1.911190 
# 
# From -- ./inp_files/113170.got.cif
#   From: 2010.05.17/outbox.cif.g08.bks.cpg/sg2_57_cif.got.tgz:113170.got - 2010.06.03 11:33:40.
