data_PCOD9083873
_publ_section_title
;
Structure prediction by ZEFSAII (Michael W. Deem and Ramdas Pophale) SiO2 
 PCOD9083873
Probable space group: P -1
;
_chemical_formula_sum "Si O2"
_cell_formula_units_Z 16
_cell_length_a 9.139906
_cell_length_b 10.984834
_cell_length_c 13.574665
_cell_angle_alpha 145.962428
_cell_angle_beta 83.924060
_cell_angle_gamma 82.646604
_cell_volume 699.299652
_symmetry_space_group_name_H-M "P -1"
_symmetry_group_IT_number 2
_symmetry_cell_setting 'triclinic'
loop_
_space_group_symop_operation_xyz
x,y,z
-x,-y,-z
loop_
_atom_site_type_symbol
_atom_site_label
_atom_site_fract_x
_atom_site_fract_y
_atom_site_fract_z
Si Si1 0.747636 0.292248 0.929432
Si Si2 0.988626 0.368185 0.088927
Si Si3 0.312381 0.471597 0.645394
Si Si4 0.314197 0.779304 0.508287
Si Si5 0.595324 0.842242 0.297212
Si Si6 0.272840 0.921048 0.828680
Si Si7 0.575694 0.983355 0.781690
Si Si8 0.862414 0.256908 0.688480
O O1 0.755348 0.243214 0.779286
O O2 0.679545 0.136733 0.896891
O O3 0.922738 0.253672 0.929796
O O4 0.647424 0.570093 0.131544
O O5 0.830467 0.511081 0.260064
O O6 0.069009 0.542589 0.162609
O O7 0.118171 0.160814 0.003105
O O8 0.493354 0.363967 0.602879
O O9 0.279942 0.729399 0.779653
O O10 0.319319 0.287492 0.434503
O O11 0.273111 0.799285 0.639968
O O12 0.231034 0.679156 0.365843
O O13 0.270959 0.050605 0.658638
O O14 0.500000 0.000000 0.500000
O O15 0.506462 0.900652 0.238231
O O16 0.431740 0.981735 0.858750
O O17 0.000000 0.000000 0.500000
#
# Coordination Sequence:
#
# PCOD9083873 Si02
#       8
#     2   2   2   2   2   2   2   2
#     4  12  23  39  61  93 132 169 202 253 312 383
#     4  12  25  40  60  93 130 168 211 257 316 380
#     4  10  22  44  66  89 122 164 214 269 316 365
#     4  10  21  40  66  92 119 165 216 255 307 381
#     4  10  19  34  58  89 123 159 197 249 308 368
#     4  10  22  44  65  89 123 163 211 274 320 358
#     4  10  21  38  64  91 117 160 214 256 307 379
#     4  12  24  41  63  96 134 170 205 255 316 382
#
# _framework density 22.880034999999999
#
# number of rings (size 3 to 8) (size 9 to 14) (size 15 to 20)
#    0.000    1.500    0.000    8.625    0.000    3.000 
#    0.000    7.500    0.000    0.000    0.000    0.000 
#    0.000    0.000    0.000    0.000    0.000    0.000 
#
# Total GULP energy -89429.862098 kJ/mol
# GULP energy per Si atom -5589.366381 kJ/mol
# Density = 2.282796 g / cm^3
# Si number density = 22.880035 Si / 1000 Ang^3
#
#
#
# Elastic Constant Matrix: (Units=GPa)
#
#
# Indices 1 2 3 4 5 6 
#
# 1 78.6692 10.2016 14.4826 8.1359 12.2992 9.3783
# 2 10.2016 41.9457 6.7363 24.4218 12.6073 6.2962
# 3 14.4826 6.7363 69.3832 16.7604 -14.1785 -3.1171
# 4 8.1359 24.4218 16.7604 48.8950 2.5110 2.2516
# 5 12.2992 12.6073 -14.1785 2.5110 46.1386 6.9569
# 6 9.3783 6.2962 -3.1171 2.2516 6.9569 27.3252
#
#
#
# Elastic Compliance Matrix: (Units=1/GPa)
#
#
# Indices 1 2 3 4 5 6 
#
# 1 0.014757 -0.000904 -0.004001 -0.000220 -0.004270 -0.004208
# 2 -0.000904 0.037944 -0.001239 -0.017700 -0.008810 -0.004873
# 3 -0.004001 -0.001239 0.018203 -0.005422 0.006929 0.002418
# 4 -0.000220 -0.017700 -0.005422 0.031086 0.001446 0.000606
# 5 -0.004270 -0.008810 0.006929 0.001446 0.027705 -0.002887
# 6 -0.004208 -0.004873 0.002418 0.000606 -0.002887 0.040124
#
#
# Mechanical properties :
#
#
# Convention : Reuss Voigt Hill
#
# Bulk Modulus (GPa) = 17.06008 28.09324 22.57666
# Shear Modulus (GPa) = 24.79605 35.04358 29.91982
#
# Velocity S-wave (km/s) = 3.29559 3.91784 3.62011
# Velocity P-wave (km/s) = 4.68548 5.72461 5.23091
#
# Compressibility (1/GPa) = 0.05861639
#
# Stress axis : x y z
#
# Youngs Moduli (GPa) = 67.76376 26.35469 54.93716
#
# Poissons Ratio (x) = 0.02382 0.21981
# Poissons Ratio (y) = 0.06123 0.06806
# Poissons Ratio (z) = 0.27113 0.03265
#
# Static dielectric constant tensor:
#      x y z
#    x 1.917610 -0.029940 0.052800 
#    y -0.029940 1.909830 -0.070040 
#    z 0.052800 -0.070040 1.940530 
# 
# From -- ./inp_files/501147.got.cif
#   From: 2010.05.17/outbox.cif.g08.bks.cpg/sg2_251_cif.got.tgz:501147.got - 2010.06.03 11:33:40.
