data_PCOD9083174
_publ_section_title
;
Structure prediction by ZEFSAII (Michael W. Deem and Ramdas Pophale) SiO2 
 PCOD9083174
Probable space group: P -1
;
_chemical_formula_sum "Si O2"
_cell_formula_units_Z 16
_cell_length_a 12.382988
_cell_length_b 19.565816
_cell_length_c 9.265596
_cell_angle_alpha 27.237184
_cell_angle_beta 54.174817
_cell_angle_gamma 52.190963
_cell_volume 806.686833
_symmetry_space_group_name_H-M "P -1"
_symmetry_group_IT_number 2
_symmetry_cell_setting 'triclinic'
loop_
_space_group_symop_operation_xyz
x,y,z
-x,-y,-z
loop_
_atom_site_type_symbol
_atom_site_label
_atom_site_fract_x
_atom_site_fract_y
_atom_site_fract_z
Si Si1 0.873790 0.919367 0.774249
Si Si2 0.706366 0.242708 0.248361
Si Si3 0.331372 0.423268 0.797517
Si Si4 0.046211 0.691249 0.264777
Si Si5 0.867872 0.140392 0.863659
Si Si6 0.606680 0.279213 0.960845
Si Si7 0.079042 0.358930 0.954931
Si Si8 0.227116 0.645747 0.715457
O O1 0.743937 0.063841 0.601680
O O2 0.874392 0.799423 0.871329
O O3 0.000000 0.000000 0.500000
O O4 0.909363 0.811577 0.089539
O O5 0.699022 0.337583 0.223591
O O6 0.834940 0.277470 0.992022
O O7 0.592058 0.273638 0.155184
O O8 0.468731 0.288090 0.962542
O O9 0.357727 0.557140 0.417786
O O10 0.198143 0.370276 0.951786
O O11 0.306311 0.507594 0.812977
O O12 0.072034 0.735007 0.327270
O O13 0.056418 0.511635 0.588047
O O14 0.735782 0.140555 0.068326
O O15 0.799562 0.202022 0.649676
O O16 0.000000 0.000000 0.000000
O O17 0.927956 0.368079 0.114912
#
# Coordination Sequence:
#
# PCOD9083174 Si02
#       8
#     2   2   2   2   2   2   2   2
#     4  10  20  32  54  82 117 149 186 240 288 342
#     4  10  19  36  56  84 113 151 195 232 290 340
#     4  10  21  38  56  85 114 160 186 240 277 338
#     4  10  19  34  51  86 112 152 188 226 296 334
#     4  10  20  34  59  86 115 148 185 240 290 336
#     4   9  20  39  59  79 118 152 205 214 287 355
#     4  12  20  34  57  86 122 144 196 241 284 336
#     4  11  21  32  56  89 120 140 191 247 287 322
#
# _framework density 19.834216000000001
#
# number of rings (size 3 to 8) (size 9 to 14) (size 15 to 20)
#    0.000    1.750    6.250    1.500    3.500    0.500 
#    0.000    0.625    0.000    0.000    0.000    9.625 
#    0.000    0.000    0.000    0.000    0.000    0.000 
#
# Total GULP energy -89109.838805 kJ/mol
# GULP energy per Si atom -5569.364925 kJ/mol
# Density = 1.978907 g / cm^3
# Si number density = 19.834216 Si / 1000 Ang^3
#
#
#
# Elastic Constant Matrix: (Units=GPa)
#
#
# Indices 1 2 3 4 5 6 
#
# 1 90.3271 32.5889 21.7684 -7.3022 26.8660 3.8486
# 2 32.5889 69.5905 23.3775 -18.2061 7.9289 11.8205
# 3 21.7684 23.3775 42.4583 -12.7719 4.6250 15.5045
# 4 -7.3022 -18.2061 -12.7719 25.2307 6.5149 4.1251
# 5 26.8660 7.9289 4.6250 6.5149 22.5600 5.2594
# 6 3.8486 11.8205 15.5045 4.1251 5.2594 26.0682
#
#
#
# Elastic Compliance Matrix: (Units=1/GPa)
#
#
# Indices 1 2 3 4 5 6 
#
# 1 0.022860 -0.005272 -0.007419 0.004725 -0.027114 0.008151
# 2 -0.005272 0.024686 0.000277 0.019850 -0.005234 -0.012665
# 3 -0.007419 0.000277 0.046826 0.027196 -0.001516 -0.030878
# 4 0.004725 0.019850 0.027196 0.083308 -0.034766 -0.032042
# 5 -0.027114 -0.005234 -0.001516 -0.034766 0.090063 -0.005391
# 6 0.008151 -0.012665 -0.030878 -0.032042 -0.005391 0.067424
#
#
# Mechanical properties :
#
#
# Convention : Reuss Voigt Hill
#
# Bulk Modulus (GPa) = 14.37957 39.76063 27.07010
# Shear Modulus (GPa) = 13.04879 23.08118 18.06499
#
# Velocity S-wave (km/s) = 2.56773 3.41501 3.02122
# Velocity P-wave (km/s) = 4.00707 5.96990 5.08411
#
# Compressibility (1/GPa) = 0.06954309
#
# Stress axis : x y z
#
# Youngs Moduli (GPa) = 43.74386 40.50809 21.35577
#
# Poissons Ratio (x) = 0.21356 0.15845
# Poissons Ratio (y) = 0.23062 -0.00591
# Poissons Ratio (z) = 0.32456 -0.01122
#
# Static dielectric constant tensor:
#      x y z
#    x 1.761710 -0.002280 0.030220 
#    y -0.002280 1.731100 0.004070 
#    z 0.030220 0.004070 1.727230 
# 
# From -- ./inp_files/277216.got.cif
#   From: 2010.05.17/outbox.cif.g08.bks.cpg/sg2_139_cif.got.tgz:277216.got - 2010.06.03 11:33:40.
