data_PCOD9083343
_publ_section_title
;
Structure prediction by ZEFSAII (Michael W. Deem and Ramdas Pophale) SiO2 
 PCOD9083343
Probable space group: P -1
;
_chemical_formula_sum "Si O2"
_cell_formula_units_Z 14
_cell_length_a 17.599436
_cell_length_b 8.324830
_cell_length_c 14.293169
_cell_angle_alpha 72.968857
_cell_angle_beta 22.164794
_cell_angle_gamma 82.773319
_cell_volume 691.275334
_symmetry_space_group_name_H-M "P -1"
_symmetry_group_IT_number 2
_symmetry_cell_setting 'triclinic'
loop_
_space_group_symop_operation_xyz
x,y,z
-x,-y,-z
loop_
_atom_site_type_symbol
_atom_site_label
_atom_site_fract_x
_atom_site_fract_y
_atom_site_fract_z
Si Si1 0.879301 0.095163 0.517277
Si Si2 0.046859 0.032457 0.832125
Si Si3 0.048678 0.397984 0.548160
Si Si4 0.279089 0.797754 0.505983
Si Si5 0.269986 0.280900 0.167791
Si Si6 0.767493 0.005764 0.984768
Si Si7 0.263299 0.468071 0.484505
O O1 0.739962 0.141887 0.589589
O O2 0.045461 0.243918 0.372913
O O3 0.733954 0.920558 0.775492
O O4 0.055819 0.045042 0.265216
O O5 0.198447 0.250802 0.608417
O O6 0.148858 0.892817 0.699472
O O7 0.829713 0.996418 0.023441
O O8 0.000000 0.000000 0.000000
O O9 0.241620 0.346433 0.292596
O O10 0.136778 0.485816 0.532294
O O11 0.000000 0.500000 0.500000
O O12 0.831357 0.216492 0.848588
O O13 0.203545 0.577426 0.617961
O O14 0.524463 0.879915 0.252498
O O15 0.479048 0.420018 0.851253
#
# Coordination Sequence:
#
# PCOD9083343 Si02
#       7
#     2   2   2   2   2   2   2
#     4   9  19  35  55  90 130 167 195 246 286 350
#     4  10  25  47  65  88 120 152 201 271 318 355
#     4  10  21  32  53  90 131 166 199 242 290 350
#     4  11  22  40  68  87 122 165 196 251 318 355
#     4  10  19  34  54  87 134 163 210 242 275 360
#     4   9  20  39  59  91 124 155 205 245 298 372
#     4  11  23  39  62  93 120 162 215 244 292 376
#
# _framework density 20.252423
#
# number of rings (size 3 to 8) (size 9 to 14) (size 15 to 20)
#    0.000    2.000    1.429    2.143    4.000    1.714 
#    0.000    0.714    0.000    0.000    0.000    0.000 
#    0.000    0.000    0.000    0.000    0.000    0.000 
#
# Total GULP energy -78033.420380 kJ/mol
# GULP energy per Si atom -5573.815741 kJ/mol
# Density = 2.020633 g / cm^3
# Si number density = 20.252423 Si / 1000 Ang^3
#
#
#
# Elastic Constant Matrix: (Units=GPa)
#
#
# Indices 1 2 3 4 5 6 
#
# 1 120.5250 38.8167 29.2727 -11.6656 2.1919 19.9667
# 2 38.8167 96.9603 28.0166 -1.4115 -0.7446 30.8123
# 3 29.2727 28.0166 41.1768 -7.1639 -8.6471 12.2392
# 4 -11.6656 -1.4115 -7.1639 19.6218 6.7569 -2.6655
# 5 2.1919 -0.7446 -8.6471 6.7569 30.7907 -1.1295
# 6 19.9667 30.8123 12.2392 -2.6655 -1.1295 32.8465
#
#
#
# Elastic Compliance Matrix: (Units=1/GPa)
#
#
# Indices 1 2 3 4 5 6 
#
# 1 0.011374 -0.002018 -0.005800 0.005454 -0.003778 -0.002547
# 2 -0.002018 0.017176 -0.007479 -0.004002 -0.001121 -0.012462
# 3 -0.005800 -0.007479 0.037253 0.006080 0.009267 -0.002527
# 4 0.005454 -0.004002 0.006080 0.060629 -0.011984 0.002681
# 5 -0.003778 -0.001121 0.009267 -0.011984 0.037960 0.000227
# 6 -0.002547 -0.012462 -0.002527 0.002681 0.000227 0.044850
#
#
# Mechanical properties :
#
#
# Convention : Reuss Voigt Hill
#
# Bulk Modulus (GPa) = 28.40259 50.09713 39.24986
# Shear Modulus (GPa) = 19.87494 27.48887 23.68190
#
# Velocity S-wave (km/s) = 3.13607 3.68817 3.42327
# Velocity P-wave (km/s) = 5.21229 6.55186 5.92008
#
# Compressibility (1/GPa) = 0.03520806
#
# Stress axis : x y z
#
# Youngs Moduli (GPa) = 87.91781 58.22196 26.84350
#
# Poissons Ratio (x) = 0.11747 0.15570
# Poissons Ratio (y) = 0.17738 0.20077
# Poissons Ratio (z) = 0.50996 0.43546
#
# Static dielectric constant tensor:
#      x y z
#    x 1.721410 0.072980 0.009920 
#    y 0.072980 2.042270 0.102480 
#    z 0.009920 0.102480 1.732380 
# 
# From -- ./inp_files/49422.got.cif
#   From: 2010.05.17/outbox.cif.g08.bks.cpg/sg2_25_cif.got.tgz:49422.got - 2010.06.03 11:33:40.
