data_PCOD9083929
_publ_section_title
;
Structure prediction by ZEFSAII (Michael W. Deem and Ramdas Pophale) SiO2 
 PCOD9083929
Probable space group: P -1
;
_chemical_formula_sum "Si O2"
_cell_formula_units_Z 14
_cell_length_a 14.116453
_cell_length_b 8.413308
_cell_length_c 9.540460
_cell_angle_alpha 117.664944
_cell_angle_beta 83.568520
_cell_angle_gamma 51.249992
_cell_volume 635.931977
_symmetry_space_group_name_H-M "P -1"
_symmetry_group_IT_number 2
_symmetry_cell_setting 'triclinic'
loop_
_space_group_symop_operation_xyz
x,y,z
-x,-y,-z
loop_
_atom_site_type_symbol
_atom_site_label
_atom_site_fract_x
_atom_site_fract_y
_atom_site_fract_z
Si Si1 0.568251 0.153342 0.214697
Si Si2 0.919842 0.687960 0.729625
Si Si3 0.866096 0.399012 0.171953
Si Si4 0.632412 0.459838 0.351905
Si Si5 0.420378 0.794397 0.075931
Si Si6 0.881590 0.539509 0.955904
Si Si7 0.598660 0.014585 0.554009
O O1 0.655325 0.216030 0.256506
O O2 0.422380 0.373549 0.425729
O O3 0.521321 0.215992 0.086081
O O4 0.700171 0.827231 0.101928
O O5 0.916621 0.533126 0.784518
O O6 0.000000 0.500000 0.500000
O O7 0.994784 0.752294 0.816701
O O8 0.753266 0.986833 0.838493
O O9 0.768045 0.374636 0.230542
O O10 0.762506 0.726587 0.357238
O O11 0.899241 0.344183 0.978129
O O12 0.481533 0.696287 0.379326
O O13 0.419213 0.941621 0.260098
O O14 0.500000 0.500000 0.000000
O O15 0.000000 0.500000 0.000000
O O16 0.500000 0.000000 0.500000
#
# Coordination Sequence:
#
# PCOD9083929 Si02
#       7
#     2   2   2   2   2   2   2
#     4  10  20  35  58  91 116 157 202 241 308 355
#     4  10  20  36  59  86 118 160 199 242 303 355
#     4  10  19  37  59  86 119 156 200 246 294 358
#     4  10  20  35  60  87 123 155 196 249 303 360
#     4  11  21  37  59  88 119 158 200 252 299 360
#     4   9  19  34  55  84 113 152 203 240 288 364
#     4  10  19  34  59  83 115 156 194 244 301 349
#
# _framework density 22.014934
#
# number of rings (size 3 to 8) (size 9 to 14) (size 15 to 20)
#    0.000    2.000    4.286    0.000    0.000    0.000 
#    0.000   12.143    0.000    0.857    0.000    0.000 
#    0.000    0.000    0.000    0.000    0.000    0.000 
#
# Total GULP energy -78018.559188 kJ/mol
# GULP energy per Si atom -5572.754228 kJ/mol
# Density = 2.196483 g / cm^3
# Si number density = 22.014934 Si / 1000 Ang^3
#
#
#
# Elastic Constant Matrix: (Units=GPa)
#
#
# Indices 1 2 3 4 5 6 
#
# 1 70.8924 28.4069 18.7340 -7.3199 -17.6139 -1.6055
# 2 28.4069 99.0696 46.6314 -24.3418 3.1321 -20.6592
# 3 18.7340 46.6314 127.2275 -41.5261 -7.2308 -8.5978
# 4 -7.3199 -24.3418 -41.5261 45.0456 -0.4008 -3.7170
# 5 -17.6139 3.1321 -7.2308 -0.4008 32.1399 -8.7382
# 6 -1.6055 -20.6592 -8.5978 -3.7170 -8.7382 29.8634
#
#
#
# Elastic Compliance Matrix: (Units=1/GPa)
#
#
# Indices 1 2 3 4 5 6 
#
# 1 0.019214 -0.005753 -0.000025 0.000117 0.011177 0.000331
# 2 -0.005753 0.016933 -0.002570 0.006717 -0.002359 0.010811
# 3 -0.000025 -0.002570 0.012963 0.010982 0.004555 0.004653
# 4 0.000117 0.006717 0.010982 0.037205 0.006223 0.014267
# 5 0.011177 -0.002359 0.004555 0.006223 0.042217 0.013408
# 6 0.000331 0.010811 0.004653 0.014267 0.013408 0.048021
#
#
# Mechanical properties :
#
#
# Convention : Reuss Voigt Hill
#
# Bulk Modulus (GPa) = 30.85095 53.85933 42.35514
# Shear Modulus (GPa) = 24.50325 34.97093 29.73709
#
# Velocity S-wave (km/s) = 3.33983 3.98993 3.67927
# Velocity P-wave (km/s) = 5.37742 6.76344 6.10986
#
# Compressibility (1/GPa) = 0.03241391
#
# Stress axis : x y z
#
# Youngs Moduli (GPa) = 52.04418 59.05751 77.14052
#
# Poissons Ratio (x) = 0.33979 0.00191
# Poissons Ratio (y) = 0.29943 0.19826
# Poissons Ratio (z) = 0.00129 0.15178
#
# Static dielectric constant tensor:
#      x y z
#    x 1.824100 0.044010 0.003080 
#    y 0.044010 1.927240 0.008490 
#    z 0.003080 0.008490 1.907520 
# 
# From -- ./inp_files/181459.got.cif
#   From: 2010.05.17/outbox.cif.g08.bks.cpg/sg2_91_cif.got.tgz:181459.got - 2010.06.03 11:33:40.
