data_PCOD9083348
_publ_section_title
;
Structure prediction by ZEFSAII (Michael W. Deem and Ramdas Pophale) SiO2 
 PCOD9083348
Probable space group: P -1
;
_chemical_formula_sum "Si O2"
_cell_formula_units_Z 16
_cell_length_a 19.247132
_cell_length_b 8.666282
_cell_length_c 5.427656
_cell_angle_alpha 90.000126
_cell_angle_beta 106.379388
_cell_angle_gamma 102.389595
_cell_volume 846.597207
_symmetry_space_group_name_H-M "P -1"
_symmetry_group_IT_number 2
_symmetry_cell_setting 'triclinic'
loop_
_space_group_symop_operation_xyz
x,y,z
-x,-y,-z
loop_
_atom_site_type_symbol
_atom_site_label
_atom_site_fract_x
_atom_site_fract_y
_atom_site_fract_z
Si Si1 0.390885 0.628501 0.140884
Si Si2 0.188309 0.172260 0.938308
Si Si3 0.025165 0.429744 0.275166
Si Si4 0.034005 0.943593 0.784005
Si Si5 0.346435 0.601644 0.596434
Si Si6 0.815491 0.627202 0.565492
Si Si7 0.643467 0.750112 0.893467
Si Si8 0.567503 0.682877 0.317503
O O1 0.364128 0.696022 0.362325
O O2 0.353701 0.438379 0.103701
O O3 0.479040 0.646428 0.229038
O O4 0.364127 0.696022 0.865928
O O5 0.121841 0.018432 0.871841
O O6 0.180422 0.269164 0.680008
O O7 0.180421 0.269166 0.180831
O O8 0.272547 0.151232 0.022548
O O9 0.000000 0.500000 0.500000
O O10 0.988374 0.244176 0.238374
O O11 0.113965 0.450898 0.363965
O O12 0.000000 0.500000 0.000000
O O13 0.000000 0.000000 0.500000
O O14 0.000000 0.000000 0.000000
O O15 0.263384 0.496700 0.513383
O O16 0.403524 0.481446 0.653524
O O17 0.600391 0.769747 0.600451
O O18 0.600392 0.769748 0.100331
#
# Coordination Sequence:
#
# PCOD9083348 Si02
#       8
#     2   2   2   2   2   2   2   2
#     4  10  16  23  38  59 102 143 178 205 266 334
#     4  12  19  34  54  80 104 139 188 239 267 327
#     4  12  26  43  61  86 118 152 187 244 307 348
#     4  12  23  40  64  89 111 146 196 242 287 354
#     4  10  16  26  39  65  91 138 185 208 258 327
#     4  12  20  35  56  75 109 143 190 229 279 340
#     4  10  16  25  38  62  97 132 182 206 268 315
#     4  10  16  24  36  62  98 147 174 209 262 339
#
# _framework density 18.899190000000001
#
# number of rings (size 3 to 8) (size 9 to 14) (size 15 to 20)
#    0.000    1.000    7.500    5.250    0.000    0.000 
#    0.000    0.000    0.000    0.000    0.000    0.000 
#    0.000    0.000    0.000   38.250    0.000    0.000 
#
# Total GULP energy -89303.403657 kJ/mol
# GULP energy per Si atom -5581.462729 kJ/mol
# Density = 1.885617 g / cm^3
# Si number density = 18.899190 Si / 1000 Ang^3
#
#
#
# Elastic Constant Matrix: (Units=GPa)
#
#
# Indices 1 2 3 4 5 6 
#
# 1 110.5719 43.5795 56.2387 7.6432 -4.5221 31.3636
# 2 43.5795 54.0468 42.0070 2.9350 0.6870 10.0257
# 3 56.2387 42.0070 194.3349 2.2492 -27.8596 7.3889
# 4 7.6432 2.9350 2.2492 18.4228 7.5244 2.2926
# 5 -4.5221 0.6870 -27.8596 7.5244 43.7880 7.5104
# 6 31.3636 10.0257 7.3889 2.2926 7.5104 23.9440
#
#
#
# Elastic Compliance Matrix: (Units=1/GPa)
#
#
# Indices 1 2 3 4 5 6 
#
# 1 0.022750 -0.011716 -0.002007 -0.006925 0.006865 -0.025765
# 2 -0.011716 0.030103 -0.004168 0.002193 -0.005671 0.005596
# 3 -0.002007 -0.004168 0.007268 -0.001362 0.004574 0.000827
# 4 -0.006925 0.002193 -0.001362 0.061578 -0.013376 0.006872
# 5 0.006865 -0.005671 0.004574 -0.013376 0.031707 -0.016694
# 6 -0.025765 0.005596 0.000827 0.006872 -0.016694 0.077493
#
#
# Mechanical properties :
#
#
# Convention : Reuss Voigt Hill
#
# Bulk Modulus (GPa) = 41.08543 71.40045 56.24294
# Shear Modulus (GPa) = 18.19546 31.70618 24.95082
#
# Velocity S-wave (km/s) = 3.10621 4.10035 3.63741
# Velocity P-wave (km/s) = 5.88652 7.76394 6.88949
#
# Compressibility (1/GPa) = 0.02433953
#
# Stress axis : x y z
#
# Youngs Moduli (GPa) = 43.95631 33.21889 137.59756
#
# Poissons Ratio (x) = 0.38918 0.27619
# Poissons Ratio (y) = 0.51498 0.57347
# Poissons Ratio (z) = 0.08823 0.13845
#
# Static dielectric constant tensor:
#      x y z
#    x 1.671750 0.013770 -0.084720 
#    y 0.013770 1.613120 -0.003270 
#    z -0.084720 -0.003270 1.881450 
# 
# From -- ./inp_files/106764.got.cif
#   From: 2010.05.17/outbox.cif.g08.bks.cpg/sg2_54_cif.got.tgz:106764.got - 2010.06.03 11:33:40.
