data_PCOD9083525
_publ_section_title
;
Structure prediction by ZEFSAII (Michael W. Deem and Ramdas Pophale) SiO2 
 PCOD9083525
Probable space group: P -1
;
_chemical_formula_sum "Si O2"
_cell_formula_units_Z 16
_cell_length_a 10.230077
_cell_length_b 14.425871
_cell_length_c 8.927095
_cell_angle_alpha 81.648119
_cell_angle_beta 66.530250
_cell_angle_gamma 136.357906
_cell_volume 607.838010
_symmetry_space_group_name_H-M "P -1"
_symmetry_group_IT_number 2
_symmetry_cell_setting 'triclinic'
loop_
_space_group_symop_operation_xyz
x,y,z
-x,-y,-z
loop_
_atom_site_type_symbol
_atom_site_label
_atom_site_fract_x
_atom_site_fract_y
_atom_site_fract_z
Si Si1 0.127623 0.160644 0.487304
Si Si2 0.203391 0.082580 0.020419
Si Si3 0.841708 0.583441 0.469666
Si Si4 0.312844 0.605083 0.710882
Si Si5 0.281510 0.789825 0.773899
Si Si6 0.697263 0.650750 0.093339
Si Si7 0.755899 0.086911 0.014231
Si Si8 0.037342 0.294723 0.310155
O O1 0.452541 0.325172 0.334311
O O2 0.027359 0.193358 0.432153
O O3 0.000000 0.000000 0.500000
O O4 0.986245 0.074144 0.733224
O O5 0.310819 0.244912 0.985725
O O6 0.393406 0.098974 0.891112
O O7 0.000000 0.000000 0.000000
O O8 0.727612 0.443048 0.434942
O O9 0.575153 0.501787 0.639250
O O10 0.106694 0.782263 0.221129
O O11 0.914857 0.601509 0.604988
O O12 0.410574 0.766464 0.661293
O O13 0.014930 0.413148 0.969017
O O14 0.209994 0.812091 0.657997
O O15 0.407728 0.925895 0.815215
O O16 0.971575 0.784558 0.036464
O O17 0.732962 0.603629 0.945068
#
# Coordination Sequence:
#
# PCOD9083525 Si02
#       8
#     2   2   2   2   2   2   2   2
#     4  12  24  39  62  92 124 160 205 258 311 360
#     4  10  19  34  56  85 123 161 196 246 306 367
#     4  11  21  33  60  92 118 160 205 258 302 359
#     4  10  23  42  63  87 125 168 202 250 311 373
#     4   9  22  42  61  91 123 163 206 251 313 367
#     4  10  20  32  52  87 127 156 194 252 310 362
#     4   9  18  33  58  82 120 157 206 244 300 369
#     4  11  23  34  61  92 126 152 206 261 301 358
#
# _framework density 26.322800999999998
#
# number of rings (size 3 to 8) (size 9 to 14) (size 15 to 20)
#    0.000    1.750    2.500    2.250    7.000    0.500 
#    0.000    0.625    0.000    0.750    0.000    0.000 
#    0.000    0.000    0.000    0.000    0.000    0.000 
#
# Total GULP energy -89324.409029 kJ/mol
# GULP energy per Si atom -5582.775564 kJ/mol
# Density = 2.626289 g / cm^3
# Si number density = 26.322801 Si / 1000 Ang^3
#
#
#
# Elastic Constant Matrix: (Units=GPa)
#
#
# Indices 1 2 3 4 5 6 
#
# 1 105.0676 39.3080 35.1070 17.3006 9.0359 -22.6233
# 2 39.3080 100.0460 54.7790 34.0769 -4.5124 -18.7160
# 3 35.1070 54.7790 139.4043 40.6202 16.8150 -5.3983
# 4 17.3006 34.0769 40.6202 38.5253 -0.9974 -5.8076
# 5 9.0359 -4.5124 16.8150 -0.9974 37.3689 4.4161
# 6 -22.6233 -18.7160 -5.3983 -5.8076 4.4161 57.9209
#
#
#
# Elastic Compliance Matrix: (Units=1/GPa)
#
#
# Indices 1 2 3 4 5 6 
#
# 1 0.012408 -0.003470 -0.000869 -0.001104 -0.003507 0.003801
# 2 -0.003470 0.017148 -0.003485 -0.009439 0.003917 0.002616
# 3 -0.000869 -0.003485 0.012284 -0.009760 -0.005898 -0.000850
# 4 -0.001104 -0.009439 -0.009760 0.045182 0.004751 -0.000223
# 5 -0.003507 0.003917 -0.005898 0.004751 0.031164 -0.002553
# 6 0.003801 0.002616 -0.000850 -0.000223 -0.002553 0.019688
#
#
# Mechanical properties :
#
#
# Convention : Reuss Voigt Hill
#
# Bulk Modulus (GPa) = 38.18107 66.98955 52.58531
# Shear Modulus (GPa) = 30.81573 41.11794 35.96683
#
# Velocity S-wave (km/s) = 3.42524 3.95659 3.70046
# Velocity P-wave (km/s) = 5.49358 6.81008 6.18695
#
# Compressibility (1/GPa) = 0.02619099
#
# Stress axis : x y z
#
# Youngs Moduli (GPa) = 80.59155 58.31456 81.40512
#
# Poissons Ratio (x) = 0.20237 0.07077
# Poissons Ratio (y) = 0.27968 0.28371
# Poissons Ratio (z) = 0.07006 0.20324
#
# Static dielectric constant tensor:
#      x y z
#    x 2.021660 -0.050650 -0.071820 
#    y -0.050650 2.276810 -0.005440 
#    z -0.071820 -0.005440 2.230920 
# 
# From -- ./inp_files/270310.got.cif
#   From: 2010.05.17/outbox.cif.g08.bks.cpg/sg2_136_cif.got.tgz:270310.got - 2010.06.03 11:33:40.
