data_PCOD9083330
_publ_section_title
;
Structure prediction by ZEFSAII (Michael W. Deem and Ramdas Pophale) SiO2 
 PCOD9083330
Probable space group: P -1
;
_chemical_formula_sum "Si O2"
_cell_formula_units_Z 16
_cell_length_a 11.861800
_cell_length_b 13.689224
_cell_length_c 9.774333
_cell_angle_alpha 91.455498
_cell_angle_beta 128.670223
_cell_angle_gamma 129.799207
_cell_volume 671.286292
_symmetry_space_group_name_H-M "P -1"
_symmetry_group_IT_number 2
_symmetry_cell_setting 'triclinic'
loop_
_space_group_symop_operation_xyz
x,y,z
-x,-y,-z
loop_
_atom_site_type_symbol
_atom_site_label
_atom_site_fract_x
_atom_site_fract_y
_atom_site_fract_z
Si Si1 0.537178 0.414512 0.423853
Si Si2 0.070398 0.810400 0.724075
Si Si3 0.985133 0.862662 0.143894
Si Si4 0.617258 0.919255 0.332833
Si Si5 0.769036 0.352355 0.517640
Si Si6 0.377542 0.974955 0.237871
Si Si7 0.248801 0.199022 0.453375
Si Si8 0.712543 0.266916 0.171462
O O1 0.824955 0.616619 0.610069
O O2 0.582863 0.323558 0.449924
O O3 0.425695 0.363879 0.490415
O O4 0.314926 0.317853 0.140641
O O5 0.925159 0.830409 0.582162
O O6 0.174863 0.777824 0.713056
O O7 0.278806 0.946515 0.009832
O O8 0.169845 0.904789 0.182342
O O9 0.088283 0.891845 0.375508
O O10 0.058324 0.020532 0.209726
O O11 0.421848 0.883886 0.260611
O O12 0.580786 0.785038 0.337489
O O13 0.557259 0.897580 0.126351
O O14 0.704733 0.322885 0.305690
O O15 0.077059 0.558163 0.762743
O O16 0.666346 0.189298 0.483218
#
# Coordination Sequence:
#
# PCOD9083330 Si02
#       8
#     2   2   2   2   2   2   2   2
#     4  11  19  35  57  89 107 149 189 222 270 328
#     4  10  21  33  59  82 113 143 190 224 266 328
#     4  10  20  33  56  80 121 142 178 223 277 332
#     4   9  22  35  53  83 117 143 178 230 283 318
#     4  10  20  37  68  75 106 145 195 228 264 327
#     4  11  19  37  56  85 108 146 187 227 271 332
#     4  10  19  34  54  85 112 148 172 229 276 327
#     4   9  21  42  57  84 105 144 190 231 270 325
#
# _framework density 23.834838000000001
#
# number of rings (size 3 to 8) (size 9 to 14) (size 15 to 20)
#    0.750    1.250    2.500    1.875    0.000    2.000 
#    2.250   10.625    2.750    2.250    0.000    0.000 
#    0.000    0.000    0.000    0.000    0.000    0.000 
#
# Total GULP energy -89198.365628 kJ/mol
# GULP energy per Si atom -5574.897852 kJ/mol
# Density = 2.378059 g / cm^3
# Si number density = 23.834838 Si / 1000 Ang^3
#
#
#
# Elastic Constant Matrix: (Units=GPa)
#
#
# Indices 1 2 3 4 5 6 
#
# 1 78.3916 -0.5120 -29.2884 -7.9420 11.4424 -5.2922
# 2 -0.5120 34.2979 5.8654 -4.2507 13.4991 -22.8039
# 3 -29.2884 5.8654 38.7098 -0.8873 2.2363 1.9606
# 4 -7.9420 -4.2507 -0.8873 41.0296 3.4557 1.6118
# 5 11.4424 13.4991 2.2363 3.4557 34.7236 -5.7777
# 6 -5.2922 -22.8039 1.9606 1.6118 -5.7777 34.9159
#
#
#
# Elastic Compliance Matrix: (Units=1/GPa)
#
#
# Indices 1 2 3 4 5 6 
#
# 1 0.020757 0.004153 0.015588 0.005459 -0.009476 0.003164
# 2 0.004153 0.066938 -0.007694 0.007719 -0.020846 0.040973
# 3 0.015588 -0.007694 0.039540 0.003826 -0.006082 -0.006066
# 4 0.005459 0.007719 0.003826 0.026789 -0.007175 0.003230
# 5 -0.009476 -0.020846 -0.006082 -0.007175 0.039836 -0.007787
# 6 0.003164 0.040973 -0.006066 0.003230 -0.007787 0.054783
#
#
# Mechanical properties :
#
#
# Convention : Reuss Voigt Hill
#
# Bulk Modulus (GPa) = 6.60805 11.50325 9.05565
# Shear Modulus (GPa) = 18.18245 33.82274 26.00260
#
# Velocity S-wave (km/s) = 2.76497 3.77111 3.30654
# Velocity P-wave (km/s) = 3.60165 4.87836 4.28779
#
# Compressibility (1/GPa) = 0.15133060
#
# Stress axis : x y z
#
# Youngs Moduli (GPa) = 48.17550 14.93927 25.29103
#
# Poissons Ratio (x) = -0.06205 -0.39425
# Poissons Ratio (y) = -0.20010 0.19459
# Poissons Ratio (z) = -0.75098 0.11494
#
# Static dielectric constant tensor:
#      x y z
#    x 1.890510 0.017870 0.001850 
#    y 0.017870 2.045600 0.031850 
#    z 0.001850 0.031850 1.880620 
# 
# From -- ./inp_files/259094.got.cif
#   From: 2010.05.17/outbox.cif.g08.bks.cpg/sg2_130_cif.got.tgz:259094.got - 2010.06.03 11:33:40.
