data_PCOD9083443
_publ_section_title
;
Structure prediction by ZEFSAII (Michael W. Deem and Ramdas Pophale) SiO2 
 PCOD9083443
Probable space group: P -1
;
_chemical_formula_sum "Si O2"
_cell_formula_units_Z 14
_cell_length_a 11.814244
_cell_length_b 11.978807
_cell_length_c 11.776053
_cell_angle_alpha 140.279767
_cell_angle_beta 123.634179
_cell_angle_gamma 51.914249
_cell_volume 827.725626
_symmetry_space_group_name_H-M "P -1"
_symmetry_group_IT_number 2
_symmetry_cell_setting 'triclinic'
loop_
_space_group_symop_operation_xyz
x,y,z
-x,-y,-z
loop_
_atom_site_type_symbol
_atom_site_label
_atom_site_fract_x
_atom_site_fract_y
_atom_site_fract_z
Si Si1 0.049525 0.603515 0.396266
Si Si2 0.184349 0.828560 0.349841
Si Si3 0.098501 0.031594 0.242796
Si Si4 0.345334 0.542946 0.389829
Si Si5 0.124959 0.164504 0.121866
Si Si6 0.336848 0.143989 0.022284
Si Si7 0.098037 0.198880 0.743534
O O1 0.204219 0.617750 0.453323
O O2 0.070535 0.392063 0.279185
O O3 0.982176 0.770318 0.580796
O O4 0.949920 0.643975 0.258170
O O5 0.316487 0.680249 0.373768
O O6 0.044932 0.763039 0.227887
O O7 0.204079 0.893719 0.286190
O O8 0.132690 0.012382 0.542886
O O9 0.166364 0.078890 0.203282
O O10 0.990660 0.924420 0.059763
O O11 0.500000 0.500000 0.500000
O O12 0.342237 0.347918 0.194277
O O13 0.254393 0.108552 0.059173
O O14 0.236673 0.157045 0.867366
O O15 0.500000 0.000000 0.000000
#
# Coordination Sequence:
#
# PCOD9083443 Si02
#       7
#     2   2   2   2   2   2   2
#     4   9  20  34  56  78 108 134 176 229 255 315
#     4   9  17  31  54  75 106 132 175 218 259 315
#     4  10  19  34  56  77 110 140 169 227 251 315
#     4  10  21  32  52  81 104 142 173 215 276 310
#     4  10  21  33  53  82 105 141 182 204 269 314
#     4  11  22  33  53  76 112 136 172 227 257 320
#     4   9  17  31  52  79 100 136 170 219 273 294
#
# _framework density 16.913817000000002
#
# number of rings (size 3 to 8) (size 9 to 14) (size 15 to 20)
#    0.000    2.286    1.429    2.143    4.000    1.714 
#    0.000    0.000    0.000   16.286    0.000    0.000 
#    0.000    0.000    0.000    0.000    0.000    0.000 
#
# Total GULP energy -77951.499100 kJ/mol
# GULP energy per Si atom -5567.964221 kJ/mol
# Density = 1.687532 g / cm^3
# Si number density = 16.913817 Si / 1000 Ang^3
#
#
#
# Elastic Constant Matrix: (Units=GPa)
#
#
# Indices 1 2 3 4 5 6 
#
# 1 52.0377 60.6429 23.3859 -11.7559 -3.6336 19.5145
# 2 60.6429 125.0136 19.4311 -29.9816 4.0494 24.3699
# 3 23.3859 19.4311 53.9950 -18.1385 2.1419 13.0285
# 4 -11.7559 -29.9816 -18.1385 34.2873 1.6316 1.9364
# 5 -3.6336 4.0494 2.1419 1.6316 18.5091 -3.6329
# 6 19.5145 24.3699 13.0285 1.9364 -3.6329 34.2442
#
#
#
# Elastic Compliance Matrix: (Units=1/GPa)
#
#
# Indices 1 2 3 4 5 6 
#
# 1 0.069407 -0.035864 -0.025675 -0.022389 0.026378 -0.000198
# 2 -0.035864 0.032273 0.016660 0.026439 -0.020828 -0.012573
# 3 -0.025675 0.016660 0.037023 0.027054 -0.018255 -0.014778
# 4 -0.022389 0.026439 0.027054 0.061275 -0.023082 -0.022263
# 5 0.026378 -0.020828 -0.018255 -0.023082 0.070966 0.015569
# 6 -0.000198 -0.012573 -0.014778 -0.022263 0.015569 0.046795
#
#
# Mechanical properties :
#
#
# Convention : Reuss Voigt Hill
#
# Bulk Modulus (GPa) = 20.43018 48.66288 34.54653
# Shear Modulus (GPa) = 11.79769 25.91388 18.85579
#
# Velocity S-wave (km/s) = 2.64392 3.91847 3.34251
# Velocity P-wave (km/s) = 4.62878 7.02183 5.94692
#
# Compressibility (1/GPa) = 0.04894720
#
# Stress axis : x y z
#
# Youngs Moduli (GPa) = 14.40768 30.98563 27.01028
#
# Poissons Ratio (x) = 1.11126 0.69349
# Poissons Ratio (y) = 0.51671 -0.45000
# Poissons Ratio (z) = 0.36992 -0.51624
#
# Static dielectric constant tensor:
#      x y z
#    x 1.545410 0.046470 -0.022220 
#    y 0.046470 1.557040 0.031660 
#    z -0.022220 0.031660 1.573590 
# 
# From -- ./inp_files/164363.got.cif
#   From: 2010.05.17/outbox.cif.g08.bks.cpg/sg2_83_cif.got.tgz:164363.got - 2010.06.03 11:33:40.
