data_PCOD9083491
_publ_section_title
;
Structure prediction by ZEFSAII (Michael W. Deem and Ramdas Pophale) SiO2 
 PCOD9083491
Probable space group: P -1
;
_chemical_formula_sum "Si O2"
_cell_formula_units_Z 16
_cell_length_a 11.607465
_cell_length_b 11.745017
_cell_length_c 11.040269
_cell_angle_alpha 110.432929
_cell_angle_beta 65.889158
_cell_angle_gamma 148.465423
_cell_volume 718.517718
_symmetry_space_group_name_H-M "P -1"
_symmetry_group_IT_number 2
_symmetry_cell_setting 'triclinic'
loop_
_space_group_symop_operation_xyz
x,y,z
-x,-y,-z
loop_
_atom_site_type_symbol
_atom_site_label
_atom_site_fract_x
_atom_site_fract_y
_atom_site_fract_z
Si Si1 0.736835 0.278821 0.386196
Si Si2 0.726862 0.072723 0.001643
Si Si3 0.048497 0.421456 0.795517
Si Si4 0.862574 0.765195 0.047044
Si Si5 0.126327 0.165694 0.204389
Si Si6 0.145545 0.462212 0.368755
Si Si7 0.527414 0.339128 0.175688
Si Si8 0.642155 0.153124 0.727512
O O1 0.847725 0.378033 0.241027
O O2 0.748522 0.415761 0.502354
O O3 0.896075 0.318826 0.410134
O O4 0.493979 0.030219 0.380654
O O5 0.897406 0.296758 0.936462
O O6 0.901456 0.122329 0.015169
O O7 0.583389 0.876665 0.895136
O O8 0.530773 0.963442 0.131676
O O9 0.273272 0.521547 0.760086
O O10 0.853434 0.241363 0.713531
O O11 0.669468 0.516963 0.074171
O O12 0.804107 0.775074 0.946293
O O13 0.905493 0.902483 0.183594
O O14 0.119424 0.300252 0.293791
O O15 0.306559 0.246999 0.246549
O O16 0.284707 0.656359 0.284384
#
# Coordination Sequence:
#
# PCOD9083491 Si02
#       8
#     2   2   2   2   2   2   2   2
#     4  10  22  40  58  79 111 146 187 234 273 320
#     4  10  20  33  55  86 116 144 179 225 280 334
#     4  10  22  37  55  81 114 151 186 223 273 330
#     4   9  19  33  54  85 116 145 177 224 281 334
#     4  10  19  34  56  83 112 143 184 227 276 329
#     4  10  22  38  59  84 108 144 188 230 277 326
#     4  10  20  35  54  80 115 147 179 224 275 331
#     4  11  21  35  58  84 112 146 184 229 277 327
#
# _framework density 22.268066999999999
#
# number of rings (size 3 to 8) (size 9 to 14) (size 15 to 20)
#    0.000    2.000    0.000    3.375    0.000    7.000 
#    0.000    0.625    0.000    7.500    0.000    0.000 
#    0.000    0.000    0.000    0.000    0.000    0.000 
#
# Total GULP energy -89110.579072 kJ/mol
# GULP energy per Si atom -5569.411192 kJ/mol
# Density = 2.221738 g / cm^3
# Si number density = 22.268067 Si / 1000 Ang^3
#
#
#
# Elastic Constant Matrix: (Units=GPa)
#
#
# Indices 1 2 3 4 5 6 
#
# 1 93.5945 51.4679 42.7540 18.2700 9.6444 15.8545
# 2 51.4679 131.2457 37.5483 11.3843 -9.7681 -0.4720
# 3 42.7540 37.5483 66.4923 14.1151 -9.1549 -2.6536
# 4 18.2700 11.3843 14.1151 33.8362 -10.5795 13.6663
# 5 9.6444 -9.7681 -9.1549 -10.5795 23.1789 3.5580
# 6 15.8545 -0.4720 -2.6536 13.6663 3.5580 34.2282
#
#
#
# Elastic Compliance Matrix: (Units=1/GPa)
#
#
# Indices 1 2 3 4 5 6 
#
# 1 0.027174 -0.007352 -0.014622 -0.010772 -0.024018 -0.007024
# 2 -0.007352 0.011167 -0.000909 0.002543 0.008320 0.001608
# 3 -0.014622 -0.000909 0.027738 -0.002238 0.014359 0.008311
# 4 -0.010772 0.002543 -0.002238 0.053521 0.032147 -0.019860
# 5 -0.024018 0.008320 0.014359 0.032147 0.078310 -0.008622
# 6 -0.007024 0.001608 0.008311 -0.019860 -0.008622 0.041961
#
#
# Mechanical properties :
#
#
# Convention : Reuss Voigt Hill
#
# Bulk Modulus (GPa) = 49.22699 61.65253 55.43976
# Shear Modulus (GPa) = 17.09946 28.88614 22.99280
#
# Velocity S-wave (km/s) = 2.77409 3.60557 3.21681
# Velocity P-wave (km/s) = 5.69344 6.71418 6.22477
#
# Compressibility (1/GPa) = 0.02031406
#
# Stress axis : x y z
#
# Youngs Moduli (GPa) = 36.80030 89.55240 36.05171
#
# Poissons Ratio (x) = 0.65835 0.52713
# Poissons Ratio (y) = 0.27054 0.03277
# Poissons Ratio (z) = 0.53808 0.08141
#
# Static dielectric constant tensor:
#      x y z
#    x 1.848240 -0.012220 0.021260 
#    y -0.012220 1.868900 0.010310 
#    z 0.021260 0.010310 1.857440 
# 
# From -- ./inp_files/428695.got.cif
#   From: 2010.05.17/outbox.cif.g08.bks.cpg/sg2_215_cif.got.tgz:428695.got - 2010.06.03 11:33:40.
