data_PCOD9083185
_publ_section_title
;
Structure prediction by ZEFSAII (Michael W. Deem and Ramdas Pophale) SiO2 
 PCOD9083185
Probable space group: P -1
;
_chemical_formula_sum "Si O2"
_cell_formula_units_Z 16
_cell_length_a 28.709861
_cell_length_b 8.185049
_cell_length_c 6.429967
_cell_angle_alpha 96.931288
_cell_angle_beta 72.202921
_cell_angle_gamma 43.791106
_cell_volume 851.628433
_symmetry_space_group_name_H-M "P -1"
_symmetry_group_IT_number 2
_symmetry_cell_setting 'triclinic'
loop_
_space_group_symop_operation_xyz
x,y,z
-x,-y,-z
loop_
_atom_site_type_symbol
_atom_site_label
_atom_site_fract_x
_atom_site_fract_y
_atom_site_fract_z
Si Si1 0.613452 0.100102 0.349593
Si Si2 0.923120 0.090372 0.559625
Si Si3 0.237230 0.266710 0.157658
Si Si4 0.822694 0.816880 0.115536
Si Si5 0.533110 0.525304 0.147295
Si Si6 0.681886 0.137920 0.637294
Si Si7 0.974922 0.249293 0.999125
Si Si8 0.052088 0.254986 0.228410
O O1 0.571825 0.307903 0.243953
O O2 0.543953 0.184147 0.581902
O O3 0.642688 0.147617 0.496159
O O4 0.696409 0.811099 0.083864
O O5 0.845822 0.407722 0.652296
O O6 0.905064 0.014988 0.758426
O O7 0.000000 0.000000 0.500000
O O8 0.959269 0.887634 0.289793
O O9 0.275744 0.104671 0.297827
O O10 0.216446 0.159299 0.033548
O O11 0.754094 0.045318 0.415299
O O12 0.883429 0.511997 0.077326
O O13 0.881236 0.809321 0.978850
O O14 0.500000 0.500000 0.000000
O O15 0.608518 0.416788 0.916606
O O16 0.987484 0.347245 0.175518
O O17 0.000000 0.000000 0.000000
O O18 0.000000 0.500000 0.500000
#
# Coordination Sequence:
#
# PCOD9083185 Si02
#       8
#     2   2   2   2   2   2   2   2
#     4   8  15  27  47  77 109 141 179 216 271 325
#     4  12  22  38  54  75 104 143 189 232 282 330
#     4  10  19  34  52  77 108 145 182 231 275 324
#     4  11  22  33  51  77 105 138 185 225 281 332
#     4   8  13  26  46  75 111 144 171 215 272 324
#     4   9  18  28  49  74 110 142 176 225 275 323
#     4  12  23  37  58  76 102 144 187 231 282 337
#     4  12  25  39  55  76 105 144 188 243 287 331
#
# _framework density 18.787537
#
# number of rings (size 3 to 8) (size 9 to 14) (size 15 to 20)
#    0.000    1.750    3.750    1.125    1.750    1.000 
#    0.000    0.000    0.000    0.000    0.000    0.875 
#    0.000   91.000    0.000   15.000    0.000    2.125 
#
# Total GULP energy -89078.098293 kJ/mol
# GULP energy per Si atom -5567.381143 kJ/mol
# Density = 1.874478 g / cm^3
# Si number density = 18.787537 Si / 1000 Ang^3
#
#
#
# Elastic Constant Matrix: (Units=GPa)
#
#
# Indices 1 2 3 4 5 6 
#
# 1 48.1065 30.1642 36.4384 -3.0713 -1.3140 -5.4473
# 2 30.1642 58.3777 17.1437 -13.1324 -1.4134 -17.5450
# 3 36.4384 17.1437 130.1054 6.4312 -19.1975 -11.9437
# 4 -3.0713 -13.1324 6.4312 34.8244 -11.1427 -0.6170
# 5 -1.3140 -1.4134 -19.1975 -11.1427 43.5146 -7.8063
# 6 -5.4473 -17.5450 -11.9437 -0.6170 -7.8063 24.5505
#
#
#
# Elastic Compliance Matrix: (Units=1/GPa)
#
#
# Indices 1 2 3 4 5 6 
#
# 1 0.042993 -0.026181 -0.011293 -0.007399 -0.009643 -0.017917
# 2 -0.026181 0.043066 0.005762 0.017775 0.013536 0.032522
# 3 -0.011293 0.005762 0.011988 0.001461 0.007266 0.009791
# 4 -0.007399 0.017775 0.001461 0.039335 0.014168 0.017266
# 5 -0.009643 0.013536 0.007266 0.014168 0.033949 0.022219
# 6 -0.017917 0.032522 0.009791 0.017266 0.022219 0.072261
#
#
# Mechanical properties :
#
#
# Convention : Reuss Voigt Hill
#
# Bulk Modulus (GPa) = 28.88246 44.89801 36.89024
# Shear Modulus (GPa) = 15.69572 30.76746 23.23159
#
# Velocity S-wave (km/s) = 2.89352 4.05118 3.52027
# Velocity P-wave (km/s) = 5.15460 6.76996 6.01674
#
# Compressibility (1/GPa) = 0.03462309
#
# Stress axis : x y z
#
# Youngs Moduli (GPa) = 23.25968 23.22007 83.41419
#
# Poissons Ratio (x) = 0.60793 0.94200
# Poissons Ratio (y) = 0.60896 -0.48063
# Poissons Ratio (z) = 0.26267 -0.13379
#
# Static dielectric constant tensor:
#      x y z
#    x 1.654120 -0.044250 -0.028090 
#    y -0.044250 1.685060 -0.010000 
#    z -0.028090 -0.010000 1.751230 
# 
# From -- ./inp_files/50925.got.cif
#   From: 2010.05.17/outbox.cif.g08.bks.cpg/sg2_26_cif.got.tgz:50925.got - 2010.06.03 11:33:40.
