data_PCOD9083429
_publ_section_title
;
Structure prediction by ZEFSAII (Michael W. Deem and Ramdas Pophale) SiO2 
 PCOD9083429
Probable space group: P -1
;
_chemical_formula_sum "Si O2"
_cell_formula_units_Z 16
_cell_length_a 6.883862
_cell_length_b 26.207347
_cell_length_c 11.501195
_cell_angle_alpha 145.798051
_cell_angle_beta 109.421333
_cell_angle_gamma 53.543848
_cell_volume 878.217223
_symmetry_space_group_name_H-M "P -1"
_symmetry_group_IT_number 2
_symmetry_cell_setting 'triclinic'
loop_
_space_group_symop_operation_xyz
x,y,z
-x,-y,-z
loop_
_atom_site_type_symbol
_atom_site_label
_atom_site_fract_x
_atom_site_fract_y
_atom_site_fract_z
Si Si1 0.797690 0.825363 0.327558
Si Si2 0.027903 0.845440 0.643530
Si Si3 0.194866 0.561231 0.541085
Si Si4 0.017489 0.226327 0.267842
Si Si5 0.329647 0.835215 0.997640
Si Si6 0.149851 0.365010 0.160618
Si Si7 0.780139 0.999713 0.513910
Si Si8 0.607193 0.102328 0.123628
O O1 0.940817 0.820475 0.461787
O O2 0.488033 0.920821 0.459211
O O3 0.856673 0.876596 0.326435
O O4 0.863125 0.706147 0.077501
O O5 0.095115 0.756728 0.592461
O O6 0.252212 0.860614 0.697591
O O7 0.797629 0.967862 0.883624
O O8 0.500000 0.500000 0.500000
O O9 0.131933 0.474499 0.326862
O O10 0.082380 0.661816 0.614893
O O11 0.053638 0.605040 0.721389
O O12 0.324676 0.149715 0.194574
O O13 0.917171 0.164002 0.061621
O O14 0.564855 0.721299 0.890114
O O15 0.414869 0.842468 0.901061
O O16 0.272707 0.939059 0.257020
O O17 0.000000 0.000000 0.500000
#
# Coordination Sequence:
#
# PCOD9083429 Si02
#       8
#     2   2   2   2   2   2   2   2
#     4  10  22  39  53  83 123 154 188 236 288 346
#     4  10  22  37  55  84 121 160 194 222 279 354
#     4  11  22  39  63  88 110 142 199 252 296 339
#     4  11  22  34  63  84 114 152 197 242 283 334
#     4  10  19  34  55  88 114 146 187 232 290 344
#     4  10  22  37  60  85 114 147 184 248 300 337
#     4  10  22  32  56  84 118 157 189 226 289 351
#     4  10  20  37  55  83 121 156 190 233 276 340
#
# _framework density 18.218726
#
# number of rings (size 3 to 8) (size 9 to 14) (size 15 to 20)
#    0.000    1.750    3.750    0.375    3.500    1.000 
#    0.000    0.625    0.000    1.500    0.000    0.000 
#    0.000    0.000    0.000    0.000    0.000    0.000 
#
# Total GULP energy -89277.835457 kJ/mol
# GULP energy per Si atom -5579.864716 kJ/mol
# Density = 1.817726 g / cm^3
# Si number density = 18.218726 Si / 1000 Ang^3
#
#
#
# Elastic Constant Matrix: (Units=GPa)
#
#
# Indices 1 2 3 4 5 6 
#
# 1 115.3420 19.4815 21.7646 -5.8585 12.7000 -17.8868
# 2 19.4815 57.7473 26.2283 -12.6604 15.6734 -7.7153
# 3 21.7646 26.2283 82.0290 -14.9364 23.9344 -6.5836
# 4 -5.8585 -12.6604 -14.9364 30.5262 -3.1332 12.3273
# 5 12.7000 15.6734 23.9344 -3.1332 21.3596 3.5827
# 6 -17.8868 -7.7153 -6.5836 12.3273 3.5827 32.3070
#
#
#
# Elastic Compliance Matrix: (Units=1/GPa)
#
#
# Indices 1 2 3 4 5 6 
#
# 1 0.010650 -0.001170 -0.000353 -0.002156 -0.006585 0.007098
# 2 -0.001170 0.024458 -0.001647 0.005790 -0.015285 0.004343
# 3 -0.000353 -0.001647 0.020281 0.005467 -0.021143 0.003803
# 4 -0.002156 0.005790 0.005467 0.043593 -0.000129 -0.015317
# 5 -0.006585 -0.015285 -0.021143 -0.000129 0.089219 -0.021450
# 6 0.007098 0.004343 0.003803 -0.015317 -0.021450 0.044918
#
#
# Mechanical properties :
#
#
# Convention : Reuss Voigt Hill
#
# Bulk Modulus (GPa) = 20.38784 43.34080 31.86432
# Shear Modulus (GPa) = 19.54578 29.34814 24.44696
#
# Velocity S-wave (km/s) = 3.27898 4.01793 3.66711
# Velocity P-wave (km/s) = 5.05475 6.73541 5.95467
#
# Compressibility (1/GPa) = 0.04904885
#
# Stress axis : x y z
#
# Youngs Moduli (GPa) = 93.89266 40.88687 49.30743
#
# Poissons Ratio (x) = 0.04782 0.01742
# Poissons Ratio (y) = 0.10981 0.08122
# Poissons Ratio (z) = 0.03318 0.06735
#
# Static dielectric constant tensor:
#      x y z
#    x 1.644180 0.000640 0.015990 
#    y 0.000640 1.648470 0.021000 
#    z 0.015990 0.021000 1.625280 
# 
# From -- ./inp_files/70289.got.cif
#   From: 2010.05.17/outbox.cif.g08.bks.cpg/sg2_36_cif.got.tgz:70289.got - 2010.06.03 11:33:40.
