data_PCOD9083503
_publ_section_title
;
Structure prediction by ZEFSAII (Michael W. Deem and Ramdas Pophale) SiO2 
 PCOD9083503
Probable space group: P -1
;
_chemical_formula_sum "Si O2"
_cell_formula_units_Z 16
_cell_length_a 20.696325
_cell_length_b 12.152297
_cell_length_c 15.759318
_cell_angle_alpha 151.810597
_cell_angle_beta 24.912716
_cell_angle_gamma 151.092496
_cell_volume 728.874233
_symmetry_space_group_name_H-M "P -1"
_symmetry_group_IT_number 2
_symmetry_cell_setting 'triclinic'
loop_
_space_group_symop_operation_xyz
x,y,z
-x,-y,-z
loop_
_atom_site_type_symbol
_atom_site_label
_atom_site_fract_x
_atom_site_fract_y
_atom_site_fract_z
Si Si1 0.201997 0.622041 0.624140
Si Si2 0.324513 0.104342 0.905805
Si Si3 0.196673 0.319923 0.650501
Si Si4 0.035834 0.887273 0.667411
Si Si5 0.564297 0.357900 0.936755
Si Si6 0.346826 0.238884 0.255491
Si Si7 0.133255 0.674316 0.552499
Si Si8 0.896399 0.299459 0.875673
O O1 0.267511 0.396931 0.398372
O O2 0.197144 0.723018 0.604678
O O3 0.018312 0.504574 0.804559
O O4 0.319937 0.850583 0.696559
O O5 0.410295 0.166502 0.936682
O O6 0.134488 0.073513 0.116592
O O7 0.415199 0.355440 0.912775
O O8 0.338905 0.336625 0.425821
O O9 0.028132 0.240406 0.739417
O O10 0.201504 0.570408 0.862040
O O11 0.174802 0.107784 0.602096
O O12 0.002847 0.610875 0.481122
O O13 0.066149 0.864764 0.715905
O O14 0.721807 0.330447 0.686463
O O15 0.524256 0.293078 0.038443
O O16 0.226257 0.947769 0.192867
#
# Coordination Sequence:
#
# PCOD9083503 Si02
#       8
#     2   2   2   2   2   2   2   2
#     4  11  20  35  59  94 117 151 200 249 304 347
#     4  10  20  36  60  85 122 152 194 255 294 349
#     4  10  19  34  56  84 113 157 193 244 289 340
#     4  10  19  39  60  84 120 152 204 246 294 345
#     4  10  22  38  54  86 124 158 195 240 299 358
#     4  11  22  33  57  87 121 157 194 241 296 354
#     4  10  22  36  60  86 119 163 190 246 300 354
#     4  10  20  34  56  90 119 148 196 257 290 338
#
# _framework density 21.951661000000001
#
# number of rings (size 3 to 8) (size 9 to 14) (size 15 to 20)
#    0.000    1.750    1.250    6.000    3.500    2.500 
#    0.000    0.625    0.000    0.750    0.000    0.000 
#    0.000    0.000    0.000    0.000    0.000    0.000 
#
# Total GULP energy -89405.554212 kJ/mol
# GULP energy per Si atom -5587.847138 kJ/mol
# Density = 2.190170 g / cm^3
# Si number density = 21.951661 Si / 1000 Ang^3
#
#
#
# Elastic Constant Matrix: (Units=GPa)
#
#
# Indices 1 2 3 4 5 6 
#
# 1 48.0574 16.1152 16.9554 -1.7007 7.1995 -13.6620
# 2 16.1152 78.0491 41.9253 -4.5704 17.4031 -7.7632
# 3 16.9554 41.9253 77.9890 -4.4800 30.2992 1.7886
# 4 -1.7007 -4.5704 -4.4800 22.1603 -4.3772 11.8387
# 5 7.1995 17.4031 30.2992 -4.3772 26.8952 -0.7836
# 6 -13.6620 -7.7632 1.7886 11.8387 -0.7836 20.9093
#
#
#
# Elastic Compliance Matrix: (Units=1/GPa)
#
#
# Indices 1 2 3 4 5 6 
#
# 1 0.031904 0.000171 -0.008214 -0.015641 -0.001056 0.030429
# 2 0.000171 0.019500 -0.010553 -0.003877 -0.001103 0.010408
# 3 -0.008214 -0.010553 0.030799 0.007690 -0.024919 -0.017208
# 4 -0.015641 -0.003877 0.007690 0.075718 0.008756 -0.054860
# 5 -0.001056 -0.001103 -0.024919 0.008756 0.067636 -0.001391
# 6 0.030429 0.010408 -0.017208 -0.054860 -0.001391 0.104053
#
#
# Mechanical properties :
#
#
# Convention : Reuss Voigt Hill
#
# Bulk Modulus (GPa) = 22.21673 39.34304 30.77988
# Shear Modulus (GPa) = 13.09569 22.59960 17.84765
#
# Velocity S-wave (km/s) = 2.44513 3.21209 2.85448
# Velocity P-wave (km/s) = 4.25608 5.63189 4.99161
#
# Compressibility (1/GPa) = 0.04501113
#
# Stress axis : x y z
#
# Youngs Moduli (GPa) = 31.34378 51.28229 32.46855
#
# Poissons Ratio (x) = -0.00878 0.26671
# Poissons Ratio (y) = -0.00537 0.34264
# Poissons Ratio (z) = 0.25747 0.54118
#
# Static dielectric constant tensor:
#      x y z
#    x 1.817460 -0.020640 0.003450 
#    y -0.020640 1.806280 -0.038140 
#    z 0.003450 -0.038140 1.855380 
# 
# From -- ./inp_files/433204.got.cif
#   From: 2010.05.17/outbox.cif.g08.bks.cpg/sg2_217_cif.got.tgz:433204.got - 2010.06.03 11:33:40.
