data_PCOD9083663
_publ_section_title
;
Structure prediction by ZEFSAII (Michael W. Deem and Ramdas Pophale) SiO2 
 PCOD9083663
Probable space group: P -1
;
_chemical_formula_sum "Si O2"
_cell_formula_units_Z 16
_cell_length_a 14.273836
_cell_length_b 8.546508
_cell_length_c 16.892417
_cell_angle_alpha 119.047799
_cell_angle_beta 29.860109
_cell_angle_gamma 101.900359
_cell_volume 780.034767
_symmetry_space_group_name_H-M "P -1"
_symmetry_group_IT_number 2
_symmetry_cell_setting 'triclinic'
loop_
_space_group_symop_operation_xyz
x,y,z
-x,-y,-z
loop_
_atom_site_type_symbol
_atom_site_label
_atom_site_fract_x
_atom_site_fract_y
_atom_site_fract_z
Si Si1 0.788359 0.624172 0.332017
Si Si2 0.679211 0.047455 0.547109
Si Si3 0.045426 0.824867 0.859979
Si Si4 0.420033 0.378307 0.351525
Si Si5 0.835315 0.374222 0.539506
Si Si6 0.675775 0.771398 0.844152
Si Si7 0.643473 0.923077 0.072348
Si Si8 0.500351 0.289281 0.585356
O O1 0.943660 0.379226 0.159394
O O2 0.627672 0.648342 0.528734
O O3 0.669502 0.681652 0.349396
O O4 0.844974 0.802986 0.355101
O O5 0.781728 0.190815 0.525874
O O6 0.511406 0.081759 0.747773
O O7 0.547511 0.129992 0.581676
O O8 0.272446 0.772729 0.640220
O O9 0.861569 0.891484 0.945210
O O10 0.000000 0.000000 0.000000
O O11 0.206856 0.523623 0.492426
O O12 0.561639 0.491219 0.275673
O O13 0.531181 0.154793 0.178226
O O14 0.675885 0.571095 0.758500
O O15 0.079936 0.277614 0.366277
O O16 0.667874 0.775921 0.946323
O O17 0.500000 0.000000 0.000000
#
# Coordination Sequence:
#
# PCOD9083663 Si02
#       8
#     2   2   2   2   2   2   2   2
#     4  10  19  34  57  84 119 162 201 245 306 354
#     4  10  22  39  57  85 124 162 191 248 322 360
#     4  11  21  36  59  90 117 161 213 253 285 354
#     4   9  17  34  59  84 114 159 200 241 294 350
#     4  10  22  42  65  89 123 156 196 253 313 361
#     4  11  22  41  69  94 113 155 213 252 296 366
#     4  11  21  37  61  90 123 152 204 256 298 361
#     4  10  19  36  58  81 118 166 207 242 300 359
#
# _framework density 20.511906
#
# number of rings (size 3 to 8) (size 9 to 14) (size 15 to 20)
#    0.000    1.750    1.250    6.375    0.000    0.500 
#    2.250    4.375    0.000    0.000    0.000    0.000 
#    0.000    0.000    0.000    0.000    0.000    0.000 
#
# Total GULP energy -89198.582257 kJ/mol
# GULP energy per Si atom -5574.911391 kJ/mol
# Density = 2.046522 g / cm^3
# Si number density = 20.511906 Si / 1000 Ang^3
#
#
#
# Elastic Constant Matrix: (Units=GPa)
#
#
# Indices 1 2 3 4 5 6 
#
# 1 92.2935 29.2738 29.5956 17.5378 14.5488 3.7681
# 2 29.2738 105.9221 36.4039 38.2670 6.2383 2.2075
# 3 29.5956 36.4039 68.8891 26.1606 5.2949 4.6731
# 4 17.5378 38.2670 26.1606 28.1160 3.7305 6.5939
# 5 14.5488 6.2383 5.2949 3.7305 36.8406 0.6340
# 6 3.7681 2.2075 4.6731 6.5939 0.6340 20.9154
#
#
#
# Elastic Compliance Matrix: (Units=1/GPa)
#
#
# Indices 1 2 3 4 5 6 
#
# 1 0.013665 -0.001290 -0.003889 -0.002441 -0.004363 -0.000555
# 2 -0.001290 0.019561 0.000265 -0.027646 -0.000159 0.006829
# 3 -0.003889 0.000265 0.023657 -0.020386 0.000124 0.001811
# 4 -0.002441 -0.027646 -0.020386 0.099307 -0.001079 -0.023363
# 5 -0.004363 -0.000159 0.000124 -0.001079 0.028981 0.000237
# 6 -0.000555 0.006829 0.001811 -0.023363 0.000237 0.054145
#
#
# Mechanical properties :
#
#
# Convention : Reuss Voigt Hill
#
# Bulk Modulus (GPa) = 21.25222 50.85012 36.05117
# Shear Modulus (GPa) = 18.88006 28.62985 23.75496
#
# Velocity S-wave (km/s) = 3.03717 3.74005 3.40679
# Velocity P-wave (km/s) = 4.76263 6.59507 5.75229
#
# Compressibility (1/GPa) = 0.04705392
#
# Stress axis : x y z
#
# Youngs Moduli (GPa) = 73.17731 51.12171 42.27149
#
# Poissons Ratio (x) = 0.06593 0.16441
# Poissons Ratio (y) = 0.09438 -0.01118
# Poissons Ratio (z) = 0.28462 -0.01352
#
# Static dielectric constant tensor:
#      x y z
#    x 1.748420 0.012090 0.024250 
#    y 0.012090 1.750030 0.051170 
#    z 0.024250 0.051170 1.774110 
# 
# From -- ./inp_files/214269.got.cif
#   From: 2010.05.17/outbox.cif.g08.bks.cpg/sg2_108_cif.got.tgz:214269.got - 2010.06.03 11:33:40.
