data_PCOD9083714
_publ_section_title
;
Structure prediction by ZEFSAII (Michael W. Deem and Ramdas Pophale) SiO2 
 PCOD9083714
Probable space group: P -1
;
_chemical_formula_sum "Si O2"
_cell_formula_units_Z 16
_cell_length_a 9.303218
_cell_length_b 11.060990
_cell_length_c 9.761991
_cell_angle_alpha 103.692208
_cell_angle_beta 100.518060
_cell_angle_gamma 51.078096
_cell_volume 758.561148
_symmetry_space_group_name_H-M "P -1"
_symmetry_group_IT_number 2
_symmetry_cell_setting 'triclinic'
loop_
_space_group_symop_operation_xyz
x,y,z
-x,-y,-z
loop_
_atom_site_type_symbol
_atom_site_label
_atom_site_fract_x
_atom_site_fract_y
_atom_site_fract_z
Si Si1 0.547307 0.592084 0.938842
Si Si2 0.359141 0.486872 0.387642
Si Si3 0.320125 0.035454 0.365444
Si Si4 0.565667 0.143283 0.422386
Si Si5 0.364530 0.906874 0.863052
Si Si6 0.234602 0.162186 0.106904
Si Si7 0.099179 0.485340 0.873004
Si Si8 0.960033 0.640843 0.434787
O O1 0.614075 0.523550 0.775650
O O2 0.384302 0.775171 0.925182
O O3 0.500000 0.500000 0.000000
O O4 0.703159 0.576584 0.054088
O O5 0.500000 0.500000 0.500000
O O6 0.405762 0.324304 0.410062
O O7 0.147834 0.616046 0.425299
O O8 0.494567 0.038029 0.377735
O O9 0.258691 0.051767 0.204270
O O10 0.175049 0.195432 0.466606
O O11 0.359001 0.891726 0.420544
O O12 0.696514 0.093688 0.301729
O O13 0.579700 0.847524 0.874839
O O14 0.238734 0.080655 0.947981
O O15 0.048439 0.333767 0.153738
O O16 0.114177 0.376181 0.726498
O O17 0.000000 0.500000 0.000000
O O18 0.000000 0.500000 0.500000
#
# Coordination Sequence:
#
# PCOD9083714 Si02
#       8
#     2   2   2   2   2   2   2   2
#     4  11  25  41  61  91 122 161 202 245 305 359
#     4  11  24  42  61  89 127 158 197 250 304 361
#     4  10  20  33  58  90 119 150 202 247 294 355
#     4   9  19  36  55  86 119 155 195 244 300 353
#     4   9  19  36  56  84 121 156 194 248 298 349
#     4  10  19  34  57  88 120 151 198 251 293 347
#     4  12  22  39  63  90 123 157 207 252 289 356
#     4  12  22  39  63  92 122 158 204 251 297 349
#
# _framework density 21.092563999999999
#
# number of rings (size 3 to 8) (size 9 to 14) (size 15 to 20)
#    0.000    1.500    5.000    0.750    3.500    3.000 
#    0.000    1.250    0.000    0.000    0.000    0.000 
#    0.000    0.000    0.000    0.000    0.000    0.000 
#
# Total GULP energy -89146.877116 kJ/mol
# GULP energy per Si atom -5571.679820 kJ/mol
# Density = 2.104456 g / cm^3
# Si number density = 21.092564 Si / 1000 Ang^3
#
#
#
# Elastic Constant Matrix: (Units=GPa)
#
#
# Indices 1 2 3 4 5 6 
#
# 1 56.5314 0.5806 27.9129 -10.2623 1.1516 4.2408
# 2 0.5806 43.9145 10.0093 -7.1706 -20.8532 5.5868
# 3 27.9129 10.0093 100.5214 -19.8827 -6.6884 3.6487
# 4 -10.2623 -7.1706 -19.8827 41.3290 9.2083 -12.9001
# 5 1.1516 -20.8532 -6.6884 9.2083 30.2948 -10.8370
# 6 4.2408 5.5868 3.6487 -12.9001 -10.8370 21.5101
#
#
#
# Elastic Compliance Matrix: (Units=1/GPa)
#
#
# Indices 1 2 3 4 5 6 
#
# 1 0.021240 -0.000157 -0.005572 0.002272 -0.004262 -0.003987
# 2 -0.000157 0.034454 -0.001712 0.000996 0.024603 0.004365
# 3 -0.005572 -0.001712 0.012649 0.005074 0.001411 0.003151
# 4 0.002272 0.000996 0.005074 0.033255 -0.002214 0.017261
# 5 -0.004262 0.024603 0.001411 -0.002214 0.059217 0.022717
# 6 -0.003987 0.004365 0.003151 0.017261 0.022717 0.067405
#
#
# Mechanical properties :
#
#
# Convention : Reuss Voigt Hill
#
# Bulk Modulus (GPa) = 18.70457 30.88590 24.79523
# Shear Modulus (GPa) = 19.16290 29.45775 24.31032
#
# Velocity S-wave (km/s) = 3.01743 3.74116 3.39861
# Velocity P-wave (km/s) = 4.58551 5.77378 5.21361
#
# Compressibility (1/GPa) = 0.05346287
#
# Stress axis : x y z
#
# Youngs Moduli (GPa) = 47.08016 29.02426 79.05817
#
# Poissons Ratio (x) = 0.00454 0.44051
# Poissons Ratio (y) = 0.00737 0.13532
# Poissons Ratio (z) = 0.26233 0.04968
#
# Static dielectric constant tensor:
#      x y z
#    x 1.895430 -0.000800 -0.057120 
#    y -0.000800 1.810270 -0.040630 
#    z -0.057120 -0.040630 1.870180 
# 
# From -- ./inp_files/188663.got.cif
#   From: 2010.05.17/outbox.cif.g08.bks.cpg/sg2_95_cif.got.tgz:188663.got - 2010.06.03 11:33:40.
