data_PCOD9083813
_publ_section_title
;
Structure prediction by ZEFSAII (Michael W. Deem and Ramdas Pophale) SiO2 
 PCOD9083813
Probable space group: P -1
;
_chemical_formula_sum "Si O2"
_cell_formula_units_Z 12
_cell_length_a 15.137120
_cell_length_b 7.484437
_cell_length_c 4.884008
_cell_angle_alpha 95.474037
_cell_angle_beta 90.886866
_cell_angle_gamma 128.457466
_cell_volume 429.323920
_symmetry_space_group_name_H-M "P -1"
_symmetry_group_IT_number 2
_symmetry_cell_setting 'triclinic'
loop_
_space_group_symop_operation_xyz
x,y,z
-x,-y,-z
loop_
_atom_site_type_symbol
_atom_site_label
_atom_site_fract_x
_atom_site_fract_y
_atom_site_fract_z
Si Si1 0.839903 0.426181 0.579269
Si Si2 0.270042 0.353902 0.638218
Si Si3 0.429891 0.287688 0.758810
Si Si4 0.593587 0.227529 0.864550
Si Si5 0.240076 0.844606 0.025168
Si Si6 0.962151 0.070795 0.259122
O O1 0.780687 0.562836 0.558825
O O2 0.817524 0.331181 0.254274
O O3 0.966423 0.657760 0.692606
O O4 0.843759 0.238361 0.740692
O O5 0.361194 0.318367 0.540927
O O6 0.173384 0.114011 0.750433
O O7 0.338629 0.556343 0.896530
O O8 0.515628 0.240990 0.654672
O O9 0.336769 0.079519 0.921956
O O10 0.500000 0.500000 0.000000
O O11 0.690017 0.209589 0.776003
O O12 0.500000 0.000000 0.000000
O O13 0.000000 0.000000 0.500000
O O14 0.000000 0.000000 0.000000
#
# Coordination Sequence:
#
# PCOD9083813 Si02
#       6
#     2   2   2   2   2   2
#     4  10  20  37  59  83 110 149 191 229 276 338
#     4   9  18  33  56  85 113 144 187 236 277 326
#     4   9  18  37  58  85 116 148 187 235 283 328
#     4   8  15  31  55  79 108 146 184 222 273 332
#     4  10  20  38  59  83 114 150 187 228 278 339
#     4  10  19  34  58  85 111 145 187 230 277 333
#
# _framework density 27.950924000000001
#
# number of rings (size 3 to 8) (size 9 to 14) (size 15 to 20)
#    0.000    2.667    0.000    3.000    0.000    0.000 
#    0.000   41.667    0.000    0.000    0.000    0.000 
#    0.000    0.000    0.000    0.000    0.000    0.000 
#
# Total GULP energy -66861.035705 kJ/mol
# GULP energy per Si atom -5571.752975 kJ/mol
# Density = 2.788731 g / cm^3
# Si number density = 27.950924 Si / 1000 Ang^3
#
#
#
# Elastic Constant Matrix: (Units=GPa)
#
#
# Indices 1 2 3 4 5 6 
#
# 1 625.4450 517.8666 -25.9017 -165.1141 -52.9060 403.2252
# 2 517.8666 748.8907 -5.5330 -163.6248 -79.3956 433.8680
# 3 -25.9017 -5.5330 118.8454 8.7479 -5.3155 -24.2117
# 4 -165.1141 -163.6248 8.7479 115.5571 24.4138 -126.4304
# 5 -52.9060 -79.3956 -5.3155 24.4138 46.6694 -62.5029
# 6 403.2252 433.8680 -24.2117 -126.4304 -62.5029 331.1351
#
#
#
# Elastic Compliance Matrix: (Units=1/GPa)
#
#
# Indices 1 2 3 4 5 6 
#
# 1 0.008698 0.000708 -0.000936 0.001464 -0.006127 -0.012185
# 2 0.000708 0.005810 -0.001431 -0.000058 -0.001292 -0.008846
# 3 -0.000936 -0.001431 0.009171 -0.000072 0.003326 0.004285
# 4 0.001464 -0.000058 -0.000072 0.015116 -0.001229 0.003827
# 5 -0.006127 -0.001292 0.003326 -0.001229 0.033808 0.015309
# 6 -0.012185 -0.008846 0.004285 0.003827 0.015309 0.034112
#
#
# Mechanical properties :
#
#
# Convention : Reuss Voigt Hill
#
# Bulk Modulus (GPa) = 49.11060 274.00499 161.55779
# Shear Modulus (GPa) = 42.80180 165.78892 104.29536
#
# Velocity S-wave (km/s) = 3.91745 7.70993 6.11512
# Velocity P-wave (km/s) = 6.17012 13.32295 10.38199
#
# Compressibility (1/GPa) = 0.02036220
#
# Stress axis : x y z
#
# Youngs Moduli (GPa) = 114.97503 172.11711 109.04249
#
# Poissons Ratio (x) = -0.12191 0.10202
# Poissons Ratio (y) = -0.08144 0.15601
# Poissons Ratio (z) = 0.10757 0.24626
#
# Static dielectric constant tensor:
#      x y z
#    x 2.470730 -0.031720 0.141440 
#    y -0.031720 2.088790 0.012600 
#    z 0.141440 0.012600 1.987990 
# 
# From -- ./inp_files/100376.got.cif
#   From: 2010.05.17/outbox.cif.g08.bks.cpg/sg2_51_cif.got.tgz:100376.got - 2010.06.03 11:33:40.
