data_PCOD9083161
_publ_section_title
;
Structure prediction by ZEFSAII (Michael W. Deem and Ramdas Pophale) SiO2 
 PCOD9083161
Probable space group: P -1
;
_chemical_formula_sum "Si O2"
_cell_formula_units_Z 10
_cell_length_a 11.002001
_cell_length_b 5.659612
_cell_length_c 16.567786
_cell_angle_alpha 131.537594
_cell_angle_beta 36.342615
_cell_angle_gamma 116.386500
_cell_volume 448.157277
_symmetry_space_group_name_H-M "P -1"
_symmetry_group_IT_number 2
_symmetry_cell_setting 'triclinic'
loop_
_space_group_symop_operation_xyz
x,y,z
-x,-y,-z
loop_
_atom_site_type_symbol
_atom_site_label
_atom_site_fract_x
_atom_site_fract_y
_atom_site_fract_z
Si Si1 0.560538 0.522902 0.380541
Si Si2 0.011580 0.377382 0.059945
Si Si3 0.145870 0.032349 0.352547
Si Si4 0.468896 0.184784 0.814853
Si Si5 0.239119 0.747034 0.478300
O O1 0.500000 0.500000 0.500000
O O2 0.797121 0.567892 0.256660
O O3 0.372437 0.758858 0.489856
O O4 0.563588 0.181864 0.256915
O O5 0.000000 0.500000 0.000000
O O6 0.238316 0.404513 0.980875
O O7 0.000000 0.000000 0.000000
O O8 0.191805 0.389820 0.413724
O O9 0.988329 0.023350 0.360705
O O10 0.370379 0.797804 0.193620
O O11 0.000000 0.000000 0.500000
O O12 0.602162 0.220109 0.671432
#
# Coordination Sequence:
#
# PCOD9083161 Si02
#       5
#     2   2   2   2   2
#     4  10  20  31  47  74 106 136 165 205 255 306
#     4  10  19  34  51  73 103 137 174 211 248 300
#     4   8  15  26  46  72  92 122 162 217 247 288
#     4   9  17  30  49  71  98 128 172 207 248 296
#     4   9  15  28  46  69  98 124 166 208 251 293
#
# _framework density 22.313596
#
# number of rings (size 3 to 8) (size 9 to 14) (size 15 to 20)
#    0.000    2.800    2.000    0.000    0.000    0.800 
#    0.000    0.000    0.000    1.200    0.000   47.600 
#    0.000    0.000    0.000    0.000    0.000    0.000 
#
# Total GULP energy -55677.033173 kJ/mol
# GULP energy per Si atom -5567.703317 kJ/mol
# Density = 2.226281 g / cm^3
# Si number density = 22.313596 Si / 1000 Ang^3
#
#
#
# Elastic Constant Matrix: (Units=GPa)
#
#
# Indices 1 2 3 4 5 6 
#
# 1 182.6484 32.4469 100.6348 11.2273 -75.7391 -43.2014
# 2 32.4469 86.3474 34.3857 2.7771 -19.0381 -9.6782
# 3 100.6348 34.3857 163.4063 4.6548 -64.3867 -27.7971
# 4 11.2273 2.7771 4.6548 29.5341 0.9015 -8.9281
# 5 -75.7391 -19.0381 -64.3867 0.9015 54.6479 12.1841
# 6 -43.2014 -9.6782 -27.7971 -8.9281 12.1841 46.0895
#
#
#
# Elastic Compliance Matrix: (Units=1/GPa)
#
#
# Indices 1 2 3 4 5 6 
#
# 1 0.016711 -0.000424 -0.000455 -0.004124 0.020521 0.009077
# 2 -0.000424 0.012885 -0.001548 -0.000641 0.001922 0.000742
# 3 -0.000455 -0.001548 0.012238 -0.001057 0.012576 0.003100
# 4 -0.004124 -0.000641 -0.001057 0.037427 -0.008909 0.004968
# 5 0.020521 0.001922 0.012576 -0.008909 0.060238 0.009573
# 6 0.009077 0.000742 0.003100 0.004968 0.009573 0.030662
#
#
# Mechanical properties :
#
#
# Convention : Reuss Voigt Hill
#
# Bulk Modulus (GPa) = 27.04227 85.25966 56.15096
# Shear Modulus (GPa) = 26.68911 43.71662 35.20286
#
# Velocity S-wave (km/s) = 3.46221 4.43108 3.97626
# Velocity P-wave (km/s) = 5.30358 8.02944 6.80441
#
# Compressibility (1/GPa) = 0.03697915
#
# Stress axis : x y z
#
# Youngs Moduli (GPa) = 59.84210 77.61214 81.71011
#
# Poissons Ratio (x) = 0.03289 0.03717
# Poissons Ratio (y) = 0.02536 0.12653
# Poissons Ratio (z) = 0.02723 0.12018
#
# Static dielectric constant tensor:
#      x y z
#    x 1.827340 -0.124340 -0.082170 
#    y -0.124340 1.525090 0.005750 
#    z -0.082170 0.005750 1.796530 
# 
# From -- ./inp_files/15911.got.cif
#   From: 2010.05.17/outbox.cif.g08.bks.cpg/sg2_8_cif.got.tgz:15911.got - 2010.06.03 11:33:40.
