data_PCOD9083554
_publ_section_title
;
Structure prediction by ZEFSAII (Michael W. Deem and Ramdas Pophale) SiO2 
 PCOD9083554
Probable space group: P -1
;
_chemical_formula_sum "Si O2"
_cell_formula_units_Z 16
_cell_length_a 14.729141
_cell_length_b 14.796433
_cell_length_c 12.159949
_cell_angle_alpha 137.800760
_cell_angle_beta 151.671579
_cell_angle_gamma 53.341481
_cell_volume 832.015847
_symmetry_space_group_name_H-M "P -1"
_symmetry_group_IT_number 2
_symmetry_cell_setting 'triclinic'
loop_
_space_group_symop_operation_xyz
x,y,z
-x,-y,-z
loop_
_atom_site_type_symbol
_atom_site_label
_atom_site_fract_x
_atom_site_fract_y
_atom_site_fract_z
Si Si1 0.792024 0.824266 0.188870
Si Si2 0.926403 0.136357 0.678055
Si Si3 0.597596 0.310723 0.466574
Si Si4 0.340983 0.489746 0.479978
Si Si5 0.457121 0.334109 0.789313
Si Si6 0.127272 0.276295 0.207806
Si Si7 0.150634 0.601960 0.827276
Si Si8 0.680601 0.642142 0.108503
O O1 0.799339 0.729880 0.218470
O O2 0.943800 0.806553 0.238034
O O3 0.836596 0.981053 0.414626
O O4 0.576814 0.782382 0.870444
O O5 0.755385 0.222994 0.593822
O O6 0.062357 0.150265 0.943671
O O7 0.484886 0.385207 0.504080
O O8 0.697425 0.430501 0.598657
O O9 0.163253 0.404621 0.277831
O O10 0.463458 0.596775 0.789512
O O11 0.321472 0.287610 0.498217
O O12 0.344672 0.283582 0.735687
O O13 0.500000 0.500000 0.000000
O O14 0.674342 0.310955 0.976957
O O15 0.961303 0.299735 0.135634
O O16 0.236808 0.495811 0.901999
O O17 0.000000 0.500000 0.500000
#
# Coordination Sequence:
#
# PCOD9083554 Si02
#       8
#     2   2   2   2   2   2   2   2
#     4  10  23  42  57  80 113 157 198 236 269 328
#     4  11  24  38  59  83 112 157 200 226 276 336
#     4  10  21  38  56  82 118 149 185 238 283 335
#     4  10  19  34  56  88 118 143 178 236 296 335
#     4  10  19  36  53  83 117 146 175 232 289 336
#     4  12  21  34  57  87 118 147 180 233 287 346
#     4  11  19  32  59  88 113 145 182 224 294 348
#     4  10  19  37  58  81 118 147 182 238 281 334
#
# _framework density 19.230402999999999
#
# number of rings (size 3 to 8) (size 9 to 14) (size 15 to 20)
#    0.000    1.500    6.250    1.125    1.750    0.500 
#    0.000    0.625    0.000    0.750    0.000    0.000 
#    0.000    0.000    0.000    0.000    0.000    0.000 
#
# Total GULP energy -89232.304699 kJ/mol
# GULP energy per Si atom -5577.019044 kJ/mol
# Density = 1.918663 g / cm^3
# Si number density = 19.230403 Si / 1000 Ang^3
#
#
#
# Elastic Constant Matrix: (Units=GPa)
#
#
# Indices 1 2 3 4 5 6 
#
# 1 78.6341 -2.4981 33.4250 3.6120 -15.8318 -2.6992
# 2 -2.4981 20.8041 9.6041 -3.1009 -6.7448 -4.3950
# 3 33.4250 9.6041 100.1277 -0.0028 -17.7651 1.2640
# 4 3.6120 -3.1009 -0.0028 18.5880 -0.9333 -1.3218
# 5 -15.8318 -6.7448 -17.7651 -0.9333 28.5136 -2.8220
# 6 -2.6992 -4.3950 1.2640 -1.3218 -2.8220 22.6386
#
#
#
# Elastic Compliance Matrix: (Units=1/GPa)
#
#
# Indices 1 2 3 4 5 6 
#
# 1 0.017068 0.008031 -0.004983 -0.001192 0.008717 0.004889
# 2 0.008031 0.062450 -0.005751 0.010895 0.017612 0.016234
# 3 -0.004983 -0.005751 0.012885 0.000057 0.003708 -0.001964
# 4 -0.001192 0.010895 0.000057 0.056481 0.004375 0.005813
# 5 0.008717 0.017612 0.003708 0.004375 0.047563 0.010436
# 6 0.004889 0.016234 -0.001964 0.005813 0.010436 0.049657
#
#
# Mechanical properties :
#
#
# Convention : Reuss Voigt Hill
#
# Bulk Modulus (GPa) = 11.49467 31.18086 21.33776
# Shear Modulus (GPa) = 17.82476 24.55036 21.18756
#
# Velocity S-wave (km/s) = 3.04781 3.57689 3.32290
# Velocity P-wave (km/s) = 4.28671 5.77134 5.08352
#
# Compressibility (1/GPa) = 0.08699687
#
# Stress axis : x y z
#
# Youngs Moduli (GPa) = 58.58891 16.01284 77.60891
#
# Poissons Ratio (x) = -0.12860 0.38675
# Poissons Ratio (y) = -0.47054 0.44633
# Poissons Ratio (z) = 0.29196 0.09209
#
# Static dielectric constant tensor:
#      x y z
#    x 1.717310 0.000080 -0.006400 
#    y 0.000080 1.653760 -0.020360 
#    z -0.006400 -0.020360 1.705520 
# 
# From -- ./inp_files/455968.got.cif
#   From: 2010.05.17/outbox.cif.g08.bks.cpg/sg2_228_cif.got.tgz:455968.got - 2010.06.03 11:33:40.
