data_PCOD9083415
_publ_section_title
;
Structure prediction by ZEFSAII (Michael W. Deem and Ramdas Pophale) SiO2 
 PCOD9083415
Probable space group: P -1
;
_chemical_formula_sum "Si O2"
_cell_formula_units_Z 16
_cell_length_a 20.482406
_cell_length_b 7.309618
_cell_length_c 14.001737
_cell_angle_alpha 143.766749
_cell_angle_beta 151.263209
_cell_angle_gamma 40.870648
_cell_volume 586.841207
_symmetry_space_group_name_H-M "P -1"
_symmetry_group_IT_number 2
_symmetry_cell_setting 'triclinic'
loop_
_space_group_symop_operation_xyz
x,y,z
-x,-y,-z
loop_
_atom_site_type_symbol
_atom_site_label
_atom_site_fract_x
_atom_site_fract_y
_atom_site_fract_z
Si Si1 0.422775 0.953716 0.782434
Si Si2 0.299346 0.235761 0.489486
Si Si3 0.061031 0.240815 0.564806
Si Si4 0.628449 0.392473 0.755076
Si Si5 0.848596 0.357971 0.688297
Si Si6 0.876647 0.191057 0.860968
Si Si7 0.273329 0.612298 0.909083
Si Si8 0.224456 0.819599 0.745574
O O1 0.528751 0.724467 0.755206
O O2 0.299001 0.758895 0.548857
O O3 0.354238 0.311950 0.829652
O O4 0.500000 0.000000 0.000000
O O5 0.194189 0.342994 0.310257
O O6 0.326937 0.555531 0.706415
O O7 0.410549 0.938821 0.472522
O O8 0.215193 0.074142 0.392558
O O9 0.874095 0.488496 0.292439
O O10 0.920740 0.308253 0.473724
O O11 0.055332 0.931685 0.362843
O O12 0.180924 0.099415 0.734348
O O13 0.771135 0.394468 0.883277
O O14 0.654957 0.340419 0.879865
O O15 0.899122 0.368864 0.867200
O O16 0.000000 0.000000 0.000000
O O17 0.266816 0.877512 0.932190
#
# Coordination Sequence:
#
# PCOD9083415 Si02
#       8
#     2   2   2   2   2   2   2   2
#     4   9  19  39  65  85 114 154 201 249 293 353
#     4   9  21  37  56  91 117 152 199 243 291 359
#     4   9  20  32  56  83 111 150 194 236 288 350
#     4   9  22  38  57  86 117 155 198 241 293 347
#     4  10  20  39  62  86 118 161 193 243 302 341
#     4  10  23  38  56  88 124 157 195 238 289 359
#     4  10  19  35  59  77 112 154 188 242 293 337
#     4  10  19  34  55  85 112 148 195 238 290 349
#
# _framework density 27.264614000000002
#
# number of rings (size 3 to 8) (size 9 to 14) (size 15 to 20)
#    0.750    1.750    0.000    1.875    3.500    1.500 
#    2.250    0.000    0.000   19.500    0.000    0.000 
#    0.000    0.000    0.000    0.000    0.000    0.000 
#
# Total GULP energy -89288.569533 kJ/mol
# GULP energy per Si atom -5580.535596 kJ/mol
# Density = 2.720256 g / cm^3
# Si number density = 27.264614 Si / 1000 Ang^3
#
#
#
# Elastic Constant Matrix: (Units=GPa)
#
#
# Indices 1 2 3 4 5 6 
#
# 1 155.5907 67.2851 28.7690 -6.7168 -22.7133 14.2738
# 2 67.2851 118.9333 9.5664 10.0410 0.4030 -34.0902
# 3 28.7690 9.5664 57.7848 -3.2398 -9.6069 -3.1103
# 4 -6.7168 10.0410 -3.2398 29.8487 1.4666 -8.0436
# 5 -22.7133 0.4030 -9.6069 1.4666 49.6426 -9.3278
# 6 14.2738 -34.0902 -3.1103 -8.0436 -9.3278 66.1690
#
#
#
# Elastic Compliance Matrix: (Units=1/GPa)
#
#
# Indices 1 2 3 4 5 6 
#
# 1 0.012220 -0.008706 -0.004213 0.003318 0.003543 -0.006417
# 2 -0.008706 0.016339 0.001571 -0.004621 -0.001882 0.009542
# 3 -0.004213 0.001571 0.019798 0.001405 0.002444 0.003164
# 4 0.003318 -0.004621 0.001405 0.036317 0.001042 0.001531
# 5 0.003543 -0.001882 0.002444 0.001042 0.022539 0.001685
# 6 -0.006417 0.009542 0.003164 0.001531 0.001685 0.021986
#
#
# Mechanical properties :
#
#
# Convention : Reuss Voigt Hill
#
# Bulk Modulus (GPa) = 38.96887 60.39442 49.68164
# Shear Modulus (GPa) = 31.16273 44.24462 37.70368
#
# Velocity S-wave (km/s) = 3.38446 4.03275 3.72274
# Velocity P-wave (km/s) = 5.44028 6.62446 6.06135
#
# Compressibility (1/GPa) = 0.02566151
#
# Stress axis : x y z
#
# Youngs Moduli (GPa) = 81.83335 61.20509 50.50901
#
# Poissons Ratio (x) = 0.53284 0.21279
# Poissons Ratio (y) = 0.71242 -0.07935
# Poissons Ratio (z) = 0.34476 -0.09615
#
# Static dielectric constant tensor:
#      x y z
#    x 2.078560 0.012540 0.014350 
#    y 0.012540 2.191170 -0.051690 
#    z 0.014350 -0.051690 2.233000 
# 
# From -- ./inp_files/540340.got.cif
#   From: 2010.05.17/outbox.cif.g08.bks.cpg/sg2_271_cif.got.tgz:540340.got - 2010.06.03 11:33:40.
