data_PCOD9083287
_publ_section_title
;
Structure prediction by ZEFSAII (Michael W. Deem and Ramdas Pophale) SiO2 
 PCOD9083287
Probable space group: P -1
;
_chemical_formula_sum "Si O2"
_cell_formula_units_Z 14
_cell_length_a 7.564829
_cell_length_b 19.046769
_cell_length_c 10.385602
_cell_angle_alpha 35.713449
_cell_angle_beta 108.570488
_cell_angle_gamma 94.955076
_cell_volume 786.904094
_symmetry_space_group_name_H-M "P -1"
_symmetry_group_IT_number 2
_symmetry_cell_setting 'triclinic'
loop_
_space_group_symop_operation_xyz
x,y,z
-x,-y,-z
loop_
_atom_site_type_symbol
_atom_site_label
_atom_site_fract_x
_atom_site_fract_y
_atom_site_fract_z
Si Si1 0.170378 0.219337 0.009578
Si Si2 0.864107 0.163194 0.357368
Si Si3 0.561113 0.075450 0.015087
Si Si4 0.991197 0.979517 0.876925
Si Si5 0.705385 0.967267 0.466825
Si Si6 0.778097 0.375284 0.839470
Si Si7 0.384937 0.340869 0.680082
O O1 0.103903 0.126070 0.036010
O O2 0.314515 0.127152 0.284968
O O3 0.271368 0.306160 0.826444
O O4 0.976150 0.304319 0.912601
O O5 0.741476 0.089538 0.357792
O O6 0.085920 0.107832 0.437948
O O7 0.877179 0.111548 0.582000
O O8 0.792067 0.308388 0.081786
O O9 0.555414 0.011559 0.248798
O O10 0.786495 0.066693 0.056125
O O11 0.500000 0.000000 0.000000
O O12 0.000000 0.000000 0.000000
O O13 0.429682 0.220646 0.775658
O O14 0.594014 0.351128 0.759921
O O15 0.736238 0.525231 0.607742
#
# Coordination Sequence:
#
# PCOD9083287 Si02
#       7
#     2   2   2   2   2   2   2
#     4  10  19  35  56  79 107 136 180 223 256 313
#     4   8  14  31  55  72 103 140 171 219 261 303
#     4  11  20  34  51  80 114 137 172 223 268 315
#     4  10  19  34  54  79 108 141 176 219 271 311
#     4   8  15  30  52  76 102 135 174 218 267 302
#     4  10  19  36  54  77 114 137 175 221 252 320
#     4  11  21  32  55  83 106 143 175 212 269 310
#
# _framework density 17.791240999999999
#
# number of rings (size 3 to 8) (size 9 to 14) (size 15 to 20)
#    0.000    2.286    2.857    3.000    0.000    0.571 
#    2.571    0.000    0.000   16.286    0.000    0.000 
#    0.000    0.000    0.000    0.000    0.000    0.000 
#
# Total GULP energy -78086.534001 kJ/mol
# GULP energy per Si atom -5577.609572 kJ/mol
# Density = 1.775075 g / cm^3
# Si number density = 17.791241 Si / 1000 Ang^3
#
#
#
# Elastic Constant Matrix: (Units=GPa)
#
#
# Indices 1 2 3 4 5 6 
#
# 1 61.3329 10.1463 30.7118 -7.8336 -0.1299 -0.5636
# 2 10.1463 92.8654 68.8196 5.9217 -2.4541 -9.5835
# 3 30.7118 68.8196 190.3432 -10.0356 -11.4300 -13.5211
# 4 -7.8336 5.9217 -10.0356 28.0049 -3.6958 -4.2952
# 5 -0.1299 -2.4541 -11.4300 -3.6958 25.9762 1.6021
# 6 -0.5636 -9.5835 -13.5211 -4.2952 1.6021 21.0337
#
#
#
# Elastic Compliance Matrix: (Units=1/GPa)
#
#
# Indices 1 2 3 4 5 6 
#
# 1 0.018210 -0.000337 -0.002669 0.004063 -0.000505 -0.000513
# 2 -0.000337 0.015680 -0.005848 -0.005399 -0.002011 0.002427
# 3 -0.002669 -0.005848 0.008494 0.004527 0.003608 0.003374
# 4 0.004063 -0.005399 0.004527 0.041838 0.006926 0.008575
# 5 -0.000505 -0.002011 0.003608 0.006926 0.040896 -0.000311
# 6 -0.000513 0.002427 0.003374 0.008575 -0.000311 0.052578
#
#
# Mechanical properties :
#
#
# Convention : Reuss Voigt Hill
#
# Bulk Modulus (GPa) = 40.52534 62.65521 51.59027
# Shear Modulus (GPa) = 24.55440 30.66054 27.60747
#
# Velocity S-wave (km/s) = 3.71905 4.15583 3.94349
# Velocity P-wave (km/s) = 6.42414 7.63683 7.05658
#
# Compressibility (1/GPa) = 0.02467592
#
# Stress axis : x y z
#
# Youngs Moduli (GPa) = 54.91545 63.77384 117.73552
#
# Poissons Ratio (x) = 0.02150 0.31421
# Poissons Ratio (y) = 0.01852 0.68851
# Poissons Ratio (z) = 0.14656 0.37295
#
# Static dielectric constant tensor:
#      x y z
#    x 1.661270 -0.005700 -0.007280 
#    y -0.005700 1.572850 0.018910 
#    z -0.007280 0.018910 1.641040 
# 
# From -- ./inp_files/403731.got.cif
#   From: 2010.05.17/outbox.cif.g08.bks.cpg/sg2_202_cif.got.tgz:403731.got - 2010.06.03 11:33:40.
