data_PCOD9083434
_publ_section_title
;
Structure prediction by ZEFSAII (Michael W. Deem and Ramdas Pophale) SiO2 
 PCOD9083434
Probable space group: P -1
;
_chemical_formula_sum "Si O2"
_cell_formula_units_Z 14
_cell_length_a 7.280458
_cell_length_b 17.681380
_cell_length_c 8.626858
_cell_angle_alpha 68.798696
_cell_angle_beta 55.526544
_cell_angle_gamma 108.689727
_cell_volume 623.235170
_symmetry_space_group_name_H-M "P -1"
_symmetry_group_IT_number 2
_symmetry_cell_setting 'triclinic'
loop_
_space_group_symop_operation_xyz
x,y,z
-x,-y,-z
loop_
_atom_site_type_symbol
_atom_site_label
_atom_site_fract_x
_atom_site_fract_y
_atom_site_fract_z
Si Si1 0.136507 0.122534 0.830979
Si Si2 0.745941 0.320087 0.243670
Si Si3 0.565307 0.769236 0.082953
Si Si4 0.105941 0.783481 0.281071
Si Si5 0.148584 0.396666 0.722466
Si Si6 0.020853 0.460369 0.314166
Si Si7 0.375360 0.329936 0.159378
O O1 0.477603 0.202406 0.537758
O O2 0.190617 0.173135 0.938998
O O3 0.939661 0.135121 0.809974
O O4 0.000000 0.000000 0.000000
O O5 0.938597 0.414130 0.212470
O O6 0.555994 0.335340 0.215120
O O7 0.974427 0.329882 0.013469
O O8 0.251245 0.649272 0.380648
O O9 0.446907 0.832282 0.071575
O O10 0.664306 0.747582 0.896893
O O11 0.918004 0.684609 0.317183
O O12 0.945395 0.726648 0.566825
O O13 0.500000 0.500000 0.500000
O O14 0.026655 0.455837 0.698356
O O15 0.384131 0.542370 0.111994
#
# Coordination Sequence:
#
# PCOD9083434 Si02
#       7
#     2   2   2   2   2   2   2
#     4  10  24  47  67  87 120 161 216 277 318 359
#     4   9  18  36  59  86 129 165 202 257 302 360
#     4  11  22  41  62  93 127 158 210 263 301 380
#     4  11  23  40  64  90 124 170 205 251 324 369
#     4  11  18  32  60  93 130 172 201 234 308 382
#     4  10  19  34  55  91 135 166 198 250 297 373
#     4  10  19  36  58  90 134 160 201 253 303 374
#
# _framework density 22.463429999999999
#
# number of rings (size 3 to 8) (size 9 to 14) (size 15 to 20)
#    0.000    1.714    2.857    5.571    0.000    1.143 
#   10.286    3.571    0.000    0.000    0.000    0.000 
#    0.000    0.000    0.000    0.000    0.000    0.000 
#
# Total GULP energy -78216.715450 kJ/mol
# GULP energy per Si atom -5586.908246 kJ/mol
# Density = 2.241230 g / cm^3
# Si number density = 22.463430 Si / 1000 Ang^3
#
#
#
# Elastic Constant Matrix: (Units=GPa)
#
#
# Indices 1 2 3 4 5 6 
#
# 1 49.0672 11.4375 3.1857 3.7258 4.5538 -3.3550
# 2 11.4375 98.3530 64.1268 17.4998 11.8058 -6.0815
# 3 3.1857 64.1268 82.8180 17.4756 6.3550 -2.7634
# 4 3.7258 17.4998 17.4756 54.0119 -5.7066 8.3127
# 5 4.5538 11.8058 6.3550 -5.7066 23.5339 6.5938
# 6 -3.3550 -6.0815 -2.7634 8.3127 6.5938 35.4108
#
#
#
# Elastic Compliance Matrix: (Units=1/GPa)
#
#
# Indices 1 2 3 4 5 6 
#
# 1 0.021745 -0.002866 0.002358 -0.002344 -0.004874 0.003210
# 2 -0.002866 0.023044 -0.016079 -0.003783 -0.008979 0.004991
# 3 0.002358 -0.016079 0.025086 -0.003085 0.000050 0.000135
# 4 -0.002344 -0.003783 -0.003085 0.023437 0.011311 -0.008721
# 5 -0.004874 -0.008979 0.000050 0.011311 0.054834 -0.014866
# 6 0.003210 0.004991 0.000135 -0.008721 -0.014866 0.034227
#
#
# Mechanical properties :
#
#
# Convention : Reuss Voigt Hill
#
# Bulk Modulus (GPa) = 27.24691 43.08205 35.16448
# Shear Modulus (GPa) = 21.95099 32.69054 27.32077
#
# Velocity S-wave (km/s) = 3.12939 3.81895 3.49124
# Velocity P-wave (km/s) = 5.02128 6.21822 5.65152
#
# Compressibility (1/GPa) = 0.03670141
#
# Stress axis : x y z
#
# Youngs Moduli (GPa) = 45.98775 43.39526 39.86317
#
# Poissons Ratio (x) = 0.12436 -0.09400
# Poissons Ratio (y) = 0.13179 0.64096
# Poissons Ratio (z) = -0.10845 0.69776
#
# Static dielectric constant tensor:
#      x y z
#    x 1.983730 -0.043060 0.012660 
#    y -0.043060 1.802710 0.032740 
#    z 0.012660 0.032740 1.954620 
# 
# From -- ./inp_files/201309.got.cif
#   From: 2010.05.17/outbox.cif.g08.bks.cpg/sg2_101_cif.got.tgz:201309.got - 2010.06.03 11:33:40.
