data_PCOD9083798
_publ_section_title
;
Structure prediction by ZEFSAII (Michael W. Deem and Ramdas Pophale) SiO2 
 PCOD9083798
Probable space group: P -1
;
_chemical_formula_sum "Si O2"
_cell_formula_units_Z 16
_cell_length_a 9.609825
_cell_length_b 12.351147
_cell_length_c 11.625298
_cell_angle_alpha 92.499894
_cell_angle_beta 61.188530
_cell_angle_gamma 130.227611
_cell_volume 845.988272
_symmetry_space_group_name_H-M "P -1"
_symmetry_group_IT_number 2
_symmetry_cell_setting 'triclinic'
loop_
_space_group_symop_operation_xyz
x,y,z
-x,-y,-z
loop_
_atom_site_type_symbol
_atom_site_label
_atom_site_fract_x
_atom_site_fract_y
_atom_site_fract_z
Si Si1 0.617500 0.830812 0.325342
Si Si2 0.400006 0.041450 0.891765
Si Si3 0.146458 0.979030 0.382512
Si Si4 0.824040 0.354475 0.351136
Si Si5 0.035912 0.183487 0.792153
Si Si6 0.140802 0.675875 0.150277
Si Si7 0.355549 0.765759 0.839365
Si Si8 0.239808 0.907864 0.573856
O O1 0.579290 0.868184 0.219710
O O2 0.383601 0.713295 0.485631
O O3 0.742318 0.776707 0.262649
O O4 0.784380 0.995065 0.336702
O O5 0.629682 0.160631 0.880567
O O6 0.363199 0.900796 0.855278
O O7 0.179066 0.960076 0.052631
O O8 0.017712 0.865562 0.321784
O O9 0.204718 0.921086 0.456272
O O10 0.384265 0.143075 0.252535
O O11 0.000000 0.000000 0.500000
O O12 0.735040 0.309187 0.252941
O O13 0.895324 0.265956 0.348020
O O14 0.028078 0.538430 0.277299
O O15 0.033765 0.312412 0.809341
O O16 0.214313 0.657078 0.000041
O O17 0.500000 0.000000 0.500000
#
# Coordination Sequence:
#
# PCOD9083798 Si02
#       8
#     2   2   2   2   2   2   2   2
#     4  11  21  37  61  85 116 152 193 242 285 340
#     4  11  21  38  62  86 115 153 194 239 284 343
#     4  12  19  34  63  88 109 142 197 250 278 321
#     4  11  22  38  60  87 118 153 195 236 285 343
#     4  11  22  38  59  89 115 150 196 240 289 338
#     4  11  24  36  60  88 120 154 187 237 292 345
#     4  11  18  39  61  85 112 152 203 235 272 342
#     4  10  19  34  58  84 108 146 198 235 273 330
#
# _framework density 18.912790999999999
#
# number of rings (size 3 to 8) (size 9 to 14) (size 15 to 20)
#    0.000    1.000    7.500    2.250    0.000    1.000 
#    0.000    0.000    0.000    1.500    0.000    0.000 
#    0.000    0.000    0.000    0.000    0.000    0.000 
#
# Total GULP energy -89317.228535 kJ/mol
# GULP energy per Si atom -5582.326783 kJ/mol
# Density = 1.886974 g / cm^3
# Si number density = 18.912791 Si / 1000 Ang^3
#
#
#
# Elastic Constant Matrix: (Units=GPa)
#
#
# Indices 1 2 3 4 5 6 
#
# 1 68.5513 -3.3559 35.6830 -0.6233 7.3867 -4.5182
# 2 -3.3559 27.6356 16.4189 -11.1829 0.6409 -7.2960
# 3 35.6830 16.4189 115.9546 -0.3734 6.5444 -17.0378
# 4 -0.6233 -11.1829 -0.3734 31.8310 -4.2743 9.8804
# 5 7.3867 0.6409 6.5444 -4.2743 33.3473 6.6209
# 6 -4.5182 -7.2960 -17.0378 9.8804 6.6209 24.0202
#
#
#
# Elastic Compliance Matrix: (Units=1/GPa)
#
#
# Indices 1 2 3 4 5 6 
#
# 1 0.018723 0.007335 -0.006463 0.002125 -0.002968 0.001110
# 2 0.007335 0.049901 -0.008828 0.016648 0.000637 0.003252
# 3 -0.006463 -0.008828 0.013417 -0.006453 -0.003705 0.009295
# 4 0.002125 0.016648 -0.006453 0.044963 0.010300 -0.020455
# 5 -0.002968 0.000637 -0.003705 0.010300 0.036090 -0.017177
# 6 0.001110 0.003252 0.009295 -0.020455 -0.017177 0.062570
#
#
# Mechanical properties :
#
#
# Convention : Reuss Voigt Hill
#
# Bulk Modulus (GPa) = 15.12170 34.40372 24.76271
# Shear Modulus (GPa) = 18.96677 28.73274 23.84976
#
# Velocity S-wave (km/s) = 3.17022 3.90195 3.55496
# Velocity P-wave (km/s) = 4.62745 6.20729 5.47466
#
# Compressibility (1/GPa) = 0.06613013
#
# Stress axis : x y z
#
# Youngs Moduli (GPa) = 53.40987 20.03969 74.53219
#
# Poissons Ratio (x) = -0.14699 0.48170
# Poissons Ratio (y) = -0.39176 0.65794
# Poissons Ratio (z) = 0.34519 0.17690
#
# Static dielectric constant tensor:
#      x y z
#    x 1.654350 -0.018570 0.004410 
#    y -0.018570 1.685580 0.002990 
#    z 0.004410 0.002990 1.676790 
# 
# From -- ./inp_files/333520.got.cif
#   From: 2010.05.17/outbox.cif.g08.bks.cpg/sg2_167_cif.got.tgz:333520.got - 2010.06.03 11:33:40.
