data_PCOD9083221
_publ_section_title
;
Structure prediction by ZEFSAII (Michael W. Deem and Ramdas Pophale) SiO2 
 PCOD9083221
Probable space group: P -1
;
_chemical_formula_sum "Si O2"
_cell_formula_units_Z 16
_cell_length_a 11.034113
_cell_length_b 8.665249
_cell_length_c 23.582862
_cell_angle_alpha 32.699477
_cell_angle_beta 134.235557
_cell_angle_gamma 132.159166
_cell_volume 851.895695
_symmetry_space_group_name_H-M "P -1"
_symmetry_group_IT_number 2
_symmetry_cell_setting 'triclinic'
loop_
_space_group_symop_operation_xyz
x,y,z
-x,-y,-z
loop_
_atom_site_type_symbol
_atom_site_label
_atom_site_fract_x
_atom_site_fract_y
_atom_site_fract_z
Si Si1 0.385986 0.889428 0.552261
Si Si2 0.969358 0.714105 0.118954
Si Si3 0.942800 0.940226 0.165095
Si Si4 0.639480 0.355839 0.059723
Si Si5 0.654508 0.285630 0.960360
Si Si6 0.117324 0.172373 0.325505
Si Si7 0.693964 0.826265 0.733855
Si Si8 0.772130 0.791488 0.277265
O O1 0.775070 0.953475 0.552210
O O2 0.522354 0.953084 0.629149
O O3 0.312014 0.540300 0.631929
O O4 0.500000 0.000000 0.500000
O O5 0.921578 0.779935 0.147285
O O6 0.814340 0.500246 0.103049
O O7 0.107951 0.507961 0.230386
O O8 0.000000 0.000000 0.000000
O O9 0.848924 0.792551 0.237580
O O10 0.147279 0.027862 0.218562
O O11 0.841272 0.202370 0.042742
O O12 0.637087 0.008700 0.167767
O O13 0.500000 0.500000 0.000000
O O14 0.647353 0.440208 0.970398
O O15 0.630549 0.498559 0.836889
O O16 0.500000 0.000000 0.000000
O O17 0.216820 0.175979 0.297275
O O18 0.932733 0.947406 0.322045
#
# Coordination Sequence:
#
# PCOD9083221 Si02
#       8
#     2   2   2   2   2   2   2   2
#     4  10  20  35  58  82 103 139 187 230 267 318
#     4  11  21  35  55  82 113 143 175 222 273 320
#     4  10  20  34  54  79 109 146 179 219 272 323
#     4  10  21  34  52  83 112 139 175 219 271 324
#     4  11  20  33  54  79 108 145 180 219 269 325
#     4   9  20  36  57  81 106 140 185 227 269 316
#     4  10  19  34  53  77 106 141 183 223 264 322
#     4   9  19  37  58  79 108 143 182 223 270 326
#
# _framework density 18.781642999999999
#
# number of rings (size 3 to 8) (size 9 to 14) (size 15 to 20)
#    0.000    2.000    0.000    5.250    0.000    2.000 
#    0.000    1.250    0.000    3.000    0.000    0.000 
#    0.000    0.000    0.000    0.000    0.000    0.000 
#
# Total GULP energy -89105.440730 kJ/mol
# GULP energy per Si atom -5569.090046 kJ/mol
# Density = 1.873890 g / cm^3
# Si number density = 18.781643 Si / 1000 Ang^3
#
#
#
# Elastic Constant Matrix: (Units=GPa)
#
#
# Indices 1 2 3 4 5 6 
#
# 1 44.7072 31.5039 31.3909 -7.7071 7.6408 -4.0335
# 2 31.5039 87.3177 40.2956 5.8128 -4.6004 -2.1405
# 3 31.3909 40.2956 136.1018 1.3514 3.1151 17.9626
# 4 -7.7071 5.8128 1.3514 35.1014 5.8957 2.7362
# 5 7.6408 -4.6004 3.1151 5.8957 27.8941 -3.3365
# 6 -4.0335 -2.1405 17.9626 2.7362 -3.3365 25.7316
#
#
#
# Elastic Compliance Matrix: (Units=1/GPa)
#
#
# Indices 1 2 3 4 5 6 
#
# 1 0.042100 -0.013893 -0.006219 0.013861 -0.015302 0.006327
# 2 -0.013893 0.018966 -0.003017 -0.007927 0.009373 0.003564
# 3 -0.006219 -0.003017 0.010877 -0.000426 -0.000983 -0.008901
# 4 0.013861 -0.007927 -0.000426 0.035320 -0.012956 -0.003625
# 5 -0.015302 0.009373 -0.000983 -0.012956 0.045189 0.006305
# 6 0.006327 0.003564 -0.008901 -0.003625 0.006305 0.047568
#
#
# Mechanical properties :
#
#
# Convention : Reuss Voigt Hill
#
# Bulk Modulus (GPa) = 38.93503 52.72305 45.82904
# Shear Modulus (GPa) = 19.62007 28.74118 24.18062
#
# Velocity S-wave (km/s) = 3.23560 3.91612 3.59201
# Velocity P-wave (km/s) = 5.89357 6.96998 6.45425
#
# Compressibility (1/GPa) = 0.02568381
#
# Stress axis : x y z
#
# Youngs Moduli (GPa) = 23.75279 52.72472 91.94046
#
# Poissons Ratio (x) = 0.73253 0.57179
# Poissons Ratio (y) = 0.33001 0.27740
# Poissons Ratio (z) = 0.14772 0.15908
#
# Static dielectric constant tensor:
#      x y z
#    x 1.659280 0.028120 0.025030 
#    y 0.028120 1.674350 0.023910 
#    z 0.025030 0.023910 1.701960 
# 
# From -- ./inp_files/352923.got.cif
#   From: 2010.05.17/outbox.cif.g08.bks.cpg/sg2_177_cif.got.tgz:352923.got - 2010.06.03 11:33:40.
