data_PCOD9083800
_publ_section_title
;
Structure prediction by ZEFSAII (Michael W. Deem and Ramdas Pophale) SiO2 
 PCOD9083800
Probable space group: P -1
;
_chemical_formula_sum "Si O2"
_cell_formula_units_Z 14
_cell_length_a 8.066426
_cell_length_b 9.320789
_cell_length_c 12.646355
_cell_angle_alpha 107.475864
_cell_angle_beta 127.734633
_cell_angle_gamma 87.666250
_cell_volume 704.235501
_symmetry_space_group_name_H-M "P -1"
_symmetry_group_IT_number 2
_symmetry_cell_setting 'triclinic'
loop_
_space_group_symop_operation_xyz
x,y,z
-x,-y,-z
loop_
_atom_site_type_symbol
_atom_site_label
_atom_site_fract_x
_atom_site_fract_y
_atom_site_fract_z
Si Si1 0.184163 0.633389 0.646452
Si Si2 0.020474 0.825959 0.472165
Si Si3 0.454494 0.225512 0.774411
Si Si4 0.579721 0.632823 0.643722
Si Si5 0.459943 0.919764 0.578934
Si Si6 0.514041 0.351273 0.042741
Si Si7 0.229396 0.471965 0.114488
O O1 0.390716 0.629146 0.654423
O O2 0.272384 0.633340 0.799457
O O3 0.000000 0.500000 0.500000
O O4 0.092288 0.781135 0.606064
O O5 0.784972 0.741072 0.329935
O O6 0.219322 0.817983 0.471098
O O7 0.000000 0.000000 0.500000
O O8 0.609576 0.365195 0.806654
O O9 0.474498 0.061537 0.697299
O O10 0.496675 0.225294 0.916533
O O11 0.500000 0.500000 0.500000
O O12 0.611599 0.799649 0.639311
O O13 0.766426 0.587729 0.777354
O O14 0.500000 0.000000 0.500000
O O15 0.316892 0.349278 0.045930
O O16 0.500000 0.500000 0.000000
O O17 0.000000 0.500000 0.000000
#
# Coordination Sequence:
#
# PCOD9083800 Si02
#       7
#     2   2   2   2   2   2   2
#     4  10  19  34  58  84 109 144 189 233 280 341
#     4   9  19  36  57  82 111 146 185 229 285 342
#     4  10  20  38  59  83 118 152 188 241 289 342
#     4  10  21  36  56  82 111 145 190 238 284 341
#     4  10  21  37  58  86 115 150 194 240 290 342
#     4   9  19  34  54  83 114 146 186 232 284 337
#     4  10  21  37  57  84 115 151 189 233 286 341
#
# _framework density 19.879712999999999
#
# number of rings (size 3 to 8) (size 9 to 14) (size 15 to 20)
#    0.000    2.286    0.000    3.429    0.000    6.857 
#    0.000   12.143    0.000    0.000    0.000    0.000 
#    0.000    0.000    0.000    0.000    0.000    0.000 
#
# Total GULP energy -77986.201321 kJ/mol
# GULP energy per Si atom -5570.442952 kJ/mol
# Density = 1.983447 g / cm^3
# Si number density = 19.879713 Si / 1000 Ang^3
#
#
#
# Elastic Constant Matrix: (Units=GPa)
#
#
# Indices 1 2 3 4 5 6 
#
# 1 42.5738 28.3440 53.8147 -5.8649 6.1289 5.1916
# 2 28.3440 119.4655 74.8571 -22.9268 -3.2730 -9.0337
# 3 53.8147 74.8571 184.0091 -35.8374 -6.8856 -9.1381
# 4 -5.8649 -22.9268 -35.8374 44.1554 -6.4639 -1.7686
# 5 6.1289 -3.2730 -6.8856 -6.4639 44.9813 7.5482
# 6 5.1916 -9.0337 -9.1381 -1.7686 7.5482 28.6383
#
#
#
# Elastic Compliance Matrix: (Units=1/GPa)
#
#
# Indices 1 2 3 4 5 6 
#
# 1 0.046505 -0.005123 -0.014397 -0.009884 -0.008134 -0.013107
# 2 -0.005123 0.012222 -0.002458 0.003993 0.001122 0.003951
# 3 -0.014397 -0.002458 0.012576 0.007807 0.003942 0.005290
# 4 -0.009884 0.003993 0.007807 0.030899 0.006301 0.005790
# 5 -0.008134 0.001122 0.003942 0.006301 0.025474 -0.003239
# 6 -0.013107 0.003951 0.005290 0.005790 -0.003239 0.041440
#
#
# Mechanical properties :
#
#
# Convention : Reuss Voigt Hill
#
# Bulk Modulus (GPa) = 36.56706 73.34221 54.95464
# Shear Modulus (GPa) = 22.50356 36.15719 29.33037
#
# Velocity S-wave (km/s) = 3.36815 4.26936 3.84525
# Velocity P-wave (km/s) = 5.79310 7.82792 6.88609
#
# Compressibility (1/GPa) = 0.02734701
#
# Stress axis : x y z
#
# Youngs Moduli (GPa) = 21.50287 81.81906 79.51931
#
# Poissons Ratio (x) = 0.41920 1.14482
# Poissons Ratio (y) = 0.11017 0.19544
# Poissons Ratio (z) = 0.30957 0.20109
#
# Static dielectric constant tensor:
#      x y z
#    x 1.774050 -0.011460 -0.011060 
#    y -0.011460 1.781080 0.009060 
#    z -0.011060 0.009060 1.774140 
# 
# From -- ./inp_files/183128.got.cif
#   From: 2010.05.17/outbox.cif.g08.bks.cpg/sg2_92_cif.got.tgz:183128.got - 2010.06.03 11:33:40.
