data_PCOD9083771
_publ_section_title
;
Structure prediction by ZEFSAII (Michael W. Deem and Ramdas Pophale) SiO2 
 PCOD9083771
Probable space group: P -1
;
_chemical_formula_sum "Si O2"
_cell_formula_units_Z 16
_cell_length_a 9.865837
_cell_length_b 11.811862
_cell_length_c 13.037276
_cell_angle_alpha 63.359773
_cell_angle_beta 50.533990
_cell_angle_gamma 35.306074
_cell_volume 669.391277
_symmetry_space_group_name_H-M "P -1"
_symmetry_group_IT_number 2
_symmetry_cell_setting 'triclinic'
loop_
_space_group_symop_operation_xyz
x,y,z
-x,-y,-z
loop_
_atom_site_type_symbol
_atom_site_label
_atom_site_fract_x
_atom_site_fract_y
_atom_site_fract_z
Si Si1 0.790278 0.763719 0.967934
Si Si2 0.848611 0.659643 0.418753
Si Si3 0.757679 0.380755 0.035344
Si Si4 0.498965 0.186022 0.741109
Si Si5 0.044030 0.735772 0.677250
Si Si6 0.443720 0.393098 0.497821
Si Si7 0.748595 0.915930 0.224555
Si Si8 0.398515 0.356936 0.162844
O O1 0.685583 0.704853 0.111393
O O2 0.026645 0.704047 0.944853
O O3 0.911435 0.695731 0.823110
O O4 0.500000 0.000000 0.000000
O O5 0.585255 0.717309 0.507479
O O6 0.772970 0.848290 0.356717
O O7 0.000000 0.500000 0.500000
O O8 0.079694 0.515669 0.277822
O O9 0.605106 0.587382 0.974645
O O10 0.956219 0.220240 0.912853
O O11 0.534224 0.394319 0.151339
O O12 0.491287 0.312279 0.622606
O O13 0.378087 0.132453 0.758379
O O14 0.812801 0.971867 0.693640
O O15 0.155240 0.627382 0.557252
O O16 0.311030 0.653308 0.631894
O O17 0.559900 0.140693 0.201100
#
# Coordination Sequence:
#
# PCOD9083771 Si02
#       8
#     2   2   2   2   2   2   2   2
#     4   9  19  35  57  83 113 146 185 234 289 334
#     4  10  22  36  54  80 113 147 187 234 275 330
#     4   9  19  34  56  85 112 143 184 233 283 337
#     4   9  18  35  56  80 110 142 186 227 279 333
#     4  10  20  35  57  79 109 146 184 233 275 337
#     4  10  21  36  56  79 108 151 188 223 279 340
#     4   9  18  35  57  81 108 146 184 226 280 343
#     4  10  19  34  58  81 110 150 186 228 283 335
#
# _framework density 23.902315000000002
#
# number of rings (size 3 to 8) (size 9 to 14) (size 15 to 20)
#    0.000    2.500    0.000    2.250    1.750    1.000 
#    0.000    5.000   11.000    0.000    0.000    0.000 
#    0.000    0.000    0.000    0.000    0.000    0.000 
#
# Total GULP energy -89154.055286 kJ/mol
# GULP energy per Si atom -5572.128455 kJ/mol
# Density = 2.384791 g / cm^3
# Si number density = 23.902315 Si / 1000 Ang^3
#
#
#
# Elastic Constant Matrix: (Units=GPa)
#
#
# Indices 1 2 3 4 5 6 
#
# 1 67.1828 25.7344 10.0319 -4.5997 -16.8423 -15.5823
# 2 25.7344 132.7158 36.5086 -24.1609 -10.4891 -6.2590
# 3 10.0319 36.5086 91.4861 -4.3234 -6.8978 1.7891
# 4 -4.5997 -24.1609 -4.3234 49.0712 -5.0751 -3.5466
# 5 -16.8423 -10.4891 -6.8978 -5.0751 29.8799 -4.4681
# 6 -15.5823 -6.2590 1.7891 -3.5466 -4.4681 28.7364
#
#
#
# Elastic Compliance Matrix: (Units=1/GPa)
#
#
# Indices 1 2 3 4 5 6 
#
# 1 0.023263 -0.001625 -0.000858 0.003984 0.015291 0.015183
# 2 -0.001625 0.010071 -0.003423 0.005012 0.003072 0.002622
# 3 -0.000858 -0.003423 0.012453 -0.000730 0.000773 -0.001956
# 4 0.003984 0.005012 -0.000730 0.024667 0.009188 0.007770
# 5 0.015291 0.003072 0.000773 0.009188 0.047511 0.017434
# 6 0.015183 0.002622 -0.001956 0.007770 0.017434 0.047395
#
#
# Mechanical properties :
#
#
# Convention : Reuss Voigt Hill
#
# Bulk Modulus (GPa) = 29.43483 48.43716 38.93599
# Shear Modulus (GPa) = 26.52573 36.14483 31.33528
#
# Velocity S-wave (km/s) = 3.33491 3.89291 3.62466
# Velocity P-wave (km/s) = 5.21251 6.36513 5.81744
#
# Compressibility (1/GPa) = 0.03397336
#
# Stress axis : x y z
#
# Youngs Moduli (GPa) = 42.98673 99.29947 80.30280
#
# Poissons Ratio (x) = 0.16136 0.06892
# Poissons Ratio (y) = 0.06985 0.27491
# Poissons Ratio (z) = 0.03689 0.33994
#
# Static dielectric constant tensor:
#      x y z
#    x 1.973440 -0.016200 0.075810 
#    y -0.016200 1.999400 -0.059850 
#    z 0.075810 -0.059850 1.940990 
# 
# From -- ./inp_files/521543.got.cif
#   From: 2010.05.17/outbox.cif.g08.bks.cpg/sg2_261_cif.got.tgz:521543.got - 2010.06.03 11:33:40.
