data_PCOD9083299
_publ_section_title
;
Structure prediction by ZEFSAII (Michael W. Deem and Ramdas Pophale) SiO2 
 PCOD9083299
Probable space group: P -1
;
_chemical_formula_sum "Si O2"
_cell_formula_units_Z 14
_cell_length_a 10.107887
_cell_length_b 13.368323
_cell_length_c 12.294671
_cell_angle_alpha 129.820591
_cell_angle_beta 34.791448
_cell_angle_gamma 131.872060
_cell_volume 689.035076
_symmetry_space_group_name_H-M "P -1"
_symmetry_group_IT_number 2
_symmetry_cell_setting 'triclinic'
loop_
_space_group_symop_operation_xyz
x,y,z
-x,-y,-z
loop_
_atom_site_type_symbol
_atom_site_label
_atom_site_fract_x
_atom_site_fract_y
_atom_site_fract_z
Si Si1 0.102128 0.352514 0.607092
Si Si2 0.609551 0.327456 0.009130
Si Si3 0.269948 0.839303 0.989438
Si Si4 0.214483 0.081058 0.330239
Si Si5 0.743198 0.395482 0.481237
Si Si6 0.233453 0.365545 0.782718
Si Si7 0.731525 0.577962 0.820939
O O1 0.166010 0.221345 0.430598
O O2 0.232718 0.486788 0.543698
O O3 0.174939 0.369973 0.697340
O O4 0.812932 0.326188 0.782026
O O5 0.632437 0.223301 0.013971
O O6 0.692556 0.480637 0.112367
O O7 0.354984 0.311290 0.111243
O O8 0.014831 0.725474 0.053867
O O9 0.213091 0.974444 0.161263
O O10 0.508505 0.877475 0.779243
O O11 0.000000 0.000000 0.500000
O O12 0.458137 0.304876 0.600102
O O13 0.749063 0.462761 0.642999
O O14 0.993220 0.358613 0.273938
O O15 0.500000 0.500000 0.000000
#
# Coordination Sequence:
#
# PCOD9083299 Si02
#       7
#     2   2   2   2   2   2   2
#     4  11  19  33  54  80 112 139 175 213 263 320
#     4  10  19  34  54  81 112 141 172 213 269 313
#     4  10  21  35  51  77 112 133 175 219 260 318
#     4  11  20  34  51  75 106 144 177 209 258 317
#     4  10  21  33  53  79 106 141 178 210 262 319
#     4  10  20  33  51  82 113 142 165 213 276 320
#     4  10  19  35  50  73 109 142 178 213 254 310
#
# _framework density 20.318268
#
# number of rings (size 3 to 8) (size 9 to 14) (size 15 to 20)
#    0.000    1.714    4.286    3.857    0.000    1.143 
#    0.000    0.000    0.000    0.000    0.000   29.000 
#    0.000    0.571    0.000    0.000    0.000    0.000 
#
# Total GULP energy -78043.726616 kJ/mol
# GULP energy per Si atom -5574.551901 kJ/mol
# Density = 2.027202 g / cm^3
# Si number density = 20.318268 Si / 1000 Ang^3
#
#
#
# Elastic Constant Matrix: (Units=GPa)
#
#
# Indices 1 2 3 4 5 6 
#
# 1 63.9487 14.4762 35.5454 -8.8296 -26.7839 7.7229
# 2 14.4762 56.0721 28.0983 -11.7765 -15.7050 10.8724
# 3 35.5454 28.0983 141.1645 -19.3908 -28.6810 7.7822
# 4 -8.8296 -11.7765 -19.3908 52.6536 3.8898 -6.2672
# 5 -26.7839 -15.7050 -28.6810 3.8898 43.3786 -7.1197
# 6 7.7229 10.8724 7.7822 -6.2672 -7.1197 7.5732
#
#
#
# Elastic Compliance Matrix: (Units=1/GPa)
#
#
# Indices 1 2 3 4 5 6 
#
# 1 0.023048 0.000866 -0.003101 0.000837 0.010635 -0.010869
# 2 0.000866 0.026325 -0.003008 0.000878 0.002692 -0.032327
# 3 -0.003101 -0.003008 0.009318 0.002352 0.003455 0.003101
# 4 0.000837 0.000878 0.002352 0.021936 0.003144 0.016577
# 5 0.010635 0.002692 0.003455 0.003144 0.035505 0.017721
# 6 -0.010869 -0.032327 0.003101 0.016577 0.017721 0.216731
#
#
# Mechanical properties :
#
#
# Convention : Reuss Voigt Hill
#
# Bulk Modulus (GPa) = 20.74540 46.38058 33.56299
# Shear Modulus (GPa) = 13.91146 32.92543 23.41844
#
# Velocity S-wave (km/s) = 2.61947 4.02989 3.39865
# Velocity P-wave (km/s) = 4.40241 6.67308 5.65293
#
# Compressibility (1/GPa) = 0.04820345
#
# Stress axis : x y z
#
# Youngs Moduli (GPa) = 43.38848 37.98697 107.32339
#
# Poissons Ratio (x) = -0.03288 0.33279
# Poissons Ratio (y) = -0.03756 0.32284
# Poissons Ratio (z) = 0.13454 0.11427
#
# Static dielectric constant tensor:
#      x y z
#    x 1.778240 0.021560 -0.021020 
#    y 0.021560 1.765060 -0.064850 
#    z -0.021020 -0.064850 1.814610 
# 
# From -- ./inp_files/521712.got.cif
#   From: 2010.05.17/outbox.cif.g08.bks.cpg/sg2_261_cif.got.tgz:521712.got - 2010.06.03 11:33:40.
