data_PCOD9083582
_publ_section_title
;
Structure prediction by ZEFSAII (Michael W. Deem and Ramdas Pophale) SiO2 
 PCOD9083582
Probable space group: P -1
;
_chemical_formula_sum "Si O2"
_cell_formula_units_Z 16
_cell_length_a 19.124757
_cell_length_b 6.125794
_cell_length_c 10.118858
_cell_angle_alpha 131.828394
_cell_angle_beta 68.426669
_cell_angle_gamma 132.659534
_cell_volume 641.887274
_symmetry_space_group_name_H-M "P -1"
_symmetry_group_IT_number 2
_symmetry_cell_setting 'triclinic'
loop_
_space_group_symop_operation_xyz
x,y,z
-x,-y,-z
loop_
_atom_site_type_symbol
_atom_site_label
_atom_site_fract_x
_atom_site_fract_y
_atom_site_fract_z
Si Si1 0.179768 0.008361 0.270491
Si Si2 0.135746 0.930974 0.970692
Si Si3 0.730057 0.230129 0.197939
Si Si4 0.713991 0.287193 0.943374
Si Si5 0.003400 0.312778 0.256677
Si Si6 0.545799 0.934366 0.321234
Si Si7 0.073323 0.289974 0.454207
Si Si8 0.432628 0.624680 0.009442
O O1 0.273171 0.028231 0.218492
O O2 0.106488 0.706858 0.309077
O O3 0.170263 0.336454 0.415089
O O4 0.133333 0.844364 0.091011
O O5 0.178474 0.728556 0.799063
O O6 0.046830 0.835789 0.910677
O O7 0.214586 0.374775 0.069657
O O8 0.661577 0.251722 0.350120
O O9 0.654887 0.782904 0.031938
O O10 0.749252 0.432812 0.127731
O O11 0.614395 0.216116 0.966509
O O12 0.929986 0.368741 0.396642
O O13 0.024114 0.121371 0.275800
O O14 0.500000 0.000000 0.500000
O O15 0.498569 0.884015 0.189960
O O16 0.530162 0.542991 0.181534
O O17 0.000000 0.000000 0.500000
#
# Coordination Sequence:
#
# PCOD9083582 Si02
#       8
#     2   2   2   2   2   2   2   2
#     4  10  20  34  56  81 106 146 197 236 280 346
#     4  10  20  34  56  81 111 146 187 235 286 337
#     4   8  18  35  54  81 112 150 176 232 288 336
#     4  10  19  34  57  78 115 150 182 226 292 342
#     4  10  20  36  56  77 108 151 191 245 283 330
#     4   9  17  37  63  85 113 146 189 235 282 344
#     4   9  20  36  51  73 107 144 189 238 290 332
#     4   8  18  36  60  82 114 150 181 235 288 335
#
# _framework density 24.926493000000001
#
# number of rings (size 3 to 8) (size 9 to 14) (size 15 to 20)
#    0.750    2.000    0.000    1.125    0.000    6.500 
#    0.000    8.125    5.500    0.000    0.000    0.000 
#    0.000    0.000    0.000    0.000    0.000    0.000 
#
# Total GULP energy -89113.866334 kJ/mol
# GULP energy per Si atom -5569.616646 kJ/mol
# Density = 2.486976 g / cm^3
# Si number density = 24.926493 Si / 1000 Ang^3
#
#
#
# Elastic Constant Matrix: (Units=GPa)
#
#
# Indices 1 2 3 4 5 6 
#
# 1 200.1365 13.3154 59.9911 0.6164 -28.3687 -54.9550
# 2 13.3154 70.7077 20.8115 -24.5307 1.5340 -14.2483
# 3 59.9911 20.8115 145.8179 -18.8782 -29.9264 -16.0907
# 4 0.6164 -24.5307 -18.8782 32.6344 -5.5205 2.0490
# 5 -28.3687 1.5340 -29.9264 -5.5205 52.0465 4.7220
# 6 -54.9550 -14.2483 -16.0907 2.0490 4.7220 31.5756
#
#
#
# Elastic Compliance Matrix: (Units=1/GPa)
#
#
# Indices 1 2 3 4 5 6 
#
# 1 0.011081 0.002049 -0.002284 -0.000670 0.002903 0.018656
# 2 0.002049 0.021599 -0.000471 0.015299 0.000746 0.011968
# 3 -0.002284 -0.000471 0.009639 0.006137 0.005001 -0.000421
# 4 -0.000670 0.015299 0.006137 0.046629 0.007227 0.004758
# 5 0.002903 0.000746 0.005001 0.007227 0.024065 0.003869
# 6 0.018656 0.011968 -0.000421 0.004758 0.003869 0.068438
#
#
# Mechanical properties :
#
#
# Convention : Reuss Voigt Hill
#
# Bulk Modulus (GPa) = 24.44537 67.21090 45.82813
# Shear Modulus (GPa) = 25.44557 44.75425 35.09991
#
# Velocity S-wave (km/s) = 3.19850 4.24187 3.75659
# Velocity P-wave (km/s) = 4.84446 7.14237 6.10255
#
# Compressibility (1/GPa) = 0.04090755
#
# Stress axis : x y z
#
# Youngs Moduli (GPa) = 90.24419 46.29891 103.74484
#
# Poissons Ratio (x) = -0.09488 0.23693
# Poissons Ratio (y) = -0.18494 0.04888
# Poissons Ratio (z) = 0.20610 0.02182
#
# Static dielectric constant tensor:
#      x y z
#    x 2.055030 0.050830 -0.040880 
#    y 0.050830 1.982110 0.044160 
#    z -0.040880 0.044160 2.139630 
# 
# From -- ./inp_files/340658.got.cif
#   From: 2010.05.17/outbox.cif.g08.bks.cpg/sg2_171_cif.got.tgz:340658.got - 2010.06.03 11:33:40.
