data_PCOD9083022
_publ_section_title
;
Structure prediction by ZEFSAII (Michael W. Deem and Ramdas Pophale) SiO2 
 PCOD9083022
Probable space group: P -1
;
_chemical_formula_sum "Si O2"
_cell_formula_units_Z 14
_cell_length_a 13.592497
_cell_length_b 5.727413
_cell_length_c 7.939078
_cell_angle_alpha 104.701021
_cell_angle_beta 97.214953
_cell_angle_gamma 67.509100
_cell_volume 552.071393
_symmetry_space_group_name_H-M "P -1"
_symmetry_group_IT_number 2
_symmetry_cell_setting 'triclinic'
loop_
_space_group_symop_operation_xyz
x,y,z
-x,-y,-z
loop_
_atom_site_type_symbol
_atom_site_label
_atom_site_fract_x
_atom_site_fract_y
_atom_site_fract_z
Si Si1 0.726226 0.461648 0.315486
Si Si2 0.780874 0.623806 0.015120
Si Si3 0.578693 0.895179 0.837036
Si Si4 0.915363 0.065990 0.842440
Si Si5 0.493186 0.558676 0.213699
Si Si6 0.122234 0.323342 0.444431
Si Si7 0.892014 0.914624 0.270547
O O1 0.718449 0.634277 0.179157
O O2 0.608889 0.463356 0.309135
O O3 0.789670 0.547743 0.491459
O O4 0.810254 0.181653 0.230936
O O5 0.881467 0.687651 0.111695
O O6 0.697853 0.828761 0.916089
O O7 0.820834 0.336245 0.897354
O O8 0.567180 0.617233 0.749870
O O9 0.553082 0.126109 0.737382
O O10 0.500000 0.000000 0.000000
O O11 0.988817 0.095161 0.709641
O O12 0.882312 0.823047 0.752871
O O13 0.000000 0.000000 0.000000
O O14 0.500000 0.500000 0.000000
O O15 0.150277 0.111466 0.559808
O O16 0.000000 0.500000 0.500000
#
# Coordination Sequence:
#
# PCOD9083022 Si02
#       7
#     2   2   2   2   2   2   2
#     4  11  21  37  64  91 121 166 212 260 316 386
#     4  11  22  35  60  95 122 163 210 270 321 372
#     4  10  19  34  58  91 129 159 212 271 319 372
#     4  12  23  41  61  90 129 164 209 270 318 382
#     4  10  19  33  60  93 123 159 216 272 311 371
#     4  11  24  42  61  88 128 170 216 252 315 396
#     4  11  22  40  62  88 127 169 210 255 322 391
#
# _framework density 25.35904
#
# number of rings (size 3 to 8) (size 9 to 14) (size 15 to 20)
#    0.000    1.143    5.714    3.429    2.000    0.000 
#    0.000    0.000    0.000    1.714    0.000    0.000 
#    0.000    0.000    0.000    0.000    0.000    0.000 
#
# Total GULP energy -78289.708148 kJ/mol
# GULP energy per Si atom -5592.122011 kJ/mol
# Density = 2.530132 g / cm^3
# Si number density = 25.359040 Si / 1000 Ang^3
#
#
#
# Elastic Constant Matrix: (Units=GPa)
#
#
# Indices 1 2 3 4 5 6 
#
# 1 90.9436 20.1722 36.9238 2.5672 36.0812 4.8936
# 2 20.1722 98.9385 21.8466 13.7901 18.3503 0.8305
# 3 36.9238 21.8466 91.7336 19.1075 28.6642 -4.0280
# 4 2.5672 13.7901 19.1075 27.9472 12.7802 5.8083
# 5 36.0812 18.3503 28.6642 12.7802 42.1873 -4.5822
# 6 4.8936 0.8305 -4.0280 5.8083 -4.5822 46.2340
#
#
#
# Elastic Compliance Matrix: (Units=1/GPa)
#
#
# Indices 1 2 3 4 5 6 
#
# 1 0.020187 -0.001327 -0.005001 0.011333 -0.017341 -0.005691
# 2 -0.001327 0.011499 -0.000662 -0.004162 -0.002136 0.000187
# 3 -0.005001 -0.000662 0.016168 -0.009348 -0.003284 0.002799
# 4 0.011333 -0.004162 -0.009348 0.054120 -0.019081 -0.010629
# 5 -0.017341 -0.002136 -0.003284 -0.019081 0.048430 0.008785
# 6 -0.005691 0.000187 0.002799 -0.010629 0.008785 0.024678
#
#
# Mechanical properties :
#
#
# Convention : Reuss Voigt Hill
#
# Bulk Modulus (GPa) = 29.52159 48.83343 39.17751
# Shear Modulus (GPa) = 24.95593 36.78523 30.87058
#
# Velocity S-wave (km/s) = 3.14045 3.81278 3.49283
# Velocity P-wave (km/s) = 4.98163 6.21946 5.63463
#
# Compressibility (1/GPa) = 0.03387352
#
# Stress axis : x y z
#
# Youngs Moduli (GPa) = 49.53679 86.96710 61.85035
#
# Poissons Ratio (x) = 0.11541 0.30933
# Poissons Ratio (y) = 0.06574 0.04093
# Poissons Ratio (z) = 0.24775 0.05756
#
# Static dielectric constant tensor:
#      x y z
#    x 1.958430 0.083200 -0.089470 
#    y 0.083200 2.039150 -0.028010 
#    z -0.089470 -0.028010 2.030660 
# 
# From -- ./inp_files/35084.got.cif
#   From: 2010.05.17/outbox.cif.g08.bks.cpg/sg2_18_cif.got.tgz:35084.got - 2010.06.03 11:33:40.
