data_PCOD9083410
_publ_section_title
;
Structure prediction by ZEFSAII (Michael W. Deem and Ramdas Pophale) SiO2 
 PCOD9083410
Probable space group: P -1
;
_chemical_formula_sum "Si O2"
_cell_formula_units_Z 16
_cell_length_a 11.189665
_cell_length_b 10.333367
_cell_length_c 8.739465
_cell_angle_alpha 41.243109
_cell_angle_beta 65.753152
_cell_angle_gamma 82.482404
_cell_volume 580.190585
_symmetry_space_group_name_H-M "P -1"
_symmetry_group_IT_number 2
_symmetry_cell_setting 'triclinic'
loop_
_space_group_symop_operation_xyz
x,y,z
-x,-y,-z
loop_
_atom_site_type_symbol
_atom_site_label
_atom_site_fract_x
_atom_site_fract_y
_atom_site_fract_z
Si Si1 0.631460 0.314495 0.650415
Si Si2 0.849859 0.454722 0.200496
Si Si3 0.962028 0.351239 0.799751
Si Si4 0.049160 0.013664 0.198814
Si Si5 0.622921 0.793893 0.613544
Si Si6 0.157061 0.220399 0.281540
Si Si7 0.655583 0.805090 0.235247
Si Si8 0.659498 0.337063 0.968885
O O1 0.729233 0.271568 0.501991
O O2 0.652251 0.564461 0.424606
O O3 0.477028 0.196707 0.789192
O O4 0.654734 0.271737 0.852039
O O5 0.911738 0.550360 0.243773
O O6 0.770570 0.559132 0.028541
O O7 0.000000 0.500000 0.000000
O O8 0.809065 0.335834 0.945062
O O9 0.000000 0.500000 0.500000
O O10 0.970403 0.117850 0.026848
O O11 0.078229 0.125562 0.250861
O O12 0.950763 0.796736 0.506194
O O13 0.200423 0.045893 0.030637
O O14 0.737154 0.884949 0.604307
O O15 0.642757 0.862019 0.367821
O O16 0.644967 0.567041 0.785441
O O17 0.474423 0.787125 0.758438
#
# Coordination Sequence:
#
# PCOD9083410 Si02
#       8
#     2   2   2   2   2   2   2   2
#     4  10  19  34  55  84 114 146 186 231 286 339
#     4  11  22  34  58  88 117 144 184 240 285 331
#     4  11  19  36  55  86 113 146 190 234 286 330
#     4  10  21  38  61  80 114 157 189 227 279 349
#     4  10  21  33  55  87 114 146 187 240 280 329
#     4  10  21  39  56  85 113 154 193 222 282 344
#     4  10  19  34  56  82 114 146 191 235 279 330
#     4  10  20  33  55  84 119 143 182 240 287 333
#
# _framework density 27.577145000000002
#
# number of rings (size 3 to 8) (size 9 to 14) (size 15 to 20)
#    0.000    1.750    3.750    2.250    7.000    0.500 
#    0.000    0.625    0.000    0.750    0.000    0.000 
#    0.000    0.000    0.000    0.000    0.000    0.000 
#
# Total GULP energy -89275.818525 kJ/mol
# GULP energy per Si atom -5579.738658 kJ/mol
# Density = 2.751438 g / cm^3
# Si number density = 27.577145 Si / 1000 Ang^3
#
#
#
# Elastic Constant Matrix: (Units=GPa)
#
#
# Indices 1 2 3 4 5 6 
#
# 1 167.3862 43.3405 89.0755 0.6446 -11.4842 -0.6384
# 2 43.3405 84.6233 40.5576 16.5547 11.3030 -5.4419
# 3 89.0755 40.5576 229.1684 25.5174 2.9224 -20.2403
# 4 0.6446 16.5547 25.5174 29.1672 -5.6818 -4.9400
# 5 -11.4842 11.3030 2.9224 -5.6818 68.9187 9.3151
# 6 -0.6384 -5.4419 -20.2403 -4.9400 9.3151 33.9806
#
#
#
# Elastic Compliance Matrix: (Units=1/GPa)
#
#
# Indices 1 2 3 4 5 6 
#
# 1 0.009443 -0.004845 -0.003785 0.006025 0.003419 -0.002914
# 2 -0.004845 0.016971 0.000321 -0.010296 -0.004810 0.002640
# 3 -0.003785 0.000321 0.006774 -0.005776 -0.001948 0.003709
# 4 0.006025 -0.010296 -0.005776 0.046352 0.006771 -0.000094
# 5 0.003419 -0.004810 -0.001948 0.006771 0.017268 -0.005616
# 6 -0.002914 0.002640 0.003709 -0.000094 -0.005616 0.033532
#
#
# Mechanical properties :
#
#
# Convention : Reuss Voigt Hill
#
# Bulk Modulus (GPa) = 60.35316 91.90279 76.12798
# Shear Modulus (GPa) = 32.79087 46.96028 39.87557
#
# Velocity S-wave (km/s) = 3.45202 4.13106 3.80671
# Velocity P-wave (km/s) = 6.14990 7.49348 6.85469
#
# Compressibility (1/GPa) = 0.01656914
#
# Stress axis : x y z
#
# Youngs Moduli (GPa) = 105.89670 58.92308 147.63367
#
# Poissons Ratio (x) = 0.28550 0.55877
# Poissons Ratio (y) = 0.51309 -0.04734
# Poissons Ratio (z) = 0.40080 -0.01889
#
# Static dielectric constant tensor:
#      x y z
#    x 2.087710 -0.029190 -0.027750 
#    y -0.029190 2.508630 -0.210420 
#    z -0.027750 -0.210420 2.268070 
# 
# From -- ./inp_files/266695.got.cif
#   From: 2010.05.17/outbox.cif.g08.bks.cpg/sg2_134_cif.got.tgz:266695.got - 2010.06.03 11:33:40.
