data_PCOD9083725
_publ_section_title
;
Structure prediction by ZEFSAII (Michael W. Deem and Ramdas Pophale) SiO2 
 PCOD9083725
Probable space group: P -1
;
_chemical_formula_sum "Si O2"
_cell_formula_units_Z 16
_cell_length_a 9.032760
_cell_length_b 23.483219
_cell_length_c 12.339646
_cell_angle_alpha 152.177884
_cell_angle_beta 137.501521
_cell_angle_gamma 50.246759
_cell_volume 824.649536
_symmetry_space_group_name_H-M "P -1"
_symmetry_group_IT_number 2
_symmetry_cell_setting 'triclinic'
loop_
_space_group_symop_operation_xyz
x,y,z
-x,-y,-z
loop_
_atom_site_type_symbol
_atom_site_label
_atom_site_fract_x
_atom_site_fract_y
_atom_site_fract_z
Si Si1 0.997044 0.333113 0.872142
Si Si2 0.918952 0.373733 0.304487
Si Si3 0.110779 0.809870 0.209632
Si Si4 0.694691 0.965096 0.201869
Si Si5 0.322131 0.467772 0.999542
Si Si6 0.361533 0.319343 0.568880
Si Si7 0.332009 0.852486 0.687863
Si Si8 0.537079 0.583046 0.765699
O O1 0.907389 0.277568 0.843106
O O2 0.910835 0.469664 0.041953
O O3 0.863631 0.247795 0.570197
O O4 0.257591 0.325399 0.998572
O O5 0.709049 0.384766 0.284821
O O6 0.000000 0.500000 0.500000
O O7 0.121587 0.325140 0.398973
O O8 0.845218 0.275952 0.010195
O O9 0.280527 0.923805 0.512889
O O10 0.876080 0.869694 0.167649
O O11 0.752591 0.033375 0.233727
O O12 0.461388 0.898236 0.940725
O O13 0.500437 0.564978 0.211042
O O14 0.373632 0.462715 0.146052
O O15 0.346613 0.345955 0.734775
O O16 0.486960 0.206881 0.394753
O O17 0.500000 0.500000 0.500000
#
# Coordination Sequence:
#
# PCOD9083725 Si02
#       8
#     2   2   2   2   2   2   2   2
#     4  10  22  36  56  85 121 156 197 233 304 355
#     4  12  22  36  58  89 123 154 199 238 288 351
#     4  10  20  36  61  92 118 153 198 253 292 340
#     4   9  18  34  60  92 113 147 202 258 292 333
#     4  10  21  36  57  81 122 154 196 236 285 362
#     4  10  19  34  57  90 112 152 196 247 290 330
#     4   9  18  34  59  87 114 148 199 254 295 340
#     4  12  25  37  55  84 127 165 191 232 297 365
#
# _framework density 19.402183000000001
#
# number of rings (size 3 to 8) (size 9 to 14) (size 15 to 20)
#    0.000    1.750    2.500    2.625    5.250    0.000 
#    0.000    0.000    0.000    7.500    0.000    0.000 
#    0.000    0.000    0.000    0.000    0.000    0.000 
#
# Total GULP energy -89145.548145 kJ/mol
# GULP energy per Si atom -5571.596759 kJ/mol
# Density = 1.935802 g / cm^3
# Si number density = 19.402183 Si / 1000 Ang^3
#
#
#
# Elastic Constant Matrix: (Units=GPa)
#
#
# Indices 1 2 3 4 5 6 
#
# 1 87.8559 11.9056 47.0199 -7.5509 -7.1916 -13.3407
# 2 11.9056 72.6429 9.3446 -18.2458 -10.3592 -5.8175
# 3 47.0199 9.3446 138.1579 -17.3556 -12.5235 -6.4775
# 4 -7.5509 -18.2458 -17.3556 30.2506 -5.0019 1.3053
# 5 -7.1916 -10.3592 -12.5235 -5.0019 34.8462 -15.3711
# 6 -13.3407 -5.8175 -6.4775 1.3053 -15.3711 22.2774
#
#
#
# Elastic Compliance Matrix: (Units=1/GPa)
#
#
# Indices 1 2 3 4 5 6 
#
# 1 0.016787 0.001533 -0.003592 0.004073 0.010435 0.016370
# 2 0.001533 0.021770 0.002813 0.017408 0.018863 0.019416
# 3 -0.003592 0.002813 0.010234 0.007669 0.007710 0.006430
# 4 0.004073 0.017408 0.007669 0.052413 0.027321 0.024996
# 5 0.010435 0.018863 0.007710 0.027321 0.069524 0.059787
# 6 0.016370 0.019416 0.006430 0.024996 0.059787 0.101419
#
#
# Mechanical properties :
#
#
# Convention : Reuss Voigt Hill
#
# Bulk Modulus (GPa) = 19.88111 48.35520 34.11816
# Shear Modulus (GPa) = 17.39704 32.83394 25.11549
#
# Velocity S-wave (km/s) = 2.99767 4.11820 3.60177
# Velocity P-wave (km/s) = 4.71704 6.89851 5.90931
#
# Compressibility (1/GPa) = 0.05029901
#
# Stress axis : x y z
#
# Youngs Moduli (GPa) = 59.57048 45.93443 97.71384
#
# Poissons Ratio (x) = -0.07041 0.35096
# Poissons Ratio (y) = -0.09132 -0.27485
# Poissons Ratio (z) = 0.21396 -0.12921
#
# Static dielectric constant tensor:
#      x y z
#    x 1.690950 -0.022190 -0.019620 
#    y -0.022190 1.725630 -0.019280 
#    z -0.019620 -0.019280 1.748220 
# 
# From -- ./inp_files/170570.got.cif
#   From: 2010.05.17/outbox.cif.g08.bks.cpg/sg2_86_cif.got.tgz:170570.got - 2010.06.03 11:33:40.
