data_PCOD9083312
_publ_section_title
;
Structure prediction by ZEFSAII (Michael W. Deem and Ramdas Pophale) SiO2 
 PCOD9083312
Probable space group: P -1
;
_chemical_formula_sum "Si O2"
_cell_formula_units_Z 16
_cell_length_a 16.999356
_cell_length_b 9.619770
_cell_length_c 22.435626
_cell_angle_alpha 48.939013
_cell_angle_beta 163.027429
_cell_angle_gamma 140.088705
_cell_volume 626.780439
_symmetry_space_group_name_H-M "P -1"
_symmetry_group_IT_number 2
_symmetry_cell_setting 'triclinic'
loop_
_space_group_symop_operation_xyz
x,y,z
-x,-y,-z
loop_
_atom_site_type_symbol
_atom_site_label
_atom_site_fract_x
_atom_site_fract_y
_atom_site_fract_z
Si Si1 0.513989 0.125174 0.765821
Si Si2 0.270282 0.406889 0.269183
Si Si3 0.431599 0.736266 0.397710
Si Si4 0.788368 0.097402 0.267891
Si Si5 0.178151 0.085632 0.777644
Si Si6 0.455774 0.106495 0.255389
Si Si7 0.993740 0.538566 0.348049
Si Si8 0.635484 0.643607 0.975120
O O1 0.596496 0.369446 0.737933
O O2 0.316489 0.043616 0.707273
O O3 0.370995 0.938128 0.660684
O O4 0.892176 0.194634 0.031928
O O5 0.240990 0.503414 0.284041
O O6 0.519026 0.340177 0.481343
O O7 0.269146 0.864407 0.226994
O O8 0.832799 0.930329 0.611471
O O9 0.042102 0.372162 0.393853
O O10 0.894592 0.012480 0.314663
O O11 0.444655 0.052846 0.007374
O O12 0.390862 0.368157 0.853956
O O13 0.276349 0.191316 0.063859
O O14 0.725195 0.309125 0.440075
O O15 0.618938 0.366159 0.158679
O O16 0.948430 0.688645 0.226818
#
# Coordination Sequence:
#
# PCOD9083312 Si02
#       8
#     2   2   2   2   2   2   2   2
#     4  10  19  34  54  83 111 146 188 235 279 322
#     4   9  20  33  52  80 113 141 193 243 271 305
#     4  10  19  34  54  83 111 146 188 235 279 322
#     4  10  20  34  55  85 122 151 176 224 290 348
#     4  10  20  34  55  85 122 151 176 224 290 348
#     4  11  21  31  56  80 113 145 184 238 271 334
#     4  10  20  33  52  82 116 148 184 224 277 342
#     4  10  20  33  52  82 116 148 184 224 277 342
#
# _framework density 25.527280999999999
#
# number of rings (size 3 to 8) (size 9 to 14) (size 15 to 20)
#    0.000    2.000    3.750    0.375    1.750    0.000 
#    0.000    5.625    0.000    0.000    0.000   28.000 
#    0.000    0.000    0.000    0.000    0.000    0.000 
#
# Total GULP energy -89460.583289 kJ/mol
# GULP energy per Si atom -5591.286456 kJ/mol
# Density = 2.546918 g / cm^3
# Si number density = 25.527281 Si / 1000 Ang^3
#
#
#
# Elastic Constant Matrix: (Units=GPa)
#
#
# Indices 1 2 3 4 5 6 
#
# 1 127.9772 52.7615 42.0039 -1.7591 -25.5109 -16.5838
# 2 52.7615 133.3840 42.1284 -33.3532 -29.3798 17.7366
# 3 42.0039 42.1284 98.8673 -13.8690 -47.0557 8.7369
# 4 -1.7591 -33.3532 -13.8690 56.2314 3.6136 -25.1206
# 5 -25.5109 -29.3798 -47.0557 3.6136 41.6211 -5.7162
# 6 -16.5838 17.7366 8.7369 -25.1206 -5.7162 31.6935
#
#
#
# Elastic Compliance Matrix: (Units=1/GPa)
#
#
# Indices 1 2 3 4 5 6 
#
# 1 0.012910 -0.004633 -0.002938 0.002346 0.002838 0.012529
# 2 -0.004633 0.012146 0.000207 0.004715 0.004919 -0.004654
# 3 -0.002938 0.000207 0.023595 0.004036 0.024599 -0.000522
# 4 0.002346 0.004715 0.004036 0.032023 0.009935 0.024650
# 5 0.002838 0.004919 0.024599 0.009935 0.057589 0.010212
# 6 0.012529 -0.004654 -0.000522 0.024650 0.010212 0.062236
#
#
# Mechanical properties :
#
#
# Convention : Reuss Voigt Hill
#
# Bulk Modulus (GPa) = 29.47946 70.44625 49.96285
# Shear Modulus (GPa) = 22.07188 40.79818 31.43503
#
# Velocity S-wave (km/s) = 2.94366 4.00211 3.51298
# Velocity P-wave (km/s) = 4.80904 7.00087 6.00579
#
# Compressibility (1/GPa) = 0.03392192
#
# Stress axis : x y z
#
# Youngs Moduli (GPa) = 77.46082 82.33259 42.38263
#
# Poissons Ratio (x) = 0.38145 0.12452
# Poissons Ratio (y) = 0.35887 -0.00877
# Poissons Ratio (z) = 0.22758 -0.01703
#
# Static dielectric constant tensor:
#      x y z
#    x 1.981610 -0.003920 0.018740 
#    y -0.003920 2.063770 -0.083770 
#    z 0.018740 -0.083770 2.089240 
# 
# From -- ./inp_files/476574.got.cif
#   From: 2010.05.17/outbox.cif.g08.bks.cpg/sg2_239_cif.got.tgz:476574.got - 2010.06.03 11:33:40.
