data_PCOD9083760
_publ_section_title
;
Structure prediction by ZEFSAII (Michael W. Deem and Ramdas Pophale) SiO2 
 PCOD9083760
Probable space group: P -1
;
_chemical_formula_sum "Si O2"
_cell_formula_units_Z 16
_cell_length_a 18.427763
_cell_length_b 7.629775
_cell_length_c 12.162963
_cell_angle_alpha 50.814988
_cell_angle_beta 29.693799
_cell_angle_gamma 41.651498
_cell_volume 562.225370
_symmetry_space_group_name_H-M "P -1"
_symmetry_group_IT_number 2
_symmetry_cell_setting 'triclinic'
loop_
_space_group_symop_operation_xyz
x,y,z
-x,-y,-z
loop_
_atom_site_type_symbol
_atom_site_label
_atom_site_fract_x
_atom_site_fract_y
_atom_site_fract_z
Si Si1 0.832743 0.960895 0.552908
Si Si2 0.552245 0.165084 0.677534
Si Si3 0.140975 0.569659 0.650953
Si Si4 0.617922 0.623343 0.785203
Si Si5 0.885296 0.872366 0.196624
Si Si6 0.351974 0.839268 0.797022
Si Si7 0.180093 0.529970 0.209346
Si Si8 0.672413 0.678616 0.280721
O O1 0.802693 0.745017 0.738126
O O2 0.987775 0.762422 0.345483
O O3 0.651287 0.171946 0.653263
O O4 0.907707 0.135028 0.431630
O O5 0.389946 0.373331 0.734215
O O6 0.525812 0.920684 0.831892
O O7 0.720592 0.031375 0.429101
O O8 0.316716 0.402819 0.414910
O O9 0.033896 0.445714 0.788803
O O10 0.176414 0.522928 0.754959
O O11 0.783961 0.481643 0.702202
O O12 0.500000 0.500000 0.000000
O O13 0.805003 0.949036 0.151961
O O14 0.000000 0.000000 0.000000
O O15 0.513465 0.745558 0.543676
O O16 0.337590 0.040493 0.830949
O O17 0.313647 0.608676 0.960955
#
# Coordination Sequence:
#
# PCOD9083760 Si02
#       8
#     2   2   2   2   2   2   2   2
#     4  10  22  37  53  79 113 151 187 229 276 325
#     4   9  18  33  54  79 108 143 182 221 277 335
#     4  10  21  36  56  83 112 141 187 235 274 326
#     4  10  19  34  58  81 104 144 189 227 274 331
#     4   9  17  32  56  80 105 142 183 225 275 333
#     4   9  16  31  56  80 103 140 186 227 275 328
#     4  10  20  36  56  76 111 154 189 225 276 334
#     4   9  17  32  56  83 108 137 182 238 279 320
#
# _framework density 28.458341000000001
#
# number of rings (size 3 to 8) (size 9 to 14) (size 15 to 20)
#    0.000    2.500    0.000    4.500    0.000    2.000 
#    0.000   11.250    0.000    6.000    0.000    0.000 
#    0.000    0.000    0.000    0.000    0.000    0.000 
#
# Total GULP energy -89303.784268 kJ/mol
# GULP energy per Si atom -5581.486517 kJ/mol
# Density = 2.839357 g / cm^3
# Si number density = 28.458341 Si / 1000 Ang^3
#
#
#
# Elastic Constant Matrix: (Units=GPa)
#
#
# Indices 1 2 3 4 5 6 
#
# 1 93.4789 -2.0041 -2.6873 6.9861 -6.0415 -15.2462
# 2 -2.0041 106.6368 29.0615 -17.5408 -10.6945 9.1550
# 3 -2.6873 29.0615 140.7858 -28.8155 -21.0974 25.4374
# 4 6.9861 -17.5408 -28.8155 62.9483 13.6028 -20.7596
# 5 -6.0415 -10.6945 -21.0974 13.6028 41.1636 -10.2251
# 6 -15.2462 9.1550 25.4374 -20.7596 -10.2251 43.7169
#
#
#
# Elastic Compliance Matrix: (Units=1/GPa)
#
#
# Indices 1 2 3 4 5 6 
#
# 1 0.011679 0.000113 -0.000310 -0.000493 0.002909 0.004676
# 2 0.000113 0.010233 -0.001535 0.001851 0.001268 -0.000035
# 3 -0.000310 -0.001535 0.008814 0.001970 0.002584 -0.003376
# 4 -0.000493 0.001851 0.001970 0.020503 -0.003570 0.007195
# 5 0.002909 0.001268 0.002584 -0.003570 0.028607 0.004241
# 6 0.004676 -0.000035 -0.003376 0.007195 0.004241 0.030885
#
#
# Mechanical properties :
#
#
# Convention : Reuss Voigt Hill
#
# Bulk Modulus (GPa) = 36.68202 43.29351 39.98776
# Shear Modulus (GPa) = 40.56071 50.66784 45.61428
#
# Velocity S-wave (km/s) = 3.77937 4.22408 4.00790
# Velocity P-wave (km/s) = 5.65354 6.24792 5.95814
#
# Compressibility (1/GPa) = 0.02726132
#
# Stress axis : x y z
#
# Youngs Moduli (GPa) = 85.62666 97.72621 113.45293
#
# Poissons Ratio (x) = -0.01107 0.03521
# Poissons Ratio (y) = -0.00970 0.17415
# Poissons Ratio (z) = 0.02657 0.15001
#
# Static dielectric constant tensor:
#      x y z
#    x 2.300630 0.039490 -0.028090 
#    y 0.039490 2.291760 -0.024820 
#    z -0.028090 -0.024820 2.278930 
# 
# From -- ./inp_files/540382.got.cif
#   From: 2010.05.17/outbox.cif.g08.bks.cpg/sg2_271_cif.got.tgz:540382.got - 2010.06.03 11:33:40.
