data_PCOD9083398
_publ_section_title
;
Structure prediction by ZEFSAII (Michael W. Deem and Ramdas Pophale) SiO2 
 PCOD9083398
Probable space group: P -1
;
_chemical_formula_sum "Si O2"
_cell_formula_units_Z 16
_cell_length_a 8.338551
_cell_length_b 16.348844
_cell_length_c 12.752193
_cell_angle_alpha 29.728349
_cell_angle_beta 79.005017
_cell_angle_gamma 64.825050
_cell_volume 715.693007
_symmetry_space_group_name_H-M "P -1"
_symmetry_group_IT_number 2
_symmetry_cell_setting 'triclinic'
loop_
_space_group_symop_operation_xyz
x,y,z
-x,-y,-z
loop_
_atom_site_type_symbol
_atom_site_label
_atom_site_fract_x
_atom_site_fract_y
_atom_site_fract_z
Si Si1 0.156697 0.048974 0.008660
Si Si2 0.599116 0.314330 0.770371
Si Si3 0.825310 0.108359 0.319802
Si Si4 0.539149 0.958100 0.864287
Si Si5 0.396490 0.794697 0.563063
Si Si6 0.237462 0.570629 0.181873
Si Si7 0.092200 0.316867 0.546000
Si Si8 0.955784 0.149243 0.588307
O O1 0.242711 0.869022 0.115988
O O2 0.044144 0.003999 0.159785
O O3 0.335577 0.034894 0.063905
O O4 0.045193 0.252329 0.733165
O O5 0.500000 0.500000 0.500000
O O6 0.670389 0.373960 0.796989
O O7 0.461391 0.238617 0.910244
O O8 0.638430 0.200210 0.314170
O O9 0.849079 0.262924 0.079900
O O10 0.000000 0.000000 0.500000
O O11 0.859517 0.954863 0.395893
O O12 0.616999 0.009483 0.694240
O O13 0.315675 0.135676 0.705845
O O14 0.595066 0.615372 0.695126
O O15 0.231917 0.779050 0.539126
O O16 0.096502 0.509464 0.316380
O O17 0.963602 0.305205 0.484770
#
# Coordination Sequence:
#
# PCOD9083398 Si02
#       8
#     2   2   2   2   2   2   2   2
#     4  10  19  35  56  82 117 157 188 228 284 344
#     4  11  19  32  57  90 120 149 184 231 280 338
#     4  10  21  40  62  83 111 149 193 247 293 327
#     4   9  18  34  56  83 113 152 195 232 278 342
#     4   9  20  40  61  81 111 150 192 240 286 333
#     4  11  22  38  59  88 116 149 194 236 281 346
#     4  10  19  34  55  82 117 151 185 233 285 342
#     4  10  20  37  58  83 115 153 190 229 285 344
#
# _framework density 22.355953
#
# number of rings (size 3 to 8) (size 9 to 14) (size 15 to 20)
#    0.000    2.000    0.000    6.750    0.000    0.000 
#    0.000   19.375    0.000    0.000    0.000    0.000 
#    0.000    0.000    0.000    0.000    0.000    0.000 
#
# Total GULP energy -89397.563550 kJ/mol
# GULP energy per Si atom -5587.347722 kJ/mol
# Density = 2.230507 g / cm^3
# Si number density = 22.355953 Si / 1000 Ang^3
#
#
#
# Elastic Constant Matrix: (Units=GPa)
#
#
# Indices 1 2 3 4 5 6 
#
# 1 69.6246 27.6407 29.0432 5.8940 -27.4446 15.9036
# 2 27.6407 137.5349 50.4670 21.6019 -21.9569 -11.4004
# 3 29.0432 50.4670 152.4640 19.3385 -21.4733 18.2053
# 4 5.8940 21.6019 19.3385 21.8483 1.4735 5.3963
# 5 -27.4446 -21.9569 -21.4733 1.4735 38.9322 -7.1274
# 6 15.9036 -11.4004 18.2053 5.3963 -7.1274 28.9824
#
#
#
# Elastic Compliance Matrix: (Units=1/GPa)
#
#
# Indices 1 2 3 4 5 6 
#
# 1 0.023194 -0.003343 -0.000150 -0.001018 0.012463 -0.010693
# 2 -0.003343 0.013046 -0.002614 -0.013235 0.006374 0.012640
# 3 -0.000150 -0.002614 0.008967 -0.004210 0.002580 -0.005160
# 4 -0.001018 -0.013235 -0.004210 0.068630 -0.016553 -0.018852
# 5 0.012463 0.006374 0.002580 -0.016553 0.041456 0.007325
# 6 -0.010693 0.012640 -0.005160 -0.018852 0.007325 0.053896
#
#
# Mechanical properties :
#
#
# Convention : Reuss Voigt Hill
#
# Bulk Modulus (GPa) = 30.31154 63.76946 47.04050
# Shear Modulus (GPa) = 21.51445 34.78409 28.14927
#
# Velocity S-wave (km/s) = 3.10556 3.94880 3.55229
# Velocity P-wave (km/s) = 5.14270 7.02689 6.15729
#
# Compressibility (1/GPa) = 0.03299073
#
# Stress axis : x y z
#
# Youngs Moduli (GPa) = 43.11472 76.65052 111.52614
#
# Poissons Ratio (x) = 0.25625 0.01678
# Poissons Ratio (y) = 0.14413 0.29158
# Poissons Ratio (z) = 0.00649 0.20040
#
# Static dielectric constant tensor:
#      x y z
#    x 1.865310 -0.073060 0.001170 
#    y -0.073060 1.864600 -0.018910 
#    z 0.001170 -0.018910 1.848350 
# 
# From -- ./inp_files/357873.got.cif
#   From: 2010.05.17/outbox.cif.g08.bks.cpg/sg2_179_cif.got.tgz:357873.got - 2010.06.03 11:33:40.
