data_PCOD9083713
_publ_section_title
;
Structure prediction by ZEFSAII (Michael W. Deem and Ramdas Pophale) SiO2 
 PCOD9083713
Probable space group: P -1
;
_chemical_formula_sum "Si O2"
_cell_formula_units_Z 14
_cell_length_a 7.913984
_cell_length_b 21.023254
_cell_length_c 13.672907
_cell_angle_alpha 28.561647
_cell_angle_beta 28.880450
_cell_angle_gamma 43.140222
_cell_volume 517.606763
_symmetry_space_group_name_H-M "P -1"
_symmetry_group_IT_number 2
_symmetry_cell_setting 'triclinic'
loop_
_space_group_symop_operation_xyz
x,y,z
-x,-y,-z
loop_
_atom_site_type_symbol
_atom_site_label
_atom_site_fract_x
_atom_site_fract_y
_atom_site_fract_z
Si Si1 0.022059 0.890943 0.331100
Si Si2 0.433268 0.960734 0.835803
Si Si3 0.772606 0.817751 0.113982
Si Si4 0.326746 0.453998 0.756529
Si Si5 0.032144 0.805632 0.804708
Si Si6 0.874102 0.301894 0.740824
Si Si7 0.787411 0.617578 0.748463
O O1 0.733682 0.754423 0.648681
O O2 0.986815 0.030998 0.212141
O O3 0.371307 0.842822 0.266986
O O4 0.139191 0.950806 0.082313
O O5 0.586971 0.109589 0.522074
O O6 0.756825 0.909418 0.797570
O O7 0.356927 0.848657 0.941937
O O8 0.932182 0.742176 0.046398
O O9 0.813245 0.722559 0.313770
O O10 0.500000 0.500000 0.500000
O O11 0.633699 0.417813 0.721527
O O12 0.045905 0.553249 0.777395
O O13 0.076627 0.309850 0.062179
O O14 0.995505 0.324246 0.536775
O O15 0.500000 0.500000 0.000000
#
# Coordination Sequence:
#
# PCOD9083713 Si02
#       7
#     2   2   2   2   2   2   2
#     4   9  20  37  57  83 121 153 183 236 299 342
#     4   8  16  32  52  79 108 148 195 231 273 337
#     4  10  19  34  57  88 120 145 180 243 306 339
#     4   9  18  36  56  79 113 153 196 235 271 342
#     4   9  17  31  55  82 110 147 192 235 282 332
#     4   9  19  34  56  84 112 148 190 238 291 333
#     4  10  21  39  61  82 109 157 204 231 271 351
#
# _framework density 27.047557999999999
#
# number of rings (size 3 to 8) (size 9 to 14) (size 15 to 20)
#    0.000    2.857    0.000    2.571    0.000    5.143 
#    0.000    8.571    0.000    8.571    0.000    0.000 
#    0.000    0.000    0.000    0.000    0.000    0.000 
#
# Total GULP energy -78113.981206 kJ/mol
# GULP energy per Si atom -5579.570086 kJ/mol
# Density = 2.698600 g / cm^3
# Si number density = 27.047558 Si / 1000 Ang^3
#
#
#
# Elastic Constant Matrix: (Units=GPa)
#
#
# Indices 1 2 3 4 5 6 
#
# 1 105.6399 35.2569 5.1632 -16.3986 10.2597 -43.4306
# 2 35.2569 65.4475 18.9666 -23.5813 -11.1665 -30.2709
# 3 5.1632 18.9666 120.4486 -29.3012 -31.0510 -2.6395
# 4 -16.3986 -23.5813 -29.3012 39.7492 4.6380 -2.9761
# 5 10.2597 -11.1665 -31.0510 4.6380 35.6804 -14.0726
# 6 -43.4306 -30.2709 -2.6395 -2.9761 -14.0726 50.8887
#
#
#
# Elastic Compliance Matrix: (Units=1/GPa)
#
#
# Indices 1 2 3 4 5 6 
#
# 1 0.017798 0.005346 0.004041 0.014314 0.006588 0.021238
# 2 0.005346 0.057884 0.014722 0.046254 0.045038 0.054917
# 3 0.004041 0.014722 0.018101 0.022459 0.024672 0.021282
# 4 0.014314 0.046254 0.022459 0.074344 0.042748 0.057065
# 5 0.006588 0.045038 0.024672 0.042748 0.079037 0.058049
# 6 0.021238 0.054917 0.021282 0.057065 0.058049 0.090937
#
#
# Mechanical properties :
#
#
# Convention : Reuss Voigt Hill
#
# Bulk Modulus (GPa) = 7.04221 45.58992 26.31607
# Shear Modulus (GPa) = 14.82726 40.74027 27.78377
#
# Velocity S-wave (km/s) = 2.34389 3.88525 3.20850
# Velocity P-wave (km/s) = 3.15189 6.08432 4.84527
#
# Compressibility (1/GPa) = 0.14200088
#
# Stress axis : x y z
#
# Youngs Moduli (GPa) = 56.18574 17.27603 55.24522
#
# Poissons Ratio (x) = -0.09235 -0.22326
# Poissons Ratio (y) = -0.30034 -0.81333
# Poissons Ratio (z) = -0.22706 -0.25434
#
# Static dielectric constant tensor:
#      x y z
#    x 2.232700 -0.012870 -0.052860 
#    y -0.012870 2.179430 0.001080 
#    z -0.052860 0.001080 2.144840 
# 
# From -- ./inp_files/177890.got.cif
#   From: 2010.05.17/outbox.cif.g08.bks.cpg/sg2_89_cif.got.tgz:177890.got - 2010.06.03 11:33:40.
