data_PCOD9083969
_publ_section_title
;
Structure prediction by ZEFSAII (Michael W. Deem and Ramdas Pophale) SiO2 
 PCOD9083969
Probable space group: P -1
;
_chemical_formula_sum "Si O2"
_cell_formula_units_Z 16
_cell_length_a 11.563894
_cell_length_b 7.805645
_cell_length_c 11.518913
_cell_angle_alpha 123.971912
_cell_angle_beta 99.002935
_cell_angle_gamma 56.163364
_cell_volume 697.938273
_symmetry_space_group_name_H-M "P -1"
_symmetry_group_IT_number 2
_symmetry_cell_setting 'triclinic'
loop_
_space_group_symop_operation_xyz
x,y,z
-x,-y,-z
loop_
_atom_site_type_symbol
_atom_site_label
_atom_site_fract_x
_atom_site_fract_y
_atom_site_fract_z
Si Si1 0.800226 0.256780 0.176661
Si Si2 0.685230 0.088949 0.821742
Si Si3 0.411293 0.511722 0.379066
Si Si4 0.053655 0.229297 0.096053
Si Si5 0.510136 0.370460 0.105474
Si Si6 0.077408 0.248766 0.641121
Si Si7 0.863382 0.268125 0.452203
Si Si8 0.647067 0.972381 0.527134
O O1 0.638274 0.406483 0.164669
O O2 0.818266 0.327323 0.334417
O O3 0.902693 0.271436 0.109670
O O4 0.863738 0.957430 0.068920
O O5 0.624331 0.371987 0.873379
O O6 0.842667 0.931708 0.840409
O O7 0.683270 0.938106 0.655754
O O8 0.577915 0.153007 0.936749
O O9 0.500000 0.500000 0.500000
O O10 0.481142 0.316235 0.209827
O O11 0.270789 0.545624 0.416895
O O12 0.373661 0.766650 0.409361
O O13 0.019475 0.504380 0.202696
O O14 0.223287 0.213199 0.609381
O O15 0.995361 0.269695 0.517266
O O16 0.104413 0.005441 0.617934
O O17 0.500000 0.000000 0.500000
#
# Coordination Sequence:
#
# PCOD9083969 Si02
#       8
#     2   2   2   2   2   2   2   2
#     4  10  20  36  63  90 118 159 201 248 305 357
#     4   9  19  35  54  85 121 153 192 243 301 356
#     4  10  19  34  59  87 110 154 200 241 294 354
#     4  10  22  37  59  92 121 156 202 250 302 359
#     4   9  18  35  59  83 121 155 194 246 300 353
#     4  10  23  39  59  87 123 160 199 250 305 357
#     4  10  21  39  61  85 121 163 203 245 297 366
#     4  10  22  36  58  87 117 149 198 249 301 353
#
# _framework density 22.924662999999999
#
# number of rings (size 3 to 8) (size 9 to 14) (size 15 to 20)
#    0.000    2.250    1.250    0.750    3.500    4.500 
#    0.000    0.000    5.500    2.250    0.000    0.000 
#    0.000    0.000    0.000    0.000    0.000    0.000 
#
# Total GULP energy -89296.871894 kJ/mol
# GULP energy per Si atom -5581.054493 kJ/mol
# Density = 2.287249 g / cm^3
# Si number density = 22.924663 Si / 1000 Ang^3
#
#
#
# Elastic Constant Matrix: (Units=GPa)
#
#
# Indices 1 2 3 4 5 6 
#
# 1 71.5538 9.7061 -14.7456 2.6612 -2.8153 -12.2618
# 2 9.7061 52.0369 -4.7843 0.1699 -0.5651 2.6335
# 3 -14.7456 -4.7843 67.4592 -7.8401 -18.6882 15.2498
# 4 2.6612 0.1699 -7.8401 38.8509 -2.0680 3.3326
# 5 -2.8153 -0.5651 -18.6882 -2.0680 26.5310 2.0965
# 6 -12.2618 2.6335 15.2498 3.3326 2.0965 24.6822
#
#
#
# Elastic Compliance Matrix: (Units=1/GPa)
#
#
# Indices 1 2 3 4 5 6 
#
# 1 0.016208 -0.003111 0.002425 -0.001044 0.002744 0.006793
# 2 -0.003111 0.020418 0.003108 0.001426 0.002886 -0.006082
# 3 0.002425 0.003108 0.026446 0.007846 0.021010 -0.018310
# 4 -0.001044 0.001426 0.007846 0.028707 0.008483 -0.010115
# 5 0.002744 0.002886 0.021010 0.008483 0.054907 -0.017735
# 6 0.006793 -0.006082 -0.018310 -0.010115 -0.017735 0.058724
#
#
# Mechanical properties :
#
#
# Convention : Reuss Voigt Hill
#
# Bulk Modulus (GPa) = 14.72375 19.04470 16.88423
# Shear Modulus (GPa) = 22.40113 31.40441 26.90277
#
# Velocity S-wave (km/s) = 3.12935 3.70523 3.42940
# Velocity P-wave (km/s) = 4.41517 5.16047 4.80230
#
# Compressibility (1/GPa) = 0.06791748
#
# Stress axis : x y z
#
# Youngs Moduli (GPa) = 61.69716 48.97733 37.81295
#
# Poissons Ratio (x) = 0.15236 -0.09171
# Poissons Ratio (y) = 0.19193 -0.11753
# Poissons Ratio (z) = -0.14964 -0.15223
#
# Static dielectric constant tensor:
#      x y z
#    x 1.840320 0.010930 -0.012620 
#    y 0.010930 1.898750 0.036020 
#    z -0.012620 0.036020 1.946610 
# 
# From -- ./inp_files/420046.got.cif
#   From: 2010.05.17/outbox.cif.g08.bks.cpg/sg2_211_cif.got.tgz:420046.got - 2010.06.03 11:33:40.
