data_PCOD9083755
_publ_section_title
;
Structure prediction by ZEFSAII (Michael W. Deem and Ramdas Pophale) SiO2 
 PCOD9083755
Probable space group: P -1
;
_chemical_formula_sum "Si O2"
_cell_formula_units_Z 16
_cell_length_a 8.474425
_cell_length_b 23.813674
_cell_length_c 14.459454
_cell_angle_alpha 19.489300
_cell_angle_beta 54.635445
_cell_angle_gamma 54.855293
_cell_volume 789.059583
_symmetry_space_group_name_H-M "P -1"
_symmetry_group_IT_number 2
_symmetry_cell_setting 'triclinic'
loop_
_space_group_symop_operation_xyz
x,y,z
-x,-y,-z
loop_
_atom_site_type_symbol
_atom_site_label
_atom_site_fract_x
_atom_site_fract_y
_atom_site_fract_z
Si Si1 0.298679 0.485075 0.338862
Si Si2 0.299283 0.408666 0.014281
Si Si3 0.073849 0.297672 0.845237
Si Si4 0.803978 0.031014 0.574628
Si Si5 0.969689 0.058594 0.095301
Si Si6 0.077909 0.725127 0.699770
Si Si7 0.604768 0.903389 0.401242
Si Si8 0.635790 0.879263 0.212266
O O1 0.103346 0.604015 0.189571
O O2 0.347495 0.314504 0.527121
O O3 0.226254 0.417674 0.566760
O O4 0.493396 0.577523 0.125369
O O5 0.321697 0.274234 0.299752
O O6 0.127632 0.350622 0.097762
O O7 0.215498 0.587313 0.810060
O O8 0.971884 0.218249 0.914465
O O9 0.188390 0.135829 0.105475
O O10 0.820328 0.205254 0.353788
O O11 0.605720 0.042351 0.567611
O O12 0.000000 0.000000 0.500000
O O13 0.762110 0.033141 0.163475
O O14 0.029086 0.892301 0.394933
O O15 0.145001 0.069440 0.947739
O O16 0.570386 0.891595 0.321310
O O17 0.500000 0.000000 0.000000
#
# Coordination Sequence:
#
# PCOD9083755 Si02
#       8
#     2   2   2   2   2   2   2   2
#     4  10  19  34  58  80 104 141 179 218 271 323
#     4  10  20  35  56  81 109 140 178 227 274 319
#     4   9  20  37  56  77 107 143 183 221 265 329
#     4  11  22  36  54  78 109 146 184 226 270 318
#     4   9  19  37  57  81 109 142 183 223 268 320
#     4   9  20  37  55  79 110 142 180 223 272 325
#     4  11  22  34  56  84 109 141 183 228 269 321
#     4  11  21  36  60  83 110 144 176 221 275 325
#
# _framework density 20.277301999999999
#
# number of rings (size 3 to 8) (size 9 to 14) (size 15 to 20)
#    0.000    2.000    0.000    4.875    0.000    4.000 
#    0.000    5.000    0.000   14.250    0.000    0.000 
#    0.000    0.000    0.000    0.000    0.000    0.000 
#
# Total GULP energy -89244.195393 kJ/mol
# GULP energy per Si atom -5577.762212 kJ/mol
# Density = 2.023115 g / cm^3
# Si number density = 20.277302 Si / 1000 Ang^3
#
#
#
# Elastic Constant Matrix: (Units=GPa)
#
#
# Indices 1 2 3 4 5 6 
#
# 1 84.1494 25.6065 24.1430 9.3541 -16.1912 -23.8249
# 2 25.6065 52.1725 22.9811 4.7898 -13.8960 -23.8355
# 3 24.1430 22.9811 79.5158 -0.6888 -18.3307 -7.7187
# 4 9.3541 4.7898 -0.6888 34.5853 -17.6519 -4.6871
# 5 -16.1912 -13.8960 -18.3307 -17.6519 30.2451 13.3281
# 6 -23.8249 -23.8355 -7.7187 -4.6871 13.3281 28.5269
#
#
#
# Elastic Compliance Matrix: (Units=1/GPa)
#
#
# Indices 1 2 3 4 5 6 
#
# 1 0.016947 -0.000960 -0.003993 -0.003500 -0.001241 0.012277
# 2 -0.000960 0.035011 -0.007778 -0.002315 -0.002438 0.027106
# 3 -0.003993 -0.007778 0.018667 0.009017 0.015514 -0.010550
# 4 -0.003500 -0.002315 0.009017 0.046463 0.034436 -0.010872
# 5 -0.001241 -0.002438 0.015514 0.034436 0.072774 -0.027219
# 6 0.012277 0.027106 -0.010550 -0.010872 -0.027219 0.076032
#
#
# Mechanical properties :
#
#
# Convention : Reuss Voigt Hill
#
# Bulk Modulus (GPa) = 22.14156 40.14432 31.14294
# Shear Modulus (GPa) = 16.31797 28.21193 22.26495
#
# Velocity S-wave (km/s) = 2.83987 3.73407 3.31724
# Velocity P-wave (km/s) = 4.65792 6.19933 5.48306
#
# Compressibility (1/GPa) = 0.04516394
#
# Stress axis : x y z
#
# Youngs Moduli (GPa) = 59.00636 28.56238 53.57056
#
# Poissons Ratio (x) = 0.02741 0.21391
# Poissons Ratio (y) = 0.05662 0.41668
# Poissons Ratio (z) = 0.23561 0.22216
#
# Static dielectric constant tensor:
#      x y z
#    x 1.749820 -0.016740 -0.011590 
#    y -0.016740 1.757850 0.017120 
#    z -0.011590 0.017120 1.758680 
# 
# From -- ./inp_files/307658.got.cif
#   From: 2010.05.17/outbox.cif.g08.bks.cpg/sg2_154_cif.got.tgz:307658.got - 2010.06.03 11:33:40.
