data_PCOD9083486
_publ_section_title
;
Structure prediction by ZEFSAII (Michael W. Deem and Ramdas Pophale) SiO2 
 PCOD9083486
Probable space group: P -1
;
_chemical_formula_sum "Si O2"
_cell_formula_units_Z 14
_cell_length_a 9.402218
_cell_length_b 11.617821
_cell_length_c 14.678343
_cell_angle_alpha 40.317316
_cell_angle_beta 139.692813
_cell_angle_gamma 140.363450
_cell_volume 599.048724
_symmetry_space_group_name_H-M "P -1"
_symmetry_group_IT_number 2
_symmetry_cell_setting 'triclinic'
loop_
_space_group_symop_operation_xyz
x,y,z
-x,-y,-z
loop_
_atom_site_type_symbol
_atom_site_label
_atom_site_fract_x
_atom_site_fract_y
_atom_site_fract_z
Si Si1 0.276816 0.816955 0.454854
Si Si2 0.279902 0.167814 0.029015
Si Si3 0.990762 0.238432 0.370877
Si Si4 0.699838 0.403459 0.228735
Si Si5 0.841594 0.806563 0.333225
Si Si6 0.449653 0.040044 0.806096
Si Si7 0.460281 0.654559 0.478995
O O1 0.232449 0.642130 0.610954
O O2 0.374687 0.772460 0.436734
O O3 0.026381 0.840722 0.319812
O O4 0.500000 0.000000 0.500000
O O5 0.449162 0.224682 0.170824
O O6 0.395475 0.082125 0.059349
O O7 0.305201 0.387239 0.891425
O O8 0.000000 0.000000 0.000000
O O9 0.985046 0.129930 0.529634
O O10 0.256882 0.306981 0.415120
O O11 0.906855 0.405580 0.258863
O O12 0.783928 0.091042 0.292618
O O13 0.670256 0.918437 0.186772
O O14 0.683773 0.573170 0.421092
O O15 0.580021 0.256395 0.690027
#
# Coordination Sequence:
#
# PCOD9083486 Si02
#       7
#     2   2   2   2   2   2   2
#     4  11  21  37  56  79 117 147 172 222 294 342
#     4  10  21  35  62  82 107 148 193 237 265 313
#     4   9  17  33  55  77 113 141 179 227 271 329
#     4   9  21  39  56  87 111 142 192 230 272 333
#     4  10  20  31  51  84 113 138 181 229 270 332
#     4  10  19  34  56  83 107 144 187 222 275 328
#     4  11  20  31  55  87 112 141 170 229 287 332
#
# _framework density 23.370387000000001
#
# number of rings (size 3 to 8) (size 9 to 14) (size 15 to 20)
#    0.000    2.000    0.000    7.286    6.000    0.000 
#    2.571    0.000    0.000   16.286    0.000    0.000 
#    0.000    0.000    0.000    0.000    0.000    0.000 
#
# Total GULP energy -78105.474910 kJ/mol
# GULP energy per Si atom -5578.962494 kJ/mol
# Density = 2.331719 g / cm^3
# Si number density = 23.370387 Si / 1000 Ang^3
#
#
#
# Elastic Constant Matrix: (Units=GPa)
#
#
# Indices 1 2 3 4 5 6 
#
# 1 176.4959 44.9087 48.9322 0.2940 54.1165 -4.8114
# 2 44.9087 106.9425 26.6190 -3.9430 26.8071 8.3254
# 3 48.9322 26.6190 86.9718 -11.5691 45.5526 -5.4992
# 4 0.2940 -3.9430 -11.5691 34.9913 -13.2537 12.8983
# 5 54.1165 26.8071 45.5526 -13.2537 53.0580 -2.4448
# 6 -4.8114 8.3254 -5.4992 12.8983 -2.4448 35.0648
#
#
#
# Elastic Compliance Matrix: (Units=1/GPa)
#
#
# Indices 1 2 3 4 5 6 
#
# 1 0.009130 -0.001856 -0.000150 -0.004916 -0.009343 0.002827
# 2 -0.001856 0.011447 -0.001031 0.001284 -0.002860 -0.003806
# 3 -0.000150 -0.001031 0.021159 -0.000720 -0.017552 0.002584
# 4 -0.004916 0.001284 -0.000720 0.039232 0.014114 -0.014539
# 5 -0.009343 -0.002860 -0.017552 0.014114 0.048178 -0.005188
# 6 0.002827 -0.003806 0.002584 -0.014539 -0.005188 0.035202
#
#
# Mechanical properties :
#
#
# Convention : Reuss Voigt Hill
#
# Bulk Modulus (GPa) = 28.04173 67.92555 47.98364
# Shear Modulus (GPa) = 27.42586 41.28617 34.35602
#
# Velocity S-wave (km/s) = 3.42940 4.20766 3.83830
# Velocity P-wave (km/s) = 5.26364 7.26180 6.34191
#
# Compressibility (1/GPa) = 0.03566114
#
# Stress axis : x y z
#
# Youngs Moduli (GPa) = 109.53287 87.35588 47.26102
#
# Poissons Ratio (x) = 0.16211 0.00710
# Poissons Ratio (y) = 0.20327 0.04875
# Poissons Ratio (z) = 0.01646 0.09010
#
# Static dielectric constant tensor:
#      x y z
#    x 1.906420 -0.016170 0.016290 
#    y -0.016170 1.964200 -0.002230 
#    z 0.016290 -0.002230 1.967890 
# 
# From -- ./inp_files/180294.got.cif
#   From: 2010.05.17/outbox.cif.g08.bks.cpg/sg2_91_cif.got.tgz:180294.got - 2010.06.03 11:33:40.
