data_PCOD9083524
_publ_section_title
;
Structure prediction by ZEFSAII (Michael W. Deem and Ramdas Pophale) SiO2 
 PCOD9083524
Probable space group: P -1
;
_chemical_formula_sum "Si O2"
_cell_formula_units_Z 15
_cell_length_a 15.283242
_cell_length_b 11.221602
_cell_length_c 5.867663
_cell_angle_alpha 100.562452
_cell_angle_beta 105.346628
_cell_angle_gamma 131.274614
_cell_volume 634.209023
_symmetry_space_group_name_H-M "P -1"
_symmetry_group_IT_number 2
_symmetry_cell_setting 'triclinic'
loop_
_space_group_symop_operation_xyz
x,y,z
-x,-y,-z
loop_
_atom_site_type_symbol
_atom_site_label
_atom_site_fract_x
_atom_site_fract_y
_atom_site_fract_z
Si Si1 0.616068 0.071437 0.930551
Si Si2 0.500000 0.500000 0.000000
Si Si3 0.171775 0.539558 0.661907
Si Si4 0.461912 0.221836 0.506229
Si Si5 0.912143 0.349117 0.694879
Si Si6 0.728889 0.787896 0.915348
Si Si7 0.708502 0.571188 0.515914
Si Si8 0.274349 0.023013 0.690895
O O1 0.716772 0.285018 0.034868
O O2 0.694303 0.045753 0.120691
O O3 0.500000 0.000000 0.000000
O O4 0.563293 0.944810 0.631168
O O5 0.610332 0.601742 0.904283
O O6 0.386877 0.447459 0.723180
O O7 0.171618 0.626332 0.471089
O O8 0.208974 0.443189 0.578838
O O9 0.021985 0.403407 0.614112
O O10 0.351009 0.195238 0.291975
O O11 0.606791 0.395419 0.553192
O O12 0.419417 0.206830 0.737286
O O13 0.815568 0.138992 0.611537
O O14 0.000000 0.500000 0.000000
O O15 0.795945 0.753877 0.790597
O O16 0.795799 0.935564 0.213379
#
# Coordination Sequence:
#
# PCOD9083524 Si02
#       8
#     2   1   2   2   2   2   2   2
#     4  10  19  35  53  89 122 147 187 246 303 360
#     4  10  20  36  58  86 126 162 192 238 296 364
#     4  10  22  40  60  88 123 153 199 250 291 356
#     4  10  19  34  56  85 122 155 189 238 300 357
#     4  10  22  43  63  84 114 162 206 247 294 346
#     4  10  20  35  54  85 120 157 195 237 297 354
#     4  11  21  36  59  90 125 158 194 244 303 359
#     4  10  21  36  60  83 116 163 197 242 299 356
#
# _framework density 23.651508
#
# number of rings (size 3 to 8) (size 9 to 14) (size 15 to 20)
#    0.000    1.867    1.333    4.000    0.000    2.667 
#    2.400    0.667    0.000    4.000    0.000    2.800 
#    0.000    0.000    0.000    0.000    0.000    0.000 
#
# Total GULP energy -83510.609760 kJ/mol
# GULP energy per Si atom -5567.373984 kJ/mol
# Density = 2.359768 g / cm^3
# Si number density = 23.651508 Si / 1000 Ang^3
#
#
#
# Elastic Constant Matrix: (Units=GPa)
#
#
# Indices 1 2 3 4 5 6 
#
# 1 95.4973 16.2926 35.7017 18.6494 -40.3364 -16.0033
# 2 16.2926 61.3362 6.2880 2.2384 -5.2831 -5.3524
# 3 35.7017 6.2880 86.1130 11.5615 -27.9960 -17.1108
# 4 18.6494 2.2384 11.5615 26.7684 -1.5290 -6.8403
# 5 -40.3364 -5.2831 -27.9960 -1.5290 34.4055 7.5876
# 6 -16.0033 -5.3524 -17.1108 -6.8403 7.5876 21.4328
#
#
#
# Elastic Compliance Matrix: (Units=1/GPa)
#
#
# Indices 1 2 3 4 5 6 
#
# 1 0.028175 -0.003865 0.002519 -0.017245 0.032612 0.005035
# 2 -0.003865 0.017304 -0.000194 0.001897 -0.002564 0.002793
# 3 0.002519 -0.000194 0.018264 -0.006480 0.015547 0.008841
# 4 -0.017245 0.001897 -0.006480 0.052634 -0.024610 0.007935
# 5 0.032612 -0.002564 0.015547 -0.024610 0.078344 0.000533
# 6 0.005035 0.002793 0.008841 0.007935 0.000533 0.060517
#
#
# Mechanical properties :
#
#
# Convention : Reuss Voigt Hill
#
# Bulk Modulus (GPa) = 16.48458 39.94567 28.21513
# Shear Modulus (GPa) = 17.95084 28.83229 23.39156
#
# Velocity S-wave (km/s) = 2.75793 3.49527 3.14826
# Velocity P-wave (km/s) = 4.13842 5.76326 5.01706
#
# Compressibility (1/GPa) = 0.06066273
#
# Stress axis : x y z
#
# Youngs Moduli (GPa) = 35.49223 57.79083 54.75360
#
# Poissons Ratio (x) = 0.22334 -0.13793
# Poissons Ratio (y) = 0.13717 0.01064
# Poissons Ratio (z) = -0.08941 0.01123
#
# Static dielectric constant tensor:
#      x y z
#    x 1.819750 0.032440 -0.005240 
#    y 0.032440 1.787070 -0.002710 
#    z -0.005240 -0.002710 2.040140 
# 
# From -- ./inp_files/69603.got.cif
#   From: 2010.05.17/outbox.cif.g08.bks.cpg/sg2_35_cif.got.tgz:69603.got - 2010.06.03 11:33:40.
