data_PCOD9083683
_publ_section_title
;
Structure prediction by ZEFSAII (Michael W. Deem and Ramdas Pophale) SiO2 
 PCOD9083683
Probable space group: P -1
;
_chemical_formula_sum "Si O2"
_cell_formula_units_Z 16
_cell_length_a 14.888802
_cell_length_b 14.655723
_cell_length_c 11.164361
_cell_angle_alpha 63.499588
_cell_angle_beta 66.103643
_cell_angle_gamma 20.759678
_cell_volume 772.192123
_symmetry_space_group_name_H-M "P -1"
_symmetry_group_IT_number 2
_symmetry_cell_setting 'triclinic'
loop_
_space_group_symop_operation_xyz
x,y,z
-x,-y,-z
loop_
_atom_site_type_symbol
_atom_site_label
_atom_site_fract_x
_atom_site_fract_y
_atom_site_fract_z
Si Si1 0.456436 0.690872 0.113302
Si Si2 0.965473 0.163384 0.484713
Si Si3 0.471808 0.754323 0.318059
Si Si4 0.433738 0.674462 0.879157
Si Si5 0.178255 0.236768 0.593678
Si Si6 0.933476 0.082773 0.231294
Si Si7 0.528822 0.866155 0.412172
Si Si8 0.842249 0.395167 0.659838
O O1 0.455431 0.773159 0.172569
O O2 0.716902 0.376926 0.170892
O O3 0.428405 0.749550 0.956029
O O4 0.207671 0.859272 0.173423
O O5 0.694584 0.458496 0.402909
O O6 0.948571 0.238170 0.577752
O O7 0.204874 0.972045 0.390646
O O8 0.030785 0.990259 0.608913
O O9 0.523599 0.813058 0.320037
O O10 0.179296 0.894284 0.813244
O O11 0.647965 0.511695 0.770130
O O12 0.500000 0.500000 0.000000
O O13 0.375674 0.108196 0.646758
O O14 0.000000 0.500000 0.500000
O O15 0.053359 0.254540 0.703340
O O16 0.274835 0.112103 0.482861
O O17 0.686257 0.638286 0.544634
#
# Coordination Sequence:
#
# PCOD9083683 Si02
#       8
#     2   2   2   2   2   2   2   2
#     4  11  24  39  55  80 114 165 204 234 290 347
#     4  11  21  35  57  85 113 152 192 250 305 339
#     4  11  22  36  56  84 122 153 187 235 300 375
#     4  10  22  40  58  82 117 161 209 253 277 326
#     4   9  17  32  58  87 115 141 182 241 309 359
#     4  11  22  40  57  80 112 152 211 260 289 325
#     4   9  18  34  54  90 118 142 183 241 312 352
#     4  10  19  34  57  86 115 150 196 244 297 337
#
# _framework density 20.720233
#
# number of rings (size 3 to 8) (size 9 to 14) (size 15 to 20)
#    0.000    1.750    1.250    4.875    0.000    4.000 
#    0.000    0.000    0.000    0.750    0.000    7.875 
#    0.000    0.000    0.000    0.000    0.000    0.000 
#
# Total GULP energy -89122.798795 kJ/mol
# GULP energy per Si atom -5570.174925 kJ/mol
# Density = 2.067307 g / cm^3
# Si number density = 20.720233 Si / 1000 Ang^3
#
#
#
# Elastic Constant Matrix: (Units=GPa)
#
#
# Indices 1 2 3 4 5 6 
#
# 1 89.8189 -14.1966 38.6087 11.2385 22.1418 -13.8156
# 2 -14.1966 78.8983 12.1641 2.6596 7.7611 -0.2151
# 3 38.6087 12.1641 41.3755 -3.2058 34.5483 8.6433
# 4 11.2385 2.6596 -3.2058 23.9577 3.2314 2.1212
# 5 22.1418 7.7611 34.5483 3.2314 38.4780 10.6297
# 6 -13.8156 -0.2151 8.6433 2.1212 10.6297 27.3832
#
#
#
# Elastic Compliance Matrix: (Units=1/GPa)
#
#
# Indices 1 2 3 4 5 6 
#
# 1 -0.111343 -0.052952 0.296509 0.129773 -0.177100 -0.091488
# 2 -0.052952 -0.011534 0.132209 0.058230 -0.079103 -0.042341
# 3 0.296509 0.132209 -0.669871 -0.314073 0.362692 0.245614
# 4 0.129773 0.058230 -0.314073 -0.100525 0.175036 0.104907
# 5 -0.177100 -0.079103 0.362692 0.175036 -0.152637 -0.158763
# 6 -0.091488 -0.042341 0.245614 0.104907 -0.158763 -0.033996
#
#
# Mechanical properties :
#
#
# Convention : Reuss Voigt Hill
#
# Bulk Modulus (GPa) = -24.26400 31.47168 3.60384
# Shear Modulus (GPa) = -2.70977 29.53152 13.41088
#
# Velocity S-wave (km/s) = -1.14483 3.77934 2.54684
# Velocity P-wave (km/s) = 3.67195 5.85375 3.22360
#
# Compressibility (1/GPa) = -0.04121333
#
# Stress axis : x y z
#
# Youngs Moduli (GPa) = -8.98127 -86.70167 -1.49283
#
# Poissons Ratio (x) = -4.59101 0.44264
# Poissons Ratio (y) = -0.47557 0.19737
# Poissons Ratio (z) = 2.66303 11.46277
#
# Static dielectric constant tensor:
#      x y z
#    x 1.900640 0.022090 0.018300 
#    y 0.022090 1.961630 -0.079460 
#    z 0.018300 -0.079460 1.748710 
# 
# From -- ./inp_files/455696.got.cif
#   From: 2010.05.17/outbox.cif.g08.bks.cpg/sg2_228_cif.got.tgz:455696.got - 2010.06.03 11:33:40.
