data_PCOD9083940
_publ_section_title
;
Structure prediction by ZEFSAII (Michael W. Deem and Ramdas Pophale) SiO2 
 PCOD9083940
Probable space group: P -1
;
_chemical_formula_sum "Si O2"
_cell_formula_units_Z 16
_cell_length_a 15.084166
_cell_length_b 11.793025
_cell_length_c 10.040579
_cell_angle_alpha 115.374074
_cell_angle_beta 47.470035
_cell_angle_gamma 77.397152
_cell_volume 769.071684
_symmetry_space_group_name_H-M "P -1"
_symmetry_group_IT_number 2
_symmetry_cell_setting 'triclinic'
loop_
_space_group_symop_operation_xyz
x,y,z
-x,-y,-z
loop_
_atom_site_type_symbol
_atom_site_label
_atom_site_fract_x
_atom_site_fract_y
_atom_site_fract_z
Si Si1 0.207816 0.297147 0.508529
Si Si2 0.440116 0.864664 0.084445
Si Si3 0.405034 0.696490 0.631265
Si Si4 0.915005 0.370213 0.740775
Si Si5 0.843994 0.043503 0.756551
Si Si6 0.172141 0.764317 0.709642
Si Si7 0.636244 0.511015 0.871502
Si Si8 0.219745 0.522018 0.776747
O O1 0.160760 0.434527 0.738211
O O2 0.021361 0.417919 0.672862
O O3 0.295621 0.094287 0.367472
O O4 0.377740 0.224477 0.217675
O O5 0.338740 0.836441 0.086056
O O6 0.516868 0.727491 0.061361
O O7 0.500000 0.500000 0.500000
O O8 0.348376 0.712068 0.546598
O O9 0.563124 0.669555 0.495249
O O10 0.219057 0.860433 0.988037
O O11 0.740293 0.471465 0.879837
O O12 0.874550 0.364002 0.931592
O O13 0.073100 0.158874 0.410559
O O14 0.000000 0.000000 0.500000
O O15 0.213257 0.652709 0.477637
O O16 0.174332 0.658795 0.774779
O O17 0.000000 0.000000 0.000000
O O18 0.500000 0.500000 0.000000
#
# Coordination Sequence:
#
# PCOD9083940 Si02
#       8
#     2   2   2   2   2   2   2   2
#     4  10  21  42  67  91 124 169 218 254 305 380
#     4  10  21  40  65  94 124 167 211 262 310 370
#     4  10  19  34  59  84 120 163 206 250 311 371
#     4  11  25  37  64  95 125 165 212 257 314 375
#     4  11  19  35  59  92 119 160 209 257 303 371
#     4  11  23  39  60  92 129 163 203 261 319 371
#     4  12  24  43  62  95 130 164 204 269 321 368
#     4  11  21  44  63  91 124 170 211 258 310 379
#
# _framework density 20.804303000000001
#
# number of rings (size 3 to 8) (size 9 to 14) (size 15 to 20)
#    0.000    1.250    2.500    4.875    0.000    2.500 
#    0.000    0.625    0.000    0.000    0.000    0.000 
#    0.000    0.000    0.000    0.000    0.000    0.000 
#
# Total GULP energy -89100.188646 kJ/mol
# GULP energy per Si atom -5568.761790 kJ/mol
# Density = 2.075695 g / cm^3
# Si number density = 20.804303 Si / 1000 Ang^3
#
#
#
# Elastic Constant Matrix: (Units=GPa)
#
#
# Indices 1 2 3 4 5 6 
#
# 1 181.2713 45.1915 39.9983 -3.9848 -8.6932 -1.6686
# 2 45.1915 74.9510 27.3560 9.5918 1.4366 -3.1593
# 3 39.9983 27.3560 77.4606 -6.4607 3.0620 -2.2066
# 4 -3.9848 9.5918 -6.4607 28.7168 6.4664 -2.0295
# 5 -8.6932 1.4366 3.0620 6.4664 46.5846 1.7320
# 6 -1.6686 -3.1593 -2.2066 -2.0295 1.7320 29.8516
#
#
#
# Elastic Compliance Matrix: (Units=1/GPa)
#
#
# Indices 1 2 3 4 5 6 
#
# 1 0.007015 -0.003593 -0.002302 0.001332 0.001392 -0.000148
# 2 -0.003593 0.018482 -0.005309 -0.007846 0.000167 0.000820
# 3 -0.002302 -0.005309 0.016569 0.005750 -0.002192 0.001052
# 4 0.001332 -0.007846 0.005750 0.040375 -0.005594 0.002739
# 5 0.001392 0.000167 -0.002192 -0.005594 0.022707 -0.001764
# 6 -0.000148 0.000820 0.001052 0.002739 -0.001764 0.033944
#
#
# Mechanical properties :
#
#
# Convention : Reuss Voigt Hill
#
# Bulk Modulus (GPa) = 50.86900 62.08604 56.47752
# Shear Modulus (GPa) = 29.75266 35.77306 32.76286
#
# Velocity S-wave (km/s) = 3.78580 4.15119 3.97269
# Velocity P-wave (km/s) = 6.60408 7.27215 6.94615
#
# Compressibility (1/GPa) = 0.01965834
#
# Stress axis : x y z
#
# Youngs Moduli (GPa) = 142.55544 54.10779 60.35186
#
# Poissons Ratio (x) = 0.19440 0.13890
# Poissons Ratio (y) = 0.51219 0.32043
# Poissons Ratio (z) = 0.32810 0.28728
#
# Static dielectric constant tensor:
#      x y z
#    x 1.862960 0.028880 -0.055170 
#    y 0.028880 1.711380 -0.048560 
#    z -0.055170 -0.048560 1.809360 
# 
# From -- ./inp_files/307908.got.cif
#   From: 2010.05.17/outbox.cif.g08.bks.cpg/sg2_154_cif.got.tgz:307908.got - 2010.06.03 11:33:40.
