data_PCOD9083240
_publ_section_title
;
Structure prediction by ZEFSAII (Michael W. Deem and Ramdas Pophale) SiO2 
 PCOD9083240
Probable space group: P -1
;
_chemical_formula_sum "Si O2"
_cell_formula_units_Z 14
_cell_length_a 23.244268
_cell_length_b 7.640781
_cell_length_c 9.513964
_cell_angle_alpha 133.663820
_cell_angle_beta 148.695295
_cell_angle_gamma 54.245822
_cell_volume 635.049434
_symmetry_space_group_name_H-M "P -1"
_symmetry_group_IT_number 2
_symmetry_cell_setting 'triclinic'
loop_
_space_group_symop_operation_xyz
x,y,z
-x,-y,-z
loop_
_atom_site_type_symbol
_atom_site_label
_atom_site_fract_x
_atom_site_fract_y
_atom_site_fract_z
Si Si1 0.495961 0.975730 0.729957
Si Si2 0.932419 0.695773 0.553861
Si Si3 0.160704 0.119898 0.793157
Si Si4 0.032558 0.279087 0.849623
Si Si5 0.656034 0.187368 0.417554
Si Si6 0.389882 0.257343 0.421806
Si Si7 0.127642 0.084205 0.191149
O O1 0.409463 0.866194 0.602312
O O2 0.532922 0.796546 0.582303
O O3 0.447305 0.195974 0.656177
O O4 0.595651 0.059732 0.087632
O O5 0.831838 0.776109 0.290131
O O6 0.000000 0.500000 0.500000
O O7 0.888535 0.680731 0.612557
O O8 0.016230 0.923099 0.862767
O O9 0.091880 0.318747 0.848012
O O10 0.282174 0.082374 0.083595
O O11 0.076332 0.890643 0.492300
O O12 0.000000 0.500000 0.000000
O O13 0.132730 0.156164 0.079211
O O14 0.652951 0.470868 0.532567
O O15 0.775876 0.075930 0.633740
#
# Coordination Sequence:
#
# PCOD9083240 Si02
#       7
#     2   2   2   2   2   2   2
#     4  10  24  41  61  91 121 156 213 255 303 370
#     4  10  19  34  53  81 114 146 187 239 287 349
#     4  10  21  35  57  86 114 152 201 236 290 366
#     4  10  21  38  56  85 125 157 189 244 296 353
#     4  11  22  41  62  88 124 160 201 259 308 352
#     4  11  22  41  65  88 120 163 202 255 309 356
#     4  10  21  34  56  85 114 152 199 236 290 363
#
# _framework density 22.045528999999998
#
# number of rings (size 3 to 8) (size 9 to 14) (size 15 to 20)
#    0.000    1.714    0.000    4.286    0.000    3.429 
#    0.000    8.571    0.000    0.000    0.000    0.000 
#    0.000    0.000    0.000    0.000    0.000    0.000 
#
# Total GULP energy -78030.119689 kJ/mol
# GULP energy per Si atom -5573.579978 kJ/mol
# Density = 2.199535 g / cm^3
# Si number density = 22.045529 Si / 1000 Ang^3
#
#
#
# Elastic Constant Matrix: (Units=GPa)
#
#
# Indices 1 2 3 4 5 6 
#
# 1 74.7694 2.5373 9.6902 -4.8133 -33.6465 9.9147
# 2 2.5373 76.1923 7.1097 -13.8530 -15.3819 1.2545
# 3 9.6902 7.1097 55.5880 -22.4244 -25.3400 10.9491
# 4 -4.8133 -13.8530 -22.4244 44.7395 1.1606 -13.8097
# 5 -33.6465 -15.3819 -25.3400 1.1606 25.9834 -6.4904
# 6 9.9147 1.2545 10.9491 -13.8097 -6.4904 29.7943
#
#
#
# Elastic Compliance Matrix: (Units=1/GPa)
#
#
# Indices 1 2 3 4 5 6 
#
# 1 -0.042189 -0.029610 -0.071610 -0.049783 -0.142922 -0.012607
# 2 -0.029610 -0.001165 -0.036292 -0.020567 -0.074116 -0.002439
# 3 -0.071610 -0.036292 -0.063041 -0.050016 -0.176747 -0.013160
# 4 -0.049783 -0.020567 -0.050016 -0.009925 -0.123922 0.004217
# 5 -0.142922 -0.074116 -0.176747 -0.123922 -0.362487 -0.020768
# 6 -0.012607 -0.002439 -0.013160 0.004217 -0.020768 0.040128
#
#
# Mechanical properties :
#
#
# Convention : Reuss Voigt Hill
#
# Bulk Modulus (GPa) = -2.62180 27.24715 12.31268
# Shear Modulus (GPa) = -17.19434 32.58427 7.69496
#
# Velocity S-wave (km/s) = -2.79578 3.84871 1.87031
# Velocity P-wave (km/s) = 3.40789 5.66889 3.20333
#
# Compressibility (1/GPa) = -0.38141759
#
# Stress axis : x y z
#
# Youngs Moduli (GPa) = -23.70302 -858.59930 -15.86276
#
# Poissons Ratio (x) = -25.42333 -1.13593
# Poissons Ratio (y) = -0.70185 -0.57569
# Poissons Ratio (z) = -1.69737 -31.16009
#
# Static dielectric constant tensor:
#      x y z
#    x 1.851750 0.001690 -0.039260 
#    y 0.001690 1.855650 -0.003330 
#    z -0.039260 -0.003330 1.796750 
# 
# From -- ./inp_files/352491.got.cif
#   From: 2010.05.17/outbox.cif.g08.bks.cpg/sg2_177_cif.got.tgz:352491.got - 2010.06.03 11:33:40.
