data_PCOD9083453
_publ_section_title
;
Structure prediction by ZEFSAII (Michael W. Deem and Ramdas Pophale) SiO2 
 PCOD9083453
Probable space group: P -1
;
_chemical_formula_sum "Si O2"
_cell_formula_units_Z 16
_cell_length_a 17.638340
_cell_length_b 30.266400
_cell_length_c 18.786493
_cell_angle_alpha 16.896796
_cell_angle_beta 162.912879
_cell_angle_gamma 165.340570
_cell_volume 672.757282
_symmetry_space_group_name_H-M "P -1"
_symmetry_group_IT_number 2
_symmetry_cell_setting 'triclinic'
loop_
_space_group_symop_operation_xyz
x,y,z
-x,-y,-z
loop_
_atom_site_type_symbol
_atom_site_label
_atom_site_fract_x
_atom_site_fract_y
_atom_site_fract_z
Si Si1 0.130236 0.755671 0.420179
Si Si2 0.349785 0.265510 0.063846
Si Si3 0.387828 0.811643 0.838037
Si Si4 0.031266 0.857712 0.328535
Si Si5 0.277049 0.738071 0.102445
Si Si6 0.141127 0.139530 0.478558
Si Si7 0.573901 0.372389 0.722933
Si Si8 0.079248 0.987396 0.806001
O O1 0.271904 0.638731 0.734211
O O2 0.120664 0.836067 0.363536
O O3 0.401482 0.959508 0.307535
O O4 0.793238 0.647169 0.242793
O O5 0.224487 0.077014 0.192655
O O6 0.171512 0.195414 0.088914
O O7 0.149671 0.768457 0.626664
O O8 0.240718 0.682084 0.976515
O O9 0.657077 0.781219 0.105834
O O10 0.273071 0.587392 0.280378
O O11 0.477118 0.763392 0.313201
O O12 0.563344 0.947366 0.997266
O O13 0.955009 0.720720 0.836035
O O14 0.970268 0.018582 0.585300
O O15 0.000000 0.000000 0.500000
O O16 0.500000 0.500000 0.500000
O O17 0.208504 0.169621 0.692687
#
# Coordination Sequence:
#
# PCOD9083453 Si02
#       8
#     2   2   2   2   2   2   2   2
#     4  10  17  25  39  55  77 104 141 174 208 245
#     4  10  16  24  38  54  80 100 136 172 201 239
#     4  10  17  26  40  53  78 102 145 181 198 236
#     4  10  17  26  39  55  75 104 144 175 209 243
#     4   8  18  27  44  59  81 104 144 175 215 250
#     4   9  17  29  45  61  79 103 142 181 222 261
#     4   9  18  32  44  61  86 120 153 188 210 233
#     4   8  19  26  44  58  85 108 146 177 209 245
#
# _framework density 23.782724000000002
#
# number of rings (size 3 to 8) (size 9 to 14) (size 15 to 20)
#    1.500    1.000    2.500    4.125    5.250    0.000 
#    0.000    5.625    0.000    0.000    0.000    0.000 
#    0.000    0.000    0.000    0.000    0.000   98.750 
#
# Total GULP energy -89127.593600 kJ/mol
# GULP energy per Si atom -5570.474600 kJ/mol
# Density = 2.372859 g / cm^3
# Si number density = 23.782724 Si / 1000 Ang^3
#
#
#
# Elastic Constant Matrix: (Units=GPa)
#
#
# Indices 1 2 3 4 5 6 
#
# 1 54.9713 28.3239 45.5558 9.4559 -22.3067 -15.8686
# 2 28.3239 43.3712 32.6980 27.4088 -7.4613 -5.8621
# 3 45.5558 32.6980 155.4274 47.9136 -25.9882 -9.8078
# 4 9.4559 27.4088 47.9136 44.1188 3.2463 -4.2719
# 5 -22.3067 -7.4613 -25.9882 3.2463 35.5976 11.7186
# 6 -15.8686 -5.8621 -9.8078 -4.2719 11.7186 27.4763
#
#
#
# Elastic Compliance Matrix: (Units=1/GPa)
#
#
# Indices 1 2 3 4 5 6 
#
# 1 0.053002 -0.039311 -0.014522 0.030346 0.005167 0.019554
# 2 -0.039311 0.071739 0.013501 -0.053009 0.010070 -0.015115
# 3 -0.014522 0.013501 0.017020 -0.025366 0.011145 -0.008128
# 4 0.030346 -0.053009 -0.025366 0.080401 -0.024577 0.020144
# 5 0.005167 0.010070 0.011145 -0.024577 0.048949 -0.015587
# 6 0.019554 -0.015115 -0.008128 0.020144 -0.015587 0.051342
#
#
# Mechanical properties :
#
#
# Convention : Reuss Voigt Hill
#
# Bulk Modulus (GPa) = 16.36706 51.88057 34.12381
# Shear Modulus (GPa) = 11.80683 31.25134 21.52909
#
# Velocity S-wave (km/s) = 2.23052 3.62890 3.01199
# Velocity P-wave (km/s) = 3.67838 6.27856 5.14542
#
# Compressibility (1/GPa) = 0.06109834
#
# Stress axis : x y z
#
# Youngs Moduli (GPa) = 18.86716 13.93933 58.75391
#
# Poissons Ratio (x) = 0.54797 0.85322
# Poissons Ratio (y) = 0.74168 -0.79323
# Poissons Ratio (z) = 0.27399 -0.18819
#
# Static dielectric constant tensor:
#      x y z
#    x 1.983050 0.124850 -0.038980 
#    y 0.124850 2.020690 -0.011570 
#    z -0.038980 -0.011570 2.022070 
# 
# From -- ./inp_files/576438.got.cif
#   From: 2010.05.17/outbox.cif.g08.bks.cpg/sg2_289_cif.got.tgz:576438.got - 2010.06.03 11:33:40.
