data_PCOD9083598
_publ_section_title
;
Structure prediction by ZEFSAII (Michael W. Deem and Ramdas Pophale) SiO2 
 PCOD9083598
Probable space group: P -1
;
_chemical_formula_sum "Si O2"
_cell_formula_units_Z 14
_cell_length_a 7.893611
_cell_length_b 7.797592
_cell_length_c 11.926248
_cell_angle_alpha 51.928525
_cell_angle_beta 98.579043
_cell_angle_gamma 82.358331
_cell_volume 547.045531
_symmetry_space_group_name_H-M "P -1"
_symmetry_group_IT_number 2
_symmetry_cell_setting 'triclinic'
loop_
_space_group_symop_operation_xyz
x,y,z
-x,-y,-z
loop_
_atom_site_type_symbol
_atom_site_label
_atom_site_fract_x
_atom_site_fract_y
_atom_site_fract_z
Si Si1 0.480511 0.554646 0.320105
Si Si2 0.828622 0.004436 0.902952
Si Si3 0.979815 0.658459 0.544297
Si Si4 0.042617 0.939088 0.746709
Si Si5 0.579606 0.331819 0.175476
Si Si6 0.229238 0.231397 0.806228
Si Si7 0.561626 0.883737 0.434575
O O1 0.511478 0.455369 0.236070
O O2 0.623810 0.695896 0.281403
O O3 0.514216 0.332641 0.491335
O O4 0.286294 0.736784 0.236683
O O5 0.902492 0.884268 0.840852
O O6 0.715641 0.888766 0.020488
O O7 0.000000 0.000000 0.000000
O O8 0.774780 0.771165 0.507182
O O9 0.000000 0.500000 0.500000
O O10 0.081471 0.472203 0.717714
O O11 0.051818 0.871243 0.431578
O O12 0.204327 0.748509 0.784346
O O13 0.147406 0.071075 0.785901
O O14 0.521850 0.098289 0.261383
O O15 0.500000 0.500000 0.000000
O O16 0.500000 0.000000 0.500000
#
# Coordination Sequence:
#
# PCOD9083598 Si02
#       7
#     2   2   2   2   2   2   2
#     4  11  21  36  56  83 111 140 182 229 268 316
#     4  10  19  34  57  81 107 147 184 215 265 333
#     4   9  17  34  55  75 104 142 180 216 262 325
#     4   9  19  37  57  79 106 145 184 218 267 330
#     4  10  20  36  57  80 107 142 180 222 269 325
#     4  10  20  34  57  84 109 140 182 231 269 309
#     4   9  19  35  55  78 106 144 183 213 265 338
#
# _framework density 25.592019000000001
#
# number of rings (size 3 to 8) (size 9 to 14) (size 15 to 20)
#    0.000    2.286    0.000    4.714    0.000    1.143 
#    0.000   20.000    0.000    5.143    0.000    0.000 
#    0.000    0.000    0.000    0.000    0.000    0.000 
#
# Total GULP energy -78290.735616 kJ/mol
# GULP energy per Si atom -5592.195401 kJ/mol
# Density = 2.553377 g / cm^3
# Si number density = 25.592019 Si / 1000 Ang^3
#
#
#
# Elastic Constant Matrix: (Units=GPa)
#
#
# Indices 1 2 3 4 5 6 
#
# 1 96.6563 26.0901 24.6783 -8.4352 -5.9489 -22.1577
# 2 26.0901 104.4818 37.0067 -6.2325 4.0712 -12.1727
# 3 24.6783 37.0067 171.6515 -17.0493 -11.4174 -6.1220
# 4 -8.4352 -6.2325 -17.0493 24.2978 -14.4722 -3.0281
# 5 -5.9489 4.0712 -11.4174 -14.4722 46.8535 -6.8668
# 6 -22.1577 -12.1727 -6.1220 -3.0281 -6.8668 48.5096
#
#
#
# Elastic Compliance Matrix: (Units=1/GPa)
#
#
# Indices 1 2 3 4 5 6 
#
# 1 0.013622 -0.002305 -0.000030 0.008248 0.005486 0.006931
# 2 -0.002305 0.011100 -0.002168 -0.000349 -0.001718 0.001194
# 3 -0.000030 -0.002168 0.007396 0.007501 0.004521 0.001484
# 4 0.008248 -0.000349 0.007501 0.065587 0.024960 0.012254
# 5 0.005486 -0.001718 0.004521 0.024960 0.032286 0.008774
# 6 0.006931 0.001194 0.001484 0.012254 0.008774 0.026274
#
#
# Mechanical properties :
#
#
# Convention : Reuss Voigt Hill
#
# Bulk Modulus (GPa) = 43.26805 60.92662 52.09734
# Shear Modulus (GPa) = 28.90566 42.93315 35.91940
#
# Velocity S-wave (km/s) = 3.36442 4.10029 3.75045
# Velocity P-wave (km/s) = 5.66003 6.80258 6.25744
#
# Compressibility (1/GPa) = 0.02311174
#
# Stress axis : x y z
#
# Youngs Moduli (GPa) = 73.40892 90.09203 135.20446
#
# Poissons Ratio (x) = 0.20768 0.00407
# Poissons Ratio (y) = 0.16922 0.29312
# Poissons Ratio (z) = 0.00221 0.19532
#
# Static dielectric constant tensor:
#      x y z
#    x 2.096000 0.069570 -0.016500 
#    y 0.069570 2.085190 0.067360 
#    z -0.016500 0.067360 2.102010 
# 
# From -- ./inp_files/391464.got.cif
#   From: 2010.05.17/outbox.cif.g08.bks.cpg/sg2_196_cif.got.tgz:391464.got - 2010.06.03 11:33:40.
