data_PCOD9083654
_publ_section_title
;
Structure prediction by ZEFSAII (Michael W. Deem and Ramdas Pophale) SiO2 
 PCOD9083654
Probable space group: P -1
;
_chemical_formula_sum "Si O2"
_cell_formula_units_Z 16
_cell_length_a 9.953572
_cell_length_b 13.055177
_cell_length_c 13.457866
_cell_angle_alpha 138.132747
_cell_angle_beta 45.215362
_cell_angle_gamma 147.129676
_cell_volume 618.222087
_symmetry_space_group_name_H-M "P -1"
_symmetry_group_IT_number 2
_symmetry_cell_setting 'triclinic'
loop_
_space_group_symop_operation_xyz
x,y,z
-x,-y,-z
loop_
_atom_site_type_symbol
_atom_site_label
_atom_site_fract_x
_atom_site_fract_y
_atom_site_fract_z
Si Si1 0.564155 0.165859 0.726592
Si Si2 0.567239 0.025893 0.097286
Si Si3 0.734131 0.836111 0.638545
Si Si4 0.052421 0.849299 0.882204
Si Si5 0.767608 0.428275 0.998388
Si Si6 0.610877 0.573951 0.339737
Si Si7 0.187739 0.982621 0.622725
Si Si8 0.840668 0.567054 0.629540
O O1 0.710207 0.096520 0.559505
O O2 0.324827 0.970443 0.773271
O O3 0.418761 0.161164 0.702731
O O4 0.743040 0.368648 0.850628
O O5 0.405720 0.083377 0.263395
O O6 0.866844 0.173650 0.069778
O O7 0.465116 0.803430 0.014769
O O8 0.500000 0.000000 0.000000
O O9 0.785276 0.752373 0.457482
O O10 0.535702 0.636344 0.670074
O O11 0.999875 0.995799 0.673192
O O12 0.830560 0.631803 0.791585
O O13 0.000000 0.000000 0.000000
O O14 0.710064 0.558663 0.173730
O O15 0.000000 0.500000 0.000000
O O16 0.407580 0.587964 0.417526
O O17 0.995029 0.784842 0.651081
O O18 0.000000 0.500000 0.500000
#
# Coordination Sequence:
#
# PCOD9083654 Si02
#       8
#     2   2   2   2   2   2   2   2
#     4   9  19  36  58  81 112 157 203 235 293 370
#     4  11  22  38  61  93 118 153 213 250 286 363
#     4  10  20  36  60  89 116 154 204 252 298 354
#     4  10  21  36  60  83 116 157 195 243 296 351
#     4  11  22  39  59  86 123 159 193 249 314 358
#     4  10  20  36  58  85 121 157 194 248 307 357
#     4   9  19  36  59  84 116 159 199 245 304 356
#     4  10  19  34  57  84 112 150 199 243 293 350
#
# _framework density 25.880666999999999
#
# number of rings (size 3 to 8) (size 9 to 14) (size 15 to 20)
#    0.000    2.000    1.250    3.000    3.500    0.000 
#    2.250    9.375    0.000    2.250    0.000    0.000 
#    0.000    0.000    0.000    0.000    0.000    0.000 
#
# Total GULP energy -89250.945836 kJ/mol
# GULP energy per Si atom -5578.184115 kJ/mol
# Density = 2.582176 g / cm^3
# Si number density = 25.880667 Si / 1000 Ang^3
#
#
#
# Elastic Constant Matrix: (Units=GPa)
#
#
# Indices 1 2 3 4 5 6 
#
# 1 164.0235 18.8058 58.8126 20.5826 3.1345 39.2755
# 2 18.8058 59.5067 21.5994 26.3264 11.9236 13.3729
# 3 58.8126 21.5994 150.3793 25.7932 23.0440 20.4185
# 4 20.5826 26.3264 25.7932 34.0053 6.0690 2.0945
# 5 3.1345 11.9236 23.0440 6.0690 53.3850 5.1968
# 6 39.2755 13.3729 20.4185 2.0945 5.1968 40.2660
#
#
#
# Elastic Compliance Matrix: (Units=1/GPa)
#
#
# Indices 1 2 3 4 5 6 
#
# 1 0.009286 0.001702 -0.002059 -0.005098 0.001370 -0.008491
# 2 0.001702 0.029086 0.001026 -0.023087 -0.003422 -0.010197
# 3 -0.002059 0.001026 0.009078 -0.005732 -0.003158 -0.002230
# 4 -0.005098 -0.023087 -0.005732 0.053831 0.000577 0.012673
# 5 0.001370 -0.003422 -0.003158 0.000577 0.020842 -0.001318
# 6 -0.008491 -0.010197 -0.002230 0.012673 -0.001318 0.037145
#
#
# Mechanical properties :
#
#
# Convention : Reuss Voigt Hill
#
# Bulk Modulus (GPa) = 20.49725 63.59388 42.04556
# Shear Modulus (GPa) = 28.70374 43.84406 36.27390
#
# Velocity S-wave (km/s) = 3.33390 4.12039 3.74783
# Velocity P-wave (km/s) = 4.77042 6.87475 5.91689
#
# Compressibility (1/GPa) = 0.04878703
#
# Stress axis : x y z
#
# Youngs Moduli (GPa) = 107.68325 34.38078 110.16070
#
# Poissons Ratio (x) = -0.05851 0.22681
# Poissons Ratio (y) = -0.18324 -0.11298
# Poissons Ratio (z) = 0.22171 -0.03526
#
# Static dielectric constant tensor:
#      x y z
#    x 1.945210 0.120690 -0.000350 
#    y 0.120690 2.091290 -0.105970 
#    z -0.000350 -0.105970 2.103820 
# 
# From -- ./inp_files/262680.got.cif
#   From: 2010.05.17/outbox.cif.g08.bks.cpg/sg2_132_cif.got.tgz:262680.got - 2010.06.03 11:33:40.
