data_PCOD9083948
_publ_section_title
;
Structure prediction by ZEFSAII (Michael W. Deem and Ramdas Pophale) SiO2 
 PCOD9083948
Probable space group: P -1
;
_chemical_formula_sum "Si O2"
_cell_formula_units_Z 16
_cell_length_a 16.563010
_cell_length_b 10.927293
_cell_length_c 5.103150
_cell_angle_alpha 49.901262
_cell_angle_beta 110.246664
_cell_angle_gamma 117.258236
_cell_volume 626.275152
_symmetry_space_group_name_H-M "P -1"
_symmetry_group_IT_number 2
_symmetry_cell_setting 'triclinic'
loop_
_space_group_symop_operation_xyz
x,y,z
-x,-y,-z
loop_
_atom_site_type_symbol
_atom_site_label
_atom_site_fract_x
_atom_site_fract_y
_atom_site_fract_z
Si Si1 0.998966 0.812653 0.442988
Si Si2 0.560653 0.927981 0.357939
Si Si3 0.798130 0.959065 0.664438
Si Si4 0.915335 0.407960 0.350240
Si Si5 0.240010 0.874710 0.132417
Si Si6 0.122082 0.276243 0.091035
Si Si7 0.617125 0.248960 0.294082
Si Si8 0.565033 0.565456 0.732257
O O1 0.938127 0.831318 0.589816
O O2 0.090880 0.966376 0.274489
O O3 0.046370 0.669383 0.743542
O O4 0.937093 0.748318 0.207630
O O5 0.488775 0.829824 0.633972
O O6 0.594290 0.775158 0.490240
O O7 0.626661 0.108194 0.292472
O O8 0.500000 0.000000 0.000000
O O9 0.747196 0.969390 0.861655
O O10 0.790188 0.773901 0.808771
O O11 0.776799 0.063549 0.256067
O O12 0.848938 0.258162 0.654592
O O13 0.000000 0.500000 0.500000
O O14 0.860997 0.534442 0.050117
O O15 0.316159 0.782722 0.364336
O O16 0.629584 0.443914 0.970986
O O17 0.500000 0.500000 0.500000
O O18 0.500000 0.500000 0.000000
#
# Coordination Sequence:
#
# PCOD9083948 Si02
#       8
#     2   2   2   2   2   2   2   2
#     4  10  19  34  59  85 110 152 202 261 311 363
#     4  10  20  39  72  96 127 166 213 259 313 382
#     4  11  22  38  57  84 120 157 199 252 316 367
#     4   9  20  38  59  84 115 161 207 250 305 367
#     4  11  25  41  58  84 128 167 197 253 318 366
#     4  11  20  34  60  85 111 146 212 262 298 362
#     4  10  23  41  63  96 132 169 211 260 319 380
#     4  10  20  37  65  99 127 161 209 253 309 380
#
# _framework density 25.547874
#
# number of rings (size 3 to 8) (size 9 to 14) (size 15 to 20)
#    0.000    1.750    1.250    4.125    1.750    3.000 
#    2.250    0.000    0.000    0.000    0.000    0.000 
#    0.000    0.000    0.000    0.000    0.000    0.000 
#
# Total GULP energy -89182.508248 kJ/mol
# GULP energy per Si atom -5573.906766 kJ/mol
# Density = 2.548973 g / cm^3
# Si number density = 25.547874 Si / 1000 Ang^3
#
#
#
# Elastic Constant Matrix: (Units=GPa)
#
#
# Indices 1 2 3 4 5 6 
#
# 1 76.5849 21.0133 7.2804 -3.5800 12.3996 -22.2076
# 2 21.0133 103.7488 34.8173 -39.3876 14.2075 -12.3573
# 3 7.2804 34.8173 100.4074 -24.4409 22.6291 -8.8265
# 4 -3.5800 -39.3876 -24.4409 68.0153 -18.5618 -0.2360
# 5 12.3996 14.2075 22.6291 -18.5618 41.1570 -8.4367
# 6 -22.2076 -12.3573 -8.8265 -0.2360 -8.4367 30.7168
#
#
#
# Elastic Compliance Matrix: (Units=1/GPa)
#
#
# Indices 1 2 3 4 5 6 
#
# 1 0.017266 -0.002486 0.001035 -0.000970 -0.003112 0.010918
# 2 -0.002486 0.014173 -0.002963 0.007453 0.001573 0.003542
# 3 0.001035 -0.002963 0.012591 0.001451 -0.005197 0.001758
# 4 -0.000970 0.007453 0.001451 0.021605 0.007689 0.004992
# 5 -0.003112 0.001573 -0.005197 0.007689 0.032204 0.005794
# 6 0.010918 0.003542 0.001758 0.004992 0.005794 0.044009
#
#
# Mechanical properties :
#
#
# Convention : Reuss Voigt Hill
#
# Bulk Modulus (GPa) = 28.40864 45.21813 36.81338
# Shear Modulus (GPa) = 30.78648 42.48650 36.63649
#
# Velocity S-wave (km/s) = 3.47515 4.08243 3.79097
# Velocity P-wave (km/s) = 5.21978 6.32135 5.79679
#
# Compressibility (1/GPa) = 0.03520056
#
# Stress axis : x y z
#
# Youngs Moduli (GPa) = 57.91893 70.55799 79.42287
#
# Poissons Ratio (x) = 0.17542 -0.08221
# Poissons Ratio (y) = 0.14400 0.23535
# Poissons Ratio (z) = -0.05995 0.20908
#
# Static dielectric constant tensor:
#      x y z
#    x 2.072860 -0.000410 0.080010 
#    y -0.000410 2.233220 -0.170120 
#    z 0.080010 -0.170120 2.181460 
# 
# From -- ./inp_files/108796.got.cif
#   From: 2010.05.17/outbox.cif.g08.bks.cpg/sg2_55_cif.got.tgz:108796.got - 2010.06.03 11:33:40.
