data_PCOD9083514
_publ_section_title
;
Structure prediction by ZEFSAII (Michael W. Deem and Ramdas Pophale) SiO2 
 PCOD9083514
Probable space group: P -1
;
_chemical_formula_sum "Si O2"
_cell_formula_units_Z 14
_cell_length_a 9.804036
_cell_length_b 18.769960
_cell_length_c 11.232508
_cell_angle_alpha 138.782506
_cell_angle_beta 38.673363
_cell_angle_gamma 152.040405
_cell_volume 591.589357
_symmetry_space_group_name_H-M "P -1"
_symmetry_group_IT_number 2
_symmetry_cell_setting 'triclinic'
loop_
_space_group_symop_operation_xyz
x,y,z
-x,-y,-z
loop_
_atom_site_type_symbol
_atom_site_label
_atom_site_fract_x
_atom_site_fract_y
_atom_site_fract_z
Si Si1 0.142776 0.854772 0.711118
Si Si2 0.709381 0.368206 0.883703
Si Si3 0.634526 0.806095 0.644752
Si Si4 0.685769 0.521654 0.515227
Si Si5 0.455969 0.016357 0.187483
Si Si6 0.843509 0.295570 0.946274
Si Si7 0.750133 0.939813 0.303532
O O1 0.447427 0.897749 0.506579
O O2 0.831477 0.672900 0.679279
O O3 0.244436 0.909385 0.845391
O O4 0.125278 0.952980 0.763410
O O5 0.396783 0.226422 0.847220
O O6 0.001723 0.425968 0.681145
O O7 0.820348 0.529138 0.039888
O O8 0.719068 0.301984 0.915856
O O9 0.531122 0.646519 0.488623
O O10 0.391866 0.751629 0.848038
O O11 0.588040 0.870730 0.647266
O O12 0.972932 0.951924 0.654111
O O13 0.500000 0.500000 0.500000
O O14 0.181642 0.842745 0.208190
O O15 0.500000 0.000000 0.000000
#
# Coordination Sequence:
#
# PCOD9083514 Si02
#       7
#     2   2   2   2   2   2   2
#     4  10  20  35  58  78 115 144 176 228 279 318
#     4   9  18  33  55  80 106 142 180 228 276 309
#     4  10  21  34  55  83 112 141 185 220 269 333
#     4  10  19  34  56  85 110 134 186 234 270 318
#     4  10  21  38  53  78 114 153 177 216 276 332
#     4   9  18  35  54  75 109 150 178 222 268 321
#     4  10  19  34  56  87 105 138 187 232 271 315
#
# _framework density 23.665061999999999
#
# number of rings (size 3 to 8) (size 9 to 14) (size 15 to 20)
#    0.000    2.286    2.857    0.000    0.000    1.714 
#    0.000    0.714    0.000    0.000    0.000    0.000 
#    0.000    0.000    0.000    0.000    0.000    0.000 
#
# Total GULP energy -78261.631605 kJ/mol
# GULP energy per Si atom -5590.116543 kJ/mol
# Density = 2.361120 g / cm^3
# Si number density = 23.665062 Si / 1000 Ang^3
#
#
#
# Elastic Constant Matrix: (Units=GPa)
#
#
# Indices 1 2 3 4 5 6 
#
# 1 65.7636 55.6519 2.9215 0.9499 7.5962 0.5592
# 2 55.6519 216.0278 44.4236 23.1782 -8.2305 1.0332
# 3 2.9215 44.4236 54.9342 3.6134 9.6295 1.5274
# 4 0.9499 23.1782 3.6134 46.1281 2.2344 -7.4639
# 5 7.5962 -8.2305 9.6295 2.2344 31.5293 7.4547
# 6 0.5592 1.0332 1.5274 -7.4639 7.4547 40.2136
#
#
#
# Elastic Compliance Matrix: (Units=1/GPa)
#
#
# Indices 1 2 3 4 5 6 
#
# 1 0.022980 -0.008191 0.006937 0.003992 -0.010629 0.002339
# 2 -0.008191 0.009157 -0.007947 -0.004512 0.007599 -0.002066
# 3 0.006937 -0.007947 0.026202 0.002708 -0.012392 0.001912
# 4 0.003992 -0.004512 0.002708 0.024868 -0.006077 0.005700
# 5 -0.010629 0.007599 -0.012392 -0.006077 0.042506 -0.008584
# 6 0.002339 -0.002066 0.001912 0.005700 -0.008584 0.027464
#
#
# Mechanical properties :
#
#
# Convention : Reuss Voigt Hill
#
# Bulk Modulus (GPa) = 25.03939 60.30219 42.67079
# Shear Modulus (GPa) = 27.04288 39.15611 33.09950
#
# Velocity S-wave (km/s) = 3.38410 4.07209 3.74393
# Velocity P-wave (km/s) = 5.08658 6.90261 6.06297
#
# Compressibility (1/GPa) = 0.03993708
#
# Stress axis : x y z
#
# Youngs Moduli (GPa) = 43.51703 109.20729 38.16459
#
# Poissons Ratio (x) = 0.89451 -0.26476
# Poissons Ratio (y) = 0.35644 0.30330
# Poissons Ratio (z) = -0.30189 0.86788
#
# Static dielectric constant tensor:
#      x y z
#    x 1.839220 0.000160 -0.044270 
#    y 0.000160 1.890020 0.013940 
#    z -0.044270 0.013940 2.069620 
# 
# From -- ./inp_files/153792.got.cif
#   From: 2010.05.17/outbox.cif.g08.bks.cpg/sg2_77_cif.got.tgz:153792.got - 2010.06.03 11:33:40.
