data_PCOD9083642
_publ_section_title
;
Structure prediction by ZEFSAII (Michael W. Deem and Ramdas Pophale) SiO2 
 PCOD9083642
Probable space group: P -1
;
_chemical_formula_sum "Si O2"
_cell_formula_units_Z 16
_cell_length_a 5.429614
_cell_length_b 26.749490
_cell_length_c 18.288165
_cell_angle_alpha 20.238580
_cell_angle_beta 78.010099
_cell_angle_gamma 81.371091
_cell_volume 890.860812
_symmetry_space_group_name_H-M "P -1"
_symmetry_group_IT_number 2
_symmetry_cell_setting 'triclinic'
loop_
_space_group_symop_operation_xyz
x,y,z
-x,-y,-z
loop_
_atom_site_type_symbol
_atom_site_label
_atom_site_fract_x
_atom_site_fract_y
_atom_site_fract_z
Si Si1 0.711111 0.942316 0.619119
Si Si2 0.322736 0.599924 0.944806
Si Si3 0.754708 0.621567 0.011902
Si Si4 0.754325 0.082773 0.908997
Si Si5 0.880337 0.724881 0.623215
Si Si6 0.403374 0.073830 0.733674
Si Si7 0.285243 0.690486 0.517949
Si Si8 0.733976 0.123524 0.513589
O O1 0.500000 0.000000 0.500000
O O2 0.688427 0.007089 0.612434
O O3 0.696627 0.768945 0.851608
O O4 0.000000 0.000000 0.500000
O O5 0.390634 0.734870 0.699815
O O6 0.552719 0.597441 0.990774
O O7 0.261245 0.439348 0.133998
O O8 0.054585 0.631777 0.956209
O O9 0.689156 0.477544 0.263183
O O10 0.500000 0.000000 0.000000
O O11 0.306620 0.930847 0.982165
O O12 0.802790 0.232852 0.654634
O O13 0.000000 0.000000 0.000000
O O14 0.776154 0.855158 0.407714
O O15 0.099371 0.691215 0.598322
O O16 0.985744 0.797128 0.593189
O O17 0.473824 0.204054 0.609693
O O18 0.633891 0.056036 0.689581
#
# Coordination Sequence:
#
# PCOD9083642 Si02
#       8
#     2   2   2   2   2   2   2   2
#     4  12  24  42  58  78 109 154 203 237 269 323
#     4  11  22  37  56  81 116 149 185 228 283 339
#     4  11  21  38  59  81 109 150 195 235 272 326
#     4  10  19  34  57  83 115 147 178 226 281 341
#     4  10  20  34  53  84 118 148 180 225 287 347
#     4  10  20  34  54  83 118 143 185 224 288 339
#     4   9  19  35  56  84 114 145 184 230 281 339
#     4  11  24  35  54  81 114 157 185 235 278 333
#
# _framework density 17.960158
#
# number of rings (size 3 to 8) (size 9 to 14) (size 15 to 20)
#    0.000    1.500    5.000    0.375    3.500    0.500 
#    0.000    0.000    0.000    0.750    0.000    0.875 
#    0.000    0.000    0.000    0.000    0.000    0.000 
#
# Total GULP energy -89085.925875 kJ/mol
# GULP energy per Si atom -5567.870367 kJ/mol
# Density = 1.791928 g / cm^3
# Si number density = 17.960158 Si / 1000 Ang^3
#
#
#
# Elastic Constant Matrix: (Units=GPa)
#
#
# Indices 1 2 3 4 5 6 
#
# 1 84.0746 24.5715 27.2193 3.6742 8.6783 9.2402
# 2 24.5715 102.6430 63.6988 -7.9464 -1.4311 8.1572
# 3 27.2193 63.6988 134.8267 13.8932 10.7608 9.6274
# 4 3.6742 -7.9464 13.8932 36.2697 -2.4179 -1.4709
# 5 8.6783 -1.4311 10.7608 -2.4179 27.4931 4.4517
# 6 9.2402 8.1572 9.6274 -1.4709 4.4517 22.7153
#
#
#
# Elastic Compliance Matrix: (Units=1/GPa)
#
#
# Indices 1 2 3 4 5 6 
#
# 1 0.013835 -0.002829 -0.000660 -0.002176 -0.003845 -0.003720
# 2 -0.002829 0.016335 -0.008239 0.007339 0.005923 -0.001909
# 3 -0.000660 -0.008239 0.012723 -0.007045 -0.005572 -0.001529
# 4 -0.002176 0.007339 -0.007045 0.032607 0.006354 0.002102
# 5 -0.003845 0.005923 -0.005572 0.006354 0.041597 -0.005942
# 6 -0.003720 -0.001909 -0.001529 0.002102 -0.005942 0.048170
#
#
# Mechanical properties :
#
#
# Convention : Reuss Voigt Hill
#
# Bulk Modulus (GPa) = 51.44725 61.39151 56.41938
# Shear Modulus (GPa) = 25.61443 31.03258 28.32351
#
# Velocity S-wave (km/s) = 3.78058 4.16126 3.97548
# Velocity P-wave (km/s) = 6.91118 7.57261 7.24944
#
# Compressibility (1/GPa) = 0.01943739
#
# Stress axis : x y z
#
# Youngs Moduli (GPa) = 72.27813 61.21735 78.60026
#
# Poissons Ratio (x) = 0.17318 0.05187
# Poissons Ratio (y) = 0.20447 0.64759
# Poissons Ratio (z) = 0.04770 0.50438
#
# Static dielectric constant tensor:
#      x y z
#    x 1.712390 -0.027100 0.001520 
#    y -0.027100 1.629410 0.030040 
#    z 0.001520 0.030040 1.644240 
# 
# From -- ./inp_files/551384.got.cif
#   From: 2010.05.17/outbox.cif.g08.bks.cpg/sg2_276_cif.got.tgz:551384.got - 2010.06.03 11:33:40.
