data_PCOD9083826
_publ_section_title
;
Structure prediction by ZEFSAII (Michael W. Deem and Ramdas Pophale) SiO2 
 PCOD9083826
Probable space group: P -1
;
_chemical_formula_sum "Si O2"
_cell_formula_units_Z 16
_cell_length_a 15.272501
_cell_length_b 14.957801
_cell_length_c 11.553310
_cell_angle_alpha 127.412611
_cell_angle_beta 28.154769
_cell_angle_gamma 139.469824
_cell_volume 792.258259
_symmetry_space_group_name_H-M "P -1"
_symmetry_group_IT_number 2
_symmetry_cell_setting 'triclinic'
loop_
_space_group_symop_operation_xyz
x,y,z
-x,-y,-z
loop_
_atom_site_type_symbol
_atom_site_label
_atom_site_fract_x
_atom_site_fract_y
_atom_site_fract_z
Si Si1 0.919636 0.364534 0.066804
Si Si2 0.750851 0.549269 0.788812
Si Si3 0.926176 0.496204 0.765790
Si Si4 0.356147 0.818758 0.072015
Si Si5 0.692926 0.661962 0.449179
Si Si6 0.975785 0.145401 0.381291
Si Si7 0.769912 0.863559 0.719765
Si Si8 0.581489 0.843010 0.587705
O O1 0.643486 0.256723 0.305066
O O2 0.996300 0.399407 0.137379
O O3 0.000000 0.500000 0.000000
O O4 0.061866 0.311450 0.809462
O O5 0.774963 0.507249 0.855927
O O6 0.860104 0.490091 0.534941
O O7 0.918161 0.718426 0.713439
O O8 0.500000 0.500000 0.000000
O O9 0.783975 0.346748 0.876966
O O10 0.174163 0.847352 0.338114
O O11 0.569635 0.884452 0.963373
O O12 0.467941 0.859111 0.847524
O O13 0.500000 0.500000 0.500000
O O14 0.680916 0.725193 0.635987
O O15 0.679042 0.758833 0.450446
O O16 0.171058 0.151338 0.230953
O O17 0.792724 0.995384 0.417778
O O18 0.000000 0.000000 0.500000
#
# Coordination Sequence:
#
# PCOD9083826 Si02
#       8
#     2   2   2   2   2   2   2   2
#     4  12  22  37  61  89 128 164 194 248 319 380
#     4  10  23  43  67  86 116 162 217 267 300 354
#     4  10  22  41  61  94 116 158 216 254 306 368
#     4  10  19  34  58  85 127 153 195 255 303 369
#     4  11  22  35  53  86 132 163 201 242 304 376
#     4  11  22  36  60  86 121 161 208 253 312 361
#     4  11  21  33  55  90 125 163 199 244 310 370
#     4  11  22  35  53  94 126 159 198 247 311 382
#
# _framework density 20.195433000000001
#
# number of rings (size 3 to 8) (size 9 to 14) (size 15 to 20)
#    0.000    1.250    5.000    2.625    3.500    1.000 
#    0.000    0.625    0.000    1.500    0.000    0.000 
#    0.000    0.000    0.000    0.000    0.000    0.000 
#
# Total GULP energy -89270.391136 kJ/mol
# GULP energy per Si atom -5579.399446 kJ/mol
# Density = 2.014947 g / cm^3
# Si number density = 20.195433 Si / 1000 Ang^3
#
#
#
# Elastic Constant Matrix: (Units=GPa)
#
#
# Indices 1 2 3 4 5 6 
#
# 1 67.1981 11.8897 20.2516 -2.2908 -11.5227 8.3134
# 2 11.8897 93.3539 7.3683 -6.4841 8.6841 -4.7924
# 3 20.2516 7.3683 59.2260 3.0262 -23.2844 0.9364
# 4 -2.2908 -6.4841 3.0262 14.9246 -8.5419 -3.7374
# 5 -11.5227 8.6841 -23.2844 -8.5419 31.1687 -0.9999
# 6 8.3134 -4.7924 0.9364 -3.7374 -0.9999 25.3552
#
#
#
# Elastic Compliance Matrix: (Units=1/GPa)
#
#
# Indices 1 2 3 4 5 6 
#
# 1 0.018275 -0.002520 -0.003881 0.004313 0.005565 -0.005470
# 2 -0.002520 0.012205 -0.003102 0.003176 -0.005667 0.003492
# 3 -0.003881 -0.003102 0.026387 0.004731 0.020477 0.001217
# 4 0.004313 0.003176 0.004731 0.087804 0.028726 0.013087
# 5 0.005565 -0.005667 0.020477 0.028726 0.058983 0.002908
# 6 -0.005470 0.003492 0.001217 0.013087 0.002908 0.043892
#
#
# Mechanical properties :
#
#
# Convention : Reuss Voigt Hill
#
# Bulk Modulus (GPa) = 26.41342 33.19968 29.80655
# Shear Modulus (GPa) = 17.90999 26.30757 22.10878
#
# Velocity S-wave (km/s) = 2.98121 3.61314 3.31228
# Velocity P-wave (km/s) = 4.99574 5.82076 5.42396
#
# Compressibility (1/GPa) = 0.03785954
#
# Stress axis : x y z
#
# Youngs Moduli (GPa) = 54.71961 81.93502 37.89717
#
# Poissons Ratio (x) = 0.20649 0.14709
# Poissons Ratio (y) = 0.13790 0.11757
# Poissons Ratio (z) = 0.21239 0.25418
#
# Static dielectric constant tensor:
#      x y z
#    x 1.726270 0.027580 -0.004530 
#    y 0.027580 1.786790 -0.016280 
#    z -0.004530 -0.016280 1.744790 
# 
# From -- ./inp_files/454918.got.cif
#   From: 2010.05.17/outbox.cif.g08.bks.cpg/sg2_228_cif.got.tgz:454918.got - 2010.06.03 11:33:40.
