data_PCOD9083216
_publ_section_title
;
Structure prediction by ZEFSAII (Michael W. Deem and Ramdas Pophale) SiO2 
 PCOD9083216
Probable space group: P -1
;
_chemical_formula_sum "Si O2"
_cell_formula_units_Z 16
_cell_length_a 17.391462
_cell_length_b 16.160013
_cell_length_c 5.063070
_cell_angle_alpha 109.168186
_cell_angle_beta 115.395818
_cell_angle_gamma 36.986852
_cell_volume 773.103515
_symmetry_space_group_name_H-M "P -1"
_symmetry_group_IT_number 2
_symmetry_cell_setting 'triclinic'
loop_
_space_group_symop_operation_xyz
x,y,z
-x,-y,-z
loop_
_atom_site_type_symbol
_atom_site_label
_atom_site_fract_x
_atom_site_fract_y
_atom_site_fract_z
Si Si1 0.910306 0.642740 0.862129
Si Si2 0.443511 0.743611 0.758598
Si Si3 0.512037 0.589815 0.203098
Si Si4 0.069953 0.260887 0.493814
Si Si5 0.360175 0.989220 0.676427
Si Si6 0.267662 0.398124 0.960401
Si Si7 0.198313 0.552403 0.521696
Si Si8 0.365041 0.163358 0.182423
O O1 0.965064 0.634101 0.655538
O O2 0.754844 0.742666 0.687788
O O3 0.902892 0.723683 0.158327
O O4 0.000000 0.500000 0.000000
O O5 0.445033 0.664518 0.463735
O O6 0.357894 0.895862 0.711523
O O7 0.590428 0.667395 0.869670
O O8 0.435876 0.711552 0.006040
O O9 0.670361 0.490832 0.332719
O O10 0.500000 0.500000 0.000000
O O11 0.940282 0.302856 0.402349
O O12 0.214742 0.112150 0.457929
O O13 0.494650 0.900435 0.605211
O O14 0.383526 0.050032 0.984255
O O15 0.181383 0.521105 0.178076
O O16 0.295915 0.277905 0.972435
O O17 0.230021 0.447940 0.659065
#
# Coordination Sequence:
#
# PCOD9083216 Si02
#       8
#     2   2   2   2   2   2   2   2
#     4  11  22  34  50  73 101 137 184 229 258 282
#     4   9  19  35  55  80 109 133 164 210 260 317
#     4  10  20  36  61  85 101 125 165 217 270 317
#     4  11  22  34  50  72 103 141 176 211 257 312
#     4   9  20  35  52  76 107 148 180 207 252 302
#     4   9  18  32  52  75 102 140 176 217 260 289
#     4  10  19  34  53  76 105 133 170 218 267 305
#     4   9  18  34  52  73 106 143 186 219 242 291
#
# _framework density 20.695805
#
# number of rings (size 3 to 8) (size 9 to 14) (size 15 to 20)
#    0.000    2.250    0.000    3.000    0.000    5.500 
#    0.000    7.500    0.000    1.500    0.000    0.000 
#    0.000    0.000    0.000    0.000    0.000    0.000 
#
# Total GULP energy -89133.059457 kJ/mol
# GULP energy per Si atom -5570.816216 kJ/mol
# Density = 2.064870 g / cm^3
# Si number density = 20.695805 Si / 1000 Ang^3
#
#
#
# Elastic Constant Matrix: (Units=GPa)
#
#
# Indices 1 2 3 4 5 6 
#
# 1 59.8855 21.4983 15.5768 -5.2412 7.9142 -13.7073
# 2 21.4983 55.4538 -2.8043 -13.1879 19.0053 -6.1418
# 3 15.5768 -2.8043 69.4027 1.3965 -0.7090 -0.1309
# 4 -5.2412 -13.1879 1.3965 22.0826 1.6420 7.2123
# 5 7.9142 19.0053 -0.7090 1.6420 21.1527 1.7155
# 6 -13.7073 -6.1418 -0.1309 7.2123 1.7155 32.9530
#
#
#
# Elastic Compliance Matrix: (Units=1/GPa)
#
#
# Indices 1 2 3 4 5 6 
#
# 1 0.023070 -0.007800 -0.005472 -0.001456 -0.002389 0.008564
# 2 -0.007800 0.038002 0.002488 0.022962 -0.032969 0.000539
# 3 -0.005472 0.002488 0.015745 -0.000286 0.000501 -0.001713
# 4 -0.001456 0.022962 -0.000286 0.063396 -0.024292 -0.008937
# 5 -0.002389 -0.032969 0.000501 -0.024292 0.080179 -0.005994
# 6 0.008564 0.000539 -0.001713 -0.008937 -0.005994 0.036270
#
#
# Mechanical properties :
#
#
# Convention : Reuss Voigt Hill
#
# Bulk Modulus (GPa) = 18.09928 28.14261 23.12095
# Shear Modulus (GPa) = 16.85508 25.26907 21.06208
#
# Velocity S-wave (km/s) = 2.85690 3.49804 3.19360
# Velocity P-wave (km/s) = 4.43248 5.47200 4.97944
#
# Compressibility (1/GPa) = 0.05525082
#
# Stress axis : x y z
#
# Youngs Moduli (GPa) = 43.34566 26.31427 63.51226
#
# Poissons Ratio (x) = 0.20524 0.34754
# Poissons Ratio (y) = 0.33808 -0.15804
# Poissons Ratio (z) = 0.23719 -0.06548
#
# Static dielectric constant tensor:
#      x y z
#    x 1.789260 -0.073460 -0.016760 
#    y -0.073460 1.841820 -0.024230 
#    z -0.016760 -0.024230 1.784550 
# 
# From -- ./inp_files/110559.got.cif
#   From: 2010.05.17/outbox.cif.g08.bks.cpg/sg2_56_cif.got.tgz:110559.got - 2010.06.03 11:33:40.
