data_PCOD9083190
_publ_section_title
;
Structure prediction by ZEFSAII (Michael W. Deem and Ramdas Pophale) SiO2 
 PCOD9083190
Probable space group: P -1
;
_chemical_formula_sum "Si O2"
_cell_formula_units_Z 16
_cell_length_a 11.376486
_cell_length_b 12.342481
_cell_length_c 11.331987
_cell_angle_alpha 59.377423
_cell_angle_beta 119.182707
_cell_angle_gamma 143.102609
_cell_volume 812.111725
_symmetry_space_group_name_H-M "P -1"
_symmetry_group_IT_number 2
_symmetry_cell_setting 'triclinic'
loop_
_space_group_symop_operation_xyz
x,y,z
-x,-y,-z
loop_
_atom_site_type_symbol
_atom_site_label
_atom_site_fract_x
_atom_site_fract_y
_atom_site_fract_z
Si Si1 0.870860 0.585197 0.602186
Si Si2 0.001174 0.355439 0.615073
Si Si3 0.694132 0.218288 0.234610
Si Si4 0.261771 0.479140 0.894828
Si Si5 0.683703 0.686651 0.555066
Si Si6 0.346004 0.310231 0.182603
Si Si7 0.619904 0.937540 0.633778
Si Si8 0.533150 0.843786 0.367610
O O1 0.854370 0.705062 0.597336
O O2 0.684013 0.362575 0.654492
O O3 0.874095 0.619701 0.444925
O O4 0.080652 0.666566 0.691681
O O5 0.000000 0.500000 0.500000
O O6 0.088428 0.388992 0.767317
O O7 0.780384 0.153947 0.610359
O O8 0.696115 0.361150 0.101850
O O9 0.567406 0.164787 0.319217
O O10 0.590288 0.019405 0.244099
O O11 0.443876 0.561313 0.853322
O O12 0.229231 0.340852 0.043497
O O13 0.500000 0.500000 0.500000
O O14 0.641000 0.654862 0.691307
O O15 0.687564 0.833746 0.430370
O O16 0.268078 0.114205 0.245619
O O17 0.550551 0.875716 0.499852
#
# Coordination Sequence:
#
# PCOD9083190 Si02
#       8
#     2   2   2   2   2   2   2   2
#     4  11  21  32  56  85 110 150 180 225 287 329
#     4  12  20  32  55  88 115 139 188 231 283 332
#     4  11  20  33  52  85 109 145 186 228 286 325
#     4  10  20  35  59  81 111 150 184 231 284 328
#     4   9  19  36  57  81 109 150 186 227 274 333
#     4   9  20  39  56  79 112 152 186 229 279 327
#     4  10  20  32  52  81 112 144 180 239 276 323
#     4  10  19  34  52  79 116 140 182 235 276 321
#
# _framework density 19.701722
#
# number of rings (size 3 to 8) (size 9 to 14) (size 15 to 20)
#    0.000    1.750    2.500    4.125    0.000    1.000 
#    0.000    0.625    0.000    3.000    0.000    0.000 
#    0.000    0.000    0.000    0.000    0.000    0.000 
#
# Total GULP energy -89127.841505 kJ/mol
# GULP energy per Si atom -5570.490094 kJ/mol
# Density = 1.965688 g / cm^3
# Si number density = 19.701722 Si / 1000 Ang^3
#
#
#
# Elastic Constant Matrix: (Units=GPa)
#
#
# Indices 1 2 3 4 5 6 
#
# 1 105.7243 38.6288 29.3179 -9.7560 26.8460 -21.5270
# 2 38.6288 107.2955 31.1361 -13.2273 20.8251 -3.2132
# 3 29.3179 31.1361 85.3529 -17.9567 28.0657 -13.9583
# 4 -9.7560 -13.2273 -17.9567 21.6837 -10.2787 8.7060
# 5 26.8460 20.8251 28.0657 -10.2787 27.5414 -4.8342
# 6 -21.5270 -3.2132 -13.9583 8.7060 -4.8342 30.1381
#
#
#
# Elastic Compliance Matrix: (Units=1/GPa)
#
#
# Indices 1 2 3 4 5 6 
#
# 1 0.015609 -0.003590 0.001112 -0.004929 -0.013627 0.010520
# 2 -0.003590 0.012145 -0.002037 0.004425 -0.002643 -0.003915
# 3 0.001112 -0.002037 0.019517 0.005454 -0.016448 0.005402
# 4 -0.004929 0.004425 0.005454 0.066248 0.017672 -0.016826
# 5 -0.013627 -0.002643 -0.016448 0.017672 0.073012 -0.011027
# 6 0.010520 -0.003915 0.005402 -0.016826 -0.011027 0.045871
#
#
# Mechanical properties :
#
#
# Convention : Reuss Voigt Hill
#
# Bulk Modulus (GPa) = 26.15054 55.17092 40.66073
# Shear Modulus (GPa) = 19.67113 29.15864 24.41488
#
# Velocity S-wave (km/s) = 3.16325 3.85126 3.52408
# Velocity P-wave (km/s) = 5.16174 6.91666 6.10261
#
# Compressibility (1/GPa) = 0.03824013
#
# Stress axis : x y z
#
# Youngs Moduli (GPa) = 64.06465 82.33721 51.23858
#
# Poissons Ratio (x) = 0.29561 -0.05699
# Poissons Ratio (y) = 0.23000 0.10439
# Poissons Ratio (z) = -0.07125 0.16775
#
# Static dielectric constant tensor:
#      x y z
#    x 1.780960 -0.027380 0.037290 
#    y -0.027380 1.734800 -0.045430 
#    z 0.037290 -0.045430 1.722170 
# 
# From -- ./inp_files/423318.got.cif
#   From: 2010.05.17/outbox.cif.g08.bks.cpg/sg2_212_cif.got.tgz:423318.got - 2010.06.03 11:33:40.
