data_PCOD9083921
_publ_section_title
;
Structure prediction by ZEFSAII (Michael W. Deem and Ramdas Pophale) SiO2 
 PCOD9083921
Probable space group: P -1
;
_chemical_formula_sum "Si O2"
_cell_formula_units_Z 14
_cell_length_a 17.267199
_cell_length_b 8.744643
_cell_length_c 10.389213
_cell_angle_alpha 125.596651
_cell_angle_beta 35.198529
_cell_angle_gamma 104.012964
_cell_volume 637.516512
_symmetry_space_group_name_H-M "P -1"
_symmetry_group_IT_number 2
_symmetry_cell_setting 'triclinic'
loop_
_space_group_symop_operation_xyz
x,y,z
-x,-y,-z
loop_
_atom_site_type_symbol
_atom_site_label
_atom_site_fract_x
_atom_site_fract_y
_atom_site_fract_z
Si Si1 0.019133 0.211735 0.436401
Si Si2 0.560993 0.705463 0.545430
Si Si3 0.033936 0.625985 0.704730
Si Si4 0.255828 0.764811 0.018061
Si Si5 0.264653 0.025116 0.586566
Si Si6 0.332609 0.591128 0.209042
Si Si7 0.480027 0.793122 0.410379
O O1 0.032879 0.402742 0.582635
O O2 0.010354 0.261388 0.321291
O O3 0.865246 0.219214 0.702182
O O4 0.162362 0.980866 0.166247
O O5 0.630312 0.866625 0.540242
O O6 0.482097 0.730234 0.523782
O O7 0.413289 0.750940 0.853649
O O8 0.695931 0.456173 0.236035
O O9 0.206811 0.581822 0.467974
O O10 0.907421 0.784896 0.055522
O O11 0.273559 0.844243 0.388892
O O12 0.335142 0.886909 0.556131
O O13 0.500000 0.500000 0.000000
O O14 0.373145 0.413253 0.955058
O O15 0.500000 0.000000 0.500000
#
# Coordination Sequence:
#
# PCOD9083921 Si02
#       7
#     2   2   2   2   2   2   2
#     4  10  22  34  58  91 113 149 194 243 291 326
#     4  10  19  34  59  82 119 151 192 237 285 338
#     4  11  21  36  60  85 120 147 193 243 287 337
#     4  10  20  35  53  88 119 150 189 244 285 338
#     4  10  20  35  55  91 116 153 189 236 292 341
#     4  10  22  35  55  88 120 151 185 238 295 343
#     4   9  19  33  57  87 116 142 193 237 282 332
#
# _framework density 21.960215999999999
#
# number of rings (size 3 to 8) (size 9 to 14) (size 15 to 20)
#    0.000    2.000    1.429    2.143   12.000    0.000 
#    0.000    0.000    0.000    8.571    3.714    0.000 
#    0.000    0.000    0.000    0.000    0.000    0.000 
#
# Total GULP energy -78093.234594 kJ/mol
# GULP energy per Si atom -5578.088185 kJ/mol
# Density = 2.191023 g / cm^3
# Si number density = 21.960216 Si / 1000 Ang^3
#
#
#
# Elastic Constant Matrix: (Units=GPa)
#
#
# Indices 1 2 3 4 5 6 
#
# 1 41.8821 26.9481 29.6555 8.8866 -4.6707 17.5327
# 2 26.9481 132.4106 72.0692 12.0695 1.0857 22.0730
# 3 29.6555 72.0692 170.0975 5.9215 -13.8953 29.8993
# 4 8.8866 12.0695 5.9215 47.0889 7.2898 -12.1117
# 5 -4.6707 1.0857 -13.8953 7.2898 31.1747 4.7569
# 6 17.5327 22.0730 29.8993 -12.1117 4.7569 35.5820
#
#
#
# Elastic Compliance Matrix: (Units=1/GPa)
#
#
# Indices 1 2 3 4 5 6 
#
# 1 0.041548 -0.002895 0.000346 -0.016134 0.014276 -0.026367
# 2 -0.002895 0.010796 -0.003618 -0.002260 -0.001466 -0.002804
# 3 0.000346 -0.003618 0.009337 -0.003272 0.006283 -0.007725
# 4 -0.016134 -0.002260 -0.003272 0.034383 -0.015791 0.025916
# 5 0.014276 -0.001466 0.006283 -0.015791 0.044223 -0.022692
# 6 -0.026367 -0.002804 -0.007725 0.025916 -0.022692 0.061183
#
#
# Mechanical properties :
#
#
# Convention : Reuss Voigt Hill
#
# Bulk Modulus (GPa) = 20.26475 66.85956 43.56215
# Shear Modulus (GPa) = 21.71540 37.15026 29.43283
#
# Velocity S-wave (km/s) = 3.14801 4.11750 3.66495
# Velocity P-wave (km/s) = 4.73933 7.28814 6.14728
#
# Compressibility (1/GPa) = 0.04934677
#
# Stress axis : x y z
#
# Youngs Moduli (GPa) = 24.06865 92.62726 107.10561
#
# Poissons Ratio (x) = 0.26813 -0.03701
# Poissons Ratio (y) = 0.06967 0.38746
# Poissons Ratio (z) = -0.00832 0.33509
#
# Static dielectric constant tensor:
#      x y z
#    x 1.940010 -0.022750 0.030420 
#    y -0.022750 1.841740 -0.031480 
#    z 0.030420 -0.031480 1.847260 
# 
# From -- ./inp_files/187691.got.cif
#   From: 2010.05.17/outbox.cif.g08.bks.cpg/sg2_94_cif.got.tgz:187691.got - 2010.06.03 11:33:40.
