data_PCOD9083480
_publ_section_title
;
Structure prediction by ZEFSAII (Michael W. Deem and Ramdas Pophale) SiO2 
 PCOD9083480
Probable space group: P -1
;
_chemical_formula_sum "Si O2"
_cell_formula_units_Z 16
_cell_length_a 5.413303
_cell_length_b 13.045552
_cell_length_c 11.627980
_cell_angle_alpha 86.561319
_cell_angle_beta 109.621661
_cell_angle_gamma 78.749078
_cell_volume 751.581034
_symmetry_space_group_name_H-M "P -1"
_symmetry_group_IT_number 2
_symmetry_cell_setting 'triclinic'
loop_
_space_group_symop_operation_xyz
x,y,z
-x,-y,-z
loop_
_atom_site_type_symbol
_atom_site_label
_atom_site_fract_x
_atom_site_fract_y
_atom_site_fract_z
Si Si1 0.586599 0.125625 0.619398
Si Si2 0.438842 0.503541 0.851723
Si Si3 0.632337 0.073181 0.377615
Si Si4 0.898608 0.023316 0.190609
Si Si5 0.164934 0.183317 0.139201
Si Si6 0.292942 0.168057 0.911058
Si Si7 0.082190 0.423382 0.128851
Si Si8 0.654418 0.274541 0.797241
O O1 0.686641 0.120420 0.504537
O O2 0.535356 0.240408 0.660524
O O3 0.373950 0.050395 0.594864
O O4 0.818362 0.059965 0.742076
O O5 0.597153 0.585449 0.815174
O O6 0.566604 0.395581 0.813792
O O7 0.114739 0.528456 0.801004
O O8 0.500000 0.500000 0.000000
O O9 0.826739 0.073912 0.301058
O O10 0.347277 0.141451 0.281016
O O11 0.953283 0.109443 0.104863
O O12 0.706727 0.947748 0.128828
O O13 0.034997 0.306715 0.113905
O O14 0.346824 0.164540 0.055329
O O15 0.500845 0.217165 0.869887
O O16 0.981646 0.237907 0.848595
O O17 0.000000 0.500000 0.000000
#
# Coordination Sequence:
#
# PCOD9083480 Si02
#       8
#     2   2   2   2   2   2   2   2
#     4   9  20  38  59  87 114 159 204 241 282 351
#     4  10  19  34  56  82 111 145 194 244 290 339
#     4  10  20  38  59  83 122 155 203 238 289 349
#     4  10  21  36  56  89 120 163 191 242 290 358
#     4  11  24  35  57  88 121 159 192 242 305 356
#     4  11  22  36  57  89 128 155 189 233 300 369
#     4  10  21  37  56  81 112 153 195 241 287 349
#     4  11  21  38  62  89 117 158 197 247 295 348
#
# _framework density 21.288454999999999
#
# number of rings (size 3 to 8) (size 9 to 14) (size 15 to 20)
#    0.000    1.750    1.250    4.500    3.500    0.500 
#    0.000    0.000    0.000    1.500    0.000    0.000 
#    0.000    0.000    0.000    0.000    0.000    0.000 
#
# Total GULP energy -89244.267863 kJ/mol
# GULP energy per Si atom -5577.766741 kJ/mol
# Density = 2.124000 g / cm^3
# Si number density = 21.288455 Si / 1000 Ang^3
#
#
#
# Elastic Constant Matrix: (Units=GPa)
#
#
# Indices 1 2 3 4 5 6 
#
# 1 82.5333 -25.8813 -6.4637 -5.3348 -19.4577 -7.1704
# 2 -25.8813 66.6597 11.4348 14.4477 -2.2473 -9.5110
# 3 -6.4637 11.4348 61.7217 22.1825 -8.7765 -6.1203
# 4 -5.3348 14.4477 22.1825 29.7736 -5.7713 -6.9900
# 5 -19.4577 -2.2473 -8.7765 -5.7713 20.2981 4.9818
# 6 -7.1704 -9.5110 -6.1203 -6.9900 4.9818 30.7755
#
#
#
# Elastic Compliance Matrix: (Units=1/GPa)
#
#
# Indices 1 2 3 4 5 6 
#
# 1 0.020738 0.008389 0.003271 0.002625 0.021703 0.005158
# 2 0.008389 0.020559 0.001018 -0.006406 0.007503 0.005841
# 3 0.003271 0.001018 0.023172 -0.015293 0.008723 0.000799
# 4 0.002625 -0.006406 -0.015293 0.051584 0.008402 0.005947
# 5 0.021703 0.007503 0.008723 0.008402 0.077433 -0.001516
# 6 0.005158 0.005841 0.000799 0.005947 -0.001516 0.037255
#
#
# Mechanical properties :
#
#
# Convention : Reuss Voigt Hill
#
# Bulk Modulus (GPa) = 11.13280 18.78826 14.96053
# Shear Modulus (GPa) = 21.24715 31.62444 26.43580
#
# Velocity S-wave (km/s) = 3.16264 3.85843 3.52773
# Velocity P-wave (km/s) = 4.31013 5.35674 4.86168
#
# Compressibility (1/GPa) = 0.08982463
#
# Stress axis : x y z
#
# Youngs Moduli (GPa) = 48.22176 48.64099 43.15630
#
# Poissons Ratio (x) = -0.40805 -0.14118
# Poissons Ratio (y) = -0.40453 -0.04393
# Poissons Ratio (z) = -0.15775 -0.04952
#
# Static dielectric constant tensor:
#      x y z
#    x 1.902560 -0.037510 0.083350 
#    y -0.037510 1.802810 0.000020 
#    z 0.083350 0.000020 1.788770 
# 
# From -- ./inp_files/66423.got.cif
#   From: 2010.05.17/outbox.cif.g08.bks.cpg/sg2_34_cif.got.tgz:66423.got - 2010.06.03 11:33:40.
