data_PCOD9083507
_publ_section_title
;
Structure prediction by ZEFSAII (Michael W. Deem and Ramdas Pophale) SiO2 
 PCOD9083507
Probable space group: P -1
;
_chemical_formula_sum "Si O2"
_cell_formula_units_Z 10
_cell_length_a 12.611372
_cell_length_b 11.745012
_cell_length_c 8.419720
_cell_angle_alpha 36.029087
_cell_angle_beta 140.208616
_cell_angle_gamma 142.479723
_cell_volume 417.772796
_symmetry_space_group_name_H-M "P -1"
_symmetry_group_IT_number 2
_symmetry_cell_setting 'triclinic'
loop_
_space_group_symop_operation_xyz
x,y,z
-x,-y,-z
loop_
_atom_site_type_symbol
_atom_site_label
_atom_site_fract_x
_atom_site_fract_y
_atom_site_fract_z
Si Si1 0.163337 0.125549 0.323912
Si Si2 0.627895 0.762355 0.860333
Si Si3 0.067060 0.318325 0.284813
Si Si4 0.584608 0.290335 0.747773
Si Si5 0.438820 0.028110 0.164432
O O1 0.196138 0.185267 0.109545
O O2 0.063112 0.225606 0.209068
O O3 0.373590 0.219455 0.531141
O O4 0.048933 0.870321 0.513419
O O5 0.664035 0.877552 0.944321
O O6 0.523379 0.892173 0.512445
O O7 0.500000 0.500000 0.000000
O O8 0.284488 0.460214 0.419035
O O9 0.000000 0.500000 0.000000
O O10 0.655948 0.142361 0.895879
O O11 0.585044 0.233394 0.998314
#
# Coordination Sequence:
#
# PCOD9083507 Si02
#       5
#     2   2   2   2   2
#     4  10  23  38  59  89 114 148 198 234 280 348
#     4  10  19  34  56  84 119 153 184 232 289 338
#     4  11  21  36  60  87 116 149 189 241 288 331
#     4  10  19  39  64  84 114 151 190 241 284 330
#     4   9  19  34  57  87 113 147 195 232 279 345
#
# _framework density 23.936454999999999
#
# number of rings (size 3 to 8) (size 9 to 14) (size 15 to 20)
#    0.000    2.000    0.000    5.400    0.000    3.200 
#    0.000    4.000    0.000   30.000    0.000    0.000 
#    0.000    0.000    0.000    0.000    0.000    0.000 
#
# Total GULP energy -55813.457143 kJ/mol
# GULP energy per Si atom -5581.345714 kJ/mol
# Density = 2.388197 g / cm^3
# Si number density = 23.936455 Si / 1000 Ang^3
#
#
#
# Elastic Constant Matrix: (Units=GPa)
#
#
# Indices 1 2 3 4 5 6 
#
# 1 200.3530 42.2321 37.6117 -29.2881 -21.2659 -18.3385
# 2 42.2321 105.6840 29.1894 -31.5758 -14.1143 23.1287
# 3 37.6117 29.1894 93.7614 -19.1386 -0.9756 7.7330
# 4 -29.2881 -31.5758 -19.1386 34.6985 7.1532 -4.9350
# 5 -21.2659 -14.1143 -0.9756 7.1532 38.3248 -6.7286
# 6 -18.3385 23.1287 7.7330 -4.9350 -6.7286 44.6518
#
#
#
# Elastic Compliance Matrix: (Units=1/GPa)
#
#
# Indices 1 2 3 4 5 6 
#
# 1 0.007077 -0.002040 -0.001971 0.003051 0.003463 0.005164
# 2 -0.002040 0.015503 -0.001275 0.010371 0.001328 -0.007301
# 3 -0.001971 -0.001275 0.012932 0.004496 -0.002471 -0.002264
# 4 0.003051 0.010371 0.004496 0.043789 -0.002626 -0.000454
# 5 0.003463 0.001328 -0.002471 -0.002626 0.029874 0.005374
# 6 0.005164 -0.007301 -0.002264 -0.000454 0.005374 0.029450
#
#
# Mechanical properties :
#
#
# Convention : Reuss Voigt Hill
#
# Bulk Modulus (GPa) = 40.09637 68.65165 54.37401
# Shear Modulus (GPa) = 31.74393 42.91937 37.33165
#
# Velocity S-wave (km/s) = 3.64562 4.23904 3.95348
# Velocity P-wave (km/s) = 5.87437 7.25964 6.60343
#
# Compressibility (1/GPa) = 0.02493991
#
# Stress axis : x y z
#
# Youngs Moduli (GPa) = 141.29569 64.50312 77.32877
#
# Poissons Ratio (x) = 0.13157 0.15242
# Poissons Ratio (y) = 0.28821 0.09862
# Poissons Ratio (z) = 0.27851 0.08226
#
# Static dielectric constant tensor:
#      x y z
#    x 2.000820 0.015730 -0.012810 
#    y 0.015730 2.019470 0.065170 
#    z -0.012810 0.065170 1.945280 
# 
# From -- ./inp_files/176550.got.cif
#   From: 2010.05.17/outbox.cif.g08.bks.cpg/sg2_89_cif.got.tgz:176550.got - 2010.06.03 11:33:40.
