data_PCOD9083103
_publ_section_title
;
Structure prediction by ZEFSAII (Michael W. Deem and Ramdas Pophale) SiO2 
 PCOD9083103
Probable space group: P -1
;
_chemical_formula_sum "Si O2"
_cell_formula_units_Z 16
_cell_length_a 7.941825
_cell_length_b 9.723627
_cell_length_c 15.849019
_cell_angle_alpha 140.025350
_cell_angle_beta 122.113422
_cell_angle_gamma 56.265580
_cell_volume 640.900911
_symmetry_space_group_name_H-M "P -1"
_symmetry_group_IT_number 2
_symmetry_cell_setting 'triclinic'
loop_
_space_group_symop_operation_xyz
x,y,z
-x,-y,-z
loop_
_atom_site_type_symbol
_atom_site_label
_atom_site_fract_x
_atom_site_fract_y
_atom_site_fract_z
Si Si1 0.771826 0.080682 0.169998
Si Si2 0.099673 0.117624 0.153348
Si Si3 0.824338 0.011173 0.351050
Si Si4 0.516493 0.749354 0.107708
Si Si5 0.271681 0.802819 0.335308
Si Si6 0.129488 0.536117 0.416354
Si Si7 0.351701 0.315204 0.081428
Si Si8 0.285025 0.255250 0.492743
O O1 0.808058 0.053743 0.265442
O O2 0.543213 0.227389 0.154521
O O3 0.936007 0.179929 0.214966
O O4 0.800897 0.838977 0.021287
O O5 0.143643 0.355806 0.261086
O O6 0.303707 0.935822 0.149870
O O7 0.000000 0.000000 0.000000
O O8 0.770467 0.265120 0.487572
O O9 0.684547 0.841328 0.248056
O O10 0.064251 0.894853 0.377411
O O11 0.500000 0.500000 0.000000
O O12 0.563851 0.750022 0.020815
O O13 0.256052 0.575600 0.182670
O O14 0.489268 0.750487 0.416295
O O15 0.280994 0.998361 0.364683
O O16 0.239433 0.398500 0.462921
O O17 0.895171 0.648829 0.440401
#
# Coordination Sequence:
#
# PCOD9083103 Si02
#       8
#     2   2   2   2   2   2   2   2
#     4  10  21  39  64  94 124 162 224 261 315 371
#     4  12  24  41  65  94 127 174 212 259 326 385
#     4  10  23  42  66  97 126 171 218 271 316 373
#     4  11  27  42  59  92 138 173 213 261 329 389
#     4  10  19  33  62  96 130 157 210 264 332 367
#     4  10  20  39  67  90 130 163 218 265 315 381
#     4  10  21  38  63  90 127 167 210 274 308 381
#     4   9  19  35  62 102 122 161 212 274 316 374
#
# _framework density 24.964856000000001
#
# number of rings (size 3 to 8) (size 9 to 14) (size 15 to 20)
#    0.000    1.750    1.250    3.750    5.250    1.500 
#    0.000    0.000    0.000    1.500    0.000    0.000 
#    0.000    0.000    0.000    0.000    0.000    0.000 
#
# Total GULP energy -89548.339761 kJ/mol
# GULP energy per Si atom -5596.771235 kJ/mol
# Density = 2.490803 g / cm^3
# Si number density = 24.964856 Si / 1000 Ang^3
#
#
#
# Elastic Constant Matrix: (Units=GPa)
#
#
# Indices 1 2 3 4 5 6 
#
# 1 55.1709 23.1731 28.6952 -0.2125 15.6256 -1.4760
# 2 23.1731 111.0017 63.3058 8.3671 14.0076 -8.0594
# 3 28.6952 63.3058 194.7451 52.5721 27.0189 -4.8340
# 4 -0.2125 8.3671 52.5721 51.5925 1.8427 1.5383
# 5 15.6256 14.0076 27.0189 1.8427 42.0016 -6.1209
# 6 -1.4760 -8.0594 -4.8340 1.5383 -6.1209 31.1770
#
#
#
# Elastic Compliance Matrix: (Units=1/GPa)
#
#
# Indices 1 2 3 4 5 6 
#
# 1 0.022298 -0.002844 -0.002435 0.003296 -0.006132 -0.001424
# 2 -0.002844 0.011851 -0.003888 0.001968 -0.000159 0.002198
# 3 -0.002435 -0.003888 0.009746 -0.009184 -0.003645 0.000128
# 4 0.003296 0.001968 -0.009184 0.028394 0.002537 -0.001662
# 5 -0.006132 -0.000159 -0.003645 0.002537 0.029059 0.004683
# 6 -0.001424 0.002198 0.000128 -0.001662 0.004683 0.033597
#
#
# Mechanical properties :
#
#
# Convention : Reuss Voigt Hill
#
# Bulk Modulus (GPa) = 39.12357 65.69622 52.40989
# Shear Modulus (GPa) = 30.90212 41.33712 36.11962
#
# Velocity S-wave (km/s) = 3.52209 4.07358 3.80783
# Velocity P-wave (km/s) = 5.67852 6.96405 6.35388
#
# Compressibility (1/GPa) = 0.02556004
#
# Stress axis : x y z
#
# Youngs Moduli (GPa) = 44.84663 84.37824 102.60792
#
# Poissons Ratio (x) = 0.23998 0.24989
# Poissons Ratio (y) = 0.12755 0.39896
# Poissons Ratio (z) = 0.10922 0.32808
#
# Static dielectric constant tensor:
#      x y z
#    x 2.003840 0.041790 0.045660 
#    y 0.041790 1.948280 0.023840 
#    z 0.045660 0.023840 2.106260 
# 
# From -- ./inp_files/589258.got.cif
#   From: 2010.05.17/outbox.cif.g08.bks.cpg/sg2_295_cif.got.tgz:589258.got - 2010.06.03 11:33:40.
