data_PCOD9083927
_publ_section_title
;
Structure prediction by ZEFSAII (Michael W. Deem and Ramdas Pophale) SiO2 
 PCOD9083927
Probable space group: P -1
;
_chemical_formula_sum "Si O2"
_cell_formula_units_Z 14
_cell_length_a 7.756727
_cell_length_b 17.776581
_cell_length_c 18.365733
_cell_angle_alpha 18.070492
_cell_angle_beta 51.059989
_cell_angle_gamma 44.814796
_cell_volume 541.314410
_symmetry_space_group_name_H-M "P -1"
_symmetry_group_IT_number 2
_symmetry_cell_setting 'triclinic'
loop_
_space_group_symop_operation_xyz
x,y,z
-x,-y,-z
loop_
_atom_site_type_symbol
_atom_site_label
_atom_site_fract_x
_atom_site_fract_y
_atom_site_fract_z
Si Si1 0.354825 0.576891 0.167021
Si Si2 0.086260 0.639754 0.611912
Si Si3 0.604977 0.171767 0.227205
Si Si4 0.189040 0.959722 0.421024
Si Si5 0.199886 0.067354 0.844587
Si Si6 0.879728 0.537341 0.381181
Si Si7 0.095395 0.565236 0.027739
O O1 0.540781 0.259700 0.421954
O O2 0.074848 0.627871 0.209786
O O3 0.386657 0.680929 0.984770
O O4 0.398787 0.777545 0.027045
O O5 0.237140 0.528564 0.598880
O O6 0.046399 0.423586 0.870880
O O7 0.168860 0.802433 0.497928
O O8 0.807406 0.858008 0.459494
O O9 0.315753 0.255192 0.243079
O O10 0.728460 0.287170 0.148438
O O11 0.000000 0.000000 0.500000
O O12 0.109875 0.266433 0.132609
O O13 0.050288 0.274317 0.628038
O O14 0.283434 0.228379 0.732609
O O15 0.000000 0.000000 0.000000
#
# Coordination Sequence:
#
# PCOD9083927 Si02
#       7
#     2   2   2   2   2   2   2
#     4  11  20  38  60  87 121 155 190 244 294 345
#     4  11  22  37  60  86 114 160 200 240 288 343
#     4  10  19  34  59  83 114 154 203 240 282 336
#     4  11  25  39  53  85 131 162 188 237 296 342
#     4   9  20  37  63  92 116 140 197 255 296 339
#     4  10  20  37  65  91 109 151 202 244 293 348
#     4  10  21  37  54  82 120 160 199 238 278 348
#
# _framework density 25.862973
#
# number of rings (size 3 to 8) (size 9 to 14) (size 15 to 20)
#    0.000    1.714    4.286    0.429    0.000    2.857 
#    0.000    0.714    0.000    8.571    0.000    0.000 
#    0.000    0.000    0.000    0.000    0.000    0.000 
#
# Total GULP energy -78231.381726 kJ/mol
# GULP energy per Si atom -5587.955838 kJ/mol
# Density = 2.580411 g / cm^3
# Si number density = 25.862973 Si / 1000 Ang^3
#
#
#
# Elastic Constant Matrix: (Units=GPa)
#
#
# Indices 1 2 3 4 5 6 
#
# 1 74.6591 13.2117 2.4388 -1.5661 -2.4914 19.0836
# 2 13.2117 102.2417 22.3924 10.8824 -3.7158 34.7342
# 3 2.4388 22.3924 96.4285 8.7625 20.3430 8.7532
# 4 -1.5661 10.8824 8.7625 57.7521 10.6904 -1.1488
# 5 -2.4914 -3.7158 20.3430 10.6904 33.3488 -5.1891
# 6 19.0836 34.7342 8.7532 -1.1488 -5.1891 41.0595
#
#
#
# Elastic Compliance Matrix: (Units=1/GPa)
#
#
# Indices 1 2 3 4 5 6 
#
# 1 0.015232 0.000549 0.000195 0.000157 -0.000153 -0.007600
# 2 0.000549 0.014752 -0.002576 -0.003051 0.002371 -0.011971
# 3 0.000195 -0.002576 0.012892 0.000060 -0.008424 -0.001723
# 4 0.000157 -0.003051 0.000060 0.019064 -0.006125 0.002255
# 5 -0.000153 0.002371 -0.008424 -0.006125 0.038041 0.004497
# 6 -0.007600 -0.011971 -0.001723 0.002255 0.004497 0.039013
#
#
# Mechanical properties :
#
#
# Convention : Reuss Voigt Hill
#
# Bulk Modulus (GPa) = 25.50306 38.82390 32.16348
# Shear Modulus (GPa) = 32.10756 42.11783 37.11270
#
# Velocity S-wave (km/s) = 3.52724 4.03984 3.79221
# Velocity P-wave (km/s) = 5.14498 6.06667 5.62473
#
# Compressibility (1/GPa) = 0.03921097
#
# Stress axis : x y z
#
# Youngs Moduli (GPa) = 65.65313 67.78866 77.56954
#
# Poissons Ratio (x) = -0.03719 -0.01515
# Poissons Ratio (y) = -0.03602 0.19981
# Poissons Ratio (z) = -0.01282 0.17462
#
# Static dielectric constant tensor:
#      x y z
#    x 2.156690 0.083910 -0.048730 
#    y 0.083910 2.038270 -0.080720 
#    z -0.048730 -0.080720 2.040970 
# 
# From -- ./inp_files/34635.got.cif
#   From: 2010.05.17/outbox.cif.g08.bks.cpg/sg2_18_cif.got.tgz:34635.got - 2010.06.03 11:33:40.
