data_PCOD9083891
_publ_section_title
;
Structure prediction by ZEFSAII (Michael W. Deem and Ramdas Pophale) SiO2 
 PCOD9083891
Probable space group: P -1
;
_chemical_formula_sum "Si O2"
_cell_formula_units_Z 14
_cell_length_a 11.767341
_cell_length_b 7.081735
_cell_length_c 7.491793
_cell_angle_alpha 66.704780
_cell_angle_beta 73.119340
_cell_angle_gamma 76.091154
_cell_volume 543.086169
_symmetry_space_group_name_H-M "P -1"
_symmetry_group_IT_number 2
_symmetry_cell_setting 'triclinic'
loop_
_space_group_symop_operation_xyz
x,y,z
-x,-y,-z
loop_
_atom_site_type_symbol
_atom_site_label
_atom_site_fract_x
_atom_site_fract_y
_atom_site_fract_z
Si Si1 0.902846 0.963257 0.407049
Si Si2 0.459862 0.366758 0.232211
Si Si3 0.195326 0.418078 0.252023
Si Si4 0.324159 0.710650 0.559060
Si Si5 0.013173 0.714859 0.026543
Si Si6 0.759038 0.690990 0.147328
Si Si7 0.501883 0.918825 0.225964
O O1 0.767106 0.080980 0.448260
O O2 0.882081 0.725940 0.546379
O O3 0.950396 0.097206 0.174485
O O4 0.000000 0.000000 0.500000
O O5 0.317832 0.439985 0.290379
O O6 0.567523 0.363410 0.324930
O O7 0.466513 0.120001 0.286255
O O8 0.500000 0.500000 0.000000
O O9 0.111822 0.633561 0.160003
O O10 0.236587 0.322267 0.068935
O O11 0.239636 0.536295 0.685710
O O12 0.405707 0.760639 0.338891
O O13 0.876575 0.778461 0.125386
O O14 0.000000 0.500000 0.000000
O O15 0.637398 0.815348 0.232816
O O16 0.500000 0.000000 0.000000
#
# Coordination Sequence:
#
# PCOD9083891 Si02
#       7
#     2   2   2   2   2   2   2
#     4  12  19  32  61  92 119 160 212 261 297 357
#     4  12  23  40  64  90 128 168 207 258 313 377
#     4  11  20  37  60  92 124 160 211 256 305 369
#     4  12  23  39  63  96 123 167 210 253 318 380
#     4  10  19  34  58  92 120 157 211 264 292 366
#     4  11  20  39  60  93 126 156 206 265 310 361
#     4  12  24  39  59  93 130 162 208 259 317 374
#
# _framework density 25.778597000000001
#
# number of rings (size 3 to 8) (size 9 to 14) (size 15 to 20)
#    0.000    0.571   10.000    0.857    0.000    0.000 
#    0.000    0.000    0.000    4.286    0.000    0.000 
#    0.000    0.000    0.000    0.000    0.000    0.000 
#
# Total GULP energy -78282.325308 kJ/mol
# GULP energy per Si atom -5591.594665 kJ/mol
# Density = 2.571992 g / cm^3
# Si number density = 25.778597 Si / 1000 Ang^3
#
#
#
# Elastic Constant Matrix: (Units=GPa)
#
#
# Indices 1 2 3 4 5 6 
#
# 1 164.4153 34.1869 67.2259 -12.9051 -40.5366 -10.4328
# 2 34.1869 57.9450 30.3849 -22.9158 -7.7547 4.1602
# 3 67.2259 30.3849 218.2324 -31.6276 -24.9534 5.6505
# 4 -12.9051 -22.9158 -31.6276 36.4848 -5.1130 -2.2940
# 5 -40.5366 -7.7547 -24.9534 -5.1130 49.6212 -5.2666
# 6 -10.4328 4.1602 5.6505 -2.2940 -5.2666 41.1312
#
#
#
# Elastic Compliance Matrix: (Units=1/GPa)
#
#
# Indices 1 2 3 4 5 6 
#
# 1 0.009551 -0.003843 -0.001607 0.000787 0.006895 0.003959
# 2 -0.003843 0.025966 0.000094 0.015193 0.002269 -0.002476
# 3 -0.001607 0.000094 0.006058 0.005006 0.002191 -0.000690
# 4 0.000787 0.015193 0.005006 0.043097 0.010153 0.001679
# 5 0.006895 0.002269 0.002191 0.010153 0.028870 0.005481
# 6 0.003959 -0.002476 -0.000690 0.001679 0.005481 0.026457
#
#
# Mechanical properties :
#
#
# Convention : Reuss Voigt Hill
#
# Bulk Modulus (GPa) = 32.40147 78.24313 55.32230
# Shear Modulus (GPa) = 31.05610 46.03378 38.54494
#
# Velocity S-wave (km/s) = 3.47468 4.23038 3.87102
# Velocity P-wave (km/s) = 5.35670 7.36745 6.44103
#
# Compressibility (1/GPa) = 0.03086280
#
# Stress axis : x y z
#
# Youngs Moduli (GPa) = 104.69772 38.51261 165.06721
#
# Poissons Ratio (x) = 0.14799 0.26531
# Poissons Ratio (y) = 0.40232 -0.01550
# Poissons Ratio (z) = 0.16828 -0.00362
#
# Static dielectric constant tensor:
#      x y z
#    x 1.901340 0.017520 0.003770 
#    y 0.017520 2.135740 0.126260 
#    z 0.003770 0.126260 2.017590 
# 
# From -- ./inp_files/216225.got.cif
#   From: 2010.05.17/outbox.cif.g08.bks.cpg/sg2_109_cif.got.tgz:216225.got - 2010.06.03 11:33:40.
