data_PCOD9083779
_publ_section_title
;
Structure prediction by ZEFSAII (Michael W. Deem and Ramdas Pophale) SiO2 
 PCOD9083779
Probable space group: P -1
;
_chemical_formula_sum "Si O2"
_cell_formula_units_Z 16
_cell_length_a 16.257293
_cell_length_b 10.787644
_cell_length_c 9.041345
_cell_angle_alpha 98.262912
_cell_angle_beta 116.240521
_cell_angle_gamma 31.531277
_cell_volume 645.402269
_symmetry_space_group_name_H-M "P -1"
_symmetry_group_IT_number 2
_symmetry_cell_setting 'triclinic'
loop_
_space_group_symop_operation_xyz
x,y,z
-x,-y,-z
loop_
_atom_site_type_symbol
_atom_site_label
_atom_site_fract_x
_atom_site_fract_y
_atom_site_fract_z
Si Si1 0.414912 0.344577 0.251840
Si Si2 0.785401 0.897902 0.912954
Si Si3 0.689972 0.353835 0.181790
Si Si4 0.056310 0.765556 0.267022
Si Si5 0.985369 0.695807 0.449890
Si Si6 0.438791 0.875802 0.957382
Si Si7 0.512161 0.464269 0.679677
Si Si8 0.839102 0.769830 0.617089
O O1 0.234866 0.568396 0.262961
O O2 0.416482 0.483266 0.208838
O O3 0.608701 0.080846 0.459045
O O4 0.444445 0.215604 0.111206
O O5 0.872290 0.726355 0.809325
O O6 0.670971 0.947349 0.947750
O O7 0.650647 0.178746 0.788678
O O8 0.949436 0.773891 0.113255
O O9 0.610625 0.585546 0.120848
O O10 0.690342 0.320122 0.352137
O O11 0.500000 0.500000 0.000000
O O12 0.889610 0.074270 0.207490
O O13 0.092030 0.679883 0.449609
O O14 0.106551 0.426220 0.450238
O O15 0.964225 0.720271 0.614028
O O16 0.755607 0.953983 0.250574
O O17 0.500000 0.500000 0.500000
#
# Coordination Sequence:
#
# PCOD9083779 Si02
#       8
#     2   2   2   2   2   2   2   2
#     4  11  21  35  53  82 115 147 171 219 280 323
#     4  10  19  34  58  83 101 141 188 229 256 314
#     4  11  16  34  54  75 105 145 179 215 259 324
#     4  11  22  34  55  83 113 143 178 219 276 321
#     4   9  19  37  58  81 103 147 185 220 266 325
#     4   9  18  33  55  77 107 141 184 217 259 321
#     4  11  19  32  57  78 108 142 181 220 264 314
#     4  10  20  36  62  79 104 142 192 222 262 319
#
# _framework density 24.790738999999999
#
# number of rings (size 3 to 8) (size 9 to 14) (size 15 to 20)
#    0.000    1.750    6.250    0.750    0.000    4.500 
#    0.000    1.875    0.000    7.500    0.000    0.000 
#    0.000    0.000    0.000    0.000    0.000    0.000 
#
# Total GULP energy -89141.871896 kJ/mol
# GULP energy per Si atom -5571.366994 kJ/mol
# Density = 2.473431 g / cm^3
# Si number density = 24.790739 Si / 1000 Ang^3
#
#
#
# Elastic Constant Matrix: (Units=GPa)
#
#
# Indices 1 2 3 4 5 6 
#
# 1 67.1708 43.9844 16.9651 -12.1514 -20.4048 -28.6037
# 2 43.9844 192.2920 35.8430 10.2025 -12.8511 -52.9468
# 3 16.9651 35.8430 81.0007 21.5880 -17.9988 -18.2569
# 4 -12.1514 10.2025 21.5880 48.5509 -10.9323 -21.6046
# 5 -20.4048 -12.8511 -17.9988 -10.9323 21.3139 10.9171
# 6 -28.6037 -52.9468 -18.2569 -21.6046 10.9171 45.0012
#
#
#
# Elastic Compliance Matrix: (Units=1/GPa)
#
#
# Indices 1 2 3 4 5 6 
#
# 1 0.069437 0.001754 -0.003573 0.058723 0.065401 0.057076
# 2 0.001754 0.008491 -0.002554 0.005598 0.001118 0.012484
# 3 -0.003573 -0.002554 0.017121 -0.008087 0.007402 -0.004008
# 4 0.058723 0.005598 -0.008087 0.080028 0.060888 0.064280
# 5 0.065401 0.001118 0.007402 0.060888 0.124703 0.044868
# 6 0.057076 0.012484 -0.004008 0.064280 0.044868 0.091538
#
#
# Mechanical properties :
#
#
# Convention : Reuss Voigt Hill
#
# Bulk Modulus (GPa) = 11.58724 59.33872 35.46298
# Shear Modulus (GPa) = 11.65962 39.21794 25.43878
#
# Velocity S-wave (km/s) = 2.17104 3.98170 3.20682
# Velocity P-wave (km/s) = 3.31191 6.71762 5.29599
#
# Compressibility (1/GPa) = 0.08630186
#
# Stress axis : x y z
#
# Youngs Moduli (GPa) = 14.40163 117.77774 58.40854
#
# Poissons Ratio (x) = -0.20658 0.20870
# Poissons Ratio (y) = -0.02526 0.14917
# Poissons Ratio (z) = 0.05146 0.30079
#
# Static dielectric constant tensor:
#      x y z
#    x 2.061310 0.015150 0.011220 
#    y 0.015150 2.050160 0.076360 
#    z 0.011220 0.076360 2.061070 
# 
# From -- ./inp_files/237536.got.cif
#   From: 2010.05.17/outbox.cif.g08.bks.cpg/sg2_119_cif.got.tgz:237536.got - 2010.06.03 11:33:40.
