data_PCOD9083442
_publ_section_title
;
Structure prediction by ZEFSAII (Michael W. Deem and Ramdas Pophale) SiO2 
 PCOD9083442
Probable space group: P -1
;
_chemical_formula_sum "Si O2"
_cell_formula_units_Z 16
_cell_length_a 15.218289
_cell_length_b 9.359109
_cell_length_c 16.506419
_cell_angle_alpha 57.166753
_cell_angle_beta 21.978373
_cell_angle_gamma 46.228397
_cell_volume 590.905718
_symmetry_space_group_name_H-M "P -1"
_symmetry_group_IT_number 2
_symmetry_cell_setting 'triclinic'
loop_
_space_group_symop_operation_xyz
x,y,z
-x,-y,-z
loop_
_atom_site_type_symbol
_atom_site_label
_atom_site_fract_x
_atom_site_fract_y
_atom_site_fract_z
Si Si1 0.041538 0.225316 0.321656
Si Si2 0.328100 0.817103 0.555640
Si Si3 0.279653 0.416476 0.842790
Si Si4 0.040601 0.913171 0.082718
Si Si5 0.133974 0.247124 0.503636
Si Si6 0.690614 0.486686 0.676733
Si Si7 0.885257 0.648906 0.243484
Si Si8 0.444439 0.992649 0.918739
O O1 0.995527 0.433976 0.261297
O O2 0.761965 0.329706 0.588483
O O3 0.302911 0.096243 0.202659
O O4 0.154956 0.068605 0.194932
O O5 0.457709 0.645701 0.423718
O O6 0.600031 0.725949 0.412085
O O7 0.237855 0.033867 0.524741
O O8 0.056278 0.905975 0.822163
O O9 0.374601 0.201194 0.871221
O O10 0.141297 0.587655 0.979362
O O11 0.000000 0.500000 0.000000
O O12 0.837109 0.833268 0.283169
O O13 0.359121 0.695128 0.895283
O O14 0.000000 0.000000 0.000000
O O15 0.124809 0.415991 0.516268
O O16 0.833069 0.349223 0.679277
O O17 0.390028 0.182039 0.238974
#
# Coordination Sequence:
#
# PCOD9083442 Si02
#       8
#     2   2   2   2   2   2   2   2
#     4   9  16  31  53  77 101 131 168 205 255 305
#     4  10  19  35  56  75 100 135 172 210 255 305
#     4   8  16  31  54  80 101 130 172 211 249 300
#     4  12  24  35  49  76 109 136 171 214 256 302
#     4   9  18  35  55  73  98 134 174 210 253 304
#     4  10  20  33  51  76 104 134 169 211 253 301
#     4  10  19  34  56  77 102 136 171 209 256 307
#     4   8  15  28  54  80  98 125 170 215 245 298
#
# _framework density 27.077076999999999
#
# number of rings (size 3 to 8) (size 9 to 14) (size 15 to 20)
#    0.000    2.500    0.000    2.625    0.000    0.500 
#    0.000    1.875    0.000   25.500    0.000    0.000 
#    0.000    0.000    0.000    0.000    0.000    0.000 
#
# Total GULP energy -89366.795094 kJ/mol
# GULP energy per Si atom -5585.424693 kJ/mol
# Density = 2.701545 g / cm^3
# Si number density = 27.077077 Si / 1000 Ang^3
#
#
#
# Elastic Constant Matrix: (Units=GPa)
#
#
# Indices 1 2 3 4 5 6 
#
# 1 110.4960 49.4887 66.3016 8.1696 21.8944 -13.3305
# 2 49.4887 156.3520 12.5344 13.8632 -16.4700 -32.6646
# 3 66.3016 12.5344 150.6963 50.7166 17.2395 -17.1562
# 4 8.1696 13.8632 50.7166 34.8362 0.8902 -2.0356
# 5 21.8944 -16.4700 17.2395 0.8902 59.0788 11.9127
# 6 -13.3305 -32.6646 -17.1562 -2.0356 11.9127 51.7174
#
#
#
# Elastic Compliance Matrix: (Units=1/GPa)
#
#
# Indices 1 2 3 4 5 6 
#
# 1 0.021253 -0.008515 -0.015280 0.020622 -0.005520 -0.002885
# 2 -0.008515 0.011287 0.007686 -0.013395 0.002998 0.006266
# 3 -0.015280 0.007686 0.026360 -0.037333 -0.001023 0.008427
# 4 0.020622 -0.013395 -0.037333 0.082805 0.000780 -0.012450
# 5 -0.005520 0.002998 -0.001023 0.000780 0.021040 -0.004685
# 6 -0.002885 0.006266 0.008427 -0.012450 -0.004685 0.025934
#
#
# Mechanical properties :
#
#
# Convention : Reuss Voigt Hill
#
# Bulk Modulus (GPa) = 37.47649 74.91041 56.19345
# Shear Modulus (GPa) = 21.75890 48.40779 35.08335
#
# Velocity S-wave (km/s) = 2.83784 4.23280 3.60347
# Velocity P-wave (km/s) = 4.96070 7.18432 6.17345
#
# Compressibility (1/GPa) = 0.02668339
#
# Stress axis : x y z
#
# Youngs Moduli (GPa) = 47.05172 88.59407 37.93625
#
# Poissons Ratio (x) = 0.75437 0.57966
# Poissons Ratio (y) = 0.40064 -0.29158
# Poissons Ratio (z) = 0.71894 -0.68094
#
# Static dielectric constant tensor:
#      x y z
#    x 2.125390 -0.051830 0.048540 
#    y -0.051830 2.018420 0.002700 
#    z 0.048540 0.002700 2.249460 
# 
# From -- ./inp_files/425709.got.cif
#   From: 2010.05.17/outbox.cif.g08.bks.cpg/sg2_213_cif.got.tgz:425709.got - 2010.06.03 11:33:40.
