data_PCOD9083032
_publ_section_title
;
Structure prediction by ZEFSAII (Michael W. Deem and Ramdas Pophale) SiO2 
 PCOD9083032
Probable space group: P -1
;
_chemical_formula_sum "Si O2"
_cell_formula_units_Z 16
_cell_length_a 15.447958
_cell_length_b 15.830233
_cell_length_c 11.242165
_cell_angle_alpha 55.625693
_cell_angle_beta 141.575248
_cell_angle_gamma 151.907224
_cell_volume 725.495692
_symmetry_space_group_name_H-M "P -1"
_symmetry_group_IT_number 2
_symmetry_cell_setting 'triclinic'
loop_
_space_group_symop_operation_xyz
x,y,z
-x,-y,-z
loop_
_atom_site_type_symbol
_atom_site_label
_atom_site_fract_x
_atom_site_fract_y
_atom_site_fract_z
Si Si1 0.734808 0.855390 0.171450
Si Si2 0.741644 0.051937 0.171524
Si Si3 0.387741 0.709085 0.498111
Si Si4 0.899514 0.340314 0.942685
Si Si5 0.295650 0.236633 0.372717
Si Si6 0.320670 0.727261 0.669524
Si Si7 0.189224 0.764844 0.708585
Si Si8 0.631691 0.479691 0.783056
O O1 0.588587 0.674197 0.229491
O O2 0.826376 0.997047 0.256067
O O3 0.505510 0.765948 0.914880
O O4 0.005961 0.004693 0.273367
O O5 0.824295 0.131787 0.330232
O O6 0.854322 0.212910 0.078724
O O7 0.417240 0.853765 0.965891
O O8 0.578140 0.742208 0.620618
O O9 0.444008 0.797740 0.614733
O O10 0.351470 0.772621 0.308982
O O11 0.097275 0.469857 0.395286
O O12 0.118965 0.441132 0.001996
O O13 0.000000 0.500000 0.000000
O O14 0.495887 0.362459 0.603343
O O15 0.263211 0.338430 0.241178
O O16 0.305371 0.820664 0.657596
O O17 0.000000 0.500000 0.500000
#
# Coordination Sequence:
#
# PCOD9083032 Si02
#       8
#     2   2   2   2   2   2   2   2
#     4  11  23  42  65  91 130 174 207 258 321 377
#     4  10  19  33  60  95 123 153 211 261 311 377
#     4  11  22  39  63  89 129 167 211 264 313 370
#     4  12  20  36  61  96 124 164 208 262 325 365
#     4  11  24  41  61  99 128 165 215 258 315 389
#     4   9  20  39  64  90 123 172 214 255 316 375
#     4   9  18  33  55  87 119 155 199 256 311 359
#     4  11  23  41  64  92 135 166 204 265 327 373
#
# _framework density 22.053885999999999
#
# number of rings (size 3 to 8) (size 9 to 14) (size 15 to 20)
#    0.000    1.500    3.750    2.625    3.500    0.500 
#    2.250    3.125    2.750    0.000    0.000    0.000 
#    0.000    0.000    0.000    0.000    0.000    0.000 
#
# Total GULP energy -89338.779642 kJ/mol
# GULP energy per Si atom -5583.673728 kJ/mol
# Density = 2.200369 g / cm^3
# Si number density = 22.053886 Si / 1000 Ang^3
#
#
#
# Elastic Constant Matrix: (Units=GPa)
#
#
# Indices 1 2 3 4 5 6 
#
# 1 161.9200 26.6676 24.4596 4.8235 -1.2919 7.5094
# 2 26.6676 74.5057 -4.0155 4.9420 7.0212 7.4383
# 3 24.4596 -4.0155 30.9082 4.0016 2.8552 -7.8299
# 4 4.8235 4.9420 4.0016 24.3239 6.2455 6.9578
# 5 -1.2919 7.0212 2.8552 6.2455 43.1136 6.6248
# 6 7.5094 7.4383 -7.8299 6.9578 6.6248 26.0144
#
#
#
# Elastic Compliance Matrix: (Units=1/GPa)
#
#
# Indices 1 2 3 4 5 6 
#
# 1 0.008171 -0.003161 -0.008441 0.001310 0.001870 -0.004822
# 2 -0.003161 0.015278 0.004845 -0.002441 -0.002439 -0.000724
# 3 -0.008441 0.004845 0.046532 -0.011111 -0.005499 0.019429
# 4 0.001310 -0.002441 -0.011111 0.048391 -0.003522 -0.015070
# 5 0.001870 -0.002439 -0.005499 -0.003522 0.025610 -0.007077
# 6 -0.004822 -0.000724 0.019429 -0.015070 -0.007077 0.051720
#
#
# Mechanical properties :
#
#
# Convention : Reuss Voigt Hill
#
# Bulk Modulus (GPa) = 17.70975 40.17303 28.94139
# Shear Modulus (GPa) = 21.92607 33.37185 27.64896
#
# Velocity S-wave (km/s) = 3.15652 3.89420 3.54460
# Velocity P-wave (km/s) = 4.61871 6.20283 5.46844
#
# Compressibility (1/GPa) = 0.05646608
#
# Stress axis : x y z
#
# Youngs Moduli (GPa) = 122.38167 65.45171 21.49078
#
# Poissons Ratio (x) = 0.20691 0.18140
# Poissons Ratio (y) = 0.38689 -0.10412
# Poissons Ratio (z) = 1.03301 -0.31709
#
# Static dielectric constant tensor:
#      x y z
#    x 1.866920 0.019760 -0.010340 
#    y 0.019760 1.849630 0.007780 
#    z -0.010340 0.007780 1.836490 
# 
# From -- ./inp_files/455633.got.cif
#   From: 2010.05.17/outbox.cif.g08.bks.cpg/sg2_228_cif.got.tgz:455633.got - 2010.06.03 11:33:40.
