data_PCOD9083400
_publ_section_title
;
Structure prediction by ZEFSAII (Michael W. Deem and Ramdas Pophale) SiO2 
 PCOD9083400
Probable space group: P -1
;
_chemical_formula_sum "Si O2"
_cell_formula_units_Z 14
_cell_length_a 8.779201
_cell_length_b 12.484891
_cell_length_c 12.833197
_cell_angle_alpha 51.657486
_cell_angle_beta 132.207241
_cell_angle_gamma 104.537623
_cell_volume 783.218386
_symmetry_space_group_name_H-M "P -1"
_symmetry_group_IT_number 2
_symmetry_cell_setting 'triclinic'
loop_
_space_group_symop_operation_xyz
x,y,z
-x,-y,-z
loop_
_atom_site_type_symbol
_atom_site_label
_atom_site_fract_x
_atom_site_fract_y
_atom_site_fract_z
Si Si1 0.577848 0.027533 0.636550
Si Si2 0.882611 0.891894 0.556640
Si Si3 0.827431 0.386897 0.225179
Si Si4 0.426261 0.656870 0.496421
Si Si5 0.847430 0.448776 0.728491
Si Si6 0.887568 0.765925 0.863694
Si Si7 0.556800 0.577360 0.819810
O O1 0.371899 0.034933 0.608199
O O2 0.617383 0.180092 0.583841
O O3 0.214140 0.106930 0.177869
O O4 0.500000 0.000000 0.500000
O O5 0.930027 0.836330 0.732052
O O6 0.978834 0.752608 0.616552
O O7 0.000000 0.000000 0.500000
O O8 0.644609 0.365625 0.230082
O O9 0.940167 0.508430 0.234012
O O10 0.708285 0.438926 0.029279
O O11 0.654321 0.589447 0.583967
O O12 0.244320 0.633289 0.352025
O O13 0.456522 0.562656 0.671676
O O14 0.916782 0.350170 0.922364
O O15 0.706786 0.682862 0.810985
#
# Coordination Sequence:
#
# PCOD9083400 Si02
#       7
#     2   2   2   2   2   2   2
#     4  10  19  34  55  83 107 143 182 228 270 316
#     4  11  20  31  57  84 108 141 186 229 271 320
#     4  10  20  34  54  87 110 142 181 234 267 319
#     4  11  20  36  59  82 110 151 179 223 271 337
#     4  10  22  37  57  83 112 147 185 217 279 327
#     4  10  20  37  56  84 111 143 182 230 274 323
#     4  10  19  34  59  81 112 139 186 227 275 313
#
# _framework density 17.874963000000001
#
# number of rings (size 3 to 8) (size 9 to 14) (size 15 to 20)
#    0.000    1.714    4.286    1.714    2.000    3.429 
#    0.000    0.000    0.000    0.857    0.000    0.000 
#    0.000    0.000    0.000    0.000    0.000    0.000 
#
# Total GULP energy -77947.653890 kJ/mol
# GULP energy per Si atom -5567.689564 kJ/mol
# Density = 1.783428 g / cm^3
# Si number density = 17.874963 Si / 1000 Ang^3
#
#
#
# Elastic Constant Matrix: (Units=GPa)
#
#
# Indices 1 2 3 4 5 6 
#
# 1 83.0425 18.0797 25.7057 -2.3119 -10.6054 14.4853
# 2 18.0797 66.7844 19.9061 -1.5265 -3.5538 1.9886
# 3 25.7057 19.9061 56.8109 12.0221 -2.4001 13.3992
# 4 -2.3119 -1.5265 12.0221 26.3514 -8.2365 6.0709
# 5 -10.6054 -3.5538 -2.4001 -8.2365 27.2407 -9.5711
# 6 14.4853 1.9886 13.3992 6.0709 -9.5711 23.3478
#
#
#
# Elastic Compliance Matrix: (Units=1/GPa)
#
#
# Indices 1 2 3 4 5 6 
#
# 1 0.016518 -0.001764 -0.006875 0.007645 0.005896 -0.005723
# 2 -0.001764 0.017763 -0.007158 0.004372 0.003760 0.004094
# 3 -0.006875 -0.007158 0.028624 -0.014359 -0.009553 -0.011735
# 4 0.007645 0.004372 -0.014359 0.051409 0.016621 -0.003428
# 5 0.005896 0.003760 -0.009553 0.016621 0.049873 0.017628
# 6 -0.005723 0.004094 -0.011735 -0.003428 0.017628 0.060885
#
#
# Mechanical properties :
#
#
# Convention : Reuss Voigt Hill
#
# Bulk Modulus (GPa) = 31.93678 37.11342 34.52510
# Shear Modulus (GPa) = 18.71950 24.91773 21.81861
#
# Velocity S-wave (km/s) = 3.23963 3.73768 3.49753
# Velocity P-wave (km/s) = 5.64793 6.27972 5.97219
#
# Compressibility (1/GPa) = 0.03131186
#
# Stress axis : x y z
#
# Youngs Moduli (GPa) = 60.53900 56.29804 34.93599
#
# Poissons Ratio (x) = 0.09929 0.24018
# Poissons Ratio (y) = 0.10677 0.25006
# Poissons Ratio (z) = 0.41620 0.40297
#
# Static dielectric constant tensor:
#      x y z
#    x 1.641550 -0.006010 0.014440 
#    y -0.006010 1.632820 -0.029880 
#    z 0.014440 -0.029880 1.636250 
# 
# From -- ./inp_files/386118.got.cif
#   From: 2010.05.17/outbox.cif.g08.bks.cpg/sg2_194_cif.got.tgz:386118.got - 2010.06.03 11:33:40.
