data_PCOD9083328
_publ_section_title
;
Structure prediction by ZEFSAII (Michael W. Deem and Ramdas Pophale) SiO2 
 PCOD9083328
Probable space group: P -1
;
_chemical_formula_sum "Si O2"
_cell_formula_units_Z 16
_cell_length_a 4.980036
_cell_length_b 9.063373
_cell_length_c 16.537388
_cell_angle_alpha 89.578058
_cell_angle_beta 54.507178
_cell_angle_gamma 89.038874
_cell_volume 607.646687
_symmetry_space_group_name_H-M "P -1"
_symmetry_group_IT_number 2
_symmetry_cell_setting 'triclinic'
loop_
_space_group_symop_operation_xyz
x,y,z
-x,-y,-z
loop_
_atom_site_type_symbol
_atom_site_label
_atom_site_fract_x
_atom_site_fract_y
_atom_site_fract_z
Si Si1 0.587879 0.598761 0.907459
Si Si2 0.238885 0.072686 0.136428
Si Si3 0.689991 0.095135 0.618506
Si Si4 0.882821 0.509371 0.620128
Si Si5 0.760989 0.545382 0.173228
Si Si6 0.738549 0.676737 0.516161
Si Si7 0.179804 0.901595 0.626618
Si Si8 0.264096 0.125291 0.855026
O O1 0.615486 0.772066 0.917007
O O2 0.330422 0.567074 0.881753
O O3 0.948922 0.526381 0.822947
O O4 0.500000 0.500000 0.000000
O O5 0.020373 0.115014 0.254220
O O6 0.492811 0.945104 0.121401
O O7 0.016688 0.993883 0.109361
O O8 0.465830 0.127416 0.735574
O O9 0.933550 0.226854 0.556392
O O10 0.438465 0.032705 0.597548
O O11 0.930262 0.962776 0.604096
O O12 0.581704 0.438775 0.718481
O O13 0.723096 0.662828 0.620397
O O14 0.000000 0.500000 0.500000
O O15 0.220715 0.423276 0.578642
O O16 0.847556 0.703963 0.118391
O O17 0.383934 0.756129 0.567489
#
# Coordination Sequence:
#
# PCOD9083328 Si02
#       8
#     2   2   2   2   2   2   2   2
#     4  12  28  48  74 103 136 176 231 287 352 417
#     4  10  22  41  66  95 138 171 226 276 342 398
#     4  10  19  34  54  84 126 165 219 259 320 369
#     4   8  20  37  64  91 136 175 222 268 321 399
#     4  12  23  48  73 102 139 186 224 286 347 404
#     4   9  17  34  51  88 128 163 227 254 318 374
#     4  10  20  32  58  83 118 174 209 267 315 384
#     4  10  20  40  67 100 129 181 218 278 334 414
#
# _framework density 26.331092000000002
#
# number of rings (size 3 to 8) (size 9 to 14) (size 15 to 20)
#    0.750    1.000    1.250    3.375    0.000    2.000 
#    0.000    6.875    0.000    0.000    0.000    0.000 
#    0.000    0.000    0.000    0.000    0.000    0.000 
#
# Total GULP energy -89210.216955 kJ/mol
# GULP energy per Si atom -5575.638560 kJ/mol
# Density = 2.627116 g / cm^3
# Si number density = 26.331092 Si / 1000 Ang^3
#
#
#
# Elastic Constant Matrix: (Units=GPa)
#
#
# Indices 1 2 3 4 5 6 
#
# 1 79.0863 10.3313 -6.0581 1.6928 -15.4209 1.2896
# 2 10.3313 138.8007 10.9377 -10.3434 -13.5215 6.5694
# 3 -6.0581 10.9377 96.6509 -0.4105 -4.1597 14.7640
# 4 1.6928 -10.3434 -0.4105 32.0451 -2.2524 -14.7801
# 5 -15.4209 -13.5215 -4.1597 -2.2524 13.9208 -1.2030
# 6 1.2896 6.5694 14.7640 -14.7801 -1.2030 27.1468
#
#
#
# Elastic Compliance Matrix: (Units=1/GPa)
#
#
# Indices 1 2 3 4 5 6 
#
# 1 0.016510 0.000570 0.001958 0.000239 0.019380 -0.000998
# 2 0.000570 0.008342 -0.000596 0.003599 0.009194 0.000645
# 3 0.001958 -0.000596 0.011953 -0.003697 0.003847 -0.008292
# 4 0.000239 0.003599 -0.003697 0.045322 0.012265 0.026347
# 5 0.019380 0.009194 0.003847 0.012265 0.105898 0.006133
# 6 -0.000998 0.000645 -0.008292 0.026347 0.006133 0.055854
#
#
# Mechanical properties :
#
#
# Convention : Reuss Voigt Hill
#
# Bulk Modulus (GPa) = 24.58862 38.32887 31.45874
# Shear Modulus (GPa) = 19.71827 34.57768 27.14798
#
# Velocity S-wave (km/s) = 2.73950 3.62773 3.21444
# Velocity P-wave (km/s) = 4.40057 5.66880 5.07446
#
# Compressibility (1/GPa) = 0.04066922
#
# Stress axis : x y z
#
# Youngs Moduli (GPa) = 60.56947 119.86894 83.65989
#
# Poissons Ratio (x) = -0.06830 -0.16380
# Poissons Ratio (y) = -0.03451 0.04985
# Poissons Ratio (z) = -0.11859 0.07143
#
# Static dielectric constant tensor:
#      x y z
#    x 1.890990 0.641540 -0.107780 
#    y 0.641540 1.690340 0.197040 
#    z -0.107780 0.197040 2.213290 
# 
# From -- ./inp_files/582403.got.cif
#   From: 2010.05.17/outbox.cif.g08.bks.cpg/sg2_292_cif.got.tgz:582403.got - 2010.06.03 11:33:40.
