data_PCOD9083186
_publ_section_title
;
Structure prediction by ZEFSAII (Michael W. Deem and Ramdas Pophale) SiO2 
 PCOD9083186
Probable space group: P -1
;
_chemical_formula_sum "Si O2"
_cell_formula_units_Z 16
_cell_length_a 14.987448
_cell_length_b 18.089931
_cell_length_c 7.256506
_cell_angle_alpha 64.697599
_cell_angle_beta 55.726839
_cell_angle_gamma 22.711573
_cell_volume 600.994083
_symmetry_space_group_name_H-M "P -1"
_symmetry_group_IT_number 2
_symmetry_cell_setting 'triclinic'
loop_
_space_group_symop_operation_xyz
x,y,z
-x,-y,-z
loop_
_atom_site_type_symbol
_atom_site_label
_atom_site_fract_x
_atom_site_fract_y
_atom_site_fract_z
Si Si1 0.623700 0.568195 0.862591
Si Si2 0.255217 0.079223 0.069804
Si Si3 0.813388 0.654791 0.818243
Si Si4 0.157162 0.967148 0.442599
Si Si5 0.273198 0.468158 0.804852
Si Si6 0.858014 0.852421 0.283055
Si Si7 0.358961 0.270877 0.463192
Si Si8 0.130534 0.822474 0.077673
O O1 0.522361 0.727864 0.759479
O O2 0.922848 0.357623 0.667750
O O3 0.638694 0.547828 0.088100
O O4 0.438477 0.628961 0.924714
O O5 0.989580 0.307407 0.210063
O O6 0.210818 0.011696 0.214064
O O7 0.235203 0.116587 0.837046
O O8 0.570915 0.870147 0.967214
O O9 0.750488 0.699033 0.623971
O O10 0.126532 0.453374 0.678064
O O11 0.798827 0.571379 0.991950
O O12 0.449117 0.732670 0.412627
O O13 0.000000 0.000000 0.500000
O O14 0.975003 0.123536 0.653432
O O15 0.024310 0.820724 0.086295
O O16 0.603447 0.049709 0.489498
O O17 0.000000 0.000000 0.000000
#
# Coordination Sequence:
#
# PCOD9083186 Si02
#       8
#     2   2   2   2   2   2   2   2
#     4  10  19  34  52  77 112 140 176 218 259 312
#     4   9  19  36  55  79 109 139 174 219 262 312
#     4   8  16  29  55  79 109 135 171 220 265 311
#     4  11  21  36  54  77 108 141 179 216 257 314
#     4   9  18  35  55  80 105 139 177 218 263 309
#     4  10  20  34  53  78 110 141 177 215 261 312
#     4   9  16  31  50  81 109 139 170 216 269 309
#     4  12  22  37  54  76 110 146 174 215 265 310
#
# _framework density 26.62256
#
# number of rings (size 3 to 8) (size 9 to 14) (size 15 to 20)
#    0.000    2.250    2.500    1.875    0.000    1.500 
#    4.500    5.000    0.000    3.000    0.000    5.250 
#    0.000    0.000    0.000    0.000    0.000    0.000 
#
# Total GULP energy -89415.158203 kJ/mol
# GULP energy per Si atom -5588.447388 kJ/mol
# Density = 2.656197 g / cm^3
# Si number density = 26.622560 Si / 1000 Ang^3
#
#
#
# Elastic Constant Matrix: (Units=GPa)
#
#
# Indices 1 2 3 4 5 6 
#
# 1 49.1404 10.1622 11.4926 4.3159 -1.9450 -5.2764
# 2 10.1622 169.9330 42.2412 52.5572 -9.1316 5.3214
# 3 11.4926 42.2412 84.5646 27.2194 -1.6702 -8.1238
# 4 4.3159 52.5572 27.2194 48.4339 -5.8228 -7.3985
# 5 -1.9450 -9.1316 -1.6702 -5.8228 39.1594 5.5886
# 6 -5.2764 5.3214 -8.1238 -7.3985 5.5886 36.8118
#
#
#
# Elastic Compliance Matrix: (Units=1/GPa)
#
#
# Indices 1 2 3 4 5 6 
#
# 1 0.021370 -0.001086 -0.002447 0.001138 0.000468 0.002838
# 2 -0.001086 0.009641 -0.001891 -0.009782 0.001247 -0.004122
# 3 -0.002447 -0.001891 0.015258 -0.006100 -0.001138 0.002237
# 4 0.001138 -0.009782 -0.006100 0.035904 0.001831 0.007169
# 5 0.000468 0.001247 -0.001138 0.001831 0.026651 -0.004042
# 6 0.002838 -0.004122 0.002237 0.007169 -0.004042 0.030716
#
#
# Mechanical properties :
#
#
# Convention : Reuss Voigt Hill
#
# Bulk Modulus (GPa) = 28.23041 47.93669 38.08355
# Shear Modulus (GPa) = 30.82722 40.86382 35.84552
#
# Velocity S-wave (km/s) = 3.40654 3.92207 3.67336
# Velocity P-wave (km/s) = 5.10878 6.20929 5.68573
#
# Compressibility (1/GPa) = 0.03542280
#
# Stress axis : x y z
#
# Youngs Moduli (GPa) = 46.79505 103.72116 65.53827
#
# Poissons Ratio (x) = 0.11260 0.16034
# Poissons Ratio (y) = 0.05080 0.12394
# Poissons Ratio (z) = 0.11449 0.19615
#
# Static dielectric constant tensor:
#      x y z
#    x 2.143880 -0.022650 0.028870 
#    y -0.022650 2.120280 0.045740 
#    z 0.028870 0.045740 2.137870 
# 
# From -- ./inp_files/272338.got.cif
#   From: 2010.05.17/outbox.cif.g08.bks.cpg/sg2_137_cif.got.tgz:272338.got - 2010.06.03 11:33:40.
