data_PCOD9083327
_publ_section_title
;
Structure prediction by ZEFSAII (Michael W. Deem and Ramdas Pophale) SiO2 
 PCOD9083327
Probable space group: P -1
;
_chemical_formula_sum "Si O2"
_cell_formula_units_Z 16
_cell_length_a 24.210697
_cell_length_b 16.534538
_cell_length_c 5.607621
_cell_angle_alpha 126.670083
_cell_angle_beta 123.651682
_cell_angle_gamma 24.520608
_cell_volume 746.862748
_symmetry_space_group_name_H-M "P -1"
_symmetry_group_IT_number 2
_symmetry_cell_setting 'triclinic'
loop_
_space_group_symop_operation_xyz
x,y,z
-x,-y,-z
loop_
_atom_site_type_symbol
_atom_site_label
_atom_site_fract_x
_atom_site_fract_y
_atom_site_fract_z
Si Si1 0.124235 0.757089 0.881510
Si Si2 0.139983 0.378900 0.643984
Si Si3 0.404782 0.687171 0.349327
Si Si4 0.062079 0.531214 0.227341
Si Si5 0.337636 0.949320 0.285445
Si Si6 0.417991 0.456166 0.072368
Si Si7 0.164534 0.042404 0.717450
Si Si8 0.964701 0.165762 0.697116
O O1 0.120834 0.709329 0.529933
O O2 0.267175 0.620404 0.010261
O O3 0.099241 0.727673 0.012231
O O4 0.000000 0.000000 0.000000
O O5 0.149422 0.417710 0.474964
O O6 0.000000 0.500000 0.500000
O O7 0.268082 0.138549 0.559741
O O8 0.125646 0.463572 0.998035
O O9 0.350059 0.842956 0.316327
O O10 0.433503 0.534207 0.075227
O O11 0.477653 0.417327 0.397548
O O12 0.281499 0.832161 0.492419
O O13 0.944568 0.767258 0.384200
O O14 0.000000 0.500000 0.000000
O O15 0.481633 0.761267 0.171841
O O16 0.232299 0.048600 0.014435
O O17 0.094536 0.061771 0.773737
O O18 0.000000 0.000000 0.500000
#
# Coordination Sequence:
#
# PCOD9083327 Si02
#       8
#     2   2   2   2   2   2   2   2
#     4  10  22  41  58  78 110 157 208 246 280 330
#     4  10  19  34  54  84 123 149 188 234 295 371
#     4  10  21  36  54  85 125 158 199 234 312 368
#     4  10  19  34  54  87 123 148 188 242 300 364
#     4  11  22  33  59  87 124 160 190 240 313 371
#     4  10  23  37  55  84 119 164 200 250 294 362
#     4  11  22  34  60  90 122 159 194 249 302 360
#     4  10  23  37  58  85 113 159 204 246 281 335
#
# _framework density 21.422947000000001
#
# number of rings (size 3 to 8) (size 9 to 14) (size 15 to 20)
#    0.000    1.750    2.500    3.375    8.750    0.000 
#    0.000    0.000    0.000    0.000    0.000    5.250 
#    0.000    0.000    0.000    0.000    0.000    0.000 
#
# Total GULP energy -89267.582243 kJ/mol
# GULP energy per Si atom -5579.223890 kJ/mol
# Density = 2.137419 g / cm^3
# Si number density = 21.422947 Si / 1000 Ang^3
#
#
#
# Elastic Constant Matrix: (Units=GPa)
#
#
# Indices 1 2 3 4 5 6 
#
# 1 58.1570 32.0352 25.9845 -12.6095 -18.6917 -5.5674
# 2 32.0352 137.0928 37.8319 1.3492 2.2747 -5.1452
# 3 25.9845 37.8319 90.6575 -2.4832 -25.0598 1.5210
# 4 -12.6095 1.3492 -2.4832 21.9499 11.0503 2.3787
# 5 -18.6917 2.2747 -25.0598 11.0503 39.6404 -5.0020
# 6 -5.5674 -5.1452 1.5210 2.3787 -5.0020 38.0141
#
#
#
# Elastic Compliance Matrix: (Units=1/GPa)
#
#
# Indices 1 2 3 4 5 6 
#
# 1 0.027079 -0.005692 -0.002702 0.010718 0.008879 0.003801
# 2 -0.005692 0.009829 -0.003980 -0.001668 -0.005291 0.000064
# 3 -0.002702 -0.003980 0.016259 -0.004810 0.010587 0.000109
# 4 0.010718 -0.001668 -0.004810 0.059236 -0.014926 -0.004134
# 5 0.008879 -0.005291 0.010587 -0.014926 0.041396 0.006542
# 6 0.003801 0.000064 0.000109 -0.004134 0.006542 0.027986
#
#
# Mechanical properties :
#
#
# Convention : Reuss Voigt Hill
#
# Bulk Modulus (GPa) = 35.18708 53.06782 44.12745
# Shear Modulus (GPa) = 23.14746 32.59127 27.86937
#
# Velocity S-wave (km/s) = 3.29066 3.90465 3.61073
# Velocity P-wave (km/s) = 5.55864 6.71965 6.16653
#
# Compressibility (1/GPa) = 0.02841952
#
# Stress axis : x y z
#
# Youngs Moduli (GPa) = 36.92894 101.73704 61.50566
#
# Poissons Ratio (x) = 0.57911 0.16618
# Poissons Ratio (y) = 0.21021 0.24477
# Poissons Ratio (z) = 0.09978 0.40487
#
# Static dielectric constant tensor:
#      x y z
#    x 1.826990 0.024200 -0.033080 
#    y 0.024200 1.775740 0.050830 
#    z -0.033080 0.050830 1.883800 
# 
# From -- ./inp_files/93415.got.cif
#   From: 2010.05.17/outbox.cif.g08.bks.cpg/sg2_47_cif.got.tgz:93415.got - 2010.06.03 11:33:40.
