data_PCOD9083040
_publ_section_title
;
Structure prediction by ZEFSAII (Michael W. Deem and Ramdas Pophale) SiO2 
 PCOD9083040
Probable space group: P -1
;
_chemical_formula_sum "Si O2"
_cell_formula_units_Z 12
_cell_length_a 16.625791
_cell_length_b 9.690685
_cell_length_c 11.896145
_cell_angle_alpha 142.616710
_cell_angle_beta 142.444095
_cell_angle_gamma 26.981995
_cell_volume 502.423079
_symmetry_space_group_name_H-M "P -1"
_symmetry_group_IT_number 2
_symmetry_cell_setting 'triclinic'
loop_
_space_group_symop_operation_xyz
x,y,z
-x,-y,-z
loop_
_atom_site_type_symbol
_atom_site_label
_atom_site_fract_x
_atom_site_fract_y
_atom_site_fract_z
Si Si1 0.188242 0.837451 0.172295
Si Si2 0.664575 0.461354 0.199163
Si Si3 0.756350 0.754267 0.624653
Si Si4 0.403994 0.207591 0.886143
Si Si5 0.891663 0.785312 0.470842
Si Si6 0.793841 0.838700 0.976866
O O1 0.262104 0.984351 0.294073
O O2 0.146453 0.940673 0.323103
O O3 0.335510 0.457181 0.070255
O O4 0.000000 0.000000 0.000000
O O5 0.633694 0.691480 0.405783
O O6 0.698995 0.556733 0.185160
O O7 0.500000 0.500000 0.000000
O O8 0.802996 0.101613 0.163508
O O9 0.741569 0.825893 0.784591
O O10 0.963529 0.406349 0.595309
O O11 0.302985 0.088522 0.701991
O O12 0.623965 0.957108 0.943708
O O13 0.000000 0.500000 0.500000
O O14 0.000000 0.500000 0.000000
#
# Coordination Sequence:
#
# PCOD9083040 Si02
#       6
#     2   2   2   2   2   2
#     4  11  18  32  63 101 127 146 189 267 318 366
#     4  10  21  37  61  94 118 157 207 253 310 363
#     4  11  21  37  65  92 129 159 202 256 315 365
#     4  11  20  38  63  96 121 157 204 258 315 364
#     4  10  19  33  60  99 125 145 198 262 324 359
#     4  11  27  43  58  84 131 175 213 250 300 368
#
# _framework density 23.884253999999999
#
# number of rings (size 3 to 8) (size 9 to 14) (size 15 to 20)
#    0.000    1.333    8.333    0.000    0.000    6.000 
#    0.000    0.833    0.000    2.000    0.000    0.000 
#    0.000    0.000    0.000    0.000    0.000    0.000 
#
# Total GULP energy -67009.694484 kJ/mol
# GULP energy per Si atom -5584.141207 kJ/mol
# Density = 2.382989 g / cm^3
# Si number density = 23.884254 Si / 1000 Ang^3
#
#
#
# Elastic Constant Matrix: (Units=GPa)
#
#
# Indices 1 2 3 4 5 6 
#
# 1 58.9365 29.3165 45.5888 2.5620 -2.8028 -32.3108
# 2 29.3165 124.8999 51.0045 2.0165 2.8730 -33.3649
# 3 45.5888 51.0045 192.8804 22.9330 1.8463 -23.6828
# 4 2.5620 2.0165 22.9330 35.4966 -24.7466 -4.3513
# 5 -2.8028 2.8730 1.8463 -24.7466 43.2187 5.1654
# 6 -32.3108 -33.3649 -23.6828 -4.3513 5.1654 43.9092
#
#
#
# Elastic Compliance Matrix: (Units=1/GPa)
#
#
# Indices 1 2 3 4 5 6 
#
# 1 0.033333 0.000273 -0.006131 0.006769 0.003692 0.021665
# 2 0.000273 0.010810 -0.002114 0.000999 -0.000933 0.007484
# 3 -0.006131 -0.002114 0.008004 -0.008498 -0.005222 -0.002028
# 4 0.006769 0.000999 -0.008498 0.056162 0.032548 0.002893
# 5 0.003692 -0.000933 -0.005222 0.032548 0.042609 -0.002596
# 6 0.021665 0.007484 -0.002028 0.002893 -0.002596 0.043901
#
#
# Mechanical properties :
#
#
# Convention : Reuss Voigt Hill
#
# Bulk Modulus (GPa) = 27.62182 69.83740 48.72961
# Shear Modulus (GPa) = 22.43857 41.24538 31.84197
#
# Velocity S-wave (km/s) = 3.06840 4.16009 3.65523
# Velocity P-wave (km/s) = 4.91360 7.23730 6.18555
#
# Compressibility (1/GPa) = 0.03620326
#
# Stress axis : x y z
#
# Youngs Moduli (GPa) = 30.00055 92.50632 124.93853
#
# Poissons Ratio (x) = -0.02525 0.76595
# Poissons Ratio (y) = -0.00819 0.26413
# Poissons Ratio (z) = 0.18392 0.19556
#
# Static dielectric constant tensor:
#      x y z
#    x 2.000870 0.006830 0.067930 
#    y 0.006830 2.111720 -0.013080 
#    z 0.067930 -0.013080 1.999520 
# 
# From -- ./inp_files/541176.got.cif
#   From: 2010.05.17/outbox.cif.g08.bks.cpg/sg2_271_cif.got.tgz:541176.got - 2010.06.03 11:33:40.
