data_PCOD9083467
_publ_section_title
;
Structure prediction by ZEFSAII (Michael W. Deem and Ramdas Pophale) SiO2 
 PCOD9083467
Probable space group: P -1
;
_chemical_formula_sum "Si O2"
_cell_formula_units_Z 14
_cell_length_a 12.746056
_cell_length_b 8.349010
_cell_length_c 8.191768
_cell_angle_alpha 130.537029
_cell_angle_beta 118.931204
_cell_angle_gamma 73.083293
_cell_volume 579.471804
_symmetry_space_group_name_H-M "P -1"
_symmetry_group_IT_number 2
_symmetry_cell_setting 'triclinic'
loop_
_space_group_symop_operation_xyz
x,y,z
-x,-y,-z
loop_
_atom_site_type_symbol
_atom_site_label
_atom_site_fract_x
_atom_site_fract_y
_atom_site_fract_z
Si Si1 0.885513 0.511532 0.301798
Si Si2 0.521308 0.199279 0.394315
Si Si3 0.347203 0.040454 0.413810
Si Si4 0.085514 0.921380 0.150966
Si Si5 0.070171 0.293360 0.863974
Si Si6 0.634618 0.429247 0.026152
Si Si7 0.663999 0.627203 0.831337
O O1 0.880011 0.305955 0.043377
O O2 0.911427 0.693745 0.307732
O O3 0.000000 0.500000 0.500000
O O4 0.751359 0.489482 0.265312
O O5 0.600351 0.013665 0.403107
O O6 0.610707 0.403336 0.570530
O O7 0.431803 0.199409 0.174006
O O8 0.423490 0.211511 0.478882
O O9 0.364717 0.820469 0.179839
O O10 0.206629 0.062372 0.340738
O O11 0.013105 0.889649 0.242089
O O12 0.000000 0.000000 0.000000
O O13 0.199912 0.302289 0.057419
O O14 0.000000 0.500000 0.000000
O O15 0.666468 0.564366 0.978996
O O16 0.500000 0.500000 0.000000
#
# Coordination Sequence:
#
# PCOD9083467 Si02
#       7
#     2   2   2   2   2   2   2
#     4   9  19  37  53  77 108 140 177 222 259 316
#     4   9  16  30  48  74 100 125 166 208 265 285
#     4   9  18  32  50  73 112 129 158 225 258 297
#     4  10  19  34  56  81 104 138 177 213 273 315
#     4   9  17  32  53  75 106 136 173 214 263 312
#     4   9  18  35  50  70 103 142 175 200 261 316
#     4   9  17  30  51  74 101 132 167 214 255 307
#
# _framework density 24.159931
#
# number of rings (size 3 to 8) (size 9 to 14) (size 15 to 20)
#    0.000    2.857    0.000    3.429    0.000    0.000 
#   25.714    1.429    0.000    0.000    0.000    0.000 
#    0.000    0.000    0.000    0.000    0.000    0.000 
#
# Total GULP energy -77989.666155 kJ/mol
# GULP energy per Si atom -5570.690440 kJ/mol
# Density = 2.410494 g / cm^3
# Si number density = 24.159931 Si / 1000 Ang^3
#
#
#
# Elastic Constant Matrix: (Units=GPa)
#
#
# Indices 1 2 3 4 5 6 
#
# 1 131.4201 15.4823 40.0423 3.5686 46.1116 -2.1071
# 2 15.4823 71.0771 28.6680 -1.9577 6.9794 4.9332
# 3 40.0423 28.6680 93.5099 -1.0011 39.7267 -10.9729
# 4 3.5686 -1.9577 -1.0011 56.6209 -14.2924 6.6352
# 5 46.1116 6.9794 39.7267 -14.2924 45.0126 -5.2569
# 6 -2.1071 4.9332 -10.9729 6.6352 -5.2569 30.8594
#
#
#
# Elastic Compliance Matrix: (Units=1/GPa)
#
#
# Indices 1 2 3 4 5 6 
#
# 1 0.013206 -0.002232 0.002046 -0.005087 -0.016573 0.000257
# 2 -0.002232 0.017521 -0.007927 0.002960 0.006895 -0.005234
# 3 0.002046 -0.007927 0.022189 -0.006287 -0.021633 0.006963
# 4 -0.005087 0.002960 -0.006287 0.022850 0.016963 -0.005080
# 5 -0.016573 0.006895 -0.021633 0.016963 0.062257 -0.002968
# 6 0.000257 -0.005234 0.006963 -0.005080 -0.002968 0.036322
#
#
# Mechanical properties :
#
#
# Convention : Reuss Voigt Hill
#
# Bulk Modulus (GPa) = 27.25692 51.59915 39.42804
# Shear Modulus (GPa) = 24.65469 40.61957 32.63713
#
# Velocity S-wave (km/s) = 3.19796 4.10479 3.67942
# Velocity P-wave (km/s) = 4.99422 6.62340 5.86565
#
# Compressibility (1/GPa) = 0.03668793
#
# Stress axis : x y z
#
# Youngs Moduli (GPa) = 75.72213 57.07564 45.06825
#
# Poissons Ratio (x) = 0.12741 -0.09221
# Poissons Ratio (y) = 0.16904 0.35727
# Poissons Ratio (z) = -0.15493 0.45246
#
# Static dielectric constant tensor:
#      x y z
#    x 1.991400 -0.025170 0.022170 
#    y -0.025170 1.945320 0.031060 
#    z 0.022170 0.031060 2.026430 
# 
# From -- ./inp_files/170379.got.cif
#   From: 2010.05.17/outbox.cif.g08.bks.cpg/sg2_86_cif.got.tgz:170379.got - 2010.06.03 11:33:40.
