data_PCOD9083180
_publ_section_title
;
Structure prediction by ZEFSAII (Michael W. Deem and Ramdas Pophale) SiO2 
 PCOD9083180
Probable space group: P -1
;
_chemical_formula_sum "Si O2"
_cell_formula_units_Z 16
_cell_length_a 9.221066
_cell_length_b 15.705029
_cell_length_c 5.548874
_cell_angle_alpha 69.828552
_cell_angle_beta 125.152905
_cell_angle_gamma 100.090096
_cell_volume 616.431810
_symmetry_space_group_name_H-M "P -1"
_symmetry_group_IT_number 2
_symmetry_cell_setting 'triclinic'
loop_
_space_group_symop_operation_xyz
x,y,z
-x,-y,-z
loop_
_atom_site_type_symbol
_atom_site_label
_atom_site_fract_x
_atom_site_fract_y
_atom_site_fract_z
Si Si1 0.463518 0.923223 0.341808
Si Si2 0.703307 0.788188 0.904505
Si Si3 0.131654 0.358903 0.517802
Si Si4 0.344153 0.682723 0.237397
Si Si5 0.360197 0.436411 0.296378
Si Si6 0.986449 0.197066 0.208669
Si Si7 0.227056 0.059050 0.779479
Si Si8 0.236435 0.587641 0.720910
O O1 0.511039 0.823721 0.588330
O O2 0.619572 0.930939 0.285010
O O3 0.500000 0.000000 0.500000
O O4 0.727021 0.040161 0.971641
O O5 0.877584 0.791744 0.896045
O O6 0.713554 0.689652 0.129585
O O7 0.734854 0.866265 0.054964
O O8 0.190159 0.431151 0.307938
O O9 0.050702 0.274149 0.379741
O O10 0.974474 0.401652 0.481653
O O11 0.555986 0.666012 0.496585
O O12 0.287347 0.623291 0.473341
O O13 0.303515 0.644819 0.964681
O O14 0.219672 0.773270 0.050528
O O15 0.500000 0.500000 0.500000
O O16 0.310684 0.486626 0.952796
O O17 0.040248 0.097691 0.461375
#
# Coordination Sequence:
#
# PCOD9083180 Si02
#       8
#     2   2   2   2   2   2   2   2
#     4   8  13  22  39  70 104 136 160 205 257 301
#     4   9  15  27  45  69 101 132 174 211 257 305
#     4  10  19  34  52  75 101 138 178 222 269 319
#     4  10  20  37  55  77 105 137 173 223 272 320
#     4  10  22  39  53  75 103 136 175 226 276 323
#     4   9  17  30  48  73 100 138 174 217 256 315
#     4   8  14  23  42  68 105 134 166 205 257 300
#     4  10  20  38  56  77 100 136 176 224 271 326
#
# _framework density 25.955829999999999
#
# number of rings (size 3 to 8) (size 9 to 14) (size 15 to 20)
#    0.000    2.750    1.250    0.750    0.000    0.000 
#    9.000    3.750    0.000    0.000    0.000    0.875 
#    0.000   90.000    0.000   15.000    0.000    1.375 
#
# Total GULP energy -89271.142944 kJ/mol
# GULP energy per Si atom -5579.446434 kJ/mol
# Density = 2.589675 g / cm^3
# Si number density = 25.955830 Si / 1000 Ang^3
#
#
#
# Elastic Constant Matrix: (Units=GPa)
#
#
# Indices 1 2 3 4 5 6 
#
# 1 81.1449 15.8851 23.5501 6.9772 8.2970 -40.2198
# 2 15.8851 118.3106 48.3974 -14.1547 3.5421 -36.8720
# 3 23.5501 48.3974 165.2025 -23.4638 36.3207 -18.1257
# 4 6.9772 -14.1547 -23.4638 43.7466 -10.7880 7.0993
# 5 8.2970 3.5421 36.3207 -10.7880 52.6092 -2.5344
# 6 -40.2198 -36.8720 -18.1257 7.0993 -2.5344 39.3272
#
#
#
# Elastic Compliance Matrix: (Units=1/GPa)
#
#
# Indices 1 2 3 4 5 6 
#
# 1 0.036085 0.009730 -0.003875 -0.013233 -0.004151 0.046362
# 2 0.009730 0.015743 -0.003918 -0.002152 0.000794 0.023345
# 3 -0.003875 -0.003918 0.008801 0.003656 -0.004670 -0.004540
# 4 -0.013233 -0.002152 0.003656 0.030575 0.005059 -0.019059
# 5 -0.004151 0.000794 -0.004670 0.005059 0.023628 -0.005045
# 6 0.046362 0.023345 -0.004540 -0.019059 -0.005045 0.095753
#
#
# Mechanical properties :
#
#
# Convention : Reuss Voigt Hill
#
# Bulk Modulus (GPa) = 15.50272 60.03591 37.76932
# Shear Modulus (GPa) = 21.90952 45.59163 33.75058
#
# Velocity S-wave (km/s) = 2.90851 4.19562 3.60989
# Velocity P-wave (km/s) = 4.15511 6.83017 5.65315
#
# Compressibility (1/GPa) = 0.06450480
#
# Stress axis : x y z
#
# Youngs Moduli (GPa) = 27.71206 63.52071 113.62076
#
# Poissons Ratio (x) = -0.61807 0.44023
# Poissons Ratio (y) = -0.26964 0.44515
# Poissons Ratio (z) = 0.10737 0.24887
#
# Static dielectric constant tensor:
#      x y z
#    x 1.987620 -0.023980 0.053570 
#    y -0.023980 2.043970 0.055860 
#    z 0.053570 0.055860 2.284830 
# 
# From -- ./inp_files/52561.got.cif
#   From: 2010.05.17/outbox.cif.g08.bks.cpg/sg2_27_cif.got.tgz:52561.got - 2010.06.03 11:33:40.
