data_PCOD9083420
_publ_section_title
;
Structure prediction by ZEFSAII (Michael W. Deem and Ramdas Pophale) SiO2 
 PCOD9083420
Probable space group: P -1
;
_chemical_formula_sum "Si O2"
_cell_formula_units_Z 16
_cell_length_a 13.527361
_cell_length_b 10.626741
_cell_length_c 10.335317
_cell_angle_alpha 46.859965
_cell_angle_beta 44.993558
_cell_angle_gamma 70.566207
_cell_volume 732.997312
_symmetry_space_group_name_H-M "P -1"
_symmetry_group_IT_number 2
_symmetry_cell_setting 'triclinic'
loop_
_space_group_symop_operation_xyz
x,y,z
-x,-y,-z
loop_
_atom_site_type_symbol
_atom_site_label
_atom_site_fract_x
_atom_site_fract_y
_atom_site_fract_z
Si Si1 0.730311 0.231318 0.849318
Si Si2 0.963955 0.572676 0.316285
Si Si3 0.734948 0.183632 0.175533
Si Si4 0.428578 0.663117 0.586736
Si Si5 0.751182 0.864303 0.050297
Si Si6 0.144421 0.453229 0.852871
Si Si7 0.545623 0.494075 0.813044
Si Si8 0.183128 0.152200 0.708039
O O1 0.884861 0.390868 0.593741
O O2 0.611958 0.329124 0.846027
O O3 0.686379 0.168649 0.081626
O O4 0.743879 0.060362 0.875759
O O5 0.870511 0.548079 0.287232
O O6 0.938016 0.749796 0.282618
O O7 0.132352 0.629382 0.077949
O O8 0.610168 0.192280 0.383879
O O9 0.799474 0.018775 0.264332
O O10 0.583785 0.741544 0.317100
O O11 0.293215 0.595037 0.663355
O O12 0.435861 0.505797 0.791825
O O13 0.837195 0.741368 0.986150
O O14 0.830091 0.901857 0.091148
O O15 0.000000 0.500000 0.000000
O O16 0.669669 0.684821 0.552271
O O17 0.500000 0.500000 0.000000
#
# Coordination Sequence:
#
# PCOD9083420 Si02
#       8
#     2   2   2   2   2   2   2   2
#     4  10  21  37  60  88 124 153 190 245 301 350
#     4  10  20  38  58  84 119 161 195 241 294 346
#     4  11  19  33  60  90 122 152 194 239 297 355
#     4  11  22  37  62  90 116 157 199 240 291 353
#     4   9  21  38  62  88 116 156 196 245 292 348
#     4  11  22  43  64  82 115 157 209 242 285 351
#     4  10  19  34  55  85 123 150 185 237 297 345
#     4   8  19  32  55  87 115 153 193 240 288 349
#
# _framework density 21.828184
#
# number of rings (size 3 to 8) (size 9 to 14) (size 15 to 20)
#    0.000    2.000    2.500    1.875    1.750    1.500 
#    0.000    3.125    2.750    0.000    0.000    0.000 
#    0.000    0.000    0.000    0.000    0.000    0.000 
#
# Total GULP energy -89231.293527 kJ/mol
# GULP energy per Si atom -5576.955845 kJ/mol
# Density = 2.177850 g / cm^3
# Si number density = 21.828184 Si / 1000 Ang^3
#
#
#
# Elastic Constant Matrix: (Units=GPa)
#
#
# Indices 1 2 3 4 5 6 
#
# 1 78.2480 22.8029 18.1919 -2.1899 -12.2530 -14.7255
# 2 22.8029 169.7558 42.1078 -7.7226 -4.9753 -32.6957
# 3 18.1919 42.1078 59.2637 -4.4867 -9.9443 -9.4235
# 4 -2.1899 -7.7226 -4.4867 29.3666 -4.8795 0.5589
# 5 -12.2530 -4.9753 -9.9443 -4.8795 24.0855 1.1438
# 6 -14.7255 -32.6957 -9.4235 0.5589 1.1438 30.4997
#
#
#
# Elastic Compliance Matrix: (Units=1/GPa)
#
#
# Indices 1 2 3 4 5 6 
#
# 1 0.015741 0.000070 -0.002509 0.001855 0.007049 0.006602
# 2 0.000070 0.008640 -0.004871 0.001337 -0.000289 0.007777
# 3 -0.002509 -0.004871 0.022688 0.003280 0.007738 0.000226
# 4 0.001855 0.001337 0.003280 0.036642 0.009888 0.002300
# 5 0.007049 -0.000289 0.007738 0.009888 0.050080 0.003425
# 6 0.006602 0.007777 0.000226 0.002300 0.003425 0.044211
#
#
# Mechanical properties :
#
#
# Convention : Reuss Voigt Hill
#
# Bulk Modulus (GPa) = 30.81759 52.60807 41.71283
# Shear Modulus (GPa) = 24.57753 31.73467 28.15610
#
# Velocity S-wave (km/s) = 3.35916 3.81706 3.59541
# Velocity P-wave (km/s) = 5.40317 6.60151 6.03217
#
# Compressibility (1/GPa) = 0.03244900
#
# Stress axis : x y z
#
# Youngs Moduli (GPa) = 63.52958 115.74201 44.07696
#
# Poissons Ratio (x) = -0.00815 0.11059
# Poissons Ratio (y) = -0.00447 0.21470
# Poissons Ratio (z) = 0.15940 0.56378
#
# Static dielectric constant tensor:
#      x y z
#    x 1.858540 -0.021380 -0.000450 
#    y -0.021380 1.875980 -0.009150 
#    z -0.000450 -0.009150 1.820940 
# 
# From -- ./inp_files/419551.got.cif
#   From: 2010.05.17/outbox.cif.g08.bks.cpg/sg2_210_cif.got.tgz:419551.got - 2010.06.03 11:33:40.
