data_PCOD9083633
_publ_section_title
;
Structure prediction by ZEFSAII (Michael W. Deem and Ramdas Pophale) SiO2 
 PCOD9083633
Probable space group: P -1
;
_chemical_formula_sum "Si O2"
_cell_formula_units_Z 16
_cell_length_a 7.688755
_cell_length_b 28.213598
_cell_length_c 5.463051
_cell_angle_alpha 86.548480
_cell_angle_beta 61.668420
_cell_angle_gamma 46.705949
_cell_volume 691.116692
_symmetry_space_group_name_H-M "P -1"
_symmetry_group_IT_number 2
_symmetry_cell_setting 'triclinic'
loop_
_space_group_symop_operation_xyz
x,y,z
-x,-y,-z
loop_
_atom_site_type_symbol
_atom_site_label
_atom_site_fract_x
_atom_site_fract_y
_atom_site_fract_z
Si Si1 0.358249 0.664754 0.407687
Si Si2 0.831209 0.514753 0.357628
Si Si3 0.162787 0.369240 0.185739
Si Si4 0.416315 0.740025 0.691911
Si Si5 0.329201 0.043224 0.851385
Si Si6 0.183810 0.174209 0.770844
Si Si7 0.341156 0.855769 0.796370
Si Si8 0.237848 0.252957 0.062245
O O1 0.516460 0.597910 0.503864
O O2 0.331471 0.719611 0.544837
O O3 0.024349 0.708160 0.568578
O O4 0.588763 0.635880 0.049621
O O5 0.000000 0.500000 0.500000
O O6 0.856014 0.452991 0.361209
O O7 0.000000 0.500000 0.000000
O O8 0.267208 0.331943 0.390344
O O9 0.193352 0.316576 0.016707
O O10 0.404019 0.796978 0.611651
O O11 0.161777 0.776713 0.061447
O O12 0.281804 0.108830 0.865631
O O13 0.500000 0.000000 0.500000
O O14 0.008532 0.074578 0.029850
O O15 0.500000 0.000000 0.000000
O O16 0.440529 0.140023 0.413776
O O17 0.174398 0.224571 0.914267
O O18 0.449830 0.817016 0.999751
#
# Coordination Sequence:
#
# PCOD9083633 Si02
#       8
#     2   2   2   2   2   2   2   2
#     4  10  19  34  57  82 123 162 215 260 320 364
#     4  10  20  35  60  85 121 173 214 255 319 377
#     4  10  19  34  57  82 123 162 215 260 320 364
#     4   9  18  35  56  87 118 164 208 264 308 371
#     4  11  28  48  70  97 130 169 204 247 310 379
#     4  10  22  40  65  93 126 162 211 254 311 368
#     4  10  22  40  65  93 126 162 211 254 311 368
#     4  10  22  37  62  96 120 164 212 264 312 366
#
# _framework density 23.150938
#
# number of rings (size 3 to 8) (size 9 to 14) (size 15 to 20)
#    0.000    2.000    1.250    1.500    3.500    1.500 
#    4.500    0.000    0.000    3.000    0.000    0.000 
#    0.000    0.000    0.000    0.000    0.000    0.000 
#
# Total GULP energy -89115.268724 kJ/mol
# GULP energy per Si atom -5569.704295 kJ/mol
# Density = 2.309825 g / cm^3
# Si number density = 23.150938 Si / 1000 Ang^3
#
#
#
# Elastic Constant Matrix: (Units=GPa)
#
#
# Indices 1 2 3 4 5 6 
#
# 1 74.3533 19.4813 18.3836 -11.2790 -13.2946 -1.0743
# 2 19.4813 115.0187 7.9233 -12.8373 -4.2029 -6.1304
# 3 18.3836 7.9233 62.3358 -10.3987 -10.1532 -2.1528
# 4 -11.2790 -12.8373 -10.3987 21.2005 1.5187 0.1172
# 5 -13.2946 -4.2029 -10.1532 1.5187 40.5946 -1.3788
# 6 -1.0743 -6.1304 -2.1528 0.1172 -1.3788 40.9901
#
#
#
# Elastic Compliance Matrix: (Units=1/GPa)
#
#
# Indices 1 2 3 4 5 6 
#
# 1 0.016269 -0.001739 -0.002907 0.005875 0.004206 0.000138
# 2 -0.001739 0.009616 0.000225 0.004976 0.000344 0.001402
# 3 -0.002907 0.000225 0.018733 0.007521 0.003510 0.001038
# 4 0.005875 0.004976 0.007521 0.056829 0.002235 0.001206
# 5 0.004206 0.000344 0.003510 0.002235 0.026883 0.001244
# 6 0.000138 0.001402 0.001038 0.001206 0.001244 0.024702
#
#
# Mechanical properties :
#
#
# Convention : Reuss Voigt Hill
#
# Bulk Modulus (GPa) = 27.95147 38.14269 33.04708
# Shear Modulus (GPa) = 28.76882 34.28503 31.52693
#
# Velocity S-wave (km/s) = 3.52897 3.85247 3.69426
# Velocity P-wave (km/s) = 5.35767 6.02496 5.70108
#
# Compressibility (1/GPa) = 0.03577629
#
# Stress axis : x y z
#
# Youngs Moduli (GPa) = 61.46761 103.99538 53.38138
#
# Poissons Ratio (x) = 0.18080 0.15518
# Poissons Ratio (y) = 0.10686 -0.01201
# Poissons Ratio (z) = 0.17869 -0.02339
#
# Static dielectric constant tensor:
#      x y z
#    x 1.855130 0.008830 -0.030220 
#    y 0.008830 1.934990 0.000450 
#    z -0.030220 0.000450 2.059630 
# 
# From -- ./inp_files/56729.got.cif
#   From: 2010.05.17/outbox.cif.g08.bks.cpg/sg2_29_cif.got.tgz:56729.got - 2010.06.03 11:33:40.
