data_PCOD9083963
_publ_section_title
;
Structure prediction by ZEFSAII (Michael W. Deem and Ramdas Pophale) SiO2 
 PCOD9083963
Probable space group: P -1
;
_chemical_formula_sum "Si O2"
_cell_formula_units_Z 16
_cell_length_a 14.805868
_cell_length_b 10.876867
_cell_length_c 10.051425
_cell_angle_alpha 58.808767
_cell_angle_beta 62.868183
_cell_angle_gamma 110.844594
_cell_volume 774.797839
_symmetry_space_group_name_H-M "P -1"
_symmetry_group_IT_number 2
_symmetry_cell_setting 'triclinic'
loop_
_space_group_symop_operation_xyz
x,y,z
-x,-y,-z
loop_
_atom_site_type_symbol
_atom_site_label
_atom_site_fract_x
_atom_site_fract_y
_atom_site_fract_z
Si Si1 0.961428 0.290091 0.670139
Si Si2 0.609140 0.815682 0.199627
Si Si3 0.410818 0.369735 0.411838
Si Si4 0.480155 0.774445 0.755543
Si Si5 0.260990 0.453781 0.331247
Si Si6 0.623170 0.214741 0.703384
Si Si7 0.234820 0.688651 0.795178
Si Si8 0.055959 0.462872 0.791590
O O1 0.084194 0.321725 0.490331
O O2 0.986111 0.294999 0.810527
O O3 0.000000 0.500000 0.500000
O O4 0.775876 0.058068 0.896058
O O5 0.533033 0.622346 0.251511
O O6 0.643703 0.772826 0.338523
O O7 0.484783 0.811690 0.312475
O O8 0.487828 0.337628 0.281058
O O9 0.278745 0.308968 0.446346
O O10 0.346646 0.715444 0.796461
O O11 0.643709 0.052069 0.487317
O O12 0.397394 0.647405 0.023896
O O13 0.299290 0.580767 0.369168
O O14 0.775730 0.286807 0.519232
O O15 0.500000 0.000000 0.000000
O O16 0.139360 0.494902 0.852570
O O17 0.090529 0.600407 0.026734
#
# Coordination Sequence:
#
# PCOD9083963 Si02
#       8
#     2   2   2   2   2   2   2   2
#     4  11  22  38  62  90 120 150 190 249 300 342
#     4  10  21  39  61  87 115 155 202 234 287 359
#     4  10  22  39  59  82 117 161 198 239 284 350
#     4  11  21  39  60  82 115 155 200 241 294 348
#     4  10  22  36  55  85 116 151 195 237 287 354
#     4  10  19  34  59  86 116 150 188 244 298 341
#     4  10  22  36  59  87 114 153 196 248 296 349
#     4  10  20  35  53  87 121 142 182 238 298 346
#
# _framework density 20.650548000000001
#
# number of rings (size 3 to 8) (size 9 to 14) (size 15 to 20)
#    0.000    1.750    0.000    4.875    0.000    5.500 
#    0.000    5.625    0.000    0.000    0.000    0.000 
#    0.000    0.000    0.000    0.000    0.000    0.000 
#
# Total GULP energy -89085.616892 kJ/mol
# GULP energy per Si atom -5567.851056 kJ/mol
# Density = 2.060355 g / cm^3
# Si number density = 20.650548 Si / 1000 Ang^3
#
#
#
# Elastic Constant Matrix: (Units=GPa)
#
#
# Indices 1 2 3 4 5 6 
#
# 1 120.7864 28.1153 57.0000 0.4591 -14.8201 -2.7344
# 2 28.1153 51.1665 21.9957 5.8629 -5.4844 7.3906
# 3 57.0000 21.9957 100.7378 -3.1023 -24.8603 -1.8178
# 4 0.4591 5.8629 -3.1023 28.3284 4.3749 0.0966
# 5 -14.8201 -5.4844 -24.8603 4.3749 37.9240 4.1389
# 6 -2.7344 7.3906 -1.8178 0.0966 4.1389 12.7029
#
#
#
# Elastic Compliance Matrix: (Units=1/GPa)
#
#
# Indices 1 2 3 4 5 6 
#
# 1 0.012261 -0.004982 -0.005831 0.000224 -0.000301 0.004800
# 2 -0.004982 0.027185 -0.002959 -0.006232 0.002746 -0.018159
# 3 -0.005831 -0.002959 0.015753 0.001282 0.007441 0.000286
# 4 0.000224 -0.006232 0.001282 0.037459 -0.004857 0.005155
# 5 -0.000301 0.002746 0.007441 -0.004857 0.033333 -0.011421
# 6 0.004800 -0.018159 0.000286 0.005155 -0.011421 0.094043
#
#
# Mechanical properties :
#
#
# Convention : Reuss Voigt Hill
#
# Bulk Modulus (GPa) = 36.15850 54.10140 45.12995
# Shear Modulus (GPa) = 19.47078 26.82972 23.15025
#
# Velocity S-wave (km/s) = 3.07395 3.60839 3.35184
# Velocity P-wave (km/s) = 5.49059 6.60424 6.07300
#
# Compressibility (1/GPa) = 0.02765602
#
# Stress axis : x y z
#
# Youngs Moduli (GPa) = 81.55852 36.78522 63.48083
#
# Poissons Ratio (x) = 0.18327 0.37013
# Poissons Ratio (y) = 0.40633 0.18782
# Poissons Ratio (z) = 0.47553 0.10884
#
# Static dielectric constant tensor:
#      x y z
#    x 1.790930 0.029680 -0.010630 
#    y 0.029680 1.807410 0.004870 
#    z -0.010630 0.004870 1.797440 
# 
# From -- ./inp_files/306733.got.cif
#   From: 2010.05.17/outbox.cif.g08.bks.cpg/sg2_154_cif.got.tgz:306733.got - 2010.06.03 11:33:40.
