data_PCOD9083219
_publ_section_title
;
Structure prediction by ZEFSAII (Michael W. Deem and Ramdas Pophale) SiO2 
 PCOD9083219
Probable space group: P -1
;
_chemical_formula_sum "Si O2"
_cell_formula_units_Z 16
_cell_length_a 22.575779
_cell_length_b 14.316166
_cell_length_c 9.669714
_cell_angle_alpha 147.252585
_cell_angle_beta 152.708989
_cell_angle_gamma 29.157059
_cell_volume 667.951568
_symmetry_space_group_name_H-M "P -1"
_symmetry_group_IT_number 2
_symmetry_cell_setting 'triclinic'
loop_
_space_group_symop_operation_xyz
x,y,z
-x,-y,-z
loop_
_atom_site_type_symbol
_atom_site_label
_atom_site_fract_x
_atom_site_fract_y
_atom_site_fract_z
Si Si1 0.931110 0.703002 0.828479
Si Si2 0.800793 0.688511 0.183651
Si Si3 0.335265 0.197605 0.223853
Si Si4 0.946224 0.101437 0.865648
Si Si5 0.983874 0.761029 0.315662
Si Si6 0.283809 0.396333 0.620730
Si Si7 0.664067 0.502404 0.857585
Si Si8 0.422134 0.911121 0.828101
O O1 0.995624 0.751228 0.161202
O O2 0.031223 0.467679 0.703808
O O3 0.953361 0.809741 0.876475
O O4 0.770510 0.743385 0.591657
O O5 0.700930 0.672834 0.830434
O O6 0.752099 0.617448 0.128214
O O7 0.749132 0.922541 0.356157
O O8 0.390737 0.269923 0.558064
O O9 0.170443 0.237432 0.971683
O O10 0.433207 0.973295 0.086756
O O11 0.960841 0.951298 0.588691
O O12 0.774877 0.284697 0.753885
O O13 0.000000 0.000000 0.000000
O O14 0.134870 0.575929 0.461383
O O15 0.333054 0.490928 0.961904
O O16 0.496331 0.673660 0.673358
O O17 0.500000 0.000000 0.000000
#
# Coordination Sequence:
#
# PCOD9083219 Si02
#       8
#     2   2   2   2   2   2   2   2
#     4  10  19  34  53  76  99 134 164 205 250 295
#     4   8  15  30  50  72  96 125 163 204 241 293
#     4   9  17  31  53  75  94 126 167 208 242 291
#     4  11  23  34  46  75 108 134 166 198 249 302
#     4  11  18  34  51  75 104 132 164 204 245 302
#     4  11  18  30  53  79 103 123 166 208 254 291
#     4  10  20  30  48  73 104 132 160 204 252 284
#     4   8  15  32  50  72 101 124 167 207 245 291
#
# _framework density 23.953831000000001
#
# number of rings (size 3 to 8) (size 9 to 14) (size 15 to 20)
#    0.750    1.500    3.750    1.125    0.000    3.500 
#    0.000    0.625    0.000    0.000    0.000    1.750 
#    0.000    0.000    0.000    0.000    0.000    0.000 
#
# Total GULP energy -89145.866321 kJ/mol
# GULP energy per Si atom -5571.616645 kJ/mol
# Density = 2.389931 g / cm^3
# Si number density = 23.953831 Si / 1000 Ang^3
#
#
#
# Elastic Constant Matrix: (Units=GPa)
#
#
# Indices 1 2 3 4 5 6 
#
# 1 89.8007 31.0439 22.5195 -9.7496 -38.7637 4.9373
# 2 31.0439 150.2388 41.7843 27.5432 -14.7111 -4.6039
# 3 22.5195 41.7843 81.8471 5.3389 -31.0933 -4.0226
# 4 -9.7496 27.5432 5.3389 38.8832 -4.7223 -8.8575
# 5 -38.7637 -14.7111 -31.0933 -4.7223 40.0644 -0.0610
# 6 4.9373 -4.6039 -4.0226 -8.8575 -0.0610 34.1003
#
#
#
# Elastic Compliance Matrix: (Units=1/GPa)
#
#
# Indices 1 2 3 4 5 6 
#
# 1 0.026225 -0.006973 0.006680 0.014150 0.029665 -0.000222
# 2 -0.006973 0.010759 -0.006350 -0.009767 -0.008877 -0.000840
# 3 0.006680 -0.006350 0.021528 0.006390 0.021595 0.002413
# 4 0.014150 -0.009767 0.006390 0.039449 0.019725 0.007669
# 5 0.029665 -0.008877 0.021595 0.019725 0.069490 0.002302
# 6 -0.000222 -0.000840 0.002413 0.007669 0.002302 0.031525
#
#
# Mechanical properties :
#
#
# Convention : Reuss Voigt Hill
#
# Bulk Modulus (GPa) = 22.11207 56.95353 39.53280
# Shear Modulus (GPa) = 21.99378 37.71216 29.85297
#
# Velocity S-wave (km/s) = 3.03343 3.97214 3.53409
# Velocity P-wave (km/s) = 4.63897 6.69814 5.76130
#
# Compressibility (1/GPa) = 0.04522416
#
# Stress axis : x y z
#
# Youngs Moduli (GPa) = 38.13197 92.94864 46.45158
#
# Poissons Ratio (x) = 0.64811 -0.31028
# Poissons Ratio (y) = 0.26589 0.29499
# Poissons Ratio (z) = -0.25471 0.59027
#
# Static dielectric constant tensor:
#      x y z
#    x 1.960660 -0.009730 0.008080 
#    y -0.009730 1.993390 -0.012270 
#    z 0.008080 -0.012270 2.032130 
# 
# From -- ./inp_files/354227.got.cif
#   From: 2010.05.17/outbox.cif.g08.bks.cpg/sg2_178_cif.got.tgz:354227.got - 2010.06.03 11:33:40.
