data_PCOD9083949
_publ_section_title
;
Structure prediction by ZEFSAII (Michael W. Deem and Ramdas Pophale) SiO2 
 PCOD9083949
Probable space group: P -1
;
_chemical_formula_sum "Si O2"
_cell_formula_units_Z 16
_cell_length_a 11.090177
_cell_length_b 17.762467
_cell_length_c 8.274939
_cell_angle_alpha 63.887400
_cell_angle_beta 98.349703
_cell_angle_gamma 43.232666
_cell_volume 654.536364
_symmetry_space_group_name_H-M "P -1"
_symmetry_group_IT_number 2
_symmetry_cell_setting 'triclinic'
loop_
_space_group_symop_operation_xyz
x,y,z
-x,-y,-z
loop_
_atom_site_type_symbol
_atom_site_label
_atom_site_fract_x
_atom_site_fract_y
_atom_site_fract_z
Si Si1 0.137651 0.585895 0.671416
Si Si2 0.599293 0.889213 0.464019
Si Si3 0.760878 0.125101 0.714624
Si Si4 0.208432 0.716331 0.563624
Si Si5 0.077837 0.046055 0.422983
Si Si6 0.311991 0.299166 0.106870
Si Si7 0.885397 0.658508 0.267496
Si Si8 0.343543 0.965683 0.052825
O O1 0.854454 0.774153 0.533453
O O2 0.329938 0.548563 0.739710
O O3 0.064042 0.613149 0.444743
O O4 0.245321 0.435800 0.920281
O O5 0.702187 0.733313 0.688999
O O6 0.366156 0.012420 0.170571
O O7 0.500000 0.000000 0.500000
O O8 0.885173 0.988376 0.728599
O O9 0.574278 0.178382 0.732496
O O10 0.662242 0.274469 0.478866
O O11 0.000000 0.000000 0.000000
O O12 0.126963 0.775359 0.679497
O O13 0.938838 0.871082 0.250699
O O14 0.369094 0.897286 0.682283
O O15 0.000000 0.000000 0.500000
O O16 0.140313 0.339437 0.928789
O O17 0.580881 0.850733 0.092485
O O18 0.000000 0.500000 0.500000
#
# Coordination Sequence:
#
# PCOD9083949 Si02
#       8
#     2   2   2   2   2   2   2   2
#     4  10  23  37  56  86 122 156 187 232 294 350
#     4  11  23  34  58  86 117 148 196 240 288 341
#     4   9  19  35  57  85 112 142 187 245 290 331
#     4  10  20  36  59  86 113 146 199 240 283 340
#     4  10  19  35  61  86 107 149 200 241 283 338
#     4  11  20  39  58  83 120 155 190 234 294 349
#     4   9  20  35  56  84 116 157 190 224 289 353
#     4  10  19  34  59  85 112 149 191 245 285 333
#
# _framework density 24.444785
#
# number of rings (size 3 to 8) (size 9 to 14) (size 15 to 20)
#    0.000    2.000    2.500    1.125    1.750    1.000 
#    0.000    2.500    0.000    3.000    0.000    0.000 
#    0.000    0.000    0.000    0.000    0.000    0.000 
#
# Total GULP energy -89181.405869 kJ/mol
# GULP energy per Si atom -5573.837867 kJ/mol
# Density = 2.438915 g / cm^3
# Si number density = 24.444785 Si / 1000 Ang^3
#
#
#
# Elastic Constant Matrix: (Units=GPa)
#
#
# Indices 1 2 3 4 5 6 
#
# 1 123.1810 8.7264 27.0717 -3.2159 -31.4940 20.1099
# 2 8.7264 70.6225 28.9678 22.7034 7.8497 32.7357
# 3 27.0717 28.9678 101.4935 13.3691 -5.4382 11.2805
# 4 -3.2159 22.7034 13.3691 23.3257 10.7730 2.8715
# 5 -31.4940 7.8497 -5.4382 10.7730 49.2089 3.6881
# 6 20.1099 32.7357 11.2805 2.8715 3.6881 37.3583
#
#
#
# Elastic Compliance Matrix: (Units=1/GPa)
#
#
# Indices 1 2 3 4 5 6 
#
# 1 0.012045 0.004724 -0.002410 -0.004143 0.008376 -0.010403
# 2 0.004724 0.044791 -0.004314 -0.038904 0.006779 -0.038167
# 3 -0.002410 -0.004314 0.012119 -0.003832 0.001204 0.001594
# 4 -0.004143 -0.038904 -0.003832 0.086808 -0.018318 0.032614
# 5 0.008376 0.006779 0.001204 -0.018318 0.029668 -0.012333
# 6 -0.010403 -0.038167 0.001594 0.032614 -0.012333 0.064042
#
#
# Mechanical properties :
#
#
# Convention : Reuss Voigt Hill
#
# Bulk Modulus (GPa) = 15.39559 47.20321 31.29940
# Shear Modulus (GPa) = 18.17357 37.34733 27.76045
#
# Velocity S-wave (km/s) = 2.72959 3.91298 3.37358
# Velocity P-wave (km/s) = 4.03064 6.30613 5.29213
#
# Compressibility (1/GPa) = 0.06495365
#
# Stress axis : x y z
#
# Youngs Moduli (GPa) = 83.02306 22.32615 82.51419
#
# Poissons Ratio (x) = -0.10546 0.19887
# Poissons Ratio (y) = -0.39216 0.35595
# Poissons Ratio (z) = 0.20009 0.09631
#
# Static dielectric constant tensor:
#      x y z
#    x 1.976000 0.053400 -0.035490 
#    y 0.053400 2.083430 -0.002790 
#    z -0.035490 -0.002790 2.026480 
# 
# From -- ./inp_files/180173.got.cif
#   From: 2010.05.17/outbox.cif.g08.bks.cpg/sg2_91_cif.got.tgz:180173.got - 2010.06.03 11:33:40.
