data_PCOD9083763
_publ_section_title
;
Structure prediction by ZEFSAII (Michael W. Deem and Ramdas Pophale) SiO2 
 PCOD9083763
Probable space group: P -1
;
_chemical_formula_sum "Si O2"
_cell_formula_units_Z 16
_cell_length_a 16.815491
_cell_length_b 6.659450
_cell_length_c 18.180206
_cell_angle_alpha 110.473306
_cell_angle_beta 154.765289
_cell_angle_gamma 55.953011
_cell_volume 644.553980
_symmetry_space_group_name_H-M "P -1"
_symmetry_group_IT_number 2
_symmetry_cell_setting 'triclinic'
loop_
_space_group_symop_operation_xyz
x,y,z
-x,-y,-z
loop_
_atom_site_type_symbol
_atom_site_label
_atom_site_fract_x
_atom_site_fract_y
_atom_site_fract_z
Si Si1 0.235955 0.579608 0.702862
Si Si2 0.971668 0.867100 0.726771
Si Si3 0.412853 0.304634 0.977327
Si Si4 0.208687 0.963524 0.123854
Si Si5 0.255072 0.126446 0.612829
Si Si6 0.473524 0.198920 0.406198
Si Si7 0.955651 0.335486 0.818998
Si Si8 0.324096 0.423047 0.141107
O O1 0.324088 0.436304 0.838291
O O2 0.309928 0.338797 0.679664
O O3 0.953847 0.772813 0.492298
O O4 0.360714 0.714908 0.814015
O O5 0.846312 0.883547 0.549654
O O6 0.196207 0.551453 0.877658
O O7 0.756404 0.007660 0.623331
O O8 0.022109 0.087847 0.791090
O O9 0.500000 0.000000 0.000000
O O10 0.342979 0.659116 0.169962
O O11 0.379843 0.019728 0.309233
O O12 0.000000 0.000000 0.000000
O O13 0.077423 0.176874 0.976184
O O14 0.492508 0.836733 0.787402
O O15 0.321286 0.438473 0.368794
O O16 0.393215 0.339882 0.275183
O O17 0.075729 0.481286 0.925436
#
# Coordination Sequence:
#
# PCOD9083763 Si02
#       8
#     2   2   2   2   2   2   2   2
#     4   9  19  39  61  82 110 142 182 221 277 327
#     4  10  22  37  54  84 112 145 186 223 268 327
#     4  10  21  38  62  84 113 140 176 228 279 325
#     4  11  19  35  56  79 106 143 189 226 269 322
#     4   9  19  37  59  81 110 147 180 227 268 321
#     4  10  20  36  56  77 110 148 184 224 271 321
#     4  11  20  35  57  78 112 150 182 223 273 320
#     4  10  19  34  58  81 107 143 188 224 271 320
#
# _framework density 24.823367000000001
#
# number of rings (size 3 to 8) (size 9 to 14) (size 15 to 20)
#    0.000    2.000    2.500    1.875    0.000    2.000 
#    0.000    8.750    0.000    0.000    0.000    0.000 
#    0.000    0.000    0.000    0.000    0.000    0.000 
#
# Total GULP energy -89425.227086 kJ/mol
# GULP energy per Si atom -5589.076693 kJ/mol
# Density = 2.476687 g / cm^3
# Si number density = 24.823367 Si / 1000 Ang^3
#
#
#
# Elastic Constant Matrix: (Units=GPa)
#
#
# Indices 1 2 3 4 5 6 
#
# 1 45.0281 28.5337 10.6239 -9.1708 -0.9406 6.5581
# 2 28.5337 204.9631 65.7298 -5.9206 29.2675 -17.2530
# 3 10.6239 65.7298 91.6428 -5.6850 22.1368 2.1507
# 4 -9.1708 -5.9206 -5.6850 51.9759 -8.6101 4.7064
# 5 -0.9406 29.2675 22.1368 -8.6101 36.7471 -3.4874
# 6 6.5581 -17.2530 2.1507 4.7064 -3.4874 35.2974
#
#
#
# Elastic Compliance Matrix: (Units=1/GPa)
#
#
# Indices 1 2 3 4 5 6 
#
# 1 0.027997 -0.005059 -0.000427 0.005967 0.005653 -0.007886
# 2 -0.005059 0.007883 -0.004395 -0.001524 -0.003652 0.004903
# 3 -0.000427 -0.004395 0.015735 0.000447 -0.006236 -0.003703
# 4 0.005967 -0.001524 0.000447 0.021497 0.005738 -0.004181
# 5 0.005653 -0.003652 -0.006236 0.005738 0.035394 0.000276
# 6 -0.007886 0.004903 -0.003703 -0.004181 0.000276 0.033003
#
#
# Mechanical properties :
#
#
# Convention : Reuss Voigt Hill
#
# Bulk Modulus (GPa) = 31.39530 61.26765 46.33147
# Shear Modulus (GPa) = 29.08873 40.58718 34.83796
#
# Velocity S-wave (km/s) = 3.42691 4.04795 3.75031
# Velocity P-wave (km/s) = 5.32290 6.82516 6.12030
#
# Compressibility (1/GPa) = 0.03185190
#
# Stress axis : x y z
#
# Youngs Moduli (GPa) = 35.71798 126.85789 63.55428
#
# Poissons Ratio (x) = 0.64180 0.02715
# Poissons Ratio (y) = 0.18071 0.27931
# Poissons Ratio (z) = 0.01526 0.55752
#
# Static dielectric constant tensor:
#      x y z
#    x 2.055150 -0.022080 0.028140 
#    y -0.022080 2.010240 -0.052510 
#    z 0.028140 -0.052510 1.959020 
# 
# From -- ./inp_files/505568.got.cif
#   From: 2010.05.17/outbox.cif.g08.bks.cpg/sg2_253_cif.got.tgz:505568.got - 2010.06.03 11:33:40.
