data_PCOD9083322
_publ_section_title
;
Structure prediction by ZEFSAII (Michael W. Deem and Ramdas Pophale) SiO2 
 PCOD9083322
Probable space group: P -1
;
_chemical_formula_sum "Si O2"
_cell_formula_units_Z 16
_cell_length_a 14.638995
_cell_length_b 9.140540
_cell_length_c 24.006292
_cell_angle_alpha 126.333184
_cell_angle_beta 162.664959
_cell_angle_gamma 50.854957
_cell_volume 741.577352
_symmetry_space_group_name_H-M "P -1"
_symmetry_group_IT_number 2
_symmetry_cell_setting 'triclinic'
loop_
_space_group_symop_operation_xyz
x,y,z
-x,-y,-z
loop_
_atom_site_type_symbol
_atom_site_label
_atom_site_fract_x
_atom_site_fract_y
_atom_site_fract_z
Si Si1 0.094679 0.130581 0.037788
Si Si2 0.783055 0.460440 0.315634
Si Si3 0.901608 0.299192 0.234272
Si Si4 0.063514 0.087429 0.883543
Si Si5 0.877955 0.588399 0.190947
Si Si6 0.166766 0.052333 0.696715
Si Si7 0.907578 0.543651 0.071815
Si Si8 0.759211 0.857089 0.360751
O O1 0.009165 0.348274 0.053810
O O2 0.472879 0.044929 0.235541
O O3 0.965103 0.103431 0.894752
O O4 0.000000 0.000000 0.000000
O O5 0.980547 0.340525 0.352868
O O6 0.634680 0.674176 0.254024
O O7 0.000000 0.500000 0.500000
O O8 0.479558 0.391012 0.140055
O O9 0.990909 0.435626 0.271078
O O10 0.026538 0.082890 0.238945
O O11 0.511146 0.357155 0.021444
O O12 0.964072 0.290716 0.842257
O O13 0.452560 0.022997 0.094489
O O14 0.955965 0.786669 0.292795
O O15 0.992125 0.514527 0.179675
O O16 0.091092 0.158041 0.616739
O O17 0.995381 0.887253 0.553223
#
# Coordination Sequence:
#
# PCOD9083322 Si02
#       8
#     2   2   2   2   2   2   2   2
#     4  11  21  38  59  79 109 155 193 223 265 336
#     4  11  21  33  56  84 119 143 179 232 290 331
#     4   9  18  33  55  83 111 146 186 226 280 330
#     4  10  21  35  57  84 114 142 185 238 277 323
#     4   9  17  32  57  80 112 146 187 230 270 331
#     4   9  18  33  57  83 113 142 181 233 283 320
#     4  11  22  35  55  86 112 147 189 228 278 327
#     4  10  19  34  54  84 112 146 185 226 274 334
#
# _framework density 21.575631999999999
#
# number of rings (size 3 to 8) (size 9 to 14) (size 15 to 20)
#    0.000    2.000    2.500    1.875    3.500    5.500 
#    0.000    0.625    0.000    0.750    0.000    0.000 
#    0.000    0.000    0.000    0.000    0.000    0.000 
#
# Total GULP energy -89281.506974 kJ/mol
# GULP energy per Si atom -5580.094186 kJ/mol
# Density = 2.152652 g / cm^3
# Si number density = 21.575632 Si / 1000 Ang^3
#
#
#
# Elastic Constant Matrix: (Units=GPa)
#
#
# Indices 1 2 3 4 5 6 
#
# 1 125.2892 65.3175 16.0148 14.8261 -30.6117 -13.9763
# 2 65.3175 126.2072 0.4653 26.9871 -19.2933 -10.2197
# 3 16.0148 0.4653 24.3216 12.5662 -19.3003 -5.7719
# 4 14.8261 26.9871 12.5662 26.6646 -6.9356 -3.3014
# 5 -30.6117 -19.2933 -19.3003 -6.9356 27.8877 15.8967
# 6 -13.9763 -10.2197 -5.7719 -3.3014 15.8967 37.9520
#
#
#
# Elastic Compliance Matrix: (Units=1/GPa)
#
#
# Indices 1 2 3 4 5 6 
#
# 1 0.013520 -0.005507 -0.000158 0.001077 0.012029 -0.001473
# 2 -0.005507 0.026139 0.061842 -0.040651 0.050610 -0.010319
# 3 -0.000158 0.061842 0.290077 -0.143974 0.236578 -0.050907
# 4 0.001077 -0.040651 -0.143974 0.120150 -0.110561 0.024316
# 5 0.012029 0.050610 0.236578 -0.110561 0.256145 -0.062870
# 6 -0.001473 -0.010319 -0.050907 0.024316 -0.062870 0.043735
#
#
# Mechanical properties :
#
#
# Convention : Reuss Voigt Hill
#
# Bulk Modulus (GPa) = 2.26198 48.82369 25.54284
# Shear Modulus (GPa) = 6.37123 31.43555 18.90339
#
# Velocity S-wave (km/s) = 1.72029 3.82120 2.96319
# Velocity P-wave (km/s) = 2.23529 6.49207 4.85507
#
# Compressibility (1/GPa) = 0.44209029
#
# Stress axis : x y z
#
# Youngs Moduli (GPa) = 73.96382 38.25629 3.44736
#
# Poissons Ratio (x) = 0.21069 0.00054
# Poissons Ratio (y) = 0.40735 -0.21319
# Poissons Ratio (z) = 0.01168 -2.36584
#
# Static dielectric constant tensor:
#      x y z
#    x 1.818770 0.013980 0.001660 
#    y 0.013980 1.790830 0.000630 
#    z 0.001660 0.000630 1.836430 
# 
# From -- ./inp_files/257661.got.cif
#   From: 2010.05.17/outbox.cif.g08.bks.cpg/sg2_129_cif.got.tgz:257661.got - 2010.06.03 11:33:40.
