data_PCOD9083971
_publ_section_title
;
Structure prediction by ZEFSAII (Michael W. Deem and Ramdas Pophale) SiO2 
 PCOD9083971
Probable space group: P -1
;
_chemical_formula_sum "Si O2"
_cell_formula_units_Z 16
_cell_length_a 6.622755
_cell_length_b 5.461404
_cell_length_c 18.442692
_cell_angle_alpha 102.707785
_cell_angle_beta 104.403386
_cell_angle_gamma 78.332746
_cell_volume 622.542223
_symmetry_space_group_name_H-M "P -1"
_symmetry_group_IT_number 2
_symmetry_cell_setting 'triclinic'
loop_
_space_group_symop_operation_xyz
x,y,z
-x,-y,-z
loop_
_atom_site_type_symbol
_atom_site_label
_atom_site_fract_x
_atom_site_fract_y
_atom_site_fract_z
Si Si1 0.778843 0.910158 0.319504
Si Si2 0.261965 0.039969 0.511135
Si Si3 0.263304 0.495497 0.449650
Si Si4 0.044177 0.787338 0.884427
Si Si5 0.489881 0.128465 0.834303
Si Si6 0.858435 0.704435 0.070664
Si Si7 0.022983 0.331433 0.293721
Si Si8 0.442885 0.332418 0.090561
O O1 0.730249 0.962510 0.402300
O O2 0.564346 0.945176 0.255782
O O3 0.878967 0.611422 0.301390
O O4 0.917857 0.112867 0.311678
O O5 0.169767 0.306231 0.483464
O O6 0.500000 0.000000 0.500000
O O7 0.166305 0.793814 0.459879
O O8 0.500000 0.500000 0.500000
O O9 0.229627 0.379867 0.360105
O O10 0.001565 0.567373 0.920964
O O11 0.959498 0.747427 0.793830
O O12 0.302864 0.730334 0.901436
O O13 0.007624 0.078284 0.923795
O O14 0.260156 0.206361 0.858417
O O15 0.591314 0.383162 0.863022
O O16 0.604202 0.887961 0.873591
O O17 0.668316 0.689927 0.997444
#
# Coordination Sequence:
#
# PCOD9083971 Si02
#       8
#     2   2   2   2   2   2   2   2
#     4  12  21  34  55  80 111 141 180 237 275 321
#     4  10  23  42  59  77 104 142 181 229 281 337
#     4  10  23  42  59  77 104 142 181 229 281 337
#     4  10  16  27  38  66 100 135 183 207 260 306
#     4  10  16  27  38  66 100 135 183 207 260 306
#     4  10  16  25  41  61  99 151 181 201 251 316
#     4  12  21  34  55  80 111 141 180 237 275 321
#     4  10  16  25  41  61  99 151 181 201 251 316
#
# _framework density 25.701066999999998
#
# number of rings (size 3 to 8) (size 9 to 14) (size 15 to 20)
#    0.000    1.500    5.000    5.250    0.000    3.000 
#    0.000    0.000    0.000    0.000    0.000    0.000 
#    0.000    0.000    0.000  153.000    0.000    0.000 
#
# Total GULP energy -89619.797449 kJ/mol
# GULP energy per Si atom -5601.237341 kJ/mol
# Density = 2.564257 g / cm^3
# Si number density = 25.701067 Si / 1000 Ang^3
#
#
#
# Elastic Constant Matrix: (Units=GPa)
#
#
# Indices 1 2 3 4 5 6 
#
# 1 72.0381 24.6627 29.9077 0.3436 4.2843 8.8078
# 2 24.6627 258.5507 52.1702 -2.9511 7.7120 20.2736
# 3 29.9077 52.1702 197.5638 14.2338 18.1096 7.1734
# 4 0.3436 -2.9511 14.2338 49.0801 3.4674 8.2267
# 5 4.2843 7.7120 18.1096 3.4674 42.9052 0.4800
# 6 8.8078 20.2736 7.1734 8.2267 0.4800 44.0480
#
#
#
# Elastic Compliance Matrix: (Units=1/GPa)
#
#
# Indices 1 2 3 4 5 6 
#
# 1 0.015344 -0.000831 -0.002024 0.000892 -0.000573 -0.002517
# 2 -0.000831 0.004307 -0.000979 0.000876 -0.000329 -0.001817
# 3 -0.002024 -0.000979 0.005920 -0.001658 -0.001989 0.000222
# 4 0.000892 0.000876 -0.001658 0.021721 -0.001253 -0.004355
# 5 -0.000573 -0.000329 -0.001989 -0.001253 0.024358 0.000558
# 6 -0.002517 -0.001817 0.000222 -0.004355 0.000558 0.024813
#
#
# Mechanical properties :
#
#
# Convention : Reuss Voigt Hill
#
# Bulk Modulus (GPa) = 55.85203 82.40374 69.12789
# Shear Modulus (GPa) = 45.41475 55.30079 50.35777
#
# Velocity S-wave (km/s) = 4.20818 4.64367 4.43127
# Velocity P-wave (km/s) = 6.73723 7.80279 7.28950
#
# Compressibility (1/GPa) = 0.01790445
#
# Stress axis : x y z
#
# Youngs Moduli (GPa) = 65.17365 232.19825 168.91372
#
# Poissons Ratio (x) = 0.19288 0.34185
# Poissons Ratio (y) = 0.05414 0.16529
# Poissons Ratio (z) = 0.13190 0.22722
#
# Static dielectric constant tensor:
#      x y z
#    x 0.135890 0.912200 -0.460680 
#    y 0.912200 1.648170 0.198620 
#    z -0.460680 0.198620 1.816120 
# 
# From -- ./inp_files/552725.got.cif
#   From: 2010.05.17/outbox.cif.g08.bks.cpg/sg2_277_cif.got.tgz:552725.got - 2010.06.03 11:33:40.
