data_PCOD9083702
_publ_section_title
;
Structure prediction by ZEFSAII (Michael W. Deem and Ramdas Pophale) SiO2 
 PCOD9083702
Probable space group: P -1
;
_chemical_formula_sum "Si O2"
_cell_formula_units_Z 16
_cell_length_a 8.335840
_cell_length_b 7.804352
_cell_length_c 23.830035
_cell_angle_alpha 136.996988
_cell_angle_beta 125.377492
_cell_angle_gamma 84.864478
_cell_volume 689.423617
_symmetry_space_group_name_H-M "P -1"
_symmetry_group_IT_number 2
_symmetry_cell_setting 'triclinic'
loop_
_space_group_symop_operation_xyz
x,y,z
-x,-y,-z
loop_
_atom_site_type_symbol
_atom_site_label
_atom_site_fract_x
_atom_site_fract_y
_atom_site_fract_z
Si Si1 0.500094 0.197734 0.428157
Si Si2 0.771817 0.697669 0.414111
Si Si3 0.031808 0.658335 0.643930
Si Si4 0.902171 0.029765 0.628234
Si Si5 0.402963 0.089554 0.921861
Si Si6 0.769517 0.519202 0.011622
Si Si7 0.569104 0.448838 0.195623
Si Si8 0.331559 0.776541 0.188543
O O1 0.500000 0.500000 0.500000
O O2 0.772907 0.352279 0.542081
O O3 0.268489 0.936741 0.356635
O O4 0.477227 0.067251 0.330014
O O5 0.854117 0.486370 0.400581
O O6 0.583672 0.501257 0.278616
O O7 0.726054 0.817383 0.489700
O O8 0.000000 0.000000 0.500000
O O9 0.202517 0.866867 0.780058
O O10 0.983282 0.853503 0.640139
O O11 0.158825 0.314774 0.721037
O O12 0.272570 0.227795 0.958002
O O13 0.491273 0.885134 0.912152
O O14 0.645205 0.398686 0.017867
O O15 0.050387 0.653278 0.105596
O O16 0.630529 0.220731 0.869957
O O17 0.394439 0.542471 0.164684
#
# Coordination Sequence:
#
# PCOD9083702 Si02
#       8
#     2   2   2   2   2   2   2   2
#     4  10  21  35  59  91 125 158 203 254 301 361
#     4   9  18  33  52  83 121 159 196 242 306 368
#     4  10  19  35  61  89 121 157 205 255 303 368
#     4  10  19  34  57  87 124 169 202 241 303 377
#     4  10  22  43  66  94 120 163 210 255 312 366
#     4  10  23  43  69  88 121 164 214 258 298 373
#     4  10  22  39  61  89 128 160 203 259 312 368
#     4  11  23  42  63  94 125 161 205 259 312 360
#
# _framework density 23.207794
#
# number of rings (size 3 to 8) (size 9 to 14) (size 15 to 20)
#    0.000    2.000    0.000    4.125    0.000    7.000 
#    0.000   12.500    0.000    0.000    0.000    0.000 
#    0.000    0.000    0.000    0.000    0.000    0.000 
#
# Total GULP energy -89212.480969 kJ/mol
# GULP energy per Si atom -5575.780061 kJ/mol
# Density = 2.315497 g / cm^3
# Si number density = 23.207794 Si / 1000 Ang^3
#
#
#
# Elastic Constant Matrix: (Units=GPa)
#
#
# Indices 1 2 3 4 5 6 
#
# 1 95.9492 25.0350 27.6725 1.3293 -4.5275 -20.1497
# 2 25.0350 78.4377 8.4921 9.1128 5.9639 -25.8473
# 3 27.6725 8.4921 30.6201 5.3417 -34.2369 -25.5839
# 4 1.3293 9.1128 5.3417 25.6518 -0.4379 -5.0696
# 5 -4.5275 5.9639 -34.2369 -0.4379 32.5739 -5.8627
# 6 -20.1497 -25.8473 -25.5839 -5.0696 -5.8627 28.4020
#
#
#
# Elastic Compliance Matrix: (Units=1/GPa)
#
#
# Indices 1 2 3 4 5 6 
#
# 1 0.012828 -0.001723 0.000094 0.001713 0.003787 0.008705
# 2 -0.001723 0.017303 -0.005586 -0.003611 -0.008033 0.007191
# 3 0.000094 -0.005586 -0.021840 0.000066 -0.027376 -0.030328
# 4 0.001713 -0.003611 0.000066 0.041376 0.002588 0.005908
# 5 0.003787 -0.008033 -0.027376 0.002588 -0.001278 -0.029085
# 6 0.008705 0.007191 -0.030328 0.005908 -0.029085 0.015660
#
#
# Mechanical properties :
#
#
# Convention : Reuss Voigt Hill
#
# Bulk Modulus (GPa) = -162.94930 36.37847 -63.28542
# Shear Modulus (GPa) = 65.41733 26.91269 46.16501
#
# Velocity S-wave (km/s) = 5.31496 3.40904 4.46489
# Velocity P-wave (km/s) = 5.71843 5.58611 0.86484
#
# Compressibility (1/GPa) = -0.00613688
#
# Stress axis : x y z
#
# Youngs Moduli (GPa) = 77.95710 57.79253 -45.78858
#
# Poissons Ratio (x) = 0.09956 0.00432
# Poissons Ratio (y) = 0.13430 -0.25576
# Poissons Ratio (z) = -0.00736 0.32281
#
# Static dielectric constant tensor:
#      x y z
#    x 1.887040 0.009500 0.001070 
#    y 0.009500 1.939730 0.021320 
#    z 0.001070 0.021320 1.912250 
# 
# From -- ./inp_files/616723.got.cif
#   From: 2010.05.17/outbox.cif.g08.bks.cpg/sg2_309_cif.got.tgz:616723.got - 2010.06.03 11:33:40.
