data_PCOD9083162
_publ_section_title
;
Structure prediction by ZEFSAII (Michael W. Deem and Ramdas Pophale) SiO2 
 PCOD9083162
Probable space group: P -1
;
_chemical_formula_sum "Si O2"
_cell_formula_units_Z 16
_cell_length_a 13.299880
_cell_length_b 12.276310
_cell_length_c 16.381522
_cell_angle_alpha 120.570385
_cell_angle_beta 25.789117
_cell_angle_gamma 129.004204
_cell_volume 890.814506
_symmetry_space_group_name_H-M "P -1"
_symmetry_group_IT_number 2
_symmetry_cell_setting 'triclinic'
loop_
_space_group_symop_operation_xyz
x,y,z
-x,-y,-z
loop_
_atom_site_type_symbol
_atom_site_label
_atom_site_fract_x
_atom_site_fract_y
_atom_site_fract_z
Si Si1 0.863462 0.890670 0.179758
Si Si2 0.068536 0.205947 0.082204
Si Si3 0.279894 0.686244 0.541671
Si Si4 0.962434 0.637113 0.600475
Si Si5 0.731731 0.998638 0.934037
Si Si6 0.441526 0.313897 0.994831
Si Si7 0.015861 0.361091 0.595038
Si Si8 0.858300 0.072607 0.683438
O O1 0.572588 0.797698 0.387699
O O2 0.074561 0.909931 0.101331
O O3 0.891641 0.813839 0.048591
O O4 0.913534 0.047910 0.174402
O O5 0.334741 0.279396 0.967471
O O6 0.910529 0.293921 0.247670
O O7 0.185113 0.720455 0.536224
O O8 0.233783 0.523374 0.509458
O O9 0.972557 0.698901 0.526699
O O10 0.000000 0.500000 0.500000
O O11 0.693452 0.602982 0.829168
O O12 0.852304 0.046598 0.774716
O O13 0.679644 0.837802 0.928114
O O14 0.446976 0.991714 0.142939
O O15 0.747156 0.373035 0.799964
O O16 0.993480 0.241042 0.628693
O O17 0.000000 0.000000 0.500000
#
# Coordination Sequence:
#
# PCOD9083162 Si02
#       8
#     2   2   2   2   2   2   2   2
#     4  10  19  34  51  73 105 132 167 202 236 297
#     4   9  19  32  51  74 100 140 169 195 239 287
#     4  10  20  31  48  76 107 135 163 197 242 298
#     4   9  18  29  46  74 104 136 164 193 241 292
#     4   9  20  35  54  76  95 127 167 212 256 288
#     4   9  17  32  50  73 104 130 167 209 242 292
#     4  10  20  32  51  76 101 134 167 205 257 296
#     4  10  20  37  58  76  95 122 168 218 257 298
#
# _framework density 17.961089999999999
#
# number of rings (size 3 to 8) (size 9 to 14) (size 15 to 20)
#    0.000    2.500    0.000    1.875    0.000    8.500 
#    0.000    0.625    0.000    1.500    0.000    0.000 
#    0.000    0.000    0.000    0.000    0.000    0.000 
#
# Total GULP energy -89231.052881 kJ/mol
# GULP energy per Si atom -5576.940805 kJ/mol
# Density = 1.792021 g / cm^3
# Si number density = 17.961090 Si / 1000 Ang^3
#
#
#
# Elastic Constant Matrix: (Units=GPa)
#
#
# Indices 1 2 3 4 5 6 
#
# 1 78.6330 22.1722 17.8660 3.3212 10.1616 -2.5966
# 2 22.1722 58.2634 18.7689 5.2021 -1.7138 -1.3801
# 3 17.8660 18.7689 57.9708 15.6445 0.8887 3.4152
# 4 3.3212 5.2021 15.6445 34.1652 4.5013 3.1520
# 5 10.1616 -1.7138 0.8887 4.5013 24.3035 -4.1696
# 6 -2.5966 -1.3801 3.4152 3.1520 -4.1696 18.6664
#
#
#
# Elastic Compliance Matrix: (Units=1/GPa)
#
#
# Indices 1 2 3 4 5 6 
#
# 1 0.015875 -0.005234 -0.003606 0.001786 -0.007104 0.000593
# 2 -0.005234 0.021129 -0.005142 -0.001240 0.004613 0.003015
# 3 -0.003606 -0.005142 0.022657 -0.009144 0.001469 -0.003155
# 4 0.001786 -0.001240 -0.009144 0.035069 -0.008004 -0.005880
# 5 -0.007104 0.004613 0.001469 -0.008004 0.047776 0.011108
# 6 0.000593 0.003015 -0.003155 -0.005880 0.011108 0.057929
#
#
# Mechanical properties :
#
#
# Convention : Reuss Voigt Hill
#
# Bulk Modulus (GPa) = 31.54754 34.72015 33.13385
# Shear Modulus (GPa) = 20.92373 24.49770 22.71072
#
# Velocity S-wave (km/s) = 3.41684 3.69715 3.55975
# Velocity P-wave (km/s) = 5.75924 6.13172 5.94840
#
# Compressibility (1/GPa) = 0.03169819
#
# Stress axis : x y z
#
# Youngs Moduli (GPa) = 62.99405 47.32759 44.13645
#
# Poissons Ratio (x) = 0.24771 0.15915
# Poissons Ratio (y) = 0.32970 0.22693
# Poissons Ratio (z) = 0.22715 0.24334
#
# Static dielectric constant tensor:
#      x y z
#    x 1.626880 -0.021460 0.022260 
#    y -0.021460 1.633160 -0.009300 
#    z 0.022260 -0.009300 1.634020 
# 
# From -- ./inp_files/118592.got.cif
#   From: 2010.05.17/outbox.cif.g08.bks.cpg/sg2_60_cif.got.tgz:118592.got - 2010.06.03 11:33:40.
