data_PCOD9083360
_publ_section_title
;
Structure prediction by ZEFSAII (Michael W. Deem and Ramdas Pophale) SiO2 
 PCOD9083360
Probable space group: P -1
;
_chemical_formula_sum "Si O2"
_cell_formula_units_Z 16
_cell_length_a 8.985151
_cell_length_b 9.424835
_cell_length_c 19.295576
_cell_angle_alpha 63.133906
_cell_angle_beta 63.947804
_cell_angle_gamma 31.633490
_cell_volume 759.323495
_symmetry_space_group_name_H-M "P -1"
_symmetry_group_IT_number 2
_symmetry_cell_setting 'triclinic'
loop_
_space_group_symop_operation_xyz
x,y,z
-x,-y,-z
loop_
_atom_site_type_symbol
_atom_site_label
_atom_site_fract_x
_atom_site_fract_y
_atom_site_fract_z
Si Si1 0.741681 0.512400 0.606055
Si Si2 0.115311 0.784948 0.939792
Si Si3 0.764890 0.372201 0.904433
Si Si4 0.930220 0.800987 0.257524
Si Si5 0.566586 0.559810 0.297805
Si Si6 0.828484 0.797313 0.528808
Si Si7 0.619259 0.744427 0.376871
Si Si8 0.980228 0.910275 0.791596
O O1 0.518146 0.548377 0.632212
O O2 0.675554 0.748179 0.553003
O O3 0.824034 0.438003 0.685782
O O4 0.022843 0.253617 0.559645
O O5 0.424149 0.633246 0.906236
O O6 0.026245 0.787086 0.882901
O O7 0.153019 0.644046 0.030473
O O8 0.871029 0.106065 0.934790
O O9 0.939969 0.319220 0.819220
O O10 0.674897 0.880931 0.308865
O O11 0.875801 0.028709 0.236080
O O12 0.568228 0.676956 0.335643
O O13 0.862087 0.306389 0.253434
O O14 0.334204 0.799773 0.235356
O O15 0.099039 0.535464 0.579087
O O16 0.633141 0.058338 0.559083
#
# Coordination Sequence:
#
# PCOD9083360 Si02
#       8
#     2   2   2   2   2   2   2   2
#     4   9  20  36  57  78 102 134 176 216 258 309
#     4   9  16  29  49  78 107 130 165 212 255 296
#     4   9  17  28  49  79 106 130 164 212 257 296
#     4   9  19  35  56  78 104 136 174 213 255 308
#     4  11  22  35  54  78 104 138 174 214 258 305
#     4  10  22  38  55  76 103 137 173 216 262 308
#     4  11  23  37  53  76 107 138 172 214 262 308
#     4  10  19  34  55  77 103 136 174 211 253 304
#
# _framework density 21.071387999999999
#
# number of rings (size 3 to 8) (size 9 to 14) (size 15 to 20)
#    0.000    2.250    0.000    3.750    0.000   10.500 
#    0.000    0.000    0.000    1.500    0.000    0.000 
#    0.000    0.000    0.000    0.000    0.000    0.000 
#
# Total GULP energy -89288.944679 kJ/mol
# GULP energy per Si atom -5580.559042 kJ/mol
# Density = 2.102343 g / cm^3
# Si number density = 21.071388 Si / 1000 Ang^3
#
#
#
# Elastic Constant Matrix: (Units=GPa)
#
#
# Indices 1 2 3 4 5 6 
#
# 1 46.0330 0.6584 8.9567 -5.4854 17.6849 11.3486
# 2 0.6584 91.0534 6.0697 6.4348 10.1312 -1.2838
# 3 8.9567 6.0697 102.4912 6.9715 24.3392 -0.5817
# 4 -5.4854 6.4348 6.9715 29.0890 -1.0944 8.5669
# 5 17.6849 10.1312 24.3392 -1.0944 17.6404 4.4283
# 6 11.3486 -1.2838 -0.5817 8.5669 4.4283 22.5030
#
#
#
# Elastic Compliance Matrix: (Units=1/GPa)
#
#
# Indices 1 2 3 4 5 6 
#
# 1 0.046357 0.004642 0.008522 0.007877 -0.056711 -0.014732
# 2 0.004642 0.013140 0.003506 -0.004707 -0.018307 0.003894
# 3 0.008522 0.003506 0.018295 -0.006873 -0.037843 0.006439
# 4 0.007877 -0.004707 -0.006873 0.046323 0.013360 -0.024683
# 5 -0.056711 -0.018307 -0.037843 0.013360 0.180627 -0.014054
# 6 -0.014732 0.003894 0.006439 -0.024683 -0.014054 0.064419
#
#
# Mechanical properties :
#
#
# Convention : Reuss Voigt Hill
#
# Bulk Modulus (GPa) = 8.99822 30.10524 19.55173
# Shear Modulus (GPa) = 13.40966 28.77264 21.09115
#
# Velocity S-wave (km/s) = 2.52542 3.69925 3.16719
# Velocity P-wave (km/s) = 3.57537 5.70651 4.76170
#
# Compressibility (1/GPa) = 0.11113304
#
# Stress axis : x y z
#
# Youngs Moduli (GPa) = 21.57176 76.10451 54.65851
#
# Poissons Ratio (x) = -0.35331 -0.46581
# Poissons Ratio (y) = -0.10014 -0.19163
# Poissons Ratio (z) = -0.18384 -0.26682
#
# Static dielectric constant tensor:
#      x y z
#    x 1.744250 -0.015650 0.011090 
#    y -0.015650 1.773270 -0.022080 
#    z 0.011090 -0.022080 1.833460 
# 
# From -- ./inp_files/42232.got.cif
#   From: 2010.05.17/outbox.cif.g08.bks.cpg/sg2_22_cif.got.tgz:42232.got - 2010.06.03 11:33:40.
