data_PCOD9083716
_publ_section_title
;
Structure prediction by ZEFSAII (Michael W. Deem and Ramdas Pophale) SiO2 
 PCOD9083716
Probable space group: P -1
;
_chemical_formula_sum "Si O2"
_cell_formula_units_Z 14
_cell_length_a 4.887809
_cell_length_b 10.617500
_cell_length_c 13.480347
_cell_angle_alpha 109.281071
_cell_angle_beta 120.724952
_cell_angle_gamma 93.760550
_cell_volume 543.470015
_symmetry_space_group_name_H-M "P -1"
_symmetry_group_IT_number 2
_symmetry_cell_setting 'triclinic'
loop_
_space_group_symop_operation_xyz
x,y,z
-x,-y,-z
loop_
_atom_site_type_symbol
_atom_site_label
_atom_site_fract_x
_atom_site_fract_y
_atom_site_fract_z
Si Si1 0.789209 0.258758 0.471558
Si Si2 0.789765 0.646185 0.085578
Si Si3 0.889514 0.644106 0.889220
Si Si4 0.773802 0.919272 0.550538
Si Si5 0.192008 0.053286 0.838926
Si Si6 0.145636 0.472717 0.738551
Si Si7 0.386384 0.124937 0.181816
O O1 0.444074 0.203285 0.451802
O O2 0.959839 0.409457 0.587696
O O3 0.668125 0.233018 0.328728
O O4 0.038242 0.161054 0.509140
O O5 0.666681 0.781838 0.082925
O O6 0.950003 0.647166 0.223985
O O7 0.500000 0.500000 0.000000
O O8 0.008236 0.647717 0.027311
O O9 0.062536 0.599017 0.814355
O O10 0.819476 0.788533 0.889872
O O11 0.533631 0.525820 0.799435
O O12 0.500000 0.000000 0.500000
O O13 0.069766 0.021096 0.694465
O O14 0.860671 0.989538 0.824433
O O15 0.435775 0.959979 0.876325
#
# Coordination Sequence:
#
# PCOD9083716 Si02
#       7
#     2   2   2   2   2   2   2
#     4  10  21  36  58  89 123 155 198 247 297 363
#     4  10  24  43  64  91 121 158 206 252 304 358
#     4  11  24  41  62  87 124 163 206 252 289 360
#     4  10  19  34  57  88 123 158 197 244 299 359
#     4  10  22  39  63  89 123 159 197 253 302 359
#     4  11  23  40  63  90 122 163 202 250 306 349
#     4  10  23  41  61  93 122 158 204 243 305 362
#
# _framework density 25.760390000000001
#
# number of rings (size 3 to 8) (size 9 to 14) (size 15 to 20)
#    0.000    1.714    0.000    3.429    0.000    9.143 
#    0.000    0.000    0.000    0.000    0.000    0.000 
#    0.000    0.000    0.000    0.000    0.000    0.000 
#
# Total GULP energy -78255.499062 kJ/mol
# GULP energy per Si atom -5589.678504 kJ/mol
# Density = 2.570176 g / cm^3
# Si number density = 25.760390 Si / 1000 Ang^3
#
#
#
# Elastic Constant Matrix: (Units=GPa)
#
#
# Indices 1 2 3 4 5 6 
#
# 1 111.9754 -1.2006 28.3403 11.0492 -12.4558 -14.6076
# 2 -1.2006 99.7347 28.7985 9.1492 -3.3386 -23.9442
# 3 28.3403 28.7985 118.2788 17.5739 -20.4944 1.1665
# 4 11.0492 9.1492 17.5739 38.4308 0.6703 -1.5240
# 5 -12.4558 -3.3386 -20.4944 0.6703 22.7907 6.4969
# 6 -14.6076 -23.9442 1.1665 -1.5240 6.4969 44.5895
#
#
#
# Elastic Compliance Matrix: (Units=1/GPa)
#
#
# Indices 1 2 3 4 5 6 
#
# 1 0.010627 0.002083 -0.002210 -0.002429 0.003018 0.004135
# 2 0.002083 0.013263 -0.004091 -0.001506 -0.002915 0.008285
# 3 -0.002210 -0.004091 0.012635 -0.004562 0.011122 -0.005028
# 4 -0.002429 -0.001506 -0.004562 0.029299 -0.006650 0.000485
# 5 0.003018 -0.002915 0.011122 -0.006650 0.058019 -0.009549
# 6 0.004135 0.008285 -0.005028 0.000485 -0.009549 0.029770
#
#
# Mechanical properties :
#
#
# Convention : Reuss Voigt Hill
#
# Bulk Modulus (GPa) = 35.60398 49.09616 42.35007
# Shear Modulus (GPa) = 29.16945 39.43224 34.30084
#
# Velocity S-wave (km/s) = 3.36867 3.91670 3.65298
# Velocity P-wave (km/s) = 5.38348 6.28921 5.85389
#
# Compressibility (1/GPa) = 0.02808674
#
# Stress axis : x y z
#
# Youngs Moduli (GPa) = 94.09884 75.40031 79.14613
#
# Poissons Ratio (x) = -0.15704 0.17494
# Poissons Ratio (y) = -0.19598 0.32381
# Poissons Ratio (z) = 0.20799 0.30849
#
# Static dielectric constant tensor:
#      x y z
#    x 2.010180 -0.036560 -0.006530 
#    y -0.036560 2.063590 -0.064800 
#    z -0.006530 -0.064800 2.073720 
# 
# From -- ./inp_files/77067.got.cif
#   From: 2010.05.17/outbox.cif.g08.bks.cpg/sg2_39_cif.got.tgz:77067.got - 2010.06.03 11:33:40.
