data_PCOD9083198
_publ_section_title
;
Structure prediction by ZEFSAII (Michael W. Deem and Ramdas Pophale) SiO2 
 PCOD9083198
Probable space group: P -1
;
_chemical_formula_sum "Si O2"
_cell_formula_units_Z 14
_cell_length_a 22.036355
_cell_length_b 5.643205
_cell_length_c 9.072109
_cell_angle_alpha 87.427866
_cell_angle_beta 148.481553
_cell_angle_gamma 94.128841
_cell_volume 587.950643
_symmetry_space_group_name_H-M "P -1"
_symmetry_group_IT_number 2
_symmetry_cell_setting 'triclinic'
loop_
_space_group_symop_operation_xyz
x,y,z
-x,-y,-z
loop_
_atom_site_type_symbol
_atom_site_label
_atom_site_fract_x
_atom_site_fract_y
_atom_site_fract_z
Si Si1 0.229826 0.125020 0.139092
Si Si2 0.904531 0.910710 0.424915
Si Si3 0.783328 0.366106 0.909593
Si Si4 0.568004 0.805033 0.233460
Si Si5 0.640468 0.574486 0.118453
Si Si6 0.856008 0.393521 0.401404
Si Si7 0.485217 0.743214 0.556779
O O1 0.182003 0.372281 0.085174
O O2 0.359388 0.133075 0.471968
O O3 0.176998 0.866076 0.084515
O O4 0.210274 0.127401 0.920361
O O5 0.926955 0.651601 0.543894
O O6 0.896774 0.127350 0.517759
O O7 0.000000 0.000000 0.500000
O O8 0.643183 0.318291 0.636982
O O9 0.826480 0.369945 0.166961
O O10 0.659218 0.704762 0.308918
O O11 0.467629 0.611549 0.072968
O O12 0.500000 0.000000 0.000000
O O13 0.745535 0.443129 0.270812
O O14 0.587759 0.753798 0.889222
O O15 0.500000 0.500000 0.500000
O O16 0.500000 0.000000 0.500000
#
# Coordination Sequence:
#
# PCOD9083198 Si02
#       7
#     2   2   2   2   2   2   2
#     4  10  21  38  59  86 118 162 204 243 308 366
#     4  10  22  42  67  94 119 150 200 274 337 373
#     4  10  19  34  52  85 115 151 199 243 298 361
#     4  11  25  40  59  83 135 184 212 245 280 371
#     4  11  25  39  55  92 128 172 217 247 299 370
#     4  10  22  36  63  92 121 155 196 260 321 376
#     4  12  23  32  55  81 123 159 199 250 301 356
#
# _framework density 23.811520999999999
#
# number of rings (size 3 to 8) (size 9 to 14) (size 15 to 20)
#    0.000    1.429    2.857    2.143   10.000    0.000 
#    0.000    0.714    0.000    1.714    0.000    0.000 
#    0.000    0.000    0.000    0.000    0.000    0.000 
#
# Total GULP energy -78069.992158 kJ/mol
# GULP energy per Si atom -5576.428011 kJ/mol
# Density = 2.375733 g / cm^3
# Si number density = 23.811521 Si / 1000 Ang^3
#
#
#
# Elastic Constant Matrix: (Units=GPa)
#
#
# Indices 1 2 3 4 5 6 
#
# 1 94.0286 40.7987 18.3696 3.9251 9.6488 -12.3630
# 2 40.7987 246.0739 18.5283 -4.9712 0.6604 -24.5966
# 3 18.3696 18.5283 48.4868 6.5913 2.6542 1.2891
# 4 3.9251 -4.9712 6.5913 27.9082 1.1373 1.8988
# 5 9.6488 0.6604 2.6542 1.1373 18.6261 -3.5574
# 6 -12.3630 -24.5966 1.2891 1.8988 -3.5574 29.8139
#
#
#
# Elastic Compliance Matrix: (Units=1/GPa)
#
#
# Indices 1 2 3 4 5 6 
#
# 1 0.013191 -0.001508 -0.004064 -0.001205 -0.005395 0.003835
# 2 -0.001508 0.004803 -0.001592 0.001147 0.001437 0.003505
# 3 -0.004064 -0.001592 0.023641 -0.004963 -0.001649 -0.003902
# 4 -0.001205 0.001147 -0.004963 0.037562 -0.001365 -0.001894
# 5 -0.005395 0.001437 -0.001649 -0.001365 0.057899 0.006015
# 6 0.003835 0.003505 -0.003902 -0.001894 0.006015 0.039030
#
#
# Mechanical properties :
#
#
# Convention : Reuss Voigt Hill
#
# Bulk Modulus (GPa) = 36.61982 60.44251 48.53117
# Shear Modulus (GPa) = 25.05542 35.99581 30.52562
#
# Velocity S-wave (km/s) = 3.24734 3.89227 3.58434
# Velocity P-wave (km/s) = 5.42888 6.75563 6.12827
#
# Compressibility (1/GPa) = 0.02730761
#
# Stress axis : x y z
#
# Youngs Moduli (GPa) = 75.80713 208.19066 42.29942
#
# Poissons Ratio (x) = 0.31387 0.17192
# Poissons Ratio (y) = 0.11429 0.06734
# Poissons Ratio (z) = 0.30811 0.33145
#
# Static dielectric constant tensor:
#      x y z
#    x 1.926270 -0.054370 0.030050 
#    y -0.054370 2.065810 -0.054170 
#    z 0.030050 -0.054170 2.002180 
# 
# From -- ./inp_files/46675.got.cif
#   From: 2010.05.17/outbox.cif.g08.bks.cpg/sg2_24_cif.got.tgz:46675.got - 2010.06.03 11:33:40.
