data_PCOD9083984
_publ_section_title
;
Structure prediction by ZEFSAII (Michael W. Deem and Ramdas Pophale) SiO2 
 PCOD9083984
Probable space group: P -1
;
_chemical_formula_sum "Si O2"
_cell_formula_units_Z 14
_cell_length_a 25.448091
_cell_length_b 5.666685
_cell_length_c 14.278173
_cell_angle_alpha 95.000870
_cell_angle_beta 19.747023
_cell_angle_gamma 81.508497
_cell_volume 506.538679
_symmetry_space_group_name_H-M "P -1"
_symmetry_group_IT_number 2
_symmetry_cell_setting 'triclinic'
loop_
_space_group_symop_operation_xyz
x,y,z
-x,-y,-z
loop_
_atom_site_type_symbol
_atom_site_label
_atom_site_fract_x
_atom_site_fract_y
_atom_site_fract_z
Si Si1 0.962124 0.020108 0.674187
Si Si2 0.706091 0.873173 0.526369
Si Si3 0.043481 0.453084 0.619879
Si Si4 0.590658 0.962024 0.505078
Si Si5 0.024925 0.870856 0.057864
Si Si6 0.673937 0.564212 0.725477
Si Si7 0.415793 0.536104 0.530294
O O1 0.065079 0.161743 0.540393
O O2 0.727294 0.279942 0.128969
O O3 0.000000 0.000000 0.500000
O O4 0.047770 0.671267 0.548996
O O5 0.649757 0.926104 0.513909
O O6 0.933703 0.708202 0.183715
O O7 0.653267 0.680963 0.658855
O O8 0.551291 0.239449 0.841700
O O9 0.233035 0.311953 0.367487
O O10 0.815115 0.710394 0.064153
O O11 0.472137 0.838591 0.674685
O O12 0.483358 0.316537 0.662178
O O13 0.859954 0.183735 0.409541
O O14 0.244170 0.674273 0.736992
O O15 0.000000 0.000000 0.000000
#
# Coordination Sequence:
#
# PCOD9083984 Si02
#       7
#     2   2   2   2   2   2   2
#     4  10  19  34  59  88 110 135 181 241 296 332
#     4  11  23  34  51  77 114 158 198 224 272 329
#     4  10  20  37  56  82 113 143 183 234 287 332
#     4  10  19  36  52  79 105 147 190 226 271 321
#     4  12  20  34  55  76 112 150 191 232 270 324
#     4  11  23  36  49  79 117 155 189 234 272 340
#     4  10  20  33  57  79 111 138 186 232 281 323
#
# _framework density 27.638563000000001
#
# number of rings (size 3 to 8) (size 9 to 14) (size 15 to 20)
#    0.000    1.429    4.286    3.429    0.000    1.714 
#    0.000    0.000    0.000    0.000    0.000   24.000 
#    0.000    0.000    0.000    0.000    0.000    0.000 
#
# Total GULP energy -78328.514448 kJ/mol
# GULP energy per Si atom -5594.893889 kJ/mol
# Density = 2.757566 g / cm^3
# Si number density = 27.638563 Si / 1000 Ang^3
#
#
#
# Elastic Constant Matrix: (Units=GPa)
#
#
# Indices 1 2 3 4 5 6 
#
# 1 102.1927 53.2490 20.8254 -17.4165 41.4844 -14.0571
# 2 53.2490 214.9772 30.4639 -18.7879 18.5215 -0.4455
# 3 20.8254 30.4639 39.2730 -9.6716 14.5475 -3.4929
# 4 -17.4165 -18.7879 -9.6716 44.2559 -11.1721 13.5618
# 5 41.4844 18.5215 14.5475 -11.1721 41.6148 -12.8622
# 6 -14.0571 -0.4455 -3.4929 13.5618 -12.8622 57.5535
#
#
#
# Elastic Compliance Matrix: (Units=1/GPa)
#
#
# Indices 1 2 3 4 5 6 
#
# 1 0.018364 -0.002864 -0.001134 0.001572 -0.016080 0.000430
# 2 -0.002864 0.005807 -0.003311 0.001245 0.001512 -0.000811
# 3 -0.001134 -0.003311 0.032399 0.003483 -0.008084 -0.000964
# 4 0.001572 0.001245 0.003483 0.026651 0.002215 -0.005180
# 5 -0.016080 0.001512 -0.008084 0.002215 0.044347 0.004983
# 6 0.000430 -0.000811 -0.000964 -0.005180 0.004983 0.019750
#
#
# Mechanical properties :
#
#
# Convention : Reuss Voigt Hill
#
# Bulk Modulus (GPa) = 23.83765 62.83550 43.33657
# Shear Modulus (GPa) = 28.42187 45.47849 36.95018
#
# Velocity S-wave (km/s) = 3.21026 4.06084 3.66034
# Velocity P-wave (km/s) = 4.73122 6.69114 5.79464
#
# Compressibility (1/GPa) = 0.04195045
#
# Stress axis : x y z
#
# Youngs Moduli (GPa) = 54.45565 172.19964 30.86471
#
# Poissons Ratio (x) = 0.49322 0.03501
# Poissons Ratio (y) = 0.15597 0.10221
# Poissons Ratio (z) = 0.06177 0.57022
#
# Static dielectric constant tensor:
#      x y z
#    x 2.136310 0.012810 -0.002190 
#    y 0.012810 2.282120 -0.072460 
#    z -0.002190 -0.072460 2.360750 
# 
# From -- ./inp_files/544670.got.cif
#   From: 2010.05.17/outbox.cif.g08.bks.cpg/sg2_273_cif.got.tgz:544670.got - 2010.06.03 11:33:40.
