data_PCOD9083131
_publ_section_title
;
Structure prediction by ZEFSAII (Michael W. Deem and Ramdas Pophale) SiO2 
 PCOD9083131
Probable space group: P -1
;
_chemical_formula_sum "Si O2"
_cell_formula_units_Z 16
_cell_length_a 8.431627
_cell_length_b 10.067267
_cell_length_c 16.848743
_cell_angle_alpha 54.966293
_cell_angle_beta 144.461374
_cell_angle_gamma 112.329638
_cell_volume 669.156040
_symmetry_space_group_name_H-M "P -1"
_symmetry_group_IT_number 2
_symmetry_cell_setting 'triclinic'
loop_
_space_group_symop_operation_xyz
x,y,z
-x,-y,-z
loop_
_atom_site_type_symbol
_atom_site_label
_atom_site_fract_x
_atom_site_fract_y
_atom_site_fract_z
Si Si1 0.546870 0.425500 0.706538
Si Si2 0.539759 0.206005 0.619968
Si Si3 0.055115 0.706939 0.376882
Si Si4 0.069715 0.817840 0.625529
Si Si5 0.625400 0.885829 0.870474
Si Si6 0.680561 0.512625 0.189786
Si Si7 0.879986 0.523576 0.085260
Si Si8 0.484129 0.102567 0.877051
O O1 0.553715 0.339681 0.650707
O O2 0.257130 0.552943 0.552064
O O3 0.575216 0.276373 0.832182
O O4 0.796214 0.526442 0.781932
O O5 0.744851 0.221347 0.626925
O O6 0.223058 0.225861 0.454214
O O7 0.604973 0.026420 0.748226
O O8 0.833148 0.637276 0.254799
O O9 0.849170 0.843735 0.297057
O O10 0.328476 0.828811 0.784032
O O11 0.207901 0.673786 0.670762
O O12 0.000000 0.000000 0.500000
O O13 0.675871 0.974646 0.941120
O O14 0.828861 0.721776 0.986468
O O15 0.795742 0.503609 0.149303
O O16 0.348013 0.544616 0.036775
O O17 0.500000 0.000000 0.000000
#
# Coordination Sequence:
#
# PCOD9083131 Si02
#       8
#     2   2   2   2   2   2   2   2
#     4  11  22  38  63  93 121 156 213 255 304 355
#     4  10  19  33  65  94 118 150 208 258 301 358
#     4  12  22  39  63  96 123 162 204 254 312 365
#     4   9  17  34  57  90 119 151 198 258 308 353
#     4   9  21  38  60  89 124 163 201 250 309 364
#     4  10  19  34  59  92 123 156 196 259 311 355
#     4  10  20  35  62  94 122 154 206 258 303 358
#     4  11  26  41  58  85 133 173 201 246 309 377
#
# _framework density 23.910716000000001
#
# number of rings (size 3 to 8) (size 9 to 14) (size 15 to 20)
#    0.000    1.750    2.500    2.250    1.750    1.000 
#    0.000    1.250    0.000    1.500    0.000    0.000 
#    0.000    0.000    0.000    0.000    0.000    0.000 
#
# Total GULP energy -89317.365305 kJ/mol
# GULP energy per Si atom -5582.335332 kJ/mol
# Density = 2.385629 g / cm^3
# Si number density = 23.910716 Si / 1000 Ang^3
#
#
#
# Elastic Constant Matrix: (Units=GPa)
#
#
# Indices 1 2 3 4 5 6 
#
# 1 63.8183 25.6831 19.0871 13.8953 3.9355 25.1173
# 2 25.6831 75.3086 36.7071 10.6642 -1.6772 24.6903
# 3 19.0871 36.7071 117.3625 6.7633 16.2114 23.8630
# 4 13.8953 10.6642 6.7633 48.2470 22.5798 8.6435
# 5 3.9355 -1.6772 16.2114 22.5798 37.8876 -0.9729
# 6 25.1173 24.6903 23.8630 8.6435 -0.9729 33.3857
#
#
#
# Elastic Compliance Matrix: (Units=1/GPa)
#
#
# Indices 1 2 3 4 5 6 
#
# 1 0.023317 -0.002921 0.000573 -0.002701 -0.001575 -0.015138
# 2 -0.002921 0.019813 -0.004600 -0.003937 0.005290 -0.007994
# 3 0.000573 -0.004600 0.012193 0.004245 -0.008192 -0.007082
# 4 -0.002701 -0.003937 0.004245 0.033258 -0.021720 -0.007335
# 5 -0.001575 0.005290 -0.008192 -0.021720 0.043499 0.010019
# 6 -0.015138 -0.007994 -0.007082 -0.007335 0.010019 0.054507
#
#
# Mechanical properties :
#
#
# Convention : Reuss Voigt Hill
#
# Bulk Modulus (GPa) = 24.13910 46.60488 35.37199
# Shear Modulus (GPa) = 23.33264 35.57154 29.45209
#
# Velocity S-wave (km/s) = 3.12721 3.86123 3.51344
# Velocity P-wave (km/s) = 4.81214 6.27793 5.59326
#
# Compressibility (1/GPa) = 0.04142656
#
# Stress axis : x y z
#
# Youngs Moduli (GPa) = 42.88766 50.47142 82.01286
#
# Poissons Ratio (x) = 0.14740 -0.04696
# Poissons Ratio (y) = 0.12525 0.37729
# Poissons Ratio (z) = -0.02456 0.23219
#
# Static dielectric constant tensor:
#      x y z
#    x 1.919930 -0.019230 0.001730 
#    y -0.019230 1.994830 -0.053170 
#    z 0.001730 -0.053170 2.006790 
# 
# From -- ./inp_files/565939.got.cif
#   From: 2010.05.17/outbox.cif.g08.bks.cpg/sg2_283_cif.got.tgz:565939.got - 2010.06.03 11:33:40.
