data_PCOD9083197
_publ_section_title
;
Structure prediction by ZEFSAII (Michael W. Deem and Ramdas Pophale) SiO2 
 PCOD9083197
Probable space group: P -1
;
_chemical_formula_sum "Si O2"
_cell_formula_units_Z 16
_cell_length_a 17.663907
_cell_length_b 15.672505
_cell_length_c 15.402809
_cell_angle_alpha 161.418725
_cell_angle_beta 129.012942
_cell_angle_gamma 43.473378
_cell_volume 901.099671
_symmetry_space_group_name_H-M "P -1"
_symmetry_group_IT_number 2
_symmetry_cell_setting 'triclinic'
loop_
_space_group_symop_operation_xyz
x,y,z
-x,-y,-z
loop_
_atom_site_type_symbol
_atom_site_label
_atom_site_fract_x
_atom_site_fract_y
_atom_site_fract_z
Si Si1 0.039683 0.127638 0.974919
Si Si2 0.467900 0.645744 0.019238
Si Si3 0.909909 0.502314 0.506157
Si Si4 0.218234 0.461845 0.833033
Si Si5 0.701421 0.196960 0.663995
Si Si6 0.019859 0.150277 0.782745
Si Si7 0.125389 0.126857 0.660769
Si Si8 0.681177 0.626317 0.366795
O O1 0.066315 0.077000 0.843156
O O2 0.040400 0.833527 0.735041
O O3 0.113048 0.231101 0.183378
O O4 0.910939 0.425867 0.174476
O O5 0.576039 0.471936 0.865744
O O6 0.370167 0.589192 0.857176
O O7 0.500000 0.500000 0.000000
O O8 0.417877 0.013448 0.345289
O O9 0.793837 0.566611 0.439601
O O10 0.000000 0.500000 0.500000
O O11 0.283892 0.438995 0.771399
O O12 0.281248 0.124311 0.596631
O O13 0.217122 0.718344 0.142231
O O14 0.751395 0.114867 0.523851
O O15 0.111639 0.104564 0.732050
O O16 0.966163 0.944243 0.517408
O O17 0.918415 0.515514 0.052242
#
# Coordination Sequence:
#
# PCOD9083197 Si02
#       8
#     2   2   2   2   2   2   2   2
#     4  12  22  37  55  83 107 154 181 215 273 329
#     4  12  23  36  56  77 106 149 184 220 271 322
#     4  12  26  37  56  78 109 148 191 225 265 316
#     4  12  21  32  57  78 113 143 182 220 257 322
#     4  12  21  34  54  84 109 148 178 214 272 331
#     4  10  20  33  56  79 115 141 174 218 276 331
#     4  10  19  34  52  85 112 141 171 223 273 330
#     4  12  24  39  50  78 111 143 187 231 255 310
#
# _framework density 17.756081999999999
#
# number of rings (size 3 to 8) (size 9 to 14) (size 15 to 20)
#    0.000    0.500    6.250    3.750    1.750    0.000 
#    0.000    0.000    0.000    0.000    0.000    5.250 
#    0.000    0.000    0.000    0.000    0.000    0.000 
#
# Total GULP energy -89381.005874 kJ/mol
# GULP energy per Si atom -5586.312867 kJ/mol
# Density = 1.771567 g / cm^3
# Si number density = 17.756082 Si / 1000 Ang^3
#
#
#
# Elastic Constant Matrix: (Units=GPa)
#
#
# Indices 1 2 3 4 5 6 
#
# 1 78.6475 31.9142 19.8399 -4.1753 -23.1738 9.5883
# 2 31.9142 59.7766 12.4944 -12.0360 -2.2977 8.0245
# 3 19.8399 12.4944 67.7568 -10.3824 -7.0196 13.2937
# 4 -4.1753 -12.0360 -10.3824 28.1622 -6.9259 1.0830
# 5 -23.1738 -2.2977 -7.0196 -6.9259 39.9184 -4.4323
# 6 9.5883 8.0245 13.2937 1.0830 -4.4323 30.0743
#
#
#
# Elastic Compliance Matrix: (Units=1/GPa)
#
#
# Indices 1 2 3 4 5 6 
#
# 1 0.020835 -0.009833 -0.002827 0.000596 0.011006 -0.001169
# 2 -0.009833 0.024024 0.000175 0.008215 -0.003329 -0.004139
# 3 -0.002827 0.000175 0.018271 0.007167 0.002028 -0.007181
# 4 0.000596 0.008215 0.007167 0.044212 0.009106 -0.005800
# 5 0.011006 -0.003329 0.002028 0.009106 0.033303 0.001063
# 6 -0.001169 -0.004139 -0.007181 -0.005800 0.001063 0.038268
#
#
# Mechanical properties :
#
#
# Convention : Reuss Voigt Hill
#
# Bulk Modulus (GPa) = 26.20460 37.18641 31.69550
# Shear Modulus (GPa) = 23.08369 29.09313 26.08841
#
# Velocity S-wave (km/s) = 3.60952 4.05222 3.83726
# Velocity P-wave (km/s) = 5.67113 6.54846 6.12552
#
# Compressibility (1/GPa) = 0.03816124
#
# Stress axis : x y z
#
# Youngs Moduli (GPa) = 47.99562 41.62553 54.73086
#
# Poissons Ratio (x) = 0.40930 0.15470
# Poissons Ratio (y) = 0.47194 -0.00958
# Poissons Ratio (z) = 0.13567 -0.00729
#
# Static dielectric constant tensor:
#      x y z
#    x 1.638090 -0.010700 -0.003430 
#    y -0.010700 1.614190 -0.008970 
#    z -0.003430 -0.008970 1.608700 
# 
# From -- ./inp_files/367002.got.cif
#   From: 2010.05.17/outbox.cif.g08.bks.cpg/sg2_184_cif.got.tgz:367002.got - 2010.06.03 11:33:40.
