data_PCOD9083786
_publ_section_title
;
Structure prediction by ZEFSAII (Michael W. Deem and Ramdas Pophale) SiO2 
 PCOD9083786
Probable space group: P -1
;
_chemical_formula_sum "Si O2"
_cell_formula_units_Z 16
_cell_length_a 10.078101
_cell_length_b 13.994407
_cell_length_c 12.283783
_cell_angle_alpha 132.839896
_cell_angle_beta 125.144860
_cell_angle_gamma 28.322027
_cell_volume 601.376341
_symmetry_space_group_name_H-M "P -1"
_symmetry_group_IT_number 2
_symmetry_cell_setting 'triclinic'
loop_
_space_group_symop_operation_xyz
x,y,z
-x,-y,-z
loop_
_atom_site_type_symbol
_atom_site_label
_atom_site_fract_x
_atom_site_fract_y
_atom_site_fract_z
Si Si1 0.057602 0.746430 0.033952
Si Si2 0.117807 0.892142 0.853818
Si Si3 0.463701 0.314236 0.338794
Si Si4 0.956562 0.195915 0.444417
Si Si5 0.556520 0.539703 0.221689
Si Si6 0.601639 0.994474 0.311226
Si Si7 0.028697 0.470650 0.827464
Si Si8 0.680999 0.756957 0.443689
O O1 0.255776 0.600901 0.908003
O O2 0.992794 0.646293 0.969109
O O3 0.241898 0.704212 0.174437
O O4 0.823602 0.003094 0.086116
O O5 0.911091 0.949486 0.717113
O O6 0.350837 0.631802 0.782934
O O7 0.000000 0.000000 0.000000
O O8 0.730682 0.233470 0.396581
O O9 0.234479 0.553773 0.480093
O O10 0.267970 0.408071 0.215474
O O11 0.558951 0.117353 0.285726
O O12 0.164607 0.096050 0.563992
O O13 0.587736 0.670373 0.365132
O O14 0.730096 0.766750 0.178692
O O15 0.299780 0.196199 0.388083
O O16 0.128747 0.397820 0.691126
O O17 0.500000 0.000000 0.500000
#
# Coordination Sequence:
#
# PCOD9083786 Si02
#       8
#     2   2   2   2   2   2   2   2
#     4   9  18  33  51  76 110 142 181 229 268 327
#     4  10  20  34  57  83 108 143 184 231 281 327
#     4  10  21  37  58  81 113 152 185 230 283 337
#     4  10  21  37  57  85 113 142 191 236 275 338
#     4   9  17  31  52  77 106 143 181 219 278 335
#     4  10  19  34  58  83 110 147 185 231 289 335
#     4   9  20  35  51  81 116 145 185 230 279 336
#     4   9  17  31  52  81 113 140 175 232 286 330
#
# _framework density 26.605634999999999
#
# number of rings (size 3 to 8) (size 9 to 14) (size 15 to 20)
#    0.000    2.500    0.000    1.875    0.000    2.500 
#    0.000   16.875    0.000    1.500    0.000    0.000 
#    0.000    0.000    0.000    0.000    0.000    0.000 
#
# Total GULP energy -89147.905008 kJ/mol
# GULP energy per Si atom -5571.744063 kJ/mol
# Density = 2.654508 g / cm^3
# Si number density = 26.605635 Si / 1000 Ang^3
#
#
#
# Elastic Constant Matrix: (Units=GPa)
#
#
# Indices 1 2 3 4 5 6 
#
# 1 68.7823 19.2808 22.6150 20.4007 25.1310 19.4348
# 2 19.2808 123.1677 44.7267 35.1936 14.1729 27.2547
# 3 22.6150 44.7267 104.3757 33.1572 24.8220 8.3689
# 4 20.4007 35.1936 33.1572 40.4218 16.6993 12.1618
# 5 25.1310 14.1729 24.8220 16.6993 43.7677 16.5722
# 6 19.4348 27.2547 8.3689 12.1618 16.5722 45.3516
#
#
#
# Elastic Compliance Matrix: (Units=1/GPa)
#
#
# Indices 1 2 3 4 5 6 
#
# 1 0.020370 0.000593 -0.000682 -0.005712 -0.007555 -0.004668
# 2 0.000593 0.012426 -0.003110 -0.007863 0.002678 -0.006018
# 3 -0.000682 -0.003110 0.014465 -0.007717 -0.005166 0.003449
# 4 -0.005712 -0.007863 -0.007717 0.043576 -0.006098 -0.000860
# 5 -0.007555 0.002678 -0.005166 -0.006098 0.034793 -0.008497
# 6 -0.004668 -0.006018 0.003449 -0.000860 -0.008497 0.030366
#
#
# Mechanical properties :
#
#
# Convention : Reuss Voigt Hill
#
# Bulk Modulus (GPa) = 24.47218 52.17454 38.32336
# Shear Modulus (GPa) = 28.40715 39.88842 34.14778
#
# Velocity S-wave (km/s) = 3.27113 3.87621 3.58645
# Velocity P-wave (km/s) = 4.84615 6.29970 5.62012
#
# Compressibility (1/GPa) = 0.04086272
#
# Stress axis : x y z
#
# Youngs Moduli (GPa) = 49.09202 80.47965 69.13441
#
# Poissons Ratio (x) = -0.04776 0.04718
# Poissons Ratio (y) = -0.02913 0.21498
# Poissons Ratio (z) = 0.03350 0.25026
#
# Static dielectric constant tensor:
#      x y z
#    x 2.214770 -0.071560 -0.084980 
#    y -0.071560 2.145880 0.025710 
#    z -0.084980 0.025710 2.145350 
# 
# From -- ./inp_files/521769.got.cif
#   From: 2010.05.17/outbox.cif.g08.bks.cpg/sg2_261_cif.got.tgz:521769.got - 2010.06.03 11:33:40.
