data_PCOD9083808
_publ_section_title
;
Structure prediction by ZEFSAII (Michael W. Deem and Ramdas Pophale) SiO2 
 PCOD9083808
Probable space group: P -1
;
_chemical_formula_sum "Si O2"
_cell_formula_units_Z 14
_cell_length_a 9.802921
_cell_length_b 12.505365
_cell_length_c 7.540497
_cell_angle_alpha 82.648248
_cell_angle_beta 67.024479
_cell_angle_gamma 133.607357
_cell_volume 494.920335
_symmetry_space_group_name_H-M "P -1"
_symmetry_group_IT_number 2
_symmetry_cell_setting 'triclinic'
loop_
_space_group_symop_operation_xyz
x,y,z
-x,-y,-z
loop_
_atom_site_type_symbol
_atom_site_label
_atom_site_fract_x
_atom_site_fract_y
_atom_site_fract_z
Si Si1 0.449420 0.593099 0.823022
Si Si2 0.079351 0.183062 0.099279
Si Si3 0.608696 0.816148 0.047114
Si Si4 0.073284 0.488220 0.762264
Si Si5 0.729767 0.192953 0.727884
Si Si6 0.990873 0.141653 0.529597
Si Si7 0.767827 0.196314 0.252513
O O1 0.492733 0.691630 0.955093
O O2 0.299838 0.565067 0.743958
O O3 0.715341 0.697645 0.609311
O O4 0.276664 0.391775 0.013158
O O5 0.247433 0.192948 0.914622
O O6 0.967085 0.068383 0.364748
O O7 0.876308 0.145402 0.134482
O O8 0.410832 0.776491 0.250334
O O9 0.837914 0.017885 0.805236
O O10 0.107021 0.637079 0.717531
O O11 0.995545 0.385141 0.643472
O O12 0.811916 0.299758 0.038058
O O13 0.841311 0.163633 0.554542
O O14 0.500000 0.000000 0.000000
O O15 0.500000 0.000000 0.500000
#
# Coordination Sequence:
#
# PCOD9083808 Si02
#       7
#     2   2   2   2   2   2   2
#     4  10  20  37  61  85 116 148 197 258 286 347
#     4  10  20  35  56  91 112 147 200 248 293 342
#     4  10  19  34  58  84 116 151 196 243 291 346
#     4  10  22  40  58  89 123 157 199 247 306 345
#     4  10  22  38  60  83 122 167 192 242 299 362
#     4  10  21  34  60  86 115 163 192 233 302 358
#     4  10  22  35  65  91 121 152 198 258 296 350
#
# _framework density 28.287376999999999
#
# number of rings (size 3 to 8) (size 9 to 14) (size 15 to 20)
#    0.000    2.000    0.000    6.000    8.000    0.571 
#    0.000    6.429    0.000    6.857    0.000    0.000 
#    0.000    0.000    0.000    0.000    0.000    0.000 
#
# Total GULP energy -78033.668457 kJ/mol
# GULP energy per Si atom -5573.833461 kJ/mol
# Density = 2.822299 g / cm^3
# Si number density = 28.287377 Si / 1000 Ang^3
#
#
#
# Elastic Constant Matrix: (Units=GPa)
#
#
# Indices 1 2 3 4 5 6 
#
# 1 178.0112 65.3900 29.1596 -2.3821 -37.2916 -37.3068
# 2 65.3900 90.4185 38.0064 6.6963 -37.2505 3.2033
# 3 29.1596 38.0064 129.2993 -16.1540 -24.4346 -20.8653
# 4 -2.3821 6.6963 -16.1540 57.9689 -12.6888 -16.7250
# 5 -37.2916 -37.2505 -24.4346 -12.6888 41.3814 4.6152
# 6 -37.3068 3.2033 -20.8653 -16.7250 4.6152 62.6961
#
#
#
# Elastic Compliance Matrix: (Units=1/GPa)
#
#
# Indices 1 2 3 4 5 6 
#
# 1 0.011258 -0.007885 0.003165 0.006230 0.005779 0.009392
# 2 -0.007885 0.024414 -0.005543 -0.005128 0.011137 -0.009972
# 3 0.003165 -0.005543 0.012128 0.007839 0.006556 0.007811
# 4 0.006230 -0.005128 0.007839 0.026682 0.012383 0.012784
# 5 0.005779 0.011137 0.006556 0.012383 0.046517 0.004931
# 6 0.009392 -0.009972 0.007811 0.012784 0.004931 0.027695
#
#
# Mechanical properties :
#
#
# Convention : Reuss Voigt Hill
#
# Bulk Modulus (GPa) = 36.66634 73.64900 55.15767
# Shear Modulus (GPa) = 28.04063 50.08749 39.06406
#
# Velocity S-wave (km/s) = 3.15187 4.21249 3.72017
# Velocity P-wave (km/s) = 5.12210 7.05356 6.16395
#
# Compressibility (1/GPa) = 0.02727297
#
# Stress axis : x y z
#
# Youngs Moduli (GPa) = 88.82540 40.96062 82.45048
#
# Poissons Ratio (x) = 0.32299 -0.26095
# Poissons Ratio (y) = 0.70043 0.45703
# Poissons Ratio (z) = -0.28112 0.22705
#
# Static dielectric constant tensor:
#      x y z
#    x 2.480560 0.183190 0.128440 
#    y 0.183190 2.515160 0.139140 
#    z 0.128440 0.139140 2.302700 
# 
# From -- ./inp_files/428090.got.cif
#   From: 2010.05.17/outbox.cif.g08.bks.cpg/sg2_215_cif.got.tgz:428090.got - 2010.06.03 11:33:40.
