data_PCOD9083046
_publ_section_title
;
Structure prediction by ZEFSAII (Michael W. Deem and Ramdas Pophale) SiO2 
 PCOD9083046
Probable space group: P -1
;
_chemical_formula_sum "Si O2"
_cell_formula_units_Z 16
_cell_length_a 11.876783
_cell_length_b 7.252542
_cell_length_c 19.381848
_cell_angle_alpha 133.232813
_cell_angle_beta 36.766282
_cell_angle_gamma 114.249817
_cell_volume 690.637068
_symmetry_space_group_name_H-M "P -1"
_symmetry_group_IT_number 2
_symmetry_cell_setting 'triclinic'
loop_
_space_group_symop_operation_xyz
x,y,z
-x,-y,-z
loop_
_atom_site_type_symbol
_atom_site_label
_atom_site_fract_x
_atom_site_fract_y
_atom_site_fract_z
Si Si1 0.262809 0.045751 0.964283
Si Si2 0.185450 0.338437 0.562956
Si Si3 0.199998 0.665973 0.189617
Si Si4 0.494827 0.533500 0.897568
Si Si5 0.106321 0.936137 0.767691
Si Si6 0.620905 0.915646 0.231224
Si Si7 0.322820 0.293052 0.267760
Si Si8 0.919546 0.293298 0.417965
O O1 0.487982 0.889452 0.832840
O O2 0.255613 0.025963 0.880038
O O3 0.224691 0.351403 0.083813
O O4 0.105716 0.953645 0.062327
O O5 0.190821 0.619082 0.665501
O O6 0.095071 0.453282 0.561542
O O7 0.030610 0.221622 0.648256
O O8 0.403647 0.133492 0.397535
O O9 0.341127 0.666523 0.185181
O O10 0.318356 0.714271 0.077277
O O11 0.407785 0.364535 0.845065
O O12 0.609439 0.693656 0.839940
O O13 0.090986 0.924168 0.689103
O O14 0.255902 0.078676 0.759483
O O15 0.259295 0.583027 0.410257
O O16 0.120168 0.220934 0.344781
#
# Coordination Sequence:
#
# PCOD9083046 Si02
#       8
#     2   2   2   2   2   2   2   2
#     4  10  19  33  61  79 103 141 186 221 263 307
#     4   9  17  35  55  79 102 139 179 225 256 301
#     4   9  19  37  51  80 110 138 179 225 262 314
#     4  10  21  34  52  78 116 140 170 220 271 324
#     4   9  19  35  53  83 105 136 188 228 246 309
#     4  11  20  34  56  81 106 147 178 215 267 317
#     4  11  19  37  56  84 107 140 173 225 273 314
#     4   9  20  34  57  79 112 132 180 227 257 310
#
# _framework density 23.167017999999999
#
# number of rings (size 3 to 8) (size 9 to 14) (size 15 to 20)
#    0.750    1.500    2.500    0.750    0.000    2.500 
#    0.000    3.750    0.000    0.000    0.000    0.000 
#    0.000    0.000    0.000    0.000    0.000    0.000 
#
# Total GULP energy -89338.006657 kJ/mol
# GULP energy per Si atom -5583.625416 kJ/mol
# Density = 2.311429 g / cm^3
# Si number density = 23.167018 Si / 1000 Ang^3
#
#
#
# Elastic Constant Matrix: (Units=GPa)
#
#
# Indices 1 2 3 4 5 6 
#
# 1 110.7923 0.8203 36.5525 4.2336 8.7342 25.5315
# 2 0.8203 25.2105 18.6056 -4.3035 3.8000 9.6071
# 3 36.5525 18.6056 123.3829 -3.8393 2.6035 7.2331
# 4 4.2336 -4.3035 -3.8393 30.9555 -9.4820 1.6168
# 5 8.7342 3.8000 2.6035 -9.4820 30.5860 -1.4784
# 6 25.5315 9.6071 7.2331 1.6168 -1.4784 29.0397
#
#
#
# Elastic Compliance Matrix: (Units=1/GPa)
#
#
# Indices 1 2 3 4 5 6 
#
# 1 0.014555 0.009254 -0.004779 -0.002477 -0.006385 -0.014855
# 2 0.009254 0.058429 -0.009722 0.004238 -0.009005 -0.025739
# 3 -0.004779 -0.009722 0.010691 0.001058 0.002223 0.004809
# 4 -0.002477 0.004238 0.001058 0.036934 0.011495 -0.000959
# 5 -0.006385 -0.009005 0.002223 0.011495 0.039466 0.009409
# 6 -0.014855 -0.025739 0.004809 -0.000959 0.009409 0.055346
#
#
# Mechanical properties :
#
#
# Convention : Reuss Voigt Hill
#
# Bulk Modulus (GPa) = 13.66462 41.26027 27.46244
# Shear Modulus (GPa) = 19.97538 31.67672 25.82605
#
# Velocity S-wave (km/s) = 2.93957 3.70174 3.34245
# Velocity P-wave (km/s) = 4.17523 6.00992 5.17453
#
# Compressibility (1/GPa) = 0.07318168
#
# Stress axis : x y z
#
# Youngs Moduli (GPa) = 68.70278 17.11490 93.53941
#
# Poissons Ratio (x) = -0.15838 0.44703
# Poissons Ratio (y) = -0.63578 0.90935
# Poissons Ratio (z) = 0.32833 0.16638
#
# Static dielectric constant tensor:
#      x y z
#    x 1.848770 -0.044940 0.013030 
#    y -0.044940 1.933010 0.029790 
#    z 0.013030 0.029790 1.861820 
# 
# From -- ./inp_files/594170.got.cif
#   From: 2010.05.17/outbox.cif.g08.bks.cpg/sg2_298_cif.got.tgz:594170.got - 2010.06.03 11:33:40.
