data_PCOD9083586
_publ_section_title
;
Structure prediction by ZEFSAII (Michael W. Deem and Ramdas Pophale) SiO2 
 PCOD9083586
Probable space group: P -1
;
_chemical_formula_sum "Si O2"
_cell_formula_units_Z 16
_cell_length_a 13.972845
_cell_length_b 11.466836
_cell_length_c 14.804606
_cell_angle_alpha 124.278664
_cell_angle_beta 44.485623
_cell_angle_gamma 149.286449
_cell_volume 840.577181
_symmetry_space_group_name_H-M "P -1"
_symmetry_group_IT_number 2
_symmetry_cell_setting 'triclinic'
loop_
_space_group_symop_operation_xyz
x,y,z
-x,-y,-z
loop_
_atom_site_type_symbol
_atom_site_label
_atom_site_fract_x
_atom_site_fract_y
_atom_site_fract_z
Si Si1 0.314395 0.637812 0.693651
Si Si2 0.701955 0.616488 0.276951
Si Si3 0.811873 0.987314 0.470531
Si Si4 0.262409 0.406584 0.450885
Si Si5 0.531009 0.330121 0.760138
Si Si6 0.147433 0.778913 0.785958
Si Si7 0.000878 0.632895 0.624981
Si Si8 0.822928 0.743162 0.045153
O O1 0.243455 0.489216 0.763074
O O2 0.254372 0.496500 0.583677
O O3 0.209302 0.704494 0.779496
O O4 0.583750 0.862281 0.609758
O O5 0.434698 0.419989 0.359838
O O6 0.811999 0.732730 0.156610
O O7 0.771941 0.797685 0.377539
O O8 0.019713 0.162776 0.474710
O O9 0.874709 0.136877 0.407993
O O10 0.375708 0.582701 0.367279
O O11 0.744329 0.470771 0.738548
O O12 0.413840 0.385181 0.882307
O O13 0.346571 0.057040 0.772312
O O14 0.116750 0.695707 0.668956
O O15 0.918293 0.671916 0.918205
O O16 0.000000 0.500000 0.500000
O O17 0.000000 0.000000 0.000000
#
# Coordination Sequence:
#
# PCOD9083586 Si02
#       8
#     2   2   2   2   2   2   2   2
#     4  11  22  32  50  80 112 143 174 209 260 323
#     4  10  21  36  53  79 106 137 183 217 252 317
#     4  10  19  34  57  79 108 142 170 219 270 304
#     4   9  18  34  56  82 106 135 177 218 263 315
#     4   9  19  35  56  82 106 134 180 222 256 311
#     4  11  21  35  53  76 112 145 170 218 266 301
#     4  11  21  33  56  87 110 134 172 217 271 319
#     4   9  19  38  59  75  98 137 183 223 261 305
#
# _framework density 19.034541000000001
#
# number of rings (size 3 to 8) (size 9 to 14) (size 15 to 20)
#    0.000    2.000    0.000    6.750    0.000    4.500 
#    0.000    3.750    0.000    0.000    0.000   15.750 
#    0.000    0.000    0.000    0.000    0.000    0.000 
#
# Total GULP energy -89311.752395 kJ/mol
# GULP energy per Si atom -5581.984525 kJ/mol
# Density = 1.899122 g / cm^3
# Si number density = 19.034541 Si / 1000 Ang^3
#
#
#
# Elastic Constant Matrix: (Units=GPa)
#
#
# Indices 1 2 3 4 5 6 
#
# 1 123.3214 53.3133 29.0771 -2.4485 -17.9768 -17.9377
# 2 53.3133 62.5434 23.9770 -6.3931 -12.6203 3.7895
# 3 29.0771 23.9770 68.2187 -4.9455 -15.9961 -7.5192
# 4 -2.4485 -6.3931 -4.9455 17.6931 -3.8300 -6.0770
# 5 -17.9768 -12.6203 -15.9961 -3.8300 26.8476 5.1085
# 6 -17.9377 3.7895 -7.5192 -6.0770 5.1085 27.4482
#
#
#
# Elastic Compliance Matrix: (Units=1/GPa)
#
#
# Indices 1 2 3 4 5 6 
#
# 1 0.016426 -0.014127 0.000043 0.002041 0.002253 0.012729
# 2 -0.014127 0.032757 -0.005394 0.004439 0.006292 -0.015420
# 3 0.000043 -0.005394 0.019975 0.007800 0.009320 0.006237
# 4 0.002041 0.004439 0.007800 0.069117 0.015037 0.015361
# 5 0.002253 0.006292 0.009320 0.015037 0.049946 -0.002810
# 6 0.012729 -0.015420 0.006237 0.015361 -0.002810 0.052512
#
#
# Mechanical properties :
#
#
# Convention : Reuss Voigt Hill
#
# Bulk Modulus (GPa) = 33.11079 51.86871 42.48975
# Shear Modulus (GPa) = 17.25587 24.24552 20.75069
#
# Velocity S-wave (km/s) = 3.01417 3.57286 3.30534
# Velocity P-wave (km/s) = 5.43567 6.65803 6.07766
#
# Compressibility (1/GPa) = 0.03020164
#
# Stress axis : x y z
#
# Youngs Moduli (GPa) = 60.87749 30.52825 50.06342
#
# Poissons Ratio (x) = 0.43127 -0.00215
# Poissons Ratio (y) = 0.86000 0.27005
# Poissons Ratio (z) = -0.00261 0.16467
#
# Static dielectric constant tensor:
#      x y z
#    x 1.686740 -0.008000 -0.015810 
#    y -0.008000 1.652910 -0.009710 
#    z -0.015810 -0.009710 1.670500 
# 
# From -- ./inp_files/457636.got.cif
#   From: 2010.05.17/outbox.cif.g08.bks.cpg/sg2_229_cif.got.tgz:457636.got - 2010.06.03 11:33:40.
