data_PCOD9083057
_publ_section_title
;
Structure prediction by ZEFSAII (Michael W. Deem and Ramdas Pophale) SiO2 
 PCOD9083057
Probable space group: P -1
;
_chemical_formula_sum "Si O2"
_cell_formula_units_Z 16
_cell_length_a 22.249444
_cell_length_b 11.512511
_cell_length_c 10.098151
_cell_angle_alpha 41.091017
_cell_angle_beta 32.228438
_cell_angle_gamma 30.575544
_cell_volume 698.607991
_symmetry_space_group_name_H-M "P -1"
_symmetry_group_IT_number 2
_symmetry_cell_setting 'triclinic'
loop_
_space_group_symop_operation_xyz
x,y,z
-x,-y,-z
loop_
_atom_site_type_symbol
_atom_site_label
_atom_site_fract_x
_atom_site_fract_y
_atom_site_fract_z
Si Si1 0.587430 0.448771 0.514637
Si Si2 0.294286 0.060727 0.788831
Si Si3 0.944123 0.643349 0.247181
Si Si4 0.850708 0.038343 0.236293
Si Si5 0.374144 0.274148 0.638756
Si Si6 0.036337 0.748171 0.510908
Si Si7 0.110436 0.729793 0.676368
Si Si8 0.695709 0.315675 0.011921
O O1 0.500000 0.500000 0.500000
O O2 0.740263 0.197326 0.423270
O O3 0.615180 0.632045 0.322656
O O4 0.475631 0.495566 0.797680
O O5 0.181372 0.241894 0.732116
O O6 0.293470 0.175025 0.827217
O O7 0.458177 0.918379 0.548557
O O8 0.277773 0.865243 0.990135
O O9 0.006521 0.386232 0.367521
O O10 0.884011 0.799060 0.355770
O O11 0.060548 0.662431 0.951272
O O12 0.770387 0.173041 0.132174
O O13 0.000000 0.000000 0.000000
O O14 0.282063 0.518413 0.522363
O O15 0.031389 0.731493 0.692450
O O16 0.205479 0.619627 0.269066
O O17 0.944692 0.016241 0.423501
#
# Coordination Sequence:
#
# PCOD9083057 Si02
#       8
#     2   2   2   2   2   2   2   2
#     4   9  19  35  59  86 114 165 202 243 301 352
#     4   9  18  35  58  87 117 151 190 245 309 353
#     4  11  21  39  64  87 121 162 197 247 305 368
#     4  10  19  36  62  88 114 160 207 247 297 343
#     4  10  19  33  61  88 119 150 202 248 288 372
#     4  11  22  36  61  92 123 161 195 245 311 360
#     4  11  22  36  61  91 126 158 196 243 308 372
#     4   9  19  38  58  82 125 154 198 248 300 365
#
# _framework density 22.902685999999999
#
# number of rings (size 3 to 8) (size 9 to 14) (size 15 to 20)
#    0.000    2.000    3.750    1.875    0.000    0.000 
#    0.000    3.750    5.500    0.000    0.000    0.000 
#    0.000    0.000    0.000    0.000    0.000    0.000 
#
# Total GULP energy -89225.130944 kJ/mol
# GULP energy per Si atom -5576.570684 kJ/mol
# Density = 2.285056 g / cm^3
# Si number density = 22.902686 Si / 1000 Ang^3
#
#
#
# Elastic Constant Matrix: (Units=GPa)
#
#
# Indices 1 2 3 4 5 6 
#
# 1 107.2807 38.1044 20.5342 0.2629 -29.8202 28.9399
# 2 38.1044 137.6124 45.1036 10.1688 -12.3040 39.2725
# 3 20.5342 45.1036 67.3852 8.3460 -7.1983 12.5580
# 4 0.2629 10.1688 8.3460 42.2005 6.0272 -14.2263
# 5 -29.8202 -12.3040 -7.1983 6.0272 29.7543 3.2124
# 6 28.9399 39.2725 12.5580 -14.2263 3.2124 50.1579
#
#
#
# Elastic Compliance Matrix: (Units=1/GPa)
#
#
# Indices 1 2 3 4 5 6 
#
# 1 0.020781 0.003007 -0.000686 -0.010830 0.026141 -0.018919
# 2 0.003007 0.013916 -0.005292 -0.008754 0.010825 -0.014483
# 3 -0.000686 -0.005292 0.019606 -0.003510 0.002745 -0.001541
# 4 -0.010830 -0.008754 -0.003510 0.039349 -0.026189 0.026819
# 5 0.026141 0.010825 0.002745 -0.026189 0.074185 -0.036425
# 6 -0.018919 -0.014483 -0.001541 0.026819 -0.036425 0.052518
#
#
# Mechanical properties :
#
#
# Convention : Reuss Voigt Hill
#
# Bulk Modulus (GPa) = 20.67706 57.75143 39.21424
# Shear Modulus (GPa) = 20.62570 38.32494 29.47532
#
# Velocity S-wave (km/s) = 3.00422 4.09514 3.59134
# Velocity P-wave (km/s) = 4.59147 6.90152 5.86142
#
# Compressibility (1/GPa) = 0.04836277
#
# Stress axis : x y z
#
# Youngs Moduli (GPa) = 48.12171 71.85807 51.00473
#
# Poissons Ratio (x) = -0.21610 0.03499
# Poissons Ratio (y) = -0.14472 0.26989
# Poissons Ratio (z) = 0.03301 0.38024
#
# Static dielectric constant tensor:
#      x y z
#    x 1.931390 0.019300 -0.014970 
#    y 0.019300 1.904050 0.030130 
#    z -0.014970 0.030130 1.906350 
# 
# From -- ./inp_files/474845.got.cif
#   From: 2010.05.17/outbox.cif.g08.bks.cpg/sg2_238_cif.got.tgz:474845.got - 2010.06.03 11:33:40.
