data_PCOD9083859
_publ_section_title
;
Structure prediction by ZEFSAII (Michael W. Deem and Ramdas Pophale) SiO2 
 PCOD9083859
Probable space group: P -1
;
_chemical_formula_sum "Si O2"
_cell_formula_units_Z 14
_cell_length_a 12.630585
_cell_length_b 10.991830
_cell_length_c 14.200514
_cell_angle_alpha 103.951969
_cell_angle_beta 148.220615
_cell_angle_gamma 54.973233
_cell_volume 697.247740
_symmetry_space_group_name_H-M "P -1"
_symmetry_group_IT_number 2
_symmetry_cell_setting 'triclinic'
loop_
_space_group_symop_operation_xyz
x,y,z
-x,-y,-z
loop_
_atom_site_type_symbol
_atom_site_label
_atom_site_fract_x
_atom_site_fract_y
_atom_site_fract_z
Si Si1 0.588238 0.790443 0.301008
Si Si2 0.795895 0.541752 0.244390
Si Si3 0.533130 0.506674 0.895044
Si Si4 0.531519 0.274620 0.485432
Si Si5 0.583241 0.463728 0.702731
Si Si6 0.979296 0.104619 0.138101
Si Si7 0.753375 0.851518 0.807837
O O1 0.685243 0.709556 0.253110
O O2 0.858138 0.619579 0.534715
O O3 0.500328 0.972942 0.288523
O O4 0.289812 0.847608 0.103955
O O5 0.721339 0.456504 0.240899
O O6 0.609638 0.602442 0.020964
O O7 0.507895 0.515855 0.765365
O O8 0.816347 0.294906 0.096535
O O9 0.469998 0.389916 0.551016
O O10 0.516479 0.373504 0.403726
O O11 0.320696 0.251881 0.306265
O O12 0.846033 0.069614 0.698772
O O13 0.934914 0.295401 0.933348
O O14 0.200420 0.070590 0.227445
#
# Coordination Sequence:
#
# PCOD9083859 Si02
#       7
#     2   2   2   2   2   2   2
#     4  10  19  34  58  87 123 147 197 244 295 345
#     4   9  19  34  59  87 115 159 192 250 289 333
#     4   9  19  38  59  85 119 150 203 243 289 346
#     4  11  22  37  60  90 123 157 187 236 316 349
#     4  10  23  40  58  91 120 155 192 245 295 366
#     4  10  20  35  59  90 118 147 191 253 293 345
#     4  11  21  37  60  91 118 152 195 248 298 350
#
# _framework density 20.078945999999998
#
# number of rings (size 3 to 8) (size 9 to 14) (size 15 to 20)
#    0.000    2.000    1.429    2.143    4.000    1.143 
#    5.143    0.000    0.000   15.429    0.000    0.000 
#    0.000    0.000    0.000    0.000    0.000    0.000 
#
# Total GULP energy -78069.668423 kJ/mol
# GULP energy per Si atom -5576.404887 kJ/mol
# Density = 2.003325 g / cm^3
# Si number density = 20.078946 Si / 1000 Ang^3
#
#
#
# Elastic Constant Matrix: (Units=GPa)
#
#
# Indices 1 2 3 4 5 6 
#
# 1 75.8600 48.0167 46.7090 -1.3601 -21.0781 -8.3323
# 2 48.0167 116.2419 52.6335 21.2028 -11.0225 -2.2560
# 3 46.7090 52.6335 78.8722 11.8390 -11.9318 4.9769
# 4 -1.3601 21.2028 11.8390 42.7856 2.2517 -9.8667
# 5 -21.0781 -11.0225 -11.9318 2.2517 30.3965 1.2473
# 6 -8.3323 -2.2560 4.9769 -9.8667 1.2473 17.4983
#
#
#
# Elastic Compliance Matrix: (Units=1/GPa)
#
#
# Indices 1 2 3 4 5 6 
#
# 1 0.037504 -0.007953 -0.019450 0.016987 0.012957 0.031020
# 2 -0.007953 0.014857 -0.003870 -0.007657 -0.000873 -0.005026
# 3 -0.019450 -0.003870 0.030165 -0.012879 -0.001048 -0.025528
# 4 0.016987 -0.007657 -0.012879 0.038820 -0.000269 0.032673
# 5 0.012957 -0.000873 -0.001048 -0.000269 0.041040 0.003278
# 6 0.031020 -0.005026 -0.025528 0.032673 0.003278 0.096721
#
#
# Mechanical properties :
#
#
# Convention : Reuss Voigt Hill
#
# Bulk Modulus (GPa) = 50.05040 62.85474 56.45257
# Shear Modulus (GPa) = 15.22940 26.37707 20.80323
#
# Velocity S-wave (km/s) = 2.75703 3.62839 3.22230
# Velocity P-wave (km/s) = 5.92587 6.99467 6.48233
#
# Compressibility (1/GPa) = 0.01997986
#
# Stress axis : x y z
#
# Youngs Moduli (GPa) = 26.66401 67.31044 33.15075
#
# Poissons Ratio (x) = 0.53531 0.64479
# Poissons Ratio (y) = 0.21205 0.12829
# Poissons Ratio (z) = 0.51862 0.26048
#
# Static dielectric constant tensor:
#      x y z
#    x 1.728620 -0.039530 0.016150 
#    y -0.039530 1.772780 0.052600 
#    z 0.016150 0.052600 1.766690 
# 
# From -- ./inp_files/531901.got.cif
#   From: 2010.05.17/outbox.cif.g08.bks.cpg/sg2_266_cif.got.tgz:531901.got - 2010.06.03 11:33:40.
