data_PCOD9083700
_publ_section_title
;
Structure prediction by ZEFSAII (Michael W. Deem and Ramdas Pophale) SiO2 
 PCOD9083700
Probable space group: P -1
;
_chemical_formula_sum "Si O2"
_cell_formula_units_Z 14
_cell_length_a 11.265518
_cell_length_b 13.825160
_cell_length_c 7.789069
_cell_angle_alpha 121.653778
_cell_angle_beta 40.839234
_cell_angle_gamma 128.940333
_cell_volume 614.135015
_symmetry_space_group_name_H-M "P -1"
_symmetry_group_IT_number 2
_symmetry_cell_setting 'triclinic'
loop_
_space_group_symop_operation_xyz
x,y,z
-x,-y,-z
loop_
_atom_site_type_symbol
_atom_site_label
_atom_site_fract_x
_atom_site_fract_y
_atom_site_fract_z
Si Si1 0.958448 0.320047 0.011409
Si Si2 0.070078 0.256292 0.187936
Si Si3 0.268073 0.931649 0.131870
Si Si4 0.912770 0.525601 0.446012
Si Si5 0.637166 0.671465 0.588086
Si Si6 0.893068 0.912711 0.748291
Si Si7 0.481427 0.416799 0.709067
O O1 0.970364 0.456872 0.166205
O O2 0.943301 0.258613 0.162239
O O3 0.793365 0.214183 0.978412
O O4 0.167141 0.341512 0.713496
O O5 0.028748 0.326953 0.464131
O O6 0.081692 0.132467 0.131831
O O7 0.289011 0.346236 0.965512
O O8 0.110685 0.946754 0.454678
O O9 0.196408 0.985935 0.092818
O O10 0.500000 0.000000 0.000000
O O11 0.676267 0.450107 0.637200
O O12 0.000000 0.500000 0.500000
O O13 0.726667 0.794376 0.718169
O O14 0.506637 0.550125 0.728573
O O15 0.523390 0.666475 0.530253
#
# Coordination Sequence:
#
# PCOD9083700 Si02
#       7
#     2   2   2   2   2   2   2
#     4   9  21  39  57  85 125 154 196 244 298 344
#     4  10  20  39  60  88 120 158 191 238 300 361
#     4  10  23  44  63  86 113 158 208 254 298 352
#     4  10  20  34  55  87 126 155 183 243 293 356
#     4   9  19  35  57  88 115 161 193 237 292 355
#     4  10  21  41  64  85 121 153 203 254 300 342
#     4  10  19  34  57  87 122 151 199 221 292 371
#
# _framework density 22.796292000000001
#
# number of rings (size 3 to 8) (size 9 to 14) (size 15 to 20)
#    0.000    2.286    1.429    0.429    2.000    1.143 
#    5.143    0.714    0.000    0.000    0.000    0.000 
#    0.000    0.000    0.000    0.000    0.000    0.000 
#
# Total GULP energy -78047.236475 kJ/mol
# GULP energy per Si atom -5574.802605 kJ/mol
# Density = 2.274441 g / cm^3
# Si number density = 22.796292 Si / 1000 Ang^3
#
#
#
# Elastic Constant Matrix: (Units=GPa)
#
#
# Indices 1 2 3 4 5 6 
#
# 1 116.5755 24.7723 30.1490 -13.0900 1.4908 8.5476
# 2 24.7723 79.5857 38.7110 4.9074 6.6589 6.5060
# 3 30.1490 38.7110 56.0788 5.5447 5.7966 -3.7143
# 4 -13.0900 4.9074 5.5447 34.8827 -0.4302 1.3449
# 5 1.4908 6.6589 5.7966 -0.4302 31.3376 -9.3919
# 6 8.5476 6.5060 -3.7143 1.3449 -9.3919 45.5935
#
#
#
# Elastic Compliance Matrix: (Units=1/GPa)
#
#
# Indices 1 2 3 4 5 6 
#
# 1 0.011123 -0.000482 -0.006356 0.005356 0.000017 -0.002689
# 2 -0.000482 0.019885 -0.013373 -0.000719 -0.003072 -0.004448
# 3 -0.006356 -0.013373 0.031533 -0.005746 -0.001085 0.005615
# 4 0.005356 -0.000719 -0.005746 0.031784 0.000752 -0.002152
# 5 0.000017 -0.003072 -0.001085 0.000752 0.035034 0.007541
# 6 -0.002689 -0.004448 0.005615 -0.002152 0.007541 0.025146
#
#
# Mechanical properties :
#
#
# Convention : Reuss Voigt Hill
#
# Bulk Modulus (GPa) = 45.21386 48.83385 47.02385
# Shear Modulus (GPa) = 24.71566 32.93659 28.82612
#
# Velocity S-wave (km/s) = 3.29629 3.80521 3.55985
# Velocity P-wave (km/s) = 5.86210 6.38549 6.12938
#
# Compressibility (1/GPa) = 0.02211711
#
# Stress axis : x y z
#
# Youngs Moduli (GPa) = 89.90500 50.28913 31.71278
#
# Poissons Ratio (x) = 0.02425 0.20158
# Poissons Ratio (y) = 0.04336 0.42410
# Poissons Ratio (z) = 0.57147 0.67253
#
# Static dielectric constant tensor:
#      x y z
#    x 1.896690 -0.011850 0.016050 
#    y -0.011850 1.906260 0.082150 
#    z 0.016050 0.082150 1.891520 
# 
# From -- ./inp_files/268473.got.cif
#   From: 2010.05.17/outbox.cif.g08.bks.cpg/sg2_135_cif.got.tgz:268473.got - 2010.06.03 11:33:40.
