data_PCOD9083130
_publ_section_title
;
Structure prediction by ZEFSAII (Michael W. Deem and Ramdas Pophale) SiO2 
 PCOD9083130
Probable space group: P -1
;
_chemical_formula_sum "Si O2"
_cell_formula_units_Z 14
_cell_length_a 9.014714
_cell_length_b 11.496175
_cell_length_c 11.360395
_cell_angle_alpha 40.206096
_cell_angle_beta 90.908293
_cell_angle_gamma 113.273918
_cell_volume 611.658466
_symmetry_space_group_name_H-M "P -1"
_symmetry_group_IT_number 2
_symmetry_cell_setting 'triclinic'
loop_
_space_group_symop_operation_xyz
x,y,z
-x,-y,-z
loop_
_atom_site_type_symbol
_atom_site_label
_atom_site_fract_x
_atom_site_fract_y
_atom_site_fract_z
Si Si1 0.229676 0.282272 0.272459
Si Si2 0.861123 0.552352 0.646226
Si Si3 0.516180 0.221398 0.233253
Si Si4 0.379209 0.586851 0.461837
Si Si5 0.780379 0.398687 0.311533
Si Si6 0.608104 0.073058 0.139797
Si Si7 0.034132 0.727435 0.879143
O O1 0.200121 0.319576 0.377071
O O2 0.337894 0.181485 0.319810
O O3 0.357575 0.531171 0.018604
O O4 0.036687 0.178432 0.285661
O O5 0.805377 0.541966 0.519192
O O6 0.069049 0.637189 0.611212
O O7 0.725891 0.298917 0.891285
O O8 0.472869 0.068797 0.236616
O O9 0.357166 0.762937 0.670251
O O10 0.500000 0.500000 0.500000
O O11 0.327009 0.578645 0.603494
O O12 0.505001 0.852176 0.232840
O O13 0.907084 0.637728 0.062100
O O14 0.760084 0.098929 0.209615
O O15 0.000000 0.500000 0.000000
#
# Coordination Sequence:
#
# PCOD9083130 Si02
#       7
#     2   2   2   2   2   2   2
#     4   9  15  28  59  87 113 137 185 239 287 330
#     4  10  19  39  61  80 111 162 198 224 279 354
#     4   9  16  30  55  91 109 137 185 245 288 333
#     4  12  26  39  53  83 124 159 192 239 284 337
#     4  10  19  36  60  82 113 153 188 235 298 339
#     4  10  20  38  62  84 113 153 199 236 285 343
#     4  10  15  36  61  89 112 147 190 239 293 345
#
# _framework density 22.888591000000002
#
# number of rings (size 3 to 8) (size 9 to 14) (size 15 to 20)
#    0.000    2.000    5.714    1.714    0.000    1.714 
#    0.000    5.714    0.000    3.429    0.000    0.000 
#    0.000    0.000    0.000    0.000    0.000    0.000 
#
# Total GULP energy -78229.039081 kJ/mol
# GULP energy per Si atom -5587.788506 kJ/mol
# Density = 2.283650 g / cm^3
# Si number density = 22.888591 Si / 1000 Ang^3
#
#
#
# Elastic Constant Matrix: (Units=GPa)
#
#
# Indices 1 2 3 4 5 6 
#
# 1 130.9217 58.9863 9.4063 -6.5865 0.5047 -7.9557
# 2 58.9863 121.1955 16.3090 -2.3655 4.3931 -2.3459
# 3 9.4063 16.3090 53.5605 0.0256 -5.1505 -13.0723
# 4 -6.5865 -2.3655 0.0256 31.3282 -1.1269 -0.6504
# 5 0.5047 4.3931 -5.1505 -1.1269 34.1556 7.4837
# 6 -7.9557 -2.3459 -13.0723 -0.6504 7.4837 44.2384
#
#
#
# Elastic Compliance Matrix: (Units=1/GPa)
#
#
# Indices 1 2 3 4 5 6 
#
# 1 0.009984 -0.004817 0.000114 0.001775 0.000205 0.001565
# 2 -0.004817 0.011019 -0.002874 -0.000254 -0.001598 -0.000865
# 3 0.000114 -0.002874 0.021144 -0.000009 0.002301 0.005727
# 4 0.001775 -0.000254 -0.000009 0.032321 0.000936 0.000620
# 5 0.000205 -0.001598 0.002301 0.000936 0.030861 -0.004575
# 6 0.001565 -0.000865 0.005727 0.000620 -0.004575 0.025316
#
#
# Mechanical properties :
#
#
# Convention : Reuss Voigt Hill
#
# Bulk Modulus (GPa) = 37.04536 52.78677 44.91607
# Shear Modulus (GPa) = 32.30081 36.67618 34.48849
#
# Velocity S-wave (km/s) = 3.76069 4.00731 3.88596
# Velocity P-wave (km/s) = 5.92261 6.67263 6.30877
#
# Compressibility (1/GPa) = 0.02699393
#
# Stress axis : x y z
#
# Youngs Moduli (GPa) = 100.16157 90.75595 47.29365
#
# Poissons Ratio (x) = 0.43718 -0.00540
# Poissons Ratio (y) = 0.48248 0.13591
# Poissons Ratio (z) = -0.01145 0.26081
#
# Static dielectric constant tensor:
#      x y z
#    x 1.861010 0.008690 0.001940 
#    y 0.008690 1.840880 -0.039110 
#    z 0.001940 -0.039110 1.954270 
# 
# From -- ./inp_files/382531.got.cif
#   From: 2010.05.17/outbox.cif.g08.bks.cpg/sg2_192_cif.got.tgz:382531.got - 2010.06.03 11:33:40.
