data_PCOD9083238
_publ_section_title
;
Structure prediction by ZEFSAII (Michael W. Deem and Ramdas Pophale) SiO2 
 PCOD9083238
Probable space group: P -1
;
_chemical_formula_sum "Si O2"
_cell_formula_units_Z 16
_cell_length_a 16.398288
_cell_length_b 17.982120
_cell_length_c 5.619677
_cell_angle_alpha 115.327161
_cell_angle_beta 78.228101
_cell_angle_gamma 154.479495
_cell_volume 570.473891
_symmetry_space_group_name_H-M "P -1"
_symmetry_group_IT_number 2
_symmetry_cell_setting 'triclinic'
loop_
_space_group_symop_operation_xyz
x,y,z
-x,-y,-z
loop_
_atom_site_type_symbol
_atom_site_label
_atom_site_fract_x
_atom_site_fract_y
_atom_site_fract_z
Si Si1 0.270843 0.441495 0.321209
Si Si2 0.545335 0.132790 0.242204
Si Si3 0.237020 0.133163 0.387211
Si Si4 0.990127 0.392485 0.873136
Si Si5 0.987545 0.625594 0.662089
Si Si6 0.684595 0.602175 0.265426
Si Si7 0.509597 0.179791 0.831666
Si Si8 0.747602 0.886097 0.148475
O O1 0.527589 0.694606 0.515242
O O2 0.131816 0.396055 0.302312
O O3 0.237268 0.375027 0.514657
O O4 0.250425 0.368353 0.995759
O O5 0.802495 0.386945 0.440376
O O6 0.484845 0.098366 0.503744
O O7 0.465477 0.114379 0.041015
O O8 0.500000 0.000000 0.000000
O O9 0.276472 0.266247 0.544973
O O10 0.131897 0.014505 0.538346
O O11 0.133939 0.013159 0.035631
O O12 0.890892 0.272604 0.520177
O O13 0.895404 0.279036 0.026475
O O14 0.230259 0.572663 0.981205
O O15 0.000000 0.500000 0.000000
O O16 0.428369 0.347381 0.071278
O O17 0.381160 0.145915 0.811325
#
# Coordination Sequence:
#
# PCOD9083238 Si02
#       8
#     2   2   2   2   2   2   2   2
#     4  10  16  25  36  48  72 100 124 164 188 209
#     4  10  18  29  43  58  76  98 129 174 209 235
#     4  10  16  22  33  51  70  95 129 162 181 207
#     4  10  18  29  43  58  76  98 129 174 209 235
#     4  10  19  30  42  59  78 103 137 170 198 235
#     4  10  16  22  33  51  70  95 129 162 181 207
#     4  10  19  30  42  59  78 103 137 170 198 235
#     4  10  16  25  36  48  72 100 124 164 188 209
#
# _framework density 28.046854
#
# number of rings (size 3 to 8) (size 9 to 14) (size 15 to 20)
#    0.000    2.000    0.000   12.000    0.000    0.000 
#    0.000    0.000    0.000    0.000    0.000    0.000 
#    0.000    0.000    0.000    0.000    0.000    0.000 
#
# Total GULP energy -89773.280189 kJ/mol
# GULP energy per Si atom -5610.830012 kJ/mol
# Density = 2.798302 g / cm^3
# Si number density = 28.046854 Si / 1000 Ang^3
#
#
#
# Elastic Constant Matrix: (Units=GPa)
#
#
# Indices 1 2 3 4 5 6 
#
# 1 123.2514 27.5958 49.3002 -26.6548 -3.4371 -22.7237
# 2 27.5958 146.9581 67.8090 -66.2570 8.3606 -9.0299
# 3 49.3002 67.8090 240.7090 -54.4714 18.3658 2.1052
# 4 -26.6548 -66.2570 -54.4714 78.4374 0.4410 14.0449
# 5 -3.4371 8.3606 18.3658 0.4410 57.5459 -17.2892
# 6 -22.7237 -9.0299 2.1052 14.0449 -17.2892 26.5798
#
#
#
# Elastic Compliance Matrix: (Units=1/GPa)
#
#
# Indices 1 2 3 4 5 6 
#
# 1 0.012379 -0.001036 -0.003311 -0.001842 0.006719 0.015837
# 2 -0.001036 0.011580 -0.000606 0.009713 -0.002780 -0.003844
# 3 -0.003311 -0.000606 0.006492 0.004545 -0.004978 -0.009190
# 4 -0.001842 0.009713 0.004545 0.026846 -0.008736 -0.018503
# 5 0.006719 -0.002780 -0.004978 -0.008736 0.028320 0.028231
# 6 0.015837 -0.003844 -0.009190 -0.018503 0.028231 0.078724
#
#
# Mechanical properties :
#
#
# Convention : Reuss Voigt Hill
#
# Bulk Modulus (GPa) = 48.67758 88.92539 68.80148
# Shear Modulus (GPa) = 27.60974 56.92688 42.26831
#
# Velocity S-wave (km/s) = 3.14094 4.51011 3.88630
# Velocity P-wave (km/s) = 5.52698 7.67440 6.68745
#
# Compressibility (1/GPa) = 0.02054334
#
# Stress axis : x y z
#
# Youngs Moduli (GPa) = 80.78247 86.35688 154.03634
#
# Poissons Ratio (x) = 0.08947 0.51008
# Poissons Ratio (y) = 0.08369 0.09339
# Poissons Ratio (z) = 0.26750 0.05236
#
# Static dielectric constant tensor:
#      x y z
#    x 2.083690 0.003180 0.038690 
#    y 0.003180 2.278140 0.020710 
#    z 0.038690 0.020710 2.157780 
# 
# From -- ./inp_files/71174.got.cif
#   From: 2010.05.17/outbox.cif.g08.bks.cpg/sg2_36_cif.got.tgz:71174.got - 2010.06.03 11:33:40.
