data_PCOD9083699
_publ_section_title
;
Structure prediction by ZEFSAII (Michael W. Deem and Ramdas Pophale) SiO2 
 PCOD9083699
Probable space group: P -1
;
_chemical_formula_sum "Si O2"
_cell_formula_units_Z 16
_cell_length_a 19.178671
_cell_length_b 9.382486
_cell_length_c 12.363296
_cell_angle_alpha 97.866981
_cell_angle_beta 40.601662
_cell_angle_gamma 131.461756
_cell_volume 717.497168
_symmetry_space_group_name_H-M "P -1"
_symmetry_group_IT_number 2
_symmetry_cell_setting 'triclinic'
loop_
_space_group_symop_operation_xyz
x,y,z
-x,-y,-z
loop_
_atom_site_type_symbol
_atom_site_label
_atom_site_fract_x
_atom_site_fract_y
_atom_site_fract_z
Si Si1 0.836751 0.683916 0.787321
Si Si2 0.968010 0.276890 0.813282
Si Si3 0.294223 0.334878 0.670356
Si Si4 0.449452 0.396384 0.809771
Si Si5 0.518592 0.157207 0.416147
Si Si6 0.760616 0.632097 0.625703
Si Si7 0.153550 0.556426 0.088667
Si Si8 0.932780 0.209042 0.089140
O O1 0.753930 0.573293 0.751163
O O2 0.886387 0.593042 0.779276
O O3 0.658058 0.571869 0.049207
O O4 0.054174 0.030654 0.563948
O O5 0.915433 0.358918 0.816047
O O6 0.150930 0.394582 0.555075
O O7 0.024172 0.368738 0.882723
O O8 0.743304 0.927245 0.040565
O O9 0.500000 0.500000 0.500000
O O10 0.346454 0.375168 0.486338
O O11 0.322864 0.534447 0.690240
O O12 0.108687 0.010838 0.893855
O O13 0.539645 0.439945 0.820843
O O14 0.500000 0.000000 0.500000
O O15 0.295819 0.978360 0.653248
O O16 0.601327 0.188396 0.209092
O O17 0.035873 0.367422 0.098412
#
# Coordination Sequence:
#
# PCOD9083699 Si02
#       8
#     2   2   2   2   2   2   2   2
#     4  10  23  44  64  94 119 155 218 264 305 366
#     4  11  24  39  59  93 128 162 209 248 314 378
#     4  10  19  34  57  87 121 155 199 246 296 367
#     4  11  20  42  65  89 122 162 204 259 316 365
#     4  11  22  37  57  90 128 164 202 249 301 376
#     4  10  24  42  68  89 118 165 210 262 312 365
#     4  12  25  39  63  90 130 168 202 259 311 368
#     4  11  23  39  58  91 127 171 202 249 311 373
#
# _framework density 22.299738999999999
#
# number of rings (size 3 to 8) (size 9 to 14) (size 15 to 20)
#    0.000    1.250    3.750    3.000    3.500    2.000 
#    0.000    0.625    0.000    0.000    0.000    0.000 
#    0.000    0.000    0.000    0.000    0.000    0.000 
#
# Total GULP energy -89429.954635 kJ/mol
# GULP energy per Si atom -5589.372165 kJ/mol
# Density = 2.224898 g / cm^3
# Si number density = 22.299739 Si / 1000 Ang^3
#
#
#
# Elastic Constant Matrix: (Units=GPa)
#
#
# Indices 1 2 3 4 5 6 
#
# 1 154.0291 32.5891 4.5334 1.7565 1.5698 -19.9856
# 2 32.5891 48.7874 5.6827 -9.5017 -3.1446 -14.1445
# 3 4.5334 5.6827 24.4675 4.7297 -0.6779 -10.7326
# 4 1.7565 -9.5017 4.7297 11.1087 -3.0370 -2.5504
# 5 1.5698 -3.1446 -0.6779 -3.0370 37.2245 2.1207
# 6 -19.9856 -14.1445 -10.7326 -2.5504 2.1207 52.8125
#
#
#
# Elastic Compliance Matrix: (Units=1/GPa)
#
#
# Indices 1 2 3 4 5 6 
#
# 1 0.008225 -0.007161 0.002330 -0.008575 -0.001684 0.001322
# 2 -0.007161 0.036986 -0.012215 0.041143 0.006193 0.006452
# 3 0.002330 -0.012215 0.052459 -0.032461 -0.003212 0.006832
# 4 -0.008575 0.041143 -0.032461 0.146171 0.014736 0.007644
# 5 -0.001684 0.006193 -0.003212 0.014736 0.028606 -0.000069
# 6 0.001322 0.006452 0.006832 0.007644 -0.000069 0.022923
#
#
# Mechanical properties :
#
#
# Convention : Reuss Voigt Hill
#
# Bulk Modulus (GPa) = 15.72876 34.76604 25.24740
# Shear Modulus (GPa) = 14.25906 32.52771 23.39339
#
# Velocity S-wave (km/s) = 2.53143 3.82338 3.24241
# Velocity P-wave (km/s) = 3.95131 5.92581 5.03627
#
# Compressibility (1/GPa) = 0.06357780
#
# Stress axis : x y z
#
# Youngs Moduli (GPa) = 121.57665 27.03752 19.06261
#
# Poissons Ratio (x) = 0.19362 -0.04441
# Poissons Ratio (y) = 0.87061 0.23284
# Poissons Ratio (z) = -0.28325 0.33026
#
# Static dielectric constant tensor:
#      x y z
#    x 1.642990 -0.152520 -0.567440 
#    y -0.152520 1.707680 -0.492110 
#    z -0.567440 -0.492110 0.316430 
# 
# From -- ./inp_files/273066.got.cif
#   From: 2010.05.17/outbox.cif.g08.bks.cpg/sg2_137_cif.got.tgz:273066.got - 2010.06.03 11:33:40.
