data_PCOD9083498
_publ_section_title
;
Structure prediction by ZEFSAII (Michael W. Deem and Ramdas Pophale) SiO2 
 PCOD9083498
Probable space group: P -1
;
_chemical_formula_sum "Si O2"
_cell_formula_units_Z 14
_cell_length_a 4.983737
_cell_length_b 21.819020
_cell_length_c 6.546696
_cell_angle_alpha 130.927304
_cell_angle_beta 83.011703
_cell_angle_gamma 95.109525
_cell_volume 533.824586
_symmetry_space_group_name_H-M "P -1"
_symmetry_group_IT_number 2
_symmetry_cell_setting 'triclinic'
loop_
_space_group_symop_operation_xyz
x,y,z
-x,-y,-z
loop_
_atom_site_type_symbol
_atom_site_label
_atom_site_fract_x
_atom_site_fract_y
_atom_site_fract_z
Si Si1 0.594176 0.508090 0.739180
Si Si2 0.411693 0.909254 0.081726
Si Si3 0.361293 0.668178 0.228639
Si Si4 0.842347 0.171839 0.453126
Si Si5 0.696057 0.756750 0.740331
Si Si6 0.931736 0.014668 0.278958
Si Si7 0.082869 0.405462 0.621842
O O1 0.500000 0.500000 0.500000
O O2 0.874199 0.462114 0.645118
O O3 0.350006 0.457976 0.764887
O O4 0.567020 0.603734 0.984340
O O5 0.372302 0.876128 0.779133
O O6 0.527258 0.830129 0.013000
O O7 0.134183 0.955746 0.252424
O O8 0.633206 0.978732 0.240906
O O9 0.282749 0.745413 0.270886
O O10 0.488311 0.708825 0.507709
O O11 0.089102 0.621821 0.223451
O O12 0.076294 0.199752 0.330530
O O13 0.944625 0.112123 0.488383
O O14 0.834927 0.680873 0.676159
O O15 0.000000 0.000000 0.000000
#
# Coordination Sequence:
#
# PCOD9083498 Si02
#       7
#     2   2   2   2   2   2   2
#     4  12  26  42  60  82 109 143 187 235 282 331
#     4  10  17  26  41  69 108 151 174 213 261 325
#     4  10  22  36  60  82 113 146 188 228 275 332
#     4   9  18  27  45  73 108 150 178 216 262 329
#     4  10  19  32  51  81 108 146 184 222 268 328
#     4  10  16  24  40  64 110 151 174 203 271 320
#     4  11  23  41  60  81 110 145 186 226 281 337
#
# _framework density 26.225843999999999
#
# number of rings (size 3 to 8) (size 9 to 14) (size 15 to 20)
#    0.000    1.714    4.286    3.000    6.000    0.000 
#    0.000    0.000    0.000    0.000    0.000    0.000 
#    0.000    6.857    0.286    7.429    0.000    0.000 
#
# Total GULP energy -78244.308715 kJ/mol
# GULP energy per Si atom -5588.879194 kJ/mol
# Density = 2.616615 g / cm^3
# Si number density = 26.225844 Si / 1000 Ang^3
#
#
#
# Elastic Constant Matrix: (Units=GPa)
#
#
# Indices 1 2 3 4 5 6 
#
# 1 159.4864 52.2980 37.6756 27.4591 0.6332 -23.2745
# 2 52.2980 137.6146 64.9896 56.3868 -29.3718 -28.1321
# 3 37.6756 64.9896 90.2719 56.9269 -27.3867 -18.9202
# 4 27.4591 56.3868 56.9269 55.3328 -21.9637 -20.9924
# 5 0.6332 -29.3718 -27.3867 -21.9637 53.9732 27.1078
# 6 -23.2745 -28.1321 -18.9202 -20.9924 27.1078 44.3760
#
#
#
# Elastic Compliance Matrix: (Units=1/GPa)
#
#
# Indices 1 2 3 4 5 6 
#
# 1 0.008300 -0.002229 -0.003184 0.001464 -0.005010 0.005335
# 2 -0.002229 0.013584 -0.002073 -0.009463 0.002120 0.000786
# 3 -0.003184 -0.002073 0.034736 -0.032086 0.007446 -0.007901
# 4 0.001464 -0.009463 -0.032086 0.064059 -0.001589 0.012363
# 5 -0.005010 0.002120 0.007446 -0.001589 0.032169 -0.018511
# 6 0.005335 0.000786 -0.007901 0.012363 -0.018511 0.039619
#
#
# Mechanical properties :
#
#
# Convention : Reuss Voigt Hill
#
# Bulk Modulus (GPa) = 24.01155 77.47770 50.74462
# Shear Modulus (GPa) = 22.59153 46.23037 34.41095
#
# Velocity S-wave (km/s) = 2.93818 4.20310 3.62622
# Velocity P-wave (km/s) = 4.54820 7.29118 6.07649
#
# Compressibility (1/GPa) = 0.04164663
#
# Stress axis : x y z
#
# Youngs Moduli (GPa) = 120.48705 73.61760 28.78866
#
# Poissons Ratio (x) = 0.16408 0.09167
# Poissons Ratio (y) = 0.26855 0.05969
# Poissons Ratio (z) = 0.38365 0.15263
#
# Static dielectric constant tensor:
#      x y z
#    x 2.082120 -0.011770 -0.082330 
#    y -0.011770 2.248510 -0.070010 
#    z -0.082330 -0.070010 2.179780 
# 
# From -- ./inp_files/142425.got.cif
#   From: 2010.05.17/outbox.cif.g08.bks.cpg/sg2_72_cif.got.tgz:142425.got - 2010.06.03 11:33:40.
