data_PCOD9083996
_publ_section_title
;
Structure prediction by ZEFSAII (Michael W. Deem and Ramdas Pophale) SiO2 
 PCOD9083996
Probable space group: P -1
;
_chemical_formula_sum "Si O2"
_cell_formula_units_Z 14
_cell_length_a 7.652073
_cell_length_b 5.406303
_cell_length_c 17.164252
_cell_angle_alpha 104.087951
_cell_angle_beta 54.745829
_cell_angle_gamma 101.041535
_cell_volume 561.239018
_symmetry_space_group_name_H-M "P -1"
_symmetry_group_IT_number 2
_symmetry_cell_setting 'triclinic'
loop_
_space_group_symop_operation_xyz
x,y,z
-x,-y,-z
loop_
_atom_site_type_symbol
_atom_site_label
_atom_site_fract_x
_atom_site_fract_y
_atom_site_fract_z
Si Si1 0.453705 0.559006 0.105822
Si Si2 0.646750 0.892737 0.798205
Si Si3 0.133490 0.875044 0.887972
Si Si4 0.658637 0.712091 0.512928
Si Si5 0.071964 0.915543 0.386506
Si Si6 0.789453 0.648318 0.170394
Si Si7 0.596101 0.297157 0.621174
O O1 0.331474 0.313543 0.157026
O O2 0.657718 0.611884 0.118204
O O3 0.330882 0.816646 0.157144
O O4 0.500000 0.500000 0.000000
O O5 0.394416 0.863401 0.832339
O O6 0.822987 0.880574 0.683850
O O7 0.056382 0.579718 0.879772
O O8 0.109808 0.064498 0.836991
O O9 0.000000 0.000000 0.000000
O O10 0.500000 0.500000 0.500000
O O11 0.707978 0.529862 0.560161
O O12 0.853864 0.767731 0.407429
O O13 0.577635 0.998373 0.571842
O O14 0.259732 0.733735 0.341947
O O15 0.000000 0.000000 0.500000
O O16 0.628599 0.627931 0.282783
#
# Coordination Sequence:
#
# PCOD9083996 Si02
#       7
#     2   2   2   2   2   2   2
#     4  10  20  35  61  88 128 167 208 273 342 377
#     4  10  21  37  60  92 130 162 222 271 325 396
#     4  10  19  34  59  88 122 159 204 275 335 373
#     4  11  25  41  65  97 144 175 225 273 348 401
#     4  10  22  39  71 104 129 180 228 278 332 404
#     4  10  20  35  63  89 125 160 226 268 327 391
#     4  11  21  41  69  97 129 182 226 280 325 406
#
# _framework density 24.944807999999998
#
# number of rings (size 3 to 8) (size 9 to 14) (size 15 to 20)
#    0.000    1.714    2.857    2.571    6.000    2.286 
#    0.000    0.000   25.143    0.000    0.000    0.000 
#    0.000    0.000    0.000    0.000    0.000    0.000 
#
# Total GULP energy -78042.797441 kJ/mol
# GULP energy per Si atom -5574.485532 kJ/mol
# Density = 2.488803 g / cm^3
# Si number density = 24.944808 Si / 1000 Ang^3
#
#
#
# Elastic Constant Matrix: (Units=GPa)
#
#
# Indices 1 2 3 4 5 6 
#
# 1 47.0601 28.6246 31.7908 -1.7170 6.5697 13.4692
# 2 28.6246 228.1445 63.4411 -5.2036 8.7268 -22.4304
# 3 31.7908 63.4411 124.0294 -27.9251 -3.8596 9.5314
# 4 -1.7170 -5.2036 -27.9251 56.3670 -1.6584 3.1019
# 5 6.5697 8.7268 -3.8596 -1.6584 30.4711 -7.7249
# 6 13.4692 -22.4304 9.5314 3.1019 -7.7249 28.4053
#
#
#
# Elastic Compliance Matrix: (Units=1/GPa)
#
#
# Indices 1 2 3 4 5 6 
#
# 1 0.036141 -0.004600 -0.005932 -0.001425 -0.012916 -0.022136
# 2 -0.004600 0.006678 -0.003260 -0.001607 0.000849 0.008955
# 3 -0.005932 -0.003260 0.013076 0.006309 0.003207 -0.003966
# 4 -0.001425 -0.001607 0.006309 0.020972 0.001547 -0.004580
# 5 -0.012916 0.000849 0.003207 0.001547 0.040016 0.016432
# 6 -0.022136 0.008955 -0.003966 -0.004580 0.016432 0.059072
#
#
# Mechanical properties :
#
#
# Convention : Reuss Voigt Hill
#
# Bulk Modulus (GPa) = 35.32267 71.88299 53.60283
# Shear Modulus (GPa) = 23.47662 41.40718 32.44190
#
# Velocity S-wave (km/s) = 3.07113 4.07867 3.61022
# Velocity P-wave (km/s) = 5.17367 7.14564 6.23807
#
# Compressibility (1/GPa) = 0.02831043
#
# Stress axis : x y z
#
# Youngs Moduli (GPa) = 27.66902 149.73995 76.47644
#
# Poissons Ratio (x) = 0.68876 0.45370
# Poissons Ratio (y) = 0.12727 0.24935
# Poissons Ratio (z) = 0.16415 0.48822
#
# Static dielectric constant tensor:
#      x y z
#    x 2.256200 0.096080 0.090580 
#    y 0.096080 2.081800 -0.029260 
#    z 0.090580 -0.029260 2.123740 
# 
# From -- ./inp_files/553596.got.cif
#   From: 2010.05.17/outbox.cif.g08.bks.cpg/sg2_277_cif.got.tgz:553596.got - 2010.06.03 11:33:40.
