data_PCOD9083093
_publ_section_title
;
Structure prediction by ZEFSAII (Michael W. Deem and Ramdas Pophale) SiO2 
 PCOD9083093
Probable space group: P -1
;
_chemical_formula_sum "Si O2"
_cell_formula_units_Z 12
_cell_length_a 8.455394
_cell_length_b 9.188878
_cell_length_c 9.153246
_cell_angle_alpha 118.696190
_cell_angle_beta 110.451315
_cell_angle_gamma 56.547731
_cell_volume 516.981925
_symmetry_space_group_name_H-M "P -1"
_symmetry_group_IT_number 2
_symmetry_cell_setting 'triclinic'
loop_
_space_group_symop_operation_xyz
x,y,z
-x,-y,-z
loop_
_atom_site_type_symbol
_atom_site_label
_atom_site_fract_x
_atom_site_fract_y
_atom_site_fract_z
Si Si1 0.632124 0.605077 0.601179
Si Si2 0.146449 0.962762 0.900980
Si Si3 0.944038 0.228576 0.493805
Si Si4 0.677476 0.795619 0.992371
Si Si5 0.474736 0.707076 0.096410
Si Si6 0.689975 0.117306 0.558184
O O1 0.500000 0.500000 0.500000
O O2 0.838513 0.450625 0.536836
O O3 0.670438 0.660605 0.799643
O O4 0.500571 0.795104 0.560872
O O5 0.108743 0.867830 0.703795
O O6 0.337390 0.812922 0.968343
O O7 0.151088 0.153077 0.947964
O O8 0.000000 0.000000 0.000000
O O9 0.832925 0.196673 0.581186
O O10 0.172204 0.105531 0.517280
O O11 0.662530 0.718915 0.108932
O O12 0.500000 0.000000 0.000000
O O13 0.382226 0.810518 0.267375
O O14 0.500000 0.500000 0.000000
#
# Coordination Sequence:
#
# PCOD9083093 Si02
#       6
#     2   2   2   2   2   2
#     4  10  19  38  64  88 129 173 206 265 327 380
#     4  11  22  43  66  87 131 174 211 266 330 376
#     4  10  20  37  63  91 125 172 212 260 327 385
#     4  10  22  40  67  95 125 173 219 257 324 399
#     4  11  20  36  65  95 124 165 218 261 319 389
#     4  10  19  33  62  92 123 164 213 258 324 376
#
# _framework density 23.211645000000001
#
# number of rings (size 3 to 8) (size 9 to 14) (size 15 to 20)
#    0.000    1.667    1.667    7.000    0.000    0.000 
#    0.000    9.167    7.333    0.000    0.000    0.000 
#    0.000    0.000    0.000    0.000    0.000    0.000 
#
# Total GULP energy -66981.882882 kJ/mol
# GULP energy per Si atom -5581.823574 kJ/mol
# Density = 2.315881 g / cm^3
# Si number density = 23.211645 Si / 1000 Ang^3
#
#
#
# Elastic Constant Matrix: (Units=GPa)
#
#
# Indices 1 2 3 4 5 6 
#
# 1 97.9345 61.3933 61.4302 11.5564 -34.8680 18.2441
# 2 61.3933 115.9057 43.7758 7.5649 -22.1498 -25.1890
# 3 61.4302 43.7758 174.5857 12.5532 -19.8160 5.5382
# 4 11.5564 7.5649 12.5532 39.1968 -1.2980 -2.5894
# 5 -34.8680 -22.1498 -19.8160 -1.2980 28.1898 -6.0512
# 6 18.2441 -25.1890 5.5382 -2.5894 -6.0512 44.8275
#
#
#
# Elastic Compliance Matrix: (Units=1/GPa)
#
#
# Indices 1 2 3 4 5 6 
#
# 1 0.038550 -0.018220 -0.004980 -0.006913 0.024745 -0.022371
# 2 -0.018220 0.022409 -0.000080 0.002380 -0.000566 0.020078
# 3 -0.004980 -0.000080 0.007439 -0.000867 -0.000841 0.000899
# 4 -0.006913 0.002380 -0.000867 0.027549 -0.004907 0.005187
# 5 0.024745 -0.000566 -0.000841 -0.004907 0.064417 -0.001872
# 6 -0.022371 0.020078 0.000899 0.005187 -0.001872 0.042630
#
#
# Mechanical properties :
#
#
# Convention : Reuss Voigt Hill
#
# Bulk Modulus (GPa) = 45.79558 80.18050 62.98804
# Shear Modulus (GPa) = 19.46797 37.23125 28.34961
#
# Velocity S-wave (km/s) = 2.89920 4.00933 3.49858
# Velocity P-wave (km/s) = 5.56593 7.48673 6.59662
#
# Compressibility (1/GPa) = 0.02183617
#
# Stress axis : x y z
#
# Youngs Moduli (GPa) = 25.94061 44.62560 134.43185
#
# Poissons Ratio (x) = 0.81307 0.66953
# Poissons Ratio (y) = 0.47263 0.01077
# Poissons Ratio (z) = 0.12920 0.00358
#
# Static dielectric constant tensor:
#      x y z
#    x 2.196010 -0.039160 0.018410 
#    y -0.039160 1.930830 -0.021430 
#    z 0.018410 -0.021430 1.813510 
# 
# From -- ./inp_files/152926.got.cif
#   From: 2010.05.17/outbox.cif.g08.bks.cpg/sg2_77_cif.got.tgz:152926.got - 2010.06.03 11:33:40.
