data_PCOD9083530
_publ_section_title
;
Structure prediction by ZEFSAII (Michael W. Deem and Ramdas Pophale) SiO2 
 PCOD9083530
Probable space group: P -1
;
_chemical_formula_sum "Si O2"
_cell_formula_units_Z 16
_cell_length_a 13.769618
_cell_length_b 26.771869
_cell_length_c 10.241283
_cell_angle_alpha 51.022314
_cell_angle_beta 65.560022
_cell_angle_gamma 22.276501
_cell_volume 913.186866
_symmetry_space_group_name_H-M "P -1"
_symmetry_group_IT_number 2
_symmetry_cell_setting 'triclinic'
loop_
_space_group_symop_operation_xyz
x,y,z
-x,-y,-z
loop_
_atom_site_type_symbol
_atom_site_label
_atom_site_fract_x
_atom_site_fract_y
_atom_site_fract_z
Si Si1 0.732980 0.198212 0.488546
Si Si2 0.863887 0.461645 0.045544
Si Si3 0.595276 0.940089 0.895095
Si Si4 0.603620 0.172313 0.376305
Si Si5 0.292973 0.405582 0.588413
Si Si6 0.177498 0.287334 0.437116
Si Si7 0.795734 0.689098 0.157874
Si Si8 0.714933 0.440633 0.974361
O O1 0.683962 0.161947 0.486138
O O2 0.620009 0.248290 0.615043
O O3 0.495366 0.386158 0.260749
O O4 0.080206 0.024732 0.550169
O O5 0.791407 0.430428 0.088291
O O6 0.053705 0.354409 0.248734
O O7 0.563809 0.677789 0.863446
O O8 0.045987 0.391309 0.938664
O O9 0.956682 0.752718 0.966814
O O10 0.379006 0.110923 0.653258
O O11 0.571579 0.877335 0.983537
O O12 0.500000 0.000000 0.000000
O O13 0.388431 0.232386 0.422589
O O14 0.341584 0.303670 0.764058
O O15 0.112643 0.541390 0.583677
O O16 0.053550 0.546333 0.365969
O O17 0.500000 0.500000 0.000000
#
# Coordination Sequence:
#
# PCOD9083530 Si02
#       8
#     2   2   2   2   2   2   2   2
#     4  10  19  34  56  86 113 146 199 237 271 339
#     4  10  21  38  57  87 116 149 193 240 281 343
#     4  11  21  35  56  90 113 146 197 237 277 342
#     4  10  19  34  57  87 112 148 195 236 275 340
#     4  11  18  35  59  83 113 153 185 239 285 324
#     4  12  22  34  63  86 116 152 191 235 293 336
#     4  10  19  35  56  82 118 147 194 230 282 331
#     4  10  20  38  57  80 118 153 185 234 290 338
#
# _framework density 17.521056999999999
#
# number of rings (size 3 to 8) (size 9 to 14) (size 15 to 20)
#    0.000    1.500    6.250    1.875    0.000    2.000 
#    0.000    0.625    0.000    3.000    0.000    0.000 
#    0.000    0.000    0.000    0.000    0.000    0.000 
#
# Total GULP energy -89185.756321 kJ/mol
# GULP energy per Si atom -5574.109770 kJ/mol
# Density = 1.748118 g / cm^3
# Si number density = 17.521057 Si / 1000 Ang^3
#
#
#
# Elastic Constant Matrix: (Units=GPa)
#
#
# Indices 1 2 3 4 5 6 
#
# 1 55.5338 32.3098 28.3520 7.7260 -16.7846 1.8102
# 2 32.3098 124.0797 42.8170 -0.5418 -4.9890 6.9163
# 3 28.3520 42.8170 88.7352 5.6568 -3.3143 12.8639
# 4 7.7260 -0.5418 5.6568 27.5541 7.7863 -3.2430
# 5 -16.7846 -4.9890 -3.3143 7.7863 26.3020 -0.7487
# 6 1.8102 6.9163 12.8639 -3.2430 -0.7487 14.9883
#
#
#
# Elastic Compliance Matrix: (Units=1/GPa)
#
#
# Indices 1 2 3 4 5 6 
#
# 1 0.034093 -0.005832 -0.006531 -0.014950 0.024314 0.002159
# 2 -0.005832 0.010728 -0.003559 0.003397 -0.003158 -0.000615
# 3 -0.006531 -0.003559 0.017016 -0.002596 -0.002296 -0.012849
# 4 -0.014950 0.003397 -0.002596 0.049105 -0.023420 0.011921
# 5 0.024314 -0.003158 -0.002296 -0.023420 0.059535 -0.001602
# 6 0.002159 -0.000615 -0.012849 0.011921 -0.001602 0.080269
#
#
# Mechanical properties :
#
#
# Convention : Reuss Voigt Hill
#
# Bulk Modulus (GPa) = 33.34011 52.81180 43.07595
# Shear Modulus (GPa) = 17.08900 24.76022 20.92461
#
# Velocity S-wave (km/s) = 3.12643 3.76329 3.45955
# Velocity P-wave (km/s) = 5.66592 7.00646 6.37154
#
# Compressibility (1/GPa) = 0.02999391
#
# Stress axis : x y z
#
# Youngs Moduli (GPa) = 29.33192 93.21372 58.76916
#
# Poissons Ratio (x) = 0.54362 0.38380
# Poissons Ratio (y) = 0.17106 0.20913
# Poissons Ratio (z) = 0.19156 0.33171
#
# Static dielectric constant tensor:
#      x y z
#    x 1.628560 0.003140 -0.004010 
#    y 0.003140 1.638870 -0.018680 
#    z -0.004010 -0.018680 1.589490 
# 
# From -- ./inp_files/320682.got.cif
#   From: 2010.05.17/outbox.cif.g08.bks.cpg/sg2_161_cif.got.tgz:320682.got - 2010.06.03 11:33:40.
