data_PCOD9083285
_publ_section_title
;
Structure prediction by ZEFSAII (Michael W. Deem and Ramdas Pophale) SiO2 
 PCOD9083285
Probable space group: P -1
;
_chemical_formula_sum "Si O2"
_cell_formula_units_Z 16
_cell_length_a 5.088811
_cell_length_b 22.801325
_cell_length_c 11.286389
_cell_angle_alpha 34.804956
_cell_angle_beta 75.224071
_cell_angle_gamma 73.498198
_cell_volume 716.129299
_symmetry_space_group_name_H-M "P -1"
_symmetry_group_IT_number 2
_symmetry_cell_setting 'triclinic'
loop_
_space_group_symop_operation_xyz
x,y,z
-x,-y,-z
loop_
_atom_site_type_symbol
_atom_site_label
_atom_site_fract_x
_atom_site_fract_y
_atom_site_fract_z
Si Si1 0.161772 0.647787 0.477071
Si Si2 0.220518 0.458156 0.642156
Si Si3 0.653023 0.227973 0.178160
Si Si4 0.821437 0.895109 0.569155
Si Si5 0.432014 0.900085 0.814457
Si Si6 0.221543 0.629617 0.757112
Si Si7 0.714047 0.724729 0.210590
Si Si8 0.633744 0.604284 0.945059
O O1 0.962927 0.708881 0.300518
O O2 0.133966 0.525958 0.656687
O O3 0.111241 0.683624 0.558313
O O4 0.472640 0.666663 0.387232
O O5 0.500000 0.500000 0.500000
O O6 0.222840 0.334589 0.826172
O O7 0.000000 0.500000 0.500000
O O8 0.384864 0.179590 0.331899
O O9 0.696552 0.184386 0.112281
O O10 0.554596 0.350150 0.998570
O O11 0.897466 0.173846 0.319361
O O12 0.685173 0.930692 0.654168
O O13 0.789293 0.998109 0.322893
O O14 0.574552 0.840883 0.007624
O O15 0.459835 0.661751 0.759275
O O16 0.950287 0.621195 0.878790
O O17 0.355943 0.517044 0.879307
#
# Coordination Sequence:
#
# PCOD9083285 Si02
#       8
#     2   2   2   2   2   2   2   2
#     4  10  20  33  50  70 105 138 173 205 256 289
#     4   8  16  30  42  65  98 129 167 196 229 292
#     4  10  19  34  54  79 105 135 171 206 275 309
#     4   9  20  33  52  79 111 135 161 217 261 310
#     4   9  21  32  54  78 117 127 174 205 259 317
#     4  10  21  37  53  76 108 133 179 227 250 293
#     4  10  20  31  49  77 100 142 168 199 248 322
#     4  10  21  36  56  79  99 138 179 219 264 297
#
# _framework density 22.342331000000001
#
# number of rings (size 3 to 8) (size 9 to 14) (size 15 to 20)
#    0.750    1.750    0.000    1.875    3.500    0.000 
#    0.000    1.250    0.000    0.000    0.000   17.500 
#    0.000    0.000    0.000    0.000    0.000    0.000 
#
# Total GULP energy -89138.847317 kJ/mol
# GULP energy per Si atom -5571.177957 kJ/mol
# Density = 2.229148 g / cm^3
# Si number density = 22.342331 Si / 1000 Ang^3
#
#
#
# Elastic Constant Matrix: (Units=GPa)
#
#
# Indices 1 2 3 4 5 6 
#
# 1 109.2372 12.0799 20.4804 -0.1147 39.1976 5.9111
# 2 12.0799 34.1683 12.3946 -0.0205 7.0081 -1.8189
# 3 20.4804 12.3946 83.4724 -9.5185 24.1704 -2.8795
# 4 -0.1147 -0.0205 -9.5185 34.1406 -3.7290 10.5550
# 5 39.1976 7.0081 24.1704 -3.7290 34.1525 2.2313
# 6 5.9111 -1.8189 -2.8795 10.5550 2.2313 21.3642
#
#
#
# Elastic Compliance Matrix: (Units=1/GPa)
#
#
# Indices 1 2 3 4 5 6 
#
# 1 0.016090 -0.002511 0.001813 -0.000936 -0.019209 -0.001952
# 2 -0.002511 0.032096 -0.003845 -0.002573 -0.001548 0.004342
# 3 0.001813 -0.003845 0.016066 0.002724 -0.012449 0.001291
# 4 -0.000936 -0.002573 0.002724 0.036113 0.004789 -0.017935
# 5 -0.019209 -0.001548 -0.012449 0.004789 0.061322 -0.005266
# 6 -0.001952 0.004342 0.001291 -0.017935 -0.005266 0.057302
#
#
# Mechanical properties :
#
#
# Convention : Reuss Voigt Hill
#
# Bulk Modulus (GPa) = 18.12693 35.19863 26.66278
# Shear Modulus (GPa) = 20.28698 30.05967 25.17333
#
# Velocity S-wave (km/s) = 3.01658 3.67197 3.36029
# Velocity P-wave (km/s) = 4.50155 5.81087 5.19760
#
# Compressibility (1/GPa) = 0.05516653
#
# Stress axis : x y z
#
# Youngs Moduli (GPa) = 62.15231 31.15609 62.24296
#
# Poissons Ratio (x) = 0.07822 -0.11286
# Poissons Ratio (y) = 0.15604 0.23934
# Poissons Ratio (z) = -0.11270 0.11980
#
# Static dielectric constant tensor:
#      x y z
#    x 1.832160 0.027430 -0.006180 
#    y 0.027430 1.957040 -0.007250 
#    z -0.006180 -0.007250 1.893670 
# 
# From -- ./inp_files/370727.got.cif
#   From: 2010.05.17/outbox.cif.g08.bks.cpg/sg2_186_cif.got.tgz:370727.got - 2010.06.03 11:33:40.
