data_PCOD9083407
_publ_section_title
;
Structure prediction by ZEFSAII (Michael W. Deem and Ramdas Pophale) SiO2 
 PCOD9083407
Probable space group: P -1
;
_chemical_formula_sum "Si O2"
_cell_formula_units_Z 12
_cell_length_a 7.631788
_cell_length_b 10.826417
_cell_length_c 12.898422
_cell_angle_alpha 135.446492
_cell_angle_beta 46.222984
_cell_angle_gamma 103.991650
_cell_volume 468.787998
_symmetry_space_group_name_H-M "P -1"
_symmetry_group_IT_number 2
_symmetry_cell_setting 'triclinic'
loop_
_space_group_symop_operation_xyz
x,y,z
-x,-y,-z
loop_
_atom_site_type_symbol
_atom_site_label
_atom_site_fract_x
_atom_site_fract_y
_atom_site_fract_z
Si Si1 0.102250 0.064030 0.238025
Si Si2 0.780853 0.573912 0.881481
Si Si3 0.593719 0.271485 0.688138
Si Si4 0.355097 0.299959 0.581841
Si Si5 0.788949 0.435708 0.447068
Si Si6 0.548691 0.096877 0.182021
O O1 0.394807 0.981924 0.128436
O O2 0.883470 0.073008 0.417337
O O3 0.935587 0.297535 0.404560
O O4 0.181004 0.953754 0.027989
O O5 0.650618 0.460526 0.799890
O O6 0.032116 0.400953 0.745125
O O7 0.951339 0.657073 0.795363
O O8 0.551918 0.729437 0.146541
O O9 0.401790 0.291298 0.679931
O O10 0.503586 0.425716 0.555043
O O11 0.532057 0.107061 0.318687
O O12 0.672988 0.672848 0.624784
#
# Coordination Sequence:
#
# PCOD9083407 Si02
#       6
#     2   2   2   2   2   2
#     4  10  20  34  59  81 107 150 180 228 277 315
#     4  10  19  35  52  81 116 140 185 224 270 336
#     4  10  20  32  56  80 110 152 175 223 282 324
#     4  10  20  34  58  83 108 145 185 228 272 322
#     4  10  20  35  59  82 110 142 185 230 273 320
#     4  10  19  34  55  84 113 135 188 234 263 327
#
# _framework density 25.597925
#
# number of rings (size 3 to 8) (size 9 to 14) (size 15 to 20)
#    0.000    2.000    3.333    3.000    2.333    2.667 
#    0.000    0.000    0.000   21.000    0.000    0.000 
#    0.000    0.000    0.000    0.000    0.000    0.000 
#
# Total GULP energy -66809.575368 kJ/mol
# GULP energy per Si atom -5567.464614 kJ/mol
# Density = 2.553966 g / cm^3
# Si number density = 25.597925 Si / 1000 Ang^3
#
#
#
# Elastic Constant Matrix: (Units=GPa)
#
#
# Indices 1 2 3 4 5 6 
#
# 1 110.5771 -1.1647 28.0054 9.1426 17.4446 2.1133
# 2 -1.1647 41.1464 21.3428 -5.2802 3.4531 5.2598
# 3 28.0054 21.3428 193.8475 -46.7920 22.9958 -9.2136
# 4 9.1426 -5.2802 -46.7920 26.9741 -2.2154 -1.7329
# 5 17.4446 3.4531 22.9958 -2.2154 42.8997 -4.6843
# 6 2.1133 5.2598 -9.2136 -1.7329 -4.6843 13.4287
#
#
#
# Elastic Compliance Matrix: (Units=1/GPa)
#
#
# Indices 1 2 3 4 5 6 
#
# 1 0.012562 0.003109 -0.005637 -0.014443 -0.004218 -0.010398
# 2 0.003109 0.029018 -0.005793 -0.006786 -0.002775 -0.017674
# 3 -0.005637 -0.005793 0.013612 0.025237 -0.001575 0.015203
# 4 -0.014443 -0.006786 0.025237 0.086677 0.001058 0.033800
# 5 -0.004218 -0.002775 -0.001575 0.001058 0.027274 0.010321
# 6 -0.010398 -0.017674 0.015203 0.033800 0.010321 0.101419
#
#
# Mechanical properties :
#
#
# Convention : Reuss Voigt Hill
#
# Bulk Modulus (GPa) = 25.94003 49.10422 37.52212
# Shear Modulus (GPa) = 16.66365 36.48633 26.57499
#
# Velocity S-wave (km/s) = 2.55419 3.77949 3.22556
# Velocity P-wave (km/s) = 4.34214 6.18633 5.34438
#
# Compressibility (1/GPa) = 0.03855046
#
# Stress axis : x y z
#
# Youngs Moduli (GPa) = 79.60377 34.46179 73.46313
#
# Poissons Ratio (x) = -0.10716 0.41414
# Poissons Ratio (y) = -0.24752 0.42557
# Poissons Ratio (z) = 0.44875 0.19964
#
# Static dielectric constant tensor:
#      x y z
#    x 2.123210 0.055690 0.024410 
#    y 0.055690 2.068960 0.027190 
#    z 0.024410 0.027190 2.069620 
# 
# From -- ./inp_files/164692.got.cif
#   From: 2010.05.17/outbox.cif.g08.bks.cpg/sg2_83_cif.got.tgz:164692.got - 2010.06.03 11:33:40.
