data_PCOD9083845
_publ_section_title
;
Structure prediction by ZEFSAII (Michael W. Deem and Ramdas Pophale) SiO2 
 PCOD9083845
Probable space group: P -1
;
_chemical_formula_sum "Si O2"
_cell_formula_units_Z 16
_cell_length_a 22.478078
_cell_length_b 11.541823
_cell_length_c 5.329274
_cell_angle_alpha 91.482651
_cell_angle_beta 103.492181
_cell_angle_gamma 138.530144
_cell_volume 845.989507
_symmetry_space_group_name_H-M "P -1"
_symmetry_group_IT_number 2
_symmetry_cell_setting 'triclinic'
loop_
_space_group_symop_operation_xyz
x,y,z
-x,-y,-z
loop_
_atom_site_type_symbol
_atom_site_label
_atom_site_fract_x
_atom_site_fract_y
_atom_site_fract_z
Si Si1 0.334193 0.295437 0.313025
Si Si2 0.364062 0.907263 0.412772
Si Si3 0.612850 0.816769 0.296895
Si Si4 0.039642 0.655808 0.359479
Si Si5 0.846851 0.330846 0.928070
Si Si6 0.201395 0.965321 0.834889
Si Si7 0.538003 0.153131 0.231599
Si Si8 0.594538 0.475687 0.108907
O O1 0.391935 0.262505 0.450631
O O2 0.348400 0.389299 0.587689
O O3 0.368163 0.423468 0.117968
O O4 0.231296 0.092781 0.100305
O O5 0.377313 0.032278 0.630495
O O6 0.443710 0.057080 0.287706
O O7 0.250481 0.743144 0.227848
O O8 0.392579 0.819781 0.518406
O O9 0.707318 0.908064 0.253792
O O10 0.519123 0.657052 0.025889
O O11 0.112826 0.693662 0.252838
O O12 0.102083 0.842805 0.579646
O O13 0.000000 0.500000 0.500000
O O14 0.941063 0.544501 0.111249
O O15 0.813182 0.186693 0.090279
O O16 0.590810 0.332698 0.144196
O O17 0.500000 0.000000 0.000000
#
# Coordination Sequence:
#
# PCOD9083845 Si02
#       8
#     2   2   2   2   2   2   2   2
#     4  12  25  37  58  86 122 162 198 249 302 368
#     4  11  22  38  62  84 119 164 206 250 301 350
#     4  12  22  38  59  86 123 160 201 245 305 364
#     4   9  19  33  54  87 124 155 188 241 305 383
#     4  10  19  34  58  86 124 154 196 245 306 368
#     4  11  20  34  55  88 124 157 191 233 312 372
#     4  11  25  41  57  80 116 169 214 254 289 341
#     4  12  26  39  55  83 121 162 212 249 288 353
#
# _framework density 18.912765
#
# number of rings (size 3 to 8) (size 9 to 14) (size 15 to 20)
#    0.000    1.000    5.000    2.250    3.500    0.000 
#    0.000    0.000    0.000    0.000    0.000    1.750 
#    0.000    0.125    0.000    0.000    0.000    0.000 
#
# Total GULP energy -89165.558350 kJ/mol
# GULP energy per Si atom -5572.847397 kJ/mol
# Density = 1.886972 g / cm^3
# Si number density = 18.912765 Si / 1000 Ang^3
#
#
#
# Elastic Constant Matrix: (Units=GPa)
#
#
# Indices 1 2 3 4 5 6 
#
# 1 55.9810 30.2522 31.7967 4.3647 5.9908 -1.1006
# 2 30.2522 81.4727 43.1185 -11.1718 5.0478 -9.1147
# 3 31.7967 43.1185 126.8138 18.9714 -4.1858 0.2604
# 4 4.3647 -11.1718 18.9714 46.5109 -1.2189 -1.1040
# 5 5.9908 5.0478 -4.1858 -1.2189 29.6557 5.6137
# 6 -1.1006 -9.1147 0.2604 -1.1040 5.6137 30.6706
#
#
#
# Elastic Compliance Matrix: (Units=1/GPa)
#
#
# Indices 1 2 3 4 5 6 
#
# 1 0.024462 -0.007587 -0.003251 -0.002916 -0.004095 -0.000705
# 2 -0.007587 0.020734 -0.006551 0.008428 -0.003892 0.006961
# 3 -0.003251 -0.006551 0.011976 -0.006127 0.003793 -0.003080
# 4 -0.002916 0.008428 -0.006127 0.026349 -0.001317 0.003641
# 5 -0.004095 -0.003892 0.003793 -0.001317 0.037244 -0.008200
# 6 -0.000705 0.006961 -0.003080 0.003641 -0.008200 0.036306
#
#
# Mechanical properties :
#
#
# Convention : Reuss Voigt Hill
#
# Bulk Modulus (GPa) = 44.65657 52.73358 48.69508
# Shear Modulus (GPa) = 25.08600 31.97412 28.53006
#
# Velocity S-wave (km/s) = 3.64594 4.11616 3.88817
# Velocity P-wave (km/s) = 6.43327 7.10869 6.77940
#
# Compressibility (1/GPa) = 0.02239312
#
# Stress axis : x y z
#
# Youngs Moduli (GPa) = 40.88003 48.23019 83.49822
#
# Poissons Ratio (x) = 0.36594 0.27146
# Poissons Ratio (y) = 0.31017 0.54699
# Poissons Ratio (z) = 0.13290 0.31595
#
# Static dielectric constant tensor:
#      x y z
#    x 1.678990 0.017600 -0.005540 
#    y 0.017600 1.752130 -0.015560 
#    z -0.005540 -0.015560 1.811140 
# 
# From -- ./inp_files/93609.got.cif
#   From: 2010.05.17/outbox.cif.g08.bks.cpg/sg2_47_cif.got.tgz:93609.got - 2010.06.03 11:33:40.
