data_PCOD9083390
_publ_section_title
;
Structure prediction by ZEFSAII (Michael W. Deem and Ramdas Pophale) SiO2 
 PCOD9083390
Probable space group: P -1
;
_chemical_formula_sum "Si O2"
_cell_formula_units_Z 16
_cell_length_a 9.267192
_cell_length_b 7.849522
_cell_length_c 26.161354
_cell_angle_alpha 55.755649
_cell_angle_beta 148.763688
_cell_angle_gamma 125.149147
_cell_volume 795.693556
_symmetry_space_group_name_H-M "P -1"
_symmetry_group_IT_number 2
_symmetry_cell_setting 'triclinic'
loop_
_space_group_symop_operation_xyz
x,y,z
-x,-y,-z
loop_
_atom_site_type_symbol
_atom_site_label
_atom_site_fract_x
_atom_site_fract_y
_atom_site_fract_z
Si Si1 0.382620 0.612632 0.397706
Si Si2 0.256839 0.502601 0.002001
Si Si3 0.184324 0.093497 0.355810
Si Si4 0.125848 0.380528 0.514155
Si Si5 0.338499 0.771122 0.877422
Si Si6 0.903191 0.614043 0.318653
Si Si7 0.654376 0.262432 0.902652
Si Si8 0.717841 0.997313 0.488379
O O1 0.500000 0.500000 0.500000
O O2 0.534362 0.556876 0.402409
O O3 0.052351 0.594335 0.312273
O O4 0.546012 0.853457 0.416933
O O5 0.486409 0.361447 0.082240
O O6 0.321680 0.654496 0.045604
O O7 0.260238 0.646881 0.928152
O O8 0.954807 0.344584 0.951005
O O9 0.495114 0.132948 0.417925
O O10 0.952626 0.202870 0.242222
O O11 0.219326 0.128672 0.421040
O O12 0.065419 0.839307 0.353949
O O13 0.000000 0.500000 0.500000
O O14 0.972640 0.436443 0.406788
O O15 0.010293 0.138106 0.534059
O O16 0.529139 0.009417 0.904158
O O17 0.578945 0.625282 0.212898
#
# Coordination Sequence:
#
# PCOD9083390 Si02
#       8
#     2   2   2   2   2   2   2   2
#     4   9  20  35  51  74 111 150 185 225 274 328
#     4  10  22  39  62  92 109 153 198 233 304 353
#     4   9  19  34  57  81 113 150 184 226 284 333
#     4  11  20  33  54  81 114 145 190 231 268 332
#     4  10  21  39  62  87 121 148 192 245 290 346
#     4   9  19  37  54  81 111 152 182 227 290 333
#     4  10  21  40  63  83 122 148 190 247 292 345
#     4  10  19  34  55  81 113 152 186 226 274 329
#
# _framework density 20.108243999999999
#
# number of rings (size 3 to 8) (size 9 to 14) (size 15 to 20)
#    0.000    2.250    1.250    1.125    3.500    2.000 
#    0.000    0.000    8.250    0.000    0.000    0.000 
#    0.000    0.000    0.000    0.000    0.000    0.000 
#
# Total GULP energy -89222.058389 kJ/mol
# GULP energy per Si atom -5576.378649 kJ/mol
# Density = 2.006248 g / cm^3
# Si number density = 20.108244 Si / 1000 Ang^3
#
#
#
# Elastic Constant Matrix: (Units=GPa)
#
#
# Indices 1 2 3 4 5 6 
#
# 1 137.8289 35.1196 41.6549 1.1653 13.0596 10.4019
# 2 35.1196 69.1089 22.5531 -3.7039 -0.3492 5.5302
# 3 41.6549 22.5531 102.8485 -5.0538 11.0589 8.7131
# 4 1.1653 -3.7039 -5.0538 23.6019 -1.4207 0.5689
# 5 13.0596 -0.3492 11.0589 -1.4207 17.8217 4.1058
# 6 10.4019 5.5302 8.7131 0.5689 4.1058 33.7660
#
#
#
# Elastic Compliance Matrix: (Units=1/GPa)
#
#
# Indices 1 2 3 4 5 6 
#
# 1 0.009671 -0.004185 -0.002412 -0.001965 -0.005608 -0.000956
# 2 -0.004185 0.017731 -0.002512 0.002829 0.005588 -0.001694
# 3 -0.002412 -0.002512 0.012031 0.002016 -0.005278 -0.001342
# 4 -0.001965 0.002829 0.002016 0.043627 0.004094 -0.001611
# 5 -0.005608 0.005588 -0.005278 0.004094 0.065275 -0.005832
# 6 -0.000956 -0.001694 -0.001342 -0.001611 -0.005832 0.031270
#
#
# Mechanical properties :
#
#
# Convention : Reuss Voigt Hill
#
# Bulk Modulus (GPa) = 47.13197 56.49349 51.81273
# Shear Modulus (GPa) = 24.40285 29.06852 26.73568
#
# Velocity S-wave (km/s) = 3.48742 3.80623 3.65031
# Velocity P-wave (km/s) = 6.30128 6.89001 6.60221
#
# Compressibility (1/GPa) = 0.02121702
#
# Stress axis : x y z
#
# Youngs Moduli (GPa) = 103.40568 56.39681 83.11977
#
# Poissons Ratio (x) = 0.23599 0.20045
# Poissons Ratio (y) = 0.43270 0.20878
# Poissons Ratio (z) = 0.24937 0.14166
#
# Static dielectric constant tensor:
#      x y z
#    x 1.766180 -0.057200 0.013460 
#    y -0.057200 1.787020 -0.000620 
#    z 0.013460 -0.000620 1.666020 
# 
# From -- ./inp_files/208501.got.cif
#   From: 2010.05.17/outbox.cif.g08.bks.cpg/sg2_105_cif.got.tgz:208501.got - 2010.06.03 11:33:40.
