data_PCOD9083212
_publ_section_title
;
Structure prediction by ZEFSAII (Michael W. Deem and Ramdas Pophale) SiO2 
 PCOD9083212
Probable space group: P -1
;
_chemical_formula_sum "Si O2"
_cell_formula_units_Z 14
_cell_length_a 7.522219
_cell_length_b 9.296805
_cell_length_c 14.885094
_cell_angle_alpha 36.841304
_cell_angle_beta 105.715240
_cell_angle_gamma 100.488841
_cell_volume 599.737061
_symmetry_space_group_name_H-M "P -1"
_symmetry_group_IT_number 2
_symmetry_cell_setting 'triclinic'
loop_
_space_group_symop_operation_xyz
x,y,z
-x,-y,-z
loop_
_atom_site_type_symbol
_atom_site_label
_atom_site_fract_x
_atom_site_fract_y
_atom_site_fract_z
Si Si1 0.827521 0.535835 0.618770
Si Si2 0.767787 0.973026 0.524510
Si Si3 0.042498 0.254840 0.918253
Si Si4 0.183146 0.618848 0.003722
Si Si5 0.289241 0.947386 0.222403
Si Si6 0.484634 0.197827 0.264797
Si Si7 0.958678 0.926980 0.333950
O O1 0.754625 0.738004 0.578041
O O2 0.019909 0.431358 0.742964
O O3 0.704078 0.307562 0.700452
O O4 0.869159 0.676256 0.463446
O O5 0.635477 0.926282 0.613417
O O6 0.956214 0.007957 0.588505
O O7 0.685121 0.191120 0.341442
O O8 0.878254 0.333647 0.925759
O O9 0.000000 0.000000 0.000000
O O10 0.226597 0.180310 0.036368
O O11 0.368123 0.448565 0.105527
O O12 0.000000 0.500000 0.000000
O O13 0.182927 0.864407 0.826114
O O14 0.463166 0.022725 0.264851
O O15 0.120442 0.920397 0.284344
#
# Coordination Sequence:
#
# PCOD9083212 Si02
#       7
#     2   2   2   2   2   2   2
#     4  11  19  32  52  80 105 128 168 217 253 295
#     4  10  20  32  51  80 100 133 170 213 252 290
#     4   9  17  29  50  79  98 125 171 211 245 285
#     4  11  16  33  55  72  98 135 174 206 241 303
#     4   9  19  33  53  76 101 135 171 205 253 300
#     4  10  19  34  53  75 103 133 174 205 249 304
#     4  10  20  33  54  78 102 132 168 210 258 301
#
# _framework density 23.343561999999999
#
# number of rings (size 3 to 8) (size 9 to 14) (size 15 to 20)
#    0.000    2.000    5.714    0.857    0.000    0.571 
#    0.000    0.714    0.000    0.000    0.000    6.000 
#    0.000    0.000    0.000    0.000    0.000    0.000 
#
# Total GULP energy -78073.150050 kJ/mol
# GULP energy per Si atom -5576.653575 kJ/mol
# Density = 2.329043 g / cm^3
# Si number density = 23.343562 Si / 1000 Ang^3
#
#
#
# Elastic Constant Matrix: (Units=GPa)
#
#
# Indices 1 2 3 4 5 6 
#
# 1 53.2273 6.4453 13.0387 -2.1141 3.5950 2.8092
# 2 6.4453 103.3139 11.3119 -5.8611 16.3194 -9.4945
# 3 13.0387 11.3119 182.7809 2.9598 8.6519 12.5456
# 4 -2.1141 -5.8611 2.9598 31.0487 -1.7913 1.1544
# 5 3.5950 16.3194 8.6519 -1.7913 28.0677 2.5444
# 6 2.8092 -9.4945 12.5456 1.1544 2.5444 14.2390
#
#
#
# Elastic Compliance Matrix: (Units=1/GPa)
#
#
# Indices 1 2 3 4 5 6 
#
# 1 0.019502 -0.001196 -0.001037 0.001275 -0.001071 -0.003644
# 2 -0.001196 0.012079 -0.001051 0.001485 -0.007395 0.010417
# 3 -0.001037 -0.001051 0.006039 -0.000672 -0.000649 -0.005647
# 4 0.001275 0.001485 -0.000672 0.032779 0.001416 -0.001580
# 5 -0.001071 -0.007395 -0.000649 0.001416 0.041413 -0.011663
# 6 -0.003644 0.010417 -0.005647 -0.001580 -0.011663 0.085082
#
#
# Mechanical properties :
#
#
# Convention : Reuss Voigt Hill
#
# Bulk Modulus (GPa) = 32.20587 44.54599 38.37593
# Shear Modulus (GPa) = 23.38498 35.23950 29.31224
#
# Velocity S-wave (km/s) = 3.16852 3.88958 3.54741
# Velocity P-wave (km/s) = 5.21655 6.26865 5.76664
#
# Compressibility (1/GPa) = 0.03105024
#
# Stress axis : x y z
#
# Youngs Moduli (GPa) = 51.27808 82.79032 165.58378
#
# Poissons Ratio (x) = 0.09906 0.17170
# Poissons Ratio (y) = 0.06135 0.17406
# Poissons Ratio (z) = 0.05317 0.08703
#
# Static dielectric constant tensor:
#      x y z
#    x 1.958020 -0.026060 0.052750 
#    y -0.026060 1.897900 0.028630 
#    z 0.052750 0.028630 1.974560 
# 
# From -- ./inp_files/571858.got.cif
#   From: 2010.05.17/outbox.cif.g08.bks.cpg/sg2_286_cif.got.tgz:571858.got - 2010.06.03 11:33:40.
