data_PCOD9083574
_publ_section_title
;
Structure prediction by ZEFSAII (Michael W. Deem and Ramdas Pophale) SiO2 
 PCOD9083574
Probable space group: P -1
;
_chemical_formula_sum "Si O2"
_cell_formula_units_Z 10
_cell_length_a 14.929440
_cell_length_b 6.738230
_cell_length_c 10.759541
_cell_angle_alpha 39.220799
_cell_angle_beta 139.991178
_cell_angle_gamma 138.414780
_cell_volume 406.955405
_symmetry_space_group_name_H-M "P -1"
_symmetry_group_IT_number 2
_symmetry_cell_setting 'triclinic'
loop_
_space_group_symop_operation_xyz
x,y,z
-x,-y,-z
loop_
_atom_site_type_symbol
_atom_site_label
_atom_site_fract_x
_atom_site_fract_y
_atom_site_fract_z
Si Si1 0.728136 0.707740 0.430890
Si Si2 0.493920 0.758934 0.994267
Si Si3 0.531954 0.867490 0.464077
Si Si4 0.833118 0.491578 0.236995
Si Si5 0.136319 0.705777 0.364173
O O1 0.595376 0.511545 0.483210
O O2 0.837891 0.507377 0.620846
O O3 0.803855 0.101071 0.355618
O O4 0.637047 0.672452 0.221033
O O5 0.326573 0.472620 0.966494
O O6 0.500919 0.940076 0.782682
O O7 0.500000 0.000000 0.000000
O O8 0.500000 0.000000 0.500000
O O9 0.711796 0.960978 0.616923
O O10 0.868838 0.514216 0.409633
O O11 0.973979 0.728328 0.192430
#
# Coordination Sequence:
#
# PCOD9083574 Si02
#       5
#     2   2   2   2   2
#     4  10  19  34  57  74 100 142 174 208 261 308
#     4   9  19  33  53  79 104 133 176 217 253 307
#     4   9  19  33  53  79 104 133 176 217 253 307
#     4   9  18  32  51  76 104 134 171 213 257 307
#     4   9  18  32  51  76 104 134 171 213 257 307
#
# _framework density 24.572714999999999
#
# number of rings (size 3 to 8) (size 9 to 14) (size 15 to 20)
#    0.000    2.800    0.000    0.600    0.000   14.400 
#    0.000    1.000    0.000   44.400    0.000    0.000 
#    0.000    1.600    0.000    0.000    0.000    0.000 
#
# Total GULP energy -55790.056391 kJ/mol
# GULP energy per Si atom -5579.005639 kJ/mol
# Density = 2.451679 g / cm^3
# Si number density = 24.572715 Si / 1000 Ang^3
#
#
#
# Elastic Constant Matrix: (Units=GPa)
#
#
# Indices 1 2 3 4 5 6 
#
# 1 123.2862 47.5941 19.5712 1.2352 -9.6636 23.7752
# 2 47.5941 118.3774 28.2671 6.1126 -10.5168 33.7225
# 3 19.5712 28.2671 88.8914 -4.8860 -34.0154 21.9103
# 4 1.2352 6.1126 -4.8860 31.4740 10.0543 0.3165
# 5 -9.6636 -10.5168 -34.0154 10.0543 28.5971 3.1032
# 6 23.7752 33.7225 21.9103 0.3165 3.1032 60.5762
#
#
#
# Elastic Compliance Matrix: (Units=1/GPa)
#
#
# Indices 1 2 3 4 5 6 
#
# 1 0.009995 -0.003056 0.000911 -0.000891 0.003948 -0.002748
# 2 -0.003056 0.011987 0.000274 -0.003934 0.005719 -0.005845
# 3 0.000911 0.000274 0.028209 -0.007739 0.038053 -0.012622
# 4 -0.000891 -0.003934 -0.007739 0.039459 -0.025525 0.006440
# 5 0.003948 0.005719 0.038053 -0.025525 0.095165 -0.023239
# 6 -0.002748 -0.005845 -0.012622 0.006440 -0.023239 0.026563
#
#
# Mechanical properties :
#
#
# Convention : Reuss Voigt Hill
#
# Bulk Modulus (GPa) = 21.52954 57.93554 39.73254
# Shear Modulus (GPa) = 21.68214 39.80429 30.74321
#
# Velocity S-wave (km/s) = 2.97369 4.02911 3.54094
# Velocity P-wave (km/s) = 4.53553 6.72855 5.73779
#
# Compressibility (1/GPa) = 0.04644781
#
# Stress axis : x y z
#
# Youngs Moduli (GPa) = 100.05094 83.42210 35.44912
#
# Poissons Ratio (x) = 0.25496 -0.03228
# Poissons Ratio (y) = 0.30578 -0.00971
# Poissons Ratio (z) = -0.09110 -0.02284
#
# Static dielectric constant tensor:
#      x y z
#    x 2.038910 -0.024130 0.087920 
#    y -0.024130 2.050810 -0.050720 
#    z 0.087920 -0.050720 2.014120 
# 
# From -- ./inp_files/17422.got.cif
#   From: 2010.05.17/outbox.cif.g08.bks.cpg/sg2_9_cif.got.tgz:17422.got - 2010.06.03 11:33:40.
