data_PCOD9083136
_publ_section_title
;
Structure prediction by ZEFSAII (Michael W. Deem and Ramdas Pophale) SiO2 
 PCOD9083136
Probable space group: P -1
;
_chemical_formula_sum "Si O2"
_cell_formula_units_Z 12
_cell_length_a 9.186137
_cell_length_b 10.998637
_cell_length_c 8.812468
_cell_angle_alpha 118.838023
_cell_angle_beta 59.601629
_cell_angle_gamma 134.722400
_cell_volume 533.951565
_symmetry_space_group_name_H-M "P -1"
_symmetry_group_IT_number 2
_symmetry_cell_setting 'triclinic'
loop_
_space_group_symop_operation_xyz
x,y,z
-x,-y,-z
loop_
_atom_site_type_symbol
_atom_site_label
_atom_site_fract_x
_atom_site_fract_y
_atom_site_fract_z
Si Si1 0.704236 0.343910 0.938636
Si Si2 0.471449 0.488532 0.685068
Si Si3 0.743936 0.130211 0.000627
Si Si4 0.112541 0.122964 0.812225
Si Si5 0.257975 0.400646 0.131837
Si Si6 0.632313 0.996184 0.294463
O O1 0.826897 0.508165 0.858069
O O2 0.528330 0.183584 0.825400
O O3 0.593362 0.391501 0.146968
O O4 0.828924 0.292741 0.941246
O O5 0.500000 0.500000 0.500000
O O6 0.284743 0.289715 0.716851
O O7 0.693188 0.559679 0.694583
O O8 0.729161 0.141136 0.197473
O O9 0.878324 0.057642 0.853574
O O10 0.500000 0.000000 0.000000
O O11 0.187832 0.004523 0.717008
O O12 0.144600 0.208355 0.013335
O O13 0.500000 0.500000 0.000000
O O14 0.500000 0.000000 0.500000
#
# Coordination Sequence:
#
# PCOD9083136 Si02
#       6
#     2   2   2   2   2   2
#     4   9  18  38  56  84 125 149 203 247 308 347
#     4  10  19  33  67  93 116 152 197 268 305 361
#     4  10  23  37  59  88 124 170 201 248 291 363
#     4  10  19  40  61  87 123 165 204 238 316 357
#     4   8  15  33  60  81 112 156 188 257 299 352
#     4  11  21  37  62  86 120 166 203 247 298 368
#
# _framework density 22.473946999999999
#
# number of rings (size 3 to 8) (size 9 to 14) (size 15 to 20)
#    0.000    2.667    5.000    0.500    2.333    2.667 
#    0.000    6.667    0.000    6.000    0.000    0.000 
#    0.000    0.000    0.000    0.000    0.000    0.000 
#
# Total GULP energy -66886.259665 kJ/mol
# GULP energy per Si atom -5573.854972 kJ/mol
# Density = 2.242280 g / cm^3
# Si number density = 22.473947 Si / 1000 Ang^3
#
#
#
# Elastic Constant Matrix: (Units=GPa)
#
#
# Indices 1 2 3 4 5 6 
#
# 1 182.8087 28.0900 66.3078 -11.3619 -4.9603 -28.6747
# 2 28.0900 55.0919 30.4888 -9.4909 -4.2195 -3.0662
# 3 66.3078 30.4888 128.8338 -14.5077 20.6789 -15.7486
# 4 -11.3619 -9.4909 -14.5077 21.1819 -1.3062 0.2483
# 5 -4.9603 -4.2195 20.6789 -1.3062 39.6381 -3.9386
# 6 -28.6747 -3.0662 -15.7486 0.2483 -3.9386 39.3503
#
#
#
# Elastic Compliance Matrix: (Units=1/GPa)
#
#
# Indices 1 2 3 4 5 6 
#
# 1 0.007825 -0.001316 -0.003524 0.001337 0.003169 0.004498
# 2 -0.001316 0.023018 -0.004916 0.006557 0.005000 -0.000674
# 3 -0.003524 -0.004916 0.012512 0.004015 -0.007229 0.001307
# 4 0.001337 0.006557 0.004015 0.053632 0.000820 0.002835
# 5 0.003169 0.005000 -0.007229 0.000820 0.030236 0.002827
# 6 0.004498 -0.000674 0.001307 0.002835 0.002827 0.029426
#
#
# Mechanical properties :
#
#
# Convention : Reuss Voigt Hill
#
# Bulk Modulus (GPa) = 41.94406 68.50086 55.22246
# Shear Modulus (GPa) = 27.15753 36.15725 31.65739
#
# Velocity S-wave (km/s) = 3.47998 4.01540 3.75724
# Velocity P-wave (km/s) = 5.90347 7.21417 6.59148
#
# Compressibility (1/GPa) = 0.02384128
#
# Stress axis : x y z
#
# Youngs Moduli (GPa) = 127.78938 43.44353 79.92593
#
# Poissons Ratio (x) = 0.05718 0.28168
# Poissons Ratio (y) = 0.16820 0.39295
# Poissons Ratio (z) = 0.45037 0.21359
#
# Static dielectric constant tensor:
#      x y z
#    x 1.942190 -0.004540 0.017400 
#    y -0.004540 2.024330 -0.021210 
#    z 0.017400 -0.021210 1.793550 
# 
# From -- ./inp_files/182168.got.cif
#   From: 2010.05.17/outbox.cif.g08.bks.cpg/sg2_92_cif.got.tgz:182168.got - 2010.06.03 11:33:40.
