data_PCOD9083155
_publ_section_title
;
Structure prediction by ZEFSAII (Michael W. Deem and Ramdas Pophale) SiO2 
 PCOD9083155
Probable space group: P -1
;
_chemical_formula_sum "Si O2"
_cell_formula_units_Z 14
_cell_length_a 14.152331
_cell_length_b 5.643776
_cell_length_c 19.344035
_cell_angle_alpha 50.588982
_cell_angle_beta 152.297555
_cell_angle_gamma 131.236411
_cell_volume 534.293295
_symmetry_space_group_name_H-M "P -1"
_symmetry_group_IT_number 2
_symmetry_cell_setting 'triclinic'
loop_
_space_group_symop_operation_xyz
x,y,z
-x,-y,-z
loop_
_atom_site_type_symbol
_atom_site_label
_atom_site_fract_x
_atom_site_fract_y
_atom_site_fract_z
Si Si1 0.270899 0.048200 0.029598
Si Si2 0.559225 0.930718 0.129475
Si Si3 0.069016 0.454546 0.733818
Si Si4 0.642937 0.827214 0.669532
Si Si5 0.296353 0.229300 0.552356
Si Si6 0.738422 0.445067 0.288875
Si Si7 0.289774 0.740807 0.243353
O O1 0.482827 0.332097 0.129289
O O2 0.353879 0.852361 0.059516
O O3 0.219163 0.871881 0.101607
O O4 0.107546 0.207704 0.859052
O O5 0.711792 0.702335 0.280329
O O6 0.711745 0.274310 0.183896
O O7 0.500000 0.000000 0.000000
O O8 0.072383 0.348973 0.675895
O O9 0.889824 0.612754 0.611038
O O10 0.475173 0.516741 0.652451
O O11 0.768414 0.640682 0.734747
O O12 0.500000 0.000000 0.500000
O O13 0.761938 0.071167 0.759691
O O14 0.451601 0.174537 0.602234
O O15 0.220567 0.889906 0.602766
#
# Coordination Sequence:
#
# PCOD9083155 Si02
#       7
#     2   2   2   2   2   2   2
#     4  10  20  32  54  81 116 155 203 234 283 335
#     4  11  19  31  52  77 115 170 206 234 269 337
#     4  11  20  34  50  85 119 159 195 242 281 337
#     4  10  21  42  67  88 111 145 194 247 303 362
#     4   9  23  34  57  85 118 150 196 243 300 336
#     4  10  19  34  50  77 117 161 202 230 274 332
#     4   9  22  37  63  90 113 146 196 240 296 358
#
# _framework density 26.202838
#
# number of rings (size 3 to 8) (size 9 to 14) (size 15 to 20)
#    0.857    1.143    2.857    1.714    4.000    1.714 
#    0.000    0.000    0.000    4.286    0.000    0.000 
#    0.000    0.000    0.000    0.000    0.000    0.000 
#
# Total GULP energy -78010.741380 kJ/mol
# GULP energy per Si atom -5572.195813 kJ/mol
# Density = 2.614320 g / cm^3
# Si number density = 26.202838 Si / 1000 Ang^3
#
#
#
# Elastic Constant Matrix: (Units=GPa)
#
#
# Indices 1 2 3 4 5 6 
#
# 1 101.9915 32.1224 56.7088 -15.5819 -8.2441 -17.4297
# 2 32.1224 91.3722 45.7917 -30.7992 -13.4504 -16.5868
# 3 56.7088 45.7917 166.8404 -53.8465 -1.5630 -5.2558
# 4 -15.5819 -30.7992 -53.8465 37.6550 -5.9979 9.7861
# 5 -8.2441 -13.4504 -1.5630 -5.9979 34.6037 0.5868
# 6 -17.4297 -16.5868 -5.2558 9.7861 0.5868 35.1902
#
#
#
# Elastic Compliance Matrix: (Units=1/GPa)
#
#
# Indices 1 2 3 4 5 6 
#
# 1 0.014212 -0.002953 -0.005950 -0.006645 0.000706 0.006595
# 2 -0.002953 0.018981 0.001595 0.017428 0.009721 0.002714
# 3 -0.005950 0.001595 0.014392 0.021602 0.003701 -0.006115
# 4 -0.006645 0.017428 0.021602 0.075476 0.019472 -0.013164
# 5 0.000706 0.009721 0.003701 0.019472 0.036397 -0.000538
# 6 0.006595 0.002714 -0.006115 -0.013164 -0.000538 0.035719
#
#
# Mechanical properties :
#
#
# Convention : Reuss Voigt Hill
#
# Bulk Modulus (GPa) = 30.33122 69.93891 50.13506
# Shear Modulus (GPa) = 22.64661 36.52853 29.58757
#
# Velocity S-wave (km/s) = 2.94305 3.73777 3.36396
# Velocity P-wave (km/s) = 4.81139 6.73626 5.85349
#
# Compressibility (1/GPa) = 0.03296933
#
# Stress axis : x y z
#
# Youngs Moduli (GPa) = 70.36212 52.68460 69.48071
#
# Poissons Ratio (x) = 0.15558 0.41344
# Poissons Ratio (y) = 0.20778 -0.11085
# Poissons Ratio (z) = 0.41868 -0.08405
#
# Static dielectric constant tensor:
#      x y z
#    x 10.362230 -4.406070 -5.868100 
#    y -4.406070 4.437690 3.093830 
#    z -5.868100 3.093830 6.223430 
# 
# From -- ./inp_files/598888.got.cif
#   From: 2010.05.17/outbox.cif.g08.bks.cpg/sg2_300_cif.got.tgz:598888.got - 2010.06.03 11:33:40.
