data_PCOD9083724
_publ_section_title
;
Structure prediction by ZEFSAII (Michael W. Deem and Ramdas Pophale) SiO2 
 PCOD9083724
Probable space group: P -1
;
_chemical_formula_sum "Si O2"
_cell_formula_units_Z 16
_cell_length_a 11.640569
_cell_length_b 13.497499
_cell_length_c 5.842264
_cell_angle_alpha 139.035472
_cell_angle_beta 86.735555
_cell_angle_gamma 101.439770
_cell_volume 583.644113
_symmetry_space_group_name_H-M "P -1"
_symmetry_group_IT_number 2
_symmetry_cell_setting 'triclinic'
loop_
_space_group_symop_operation_xyz
x,y,z
-x,-y,-z
loop_
_atom_site_type_symbol
_atom_site_label
_atom_site_fract_x
_atom_site_fract_y
_atom_site_fract_z
Si Si1 0.582854 0.889393 0.874655
Si Si2 0.385702 0.600780 0.420847
Si Si3 0.815383 0.227910 0.201051
Si Si4 0.627238 0.412468 0.098774
Si Si5 0.130924 0.061242 0.489422
Si Si6 0.112616 0.564268 0.812383
Si Si7 0.977327 0.740119 0.460162
Si Si8 0.632254 0.832872 0.266688
O O1 0.517089 0.708223 0.594275
O O2 0.655071 0.892496 0.635307
O O3 0.620225 0.930375 0.205907
O O4 0.500000 0.000000 0.000000
O O5 0.306779 0.730020 0.652177
O O6 0.365540 0.513710 0.028723
O O7 0.366822 0.514964 0.517894
O O8 0.886450 0.392774 0.377505
O O9 0.895369 0.182831 0.311234
O O10 0.821358 0.096304 0.788460
O O11 0.499396 0.285575 0.898951
O O12 0.750174 0.355741 0.991108
O O13 0.233904 0.189718 0.827413
O O14 0.098605 0.143819 0.409012
O O15 0.000000 0.000000 0.500000
O O16 0.096174 0.387569 0.581664
O O17 0.017572 0.640722 0.079908
#
# Coordination Sequence:
#
# PCOD9083724 Si02
#       8
#     2   2   2   2   2   2   2   2
#     4  10  19  34  57  89 122 163 212 266 315 381
#     4   9  18  31  58  90 123 157 206 263 324 367
#     4  11  21  39  64  93 128 172 213 275 324 392
#     4   9  18  38  62  95 123 160 212 275 322 374
#     4  12  26  43  60  94 136 178 214 263 332 405
#     4  10  21  40  67  94 123 163 227 278 319 381
#     4  11  23  41  63  93 127 175 218 266 329 388
#     4  10  23  39  60  89 132 171 213 260 332 394
#
# _framework density 27.413962999999999
#
# number of rings (size 3 to 8) (size 9 to 14) (size 15 to 20)
#    0.000    1.750    2.500    1.875    0.000    7.000 
#    0.000    0.625    0.000    0.000    0.000    7.875 
#    0.000    0.000    0.000    0.000    0.000    0.000 
#
# Total GULP energy -89097.324421 kJ/mol
# GULP energy per Si atom -5568.582776 kJ/mol
# Density = 2.735157 g / cm^3
# Si number density = 27.413963 Si / 1000 Ang^3
#
#
#
# Elastic Constant Matrix: (Units=GPa)
#
#
# Indices 1 2 3 4 5 6 
#
# 1 156.1730 50.2991 41.7264 8.6257 1.9343 -17.6770
# 2 50.2991 147.4825 58.9764 -33.6348 -8.6993 -6.1038
# 3 41.7264 58.9764 102.0745 -22.9080 -10.2129 -3.5763
# 4 8.6257 -33.6348 -22.9080 58.3058 -2.7331 0.2801
# 5 1.9343 -8.6993 -10.2129 -2.7331 33.4687 -0.5948
# 6 -17.6770 -6.1038 -3.5763 0.2801 -0.5948 57.9651
#
#
#
# Elastic Compliance Matrix: (Units=1/GPa)
#
#
# Indices 1 2 3 4 5 6 
#
# 1 0.008594 -0.002717 -0.003045 -0.004160 -0.002434 0.002142
# 2 -0.002717 0.010424 -0.003539 0.005128 0.002206 0.000049
# 3 -0.003045 -0.003539 0.014431 0.004268 0.004001 -0.000391
# 4 -0.004160 0.005128 0.004268 0.022625 0.004714 -0.000526
# 5 -0.002434 0.002206 0.004001 0.004714 0.032199 0.000045
# 6 0.002142 0.000049 -0.000391 -0.000526 0.000045 0.017889
#
#
# Mechanical properties :
#
#
# Convention : Reuss Voigt Hill
#
# Bulk Modulus (GPa) = 67.35422 78.63708 72.99565
# Shear Modulus (GPa) = 38.54662 46.92979 42.73821
#
# Velocity S-wave (km/s) = 3.75386 4.14199 3.95269
# Velocity P-wave (km/s) = 6.58872 7.18485 6.89324
#
# Compressibility (1/GPa) = 0.01484688
#
# Stress axis : x y z
#
# Youngs Moduli (GPa) = 116.35818 95.93500 69.29572
#
# Poissons Ratio (x) = 0.26063 0.21104
# Poissons Ratio (y) = 0.31611 0.24522
# Poissons Ratio (z) = 0.35436 0.33949
#
# Static dielectric constant tensor:
#      x y z
#    x 2.299470 0.080990 0.006950 
#    y 0.080990 2.134200 -0.041640 
#    z 0.006950 -0.041640 2.379900 
# 
# From -- ./inp_files/72391.got.cif
#   From: 2010.05.17/outbox.cif.g08.bks.cpg/sg2_37_cif.got.tgz:72391.got - 2010.06.03 11:33:40.
