data_PCOD9083972
_publ_section_title
;
Structure prediction by ZEFSAII (Michael W. Deem and Ramdas Pophale) SiO2 
 PCOD9083972
Probable space group: P -1
;
_chemical_formula_sum "Si O2"
_cell_formula_units_Z 12
_cell_length_a 19.259562
_cell_length_b 11.680873
_cell_length_c 19.858295
_cell_angle_alpha 158.250995
_cell_angle_beta 21.253973
_cell_angle_gamma 148.547766
_cell_volume 597.451980
_symmetry_space_group_name_H-M "P -1"
_symmetry_group_IT_number 2
_symmetry_cell_setting 'triclinic'
loop_
_space_group_symop_operation_xyz
x,y,z
-x,-y,-z
loop_
_atom_site_type_symbol
_atom_site_label
_atom_site_fract_x
_atom_site_fract_y
_atom_site_fract_z
Si Si1 0.685151 0.882321 0.078038
Si Si2 0.909407 0.616421 0.433786
Si Si3 0.074259 0.600914 0.559739
Si Si4 0.431151 0.768879 0.493437
Si Si5 0.295687 0.755886 0.097972
Si Si6 0.517993 0.662366 0.980291
O O1 0.597653 0.902480 0.092694
O O2 0.585266 0.097075 0.343310
O O3 0.639204 0.532800 0.949070
O O4 0.916679 0.888533 0.875632
O O5 0.942422 0.642370 0.497758
O O6 0.780658 0.330683 0.386566
O O7 0.113202 0.584014 0.194641
O O8 0.789001 0.920928 0.680150
O O9 0.000000 0.500000 0.500000
O O10 0.302962 0.591922 0.338820
O O11 0.500000 0.000000 0.500000
O O12 0.578673 0.463137 0.186280
O O13 0.427948 0.800261 0.068139
#
# Coordination Sequence:
#
# PCOD9083972 Si02
#       6
#     2   2   2   2   2   2
#     4  10  21  35  57  90 118 146 200 252 290 340
#     4  11  23  39  62  87 123 157 200 242 293 365
#     4  10  19  34  59  87 112 152 199 240 286 345
#     4  12  22  38  61  93 117 154 199 255 294 340
#     4  11  23  40  62  87 121 164 194 237 304 356
#     4  10  19  37  58  85 114 159 195 238 293 357
#
# _framework density 20.085294999999999
#
# number of rings (size 3 to 8) (size 9 to 14) (size 15 to 20)
#    0.000    1.333    5.000    0.500    0.000    4.000 
#    0.000    0.833    0.000    2.000    0.000    0.000 
#    0.000    0.000    0.000    0.000    0.000    0.000 
#
# Total GULP energy -66897.299232 kJ/mol
# GULP energy per Si atom -5574.774936 kJ/mol
# Density = 2.003958 g / cm^3
# Si number density = 20.085295 Si / 1000 Ang^3
#
#
#
# Elastic Constant Matrix: (Units=GPa)
#
#
# Indices 1 2 3 4 5 6 
#
# 1 156.1717 24.8966 75.0800 -1.7010 2.6140 0.5248
# 2 24.8966 84.6086 19.3097 -25.5860 -0.7403 9.1052
# 3 75.0800 19.3097 102.2640 -32.2995 11.0828 7.6537
# 4 -1.7010 -25.5860 -32.2995 26.2703 -0.2024 -4.0609
# 5 2.6140 -0.7403 11.0828 -0.2024 39.1736 -8.0556
# 6 0.5248 9.1052 7.6537 -4.0609 -8.0556 17.3034
#
#
#
# Elastic Compliance Matrix: (Units=1/GPa)
#
#
# Indices 1 2 3 4 5 6 
#
# 1 0.026675 -0.019354 -0.037653 -0.060659 0.011743 0.017261
# 2 -0.019354 0.032264 0.031566 0.065817 -0.010787 -0.019928
# 3 -0.037653 0.031566 0.071393 0.111002 -0.023039 -0.031721
# 4 -0.060659 0.065817 0.111002 0.227603 -0.034052 -0.044329
# 5 0.011743 -0.010787 -0.023039 -0.034052 0.035861 0.024214
# 6 0.017261 -0.019928 -0.031721 -0.044329 0.024214 0.082655
#
#
# Mechanical properties :
#
#
# Convention : Reuss Voigt Hill
#
# Bulk Modulus (GPa) = 12.58683 64.62408 38.60546
# Shear Modulus (GPa) = 9.02824 31.46666 20.24745
#
# Velocity S-wave (km/s) = 2.12243 3.96239 3.17846
# Velocity P-wave (km/s) = 3.50522 7.29237 5.72124
#
# Compressibility (1/GPa) = 0.07944813
#
# Stress axis : x y z
#
# Youngs Moduli (GPa) = 37.48788 30.99467 14.00702
#
# Poissons Ratio (x) = 0.59988 0.52741
# Poissons Ratio (y) = 0.72555 -0.44214
# Poissons Ratio (z) = 1.41154 -0.97837
#
# Static dielectric constant tensor:
#      x y z
#    x 1.750430 0.024740 0.003770 
#    y 0.024740 1.745170 -0.050160 
#    z 0.003770 -0.050160 1.736210 
# 
# From -- ./inp_files/249607.got.cif
#   From: 2010.05.17/outbox.cif.g08.bks.cpg/sg2_125_cif.got.tgz:249607.got - 2010.06.03 11:33:40.
