data_PCOD9083056
_publ_section_title
;
Structure prediction by ZEFSAII (Michael W. Deem and Ramdas Pophale) SiO2 
 PCOD9083056
Probable space group: P -1
;
_chemical_formula_sum "Si O2"
_cell_formula_units_Z 16
_cell_length_a 12.634096
_cell_length_b 16.081464
_cell_length_c 12.196360
_cell_angle_alpha 130.890055
_cell_angle_beta 59.511551
_cell_angle_gamma 153.164271
_cell_volume 824.001324
_symmetry_space_group_name_H-M "P -1"
_symmetry_group_IT_number 2
_symmetry_cell_setting 'triclinic'
loop_
_space_group_symop_operation_xyz
x,y,z
-x,-y,-z
loop_
_atom_site_type_symbol
_atom_site_label
_atom_site_fract_x
_atom_site_fract_y
_atom_site_fract_z
Si Si1 0.372563 0.948456 0.702735
Si Si2 0.990322 0.534062 0.690457
Si Si3 0.698618 0.431894 0.360388
Si Si4 0.076391 0.705622 0.025048
Si Si5 0.361832 0.726327 0.975023
Si Si6 0.574407 0.920788 0.450874
Si Si7 0.008344 0.125682 0.467470
Si Si8 0.171826 0.018760 0.322141
O O1 0.148600 0.710880 0.665008
O O2 0.587476 0.025106 0.629338
O O3 0.444195 0.097127 0.880671
O O4 0.332839 0.965706 0.617637
O O5 0.114888 0.514546 0.643776
O O6 0.710089 0.315321 0.618488
O O7 0.013654 0.625917 0.865934
O O8 0.454703 0.246440 0.398757
O O9 0.825403 0.647373 0.467574
O O10 0.609691 0.323519 0.192556
O O11 0.295914 0.797422 0.026855
O O12 0.132731 0.876085 0.155214
O O13 0.859716 0.499789 0.039487
O O14 0.738233 0.944619 0.414908
O O15 0.099885 0.075102 0.346398
O O16 0.991655 0.116498 0.600264
#
# Coordination Sequence:
#
# PCOD9083056 Si02
#       8
#     2   2   2   2   2   2   2   2
#     4  11  21  35  57  87 119 149 184 236 291 341
#     4  11  22  36  61  91 115 148 185 238 292 341
#     4  11  21  37  62  89 116 143 190 242 290 334
#     4  10  19  35  59  87 115 145 188 237 291 335
#     4  10  19  33  61  88 115 144 180 244 299 331
#     4  11  23  37  55  83 122 155 187 228 281 343
#     4  11  24  40  58  82 117 158 192 230 276 336
#     4  11  23  40  61  84 114 152 194 235 279 340
#
# _framework density 19.417442999999999
#
# number of rings (size 3 to 8) (size 9 to 14) (size 15 to 20)
#    0.000    1.250    2.500    5.250    1.750    3.000 
#    0.000    0.625    0.000    1.500    0.000    0.000 
#    0.000    0.000    0.000    0.000    0.000    0.000 
#
# Total GULP energy -89351.617856 kJ/mol
# GULP energy per Si atom -5584.476116 kJ/mol
# Density = 1.937325 g / cm^3
# Si number density = 19.417443 Si / 1000 Ang^3
#
#
#
# Elastic Constant Matrix: (Units=GPa)
#
#
# Indices 1 2 3 4 5 6 
#
# 1 89.4190 29.5065 36.5825 21.6977 -26.9843 2.5551
# 2 29.5065 95.6041 23.6418 9.9177 -7.9868 -19.0574
# 3 36.5825 23.6418 64.5003 9.5099 -7.5538 -8.3916
# 4 21.6977 9.9177 9.5099 28.4791 -9.3336 3.0089
# 5 -26.9843 -7.9868 -7.5538 -9.3336 34.7113 0.5822
# 6 2.5551 -19.0574 -8.3916 3.0089 0.5822 28.2685
#
#
#
# Elastic Compliance Matrix: (Units=1/GPa)
#
#
# Indices 1 2 3 4 5 6 
#
# 1 0.022117 -0.004088 -0.009408 -0.007514 0.012303 -0.007001
# 2 -0.004088 0.014216 -0.001324 -0.002803 -0.001115 0.009882
# 3 -0.009408 -0.001324 0.022035 -0.001538 -0.003350 0.006732
# 4 -0.007514 -0.002803 -0.001538 0.044764 0.005326 -0.006542
# 5 0.012303 -0.001115 -0.003350 0.005326 0.038891 -0.004226
# 6 -0.007001 0.009882 0.006732 -0.006542 -0.004226 0.045452
#
#
# Mechanical properties :
#
#
# Convention : Reuss Voigt Hill
#
# Bulk Modulus (GPa) = 34.80773 47.66499 41.23636
# Shear Modulus (GPa) = 22.05642 28.94462 25.50052
#
# Velocity S-wave (km/s) = 3.37398 3.86508 3.62785
# Velocity P-wave (km/s) = 5.75702 6.67228 6.23147
#
# Compressibility (1/GPa) = 0.02872925
#
# Stress axis : x y z
#
# Youngs Moduli (GPa) = 45.21388 70.34135 45.38179
#
# Poissons Ratio (x) = 0.28755 0.42695
# Poissons Ratio (y) = 0.18483 0.06008
# Poissons Ratio (z) = 0.42537 0.09312
#
# Static dielectric constant tensor:
#      x y z
#    x 1.678270 0.003620 0.004390 
#    y 0.003620 1.713280 -0.003770 
#    z 0.004390 -0.003770 1.712720 
# 
# From -- ./inp_files/427497.got.cif
#   From: 2010.05.17/outbox.cif.g08.bks.cpg/sg2_214_cif.got.tgz:427497.got - 2010.06.03 11:33:40.
