data_PCOD9083502
_publ_section_title
;
Structure prediction by ZEFSAII (Michael W. Deem and Ramdas Pophale) SiO2 
 PCOD9083502
Probable space group: P -1
;
_chemical_formula_sum "Si O2"
_cell_formula_units_Z 16
_cell_length_a 8.694266
_cell_length_b 9.289987
_cell_length_c 16.914883
_cell_angle_alpha 60.442418
_cell_angle_beta 128.686949
_cell_angle_gamma 89.388563
_cell_volume 818.877921
_symmetry_space_group_name_H-M "P -1"
_symmetry_group_IT_number 2
_symmetry_cell_setting 'triclinic'
loop_
_space_group_symop_operation_xyz
x,y,z
-x,-y,-z
loop_
_atom_site_type_symbol
_atom_site_label
_atom_site_fract_x
_atom_site_fract_y
_atom_site_fract_z
Si Si1 0.820403 0.708584 0.987265
Si Si2 0.534730 0.982126 0.406556
Si Si3 0.020215 0.168215 0.320859
Si Si4 0.015750 0.649261 0.405041
Si Si5 0.309313 0.982520 0.718260
Si Si6 0.941084 0.731295 0.855929
Si Si7 0.533461 0.362950 0.474855
Si Si8 0.964715 0.453039 0.746030
O O1 0.911701 0.489938 0.051700
O O2 0.894597 0.705144 0.102097
O O3 0.554784 0.827500 0.864233
O O4 0.927764 0.777188 0.932325
O O5 0.722123 0.959750 0.536001
O O6 0.449891 0.829887 0.435118
O O7 0.660540 0.932786 0.376948
O O8 0.321560 0.186156 0.274535
O O9 0.982894 0.170295 0.213532
O O10 0.975010 0.376521 0.273151
O O11 0.853341 0.107950 0.323794
O O12 0.246311 0.659575 0.491859
O O13 0.015638 0.601770 0.324876
O O14 0.000000 0.500000 0.500000
O O15 0.810539 0.850372 0.303841
O O16 0.500000 0.500000 0.500000
O O17 0.291609 0.463182 0.329439
#
# Coordination Sequence:
#
# PCOD9083502 Si02
#       8
#     2   2   2   2   2   2   2   2
#     4   9  20  37  53  77 111 153 187 220 271 330
#     4  10  19  34  56  84 112 144 186 232 278 326
#     4  10  19  34  56  87 112 141 183 236 282 316
#     4  11  22  38  59  86 113 142 178 231 289 328
#     4  11  22  34  56  84 120 148 179 228 279 331
#     4   9  18  33  54  75 106 143 186 229 268 320
#     4   9  18  35  58  79 106 143 185 229 274 321
#     4   9  20  38  58  79 114 150 187 223 265 335
#
# _framework density 19.538931999999999
#
# number of rings (size 3 to 8) (size 9 to 14) (size 15 to 20)
#    0.000    2.250    0.000    3.750    0.000    4.500 
#    0.000    7.500    0.000   25.500    0.000    0.000 
#    0.000    0.000    0.000    0.000    0.000    0.000 
#
# Total GULP energy -89156.663813 kJ/mol
# GULP energy per Si atom -5572.291488 kJ/mol
# Density = 1.949446 g / cm^3
# Si number density = 19.538932 Si / 1000 Ang^3
#
#
#
# Elastic Constant Matrix: (Units=GPa)
#
#
# Indices 1 2 3 4 5 6 
#
# 1 137.6944 52.3064 51.1574 -0.3476 -3.6647 4.8979
# 2 52.3064 78.8521 42.6379 3.1957 3.6416 -5.1024
# 3 51.1574 42.6379 111.9451 -6.1647 -4.9733 -4.0539
# 4 -0.3476 3.1957 -6.1647 22.0605 -16.1503 1.2849
# 5 -3.6647 3.6416 -4.9733 -16.1503 30.0148 -0.1648
# 6 4.8979 -5.1024 -4.0539 1.2849 -0.1648 35.8687
#
#
#
# Elastic Compliance Matrix: (Units=1/GPa)
#
#
# Indices 1 2 3 4 5 6 
#
# 1 0.010698 -0.006325 -0.002263 0.003041 0.003320 -0.002710
# 2 -0.006325 0.021828 -0.006613 -0.014215 -0.012145 0.003675
# 3 -0.002263 -0.006613 0.013500 0.011035 0.008703 0.000539
# 4 0.003041 -0.014215 0.011035 0.088466 0.051503 -0.004122
# 5 0.003320 -0.012145 0.008703 0.051503 0.064335 -0.002747
# 6 -0.002710 0.003675 0.000539 -0.004122 -0.002747 0.028968
#
#
# Mechanical properties :
#
#
# Convention : Reuss Voigt Hill
#
# Bulk Modulus (GPa) = 64.00210 68.96610 66.48410
# Shear Modulus (GPa) = 18.98217 29.74812 24.36515
#
# Velocity S-wave (km/s) = 3.12028 3.90616 3.53513
# Velocity P-wave (km/s) = 6.76822 7.46442 7.12483
#
# Compressibility (1/GPa) = 0.01562449
#
# Stress axis : x y z
#
# Youngs Moduli (GPa) = 93.47204 45.81259 74.07546
#
# Poissons Ratio (x) = 0.28976 0.16765
# Poissons Ratio (y) = 0.59120 0.48984
# Poissons Ratio (z) = 0.21154 0.30295
#
# Static dielectric constant tensor:
#      x y z
#    x 1.716840 -0.031900 -0.013830 
#    y -0.031900 1.704080 0.002690 
#    z -0.013830 0.002690 1.724390 
# 
# From -- ./inp_files/269478.got.cif
#   From: 2010.05.17/outbox.cif.g08.bks.cpg/sg2_135_cif.got.tgz:269478.got - 2010.06.03 11:33:40.
