data_PCOD9083333
_publ_section_title
;
Structure prediction by ZEFSAII (Michael W. Deem and Ramdas Pophale) SiO2 
 PCOD9083333
Probable space group: P -1
;
_chemical_formula_sum "Si O2"
_cell_formula_units_Z 16
_cell_length_a 13.647693
_cell_length_b 21.740478
_cell_length_c 7.166521
_cell_angle_alpha 63.472845
_cell_angle_beta 116.637021
_cell_angle_gamma 158.172616
_cell_volume 703.726086
_symmetry_space_group_name_H-M "P -1"
_symmetry_group_IT_number 2
_symmetry_cell_setting 'triclinic'
loop_
_space_group_symop_operation_xyz
x,y,z
-x,-y,-z
loop_
_atom_site_type_symbol
_atom_site_label
_atom_site_fract_x
_atom_site_fract_y
_atom_site_fract_z
Si Si1 0.814490 0.855532 0.769493
Si Si2 0.205886 0.308126 0.969706
Si Si3 0.324557 0.989770 0.531714
Si Si4 0.805067 0.182969 0.685449
Si Si5 0.085192 0.479592 0.371228
Si Si6 0.382336 0.699411 0.701753
Si Si7 0.244777 0.307953 0.567409
Si Si8 0.352407 0.214280 0.687807
O O1 0.579882 0.748707 0.849852
O O2 0.732424 0.846590 0.518811
O O3 0.821358 0.779282 0.832620
O O4 0.114441 0.042964 0.828777
O O5 0.182777 0.273251 0.780894
O O6 0.002240 0.254410 0.892042
O O7 0.500000 0.500000 0.000000
O O8 0.304312 0.937409 0.387830
O O9 0.026939 0.820660 0.584227
O O10 0.559764 0.082286 0.707848
O O11 0.426094 0.125731 0.412187
O O12 0.965774 0.334470 0.502549
O O13 0.212063 0.574817 0.549003
O O14 0.337535 0.626112 0.251004
O O15 0.845068 0.394697 0.237912
O O16 0.500000 0.500000 0.500000
O O17 0.319627 0.275404 0.614140
#
# Coordination Sequence:
#
# PCOD9083333 Si02
#       8
#     2   2   2   2   2   2   2   2
#     4  10  20  34  57  80 116 148 187 236 284 341
#     4  11  22  37  57  84 117 155 190 235 289 351
#     4   9  17  32  54  84 107 142 196 236 276 338
#     4   9  18  33  54  81 111 147 189 235 281 337
#     4   9  17  30  55  81 111 142 191 234 277 339
#     4   9  16  31  52  84 107 147 189 232 276 338
#     4  11  21  35  59  85 114 149 194 242 289 339
#     4  10  19  34  54  86 110 147 191 236 284 332
#
# _framework density 22.73612
#
# number of rings (size 3 to 8) (size 9 to 14) (size 15 to 20)
#    0.000    2.250    1.250    3.750    0.000    0.500 
#    0.000    0.000    2.750    2.250    0.000    0.000 
#    0.000    0.000    0.000    0.000    0.000    0.000 
#
# Total GULP energy -89168.127371 kJ/mol
# GULP energy per Si atom -5573.007961 kJ/mol
# Density = 2.268437 g / cm^3
# Si number density = 22.736120 Si / 1000 Ang^3
#
#
#
# Elastic Constant Matrix: (Units=GPa)
#
#
# Indices 1 2 3 4 5 6 
#
# 1 111.7858 58.0189 15.5767 8.2021 33.5448 24.7806
# 2 58.0189 160.5542 21.9797 1.3418 33.8850 23.4355
# 3 15.5767 21.9797 51.2576 16.5389 16.2202 11.6364
# 4 8.2021 1.3418 16.5389 27.1181 1.9056 14.2127
# 5 33.5448 33.8850 16.2202 1.9056 36.9326 12.9428
# 6 24.7806 23.4355 11.6364 14.2127 12.9428 70.9579
#
#
#
# Elastic Compliance Matrix: (Units=1/GPa)
#
#
# Indices 1 2 3 4 5 6 
#
# 1 0.013776 -0.002854 0.001655 -0.003481 -0.009866 -0.001643
# 2 -0.002854 0.008563 -0.002102 0.002680 -0.004028 -0.001289
# 3 0.001655 -0.002102 0.029202 -0.017941 -0.011853 0.001083
# 4 -0.003481 0.002680 -0.017941 0.052792 0.008991 -0.008942
# 5 -0.009866 -0.004028 -0.011853 0.008991 0.045670 -0.003412
# 6 -0.001643 -0.001289 0.001083 -0.008942 -0.003412 0.017328
#
#
# Mechanical properties :
#
#
# Convention : Reuss Voigt Hill
#
# Bulk Modulus (GPa) = 22.25195 57.19425 39.72310
# Shear Modulus (GPa) = 26.46708 42.20322 34.33515
#
# Velocity S-wave (km/s) = 3.41559 4.31306 3.89029
# Velocity P-wave (km/s) = 5.03620 7.07203 6.13909
#
# Compressibility (1/GPa) = 0.04493989
#
# Stress axis : x y z
#
# Youngs Moduli (GPa) = 72.58765 116.77670 34.24459
#
# Poissons Ratio (x) = 0.33326 -0.05669
# Poissons Ratio (y) = 0.20715 0.07199
# Poissons Ratio (z) = -0.12016 0.24551
#
# Static dielectric constant tensor:
#      x y z
#    x 1.766420 0.203790 -0.007110 
#    y 0.203790 1.693890 0.011290 
#    z -0.007110 0.011290 1.931790 
# 
# From -- ./inp_files/270230.got.cif
#   From: 2010.05.17/outbox.cif.g08.bks.cpg/sg2_136_cif.got.tgz:270230.got - 2010.06.03 11:33:40.
