data_PCOD9083183
_publ_section_title
;
Structure prediction by ZEFSAII (Michael W. Deem and Ramdas Pophale) SiO2 
 PCOD9083183
Probable space group: P -1
;
_chemical_formula_sum "Si O2"
_cell_formula_units_Z 14
_cell_length_a 17.706595
_cell_length_b 16.264522
_cell_length_c 17.686506
_cell_angle_alpha 33.225362
_cell_angle_beta 16.843534
_cell_angle_gamma 33.124426
_cell_volume 786.607562
_symmetry_space_group_name_H-M "P -1"
_symmetry_group_IT_number 2
_symmetry_cell_setting 'triclinic'
loop_
_space_group_symop_operation_xyz
x,y,z
-x,-y,-z
loop_
_atom_site_type_symbol
_atom_site_label
_atom_site_fract_x
_atom_site_fract_y
_atom_site_fract_z
Si Si1 0.409391 0.183829 0.931487
Si Si2 0.872990 0.355606 0.400513
Si Si3 0.182046 0.198553 0.690080
Si Si4 0.981677 0.463576 0.375302
Si Si5 0.732288 0.584547 0.235135
Si Si6 0.651521 0.140226 0.164436
Si Si7 0.444795 0.603112 0.049999
O O1 0.636282 0.267892 0.680148
O O2 0.353388 0.244080 0.851114
O O3 0.136357 0.256417 0.182542
O O4 0.500000 0.000000 0.000000
O O5 0.794232 0.527777 0.305645
O O6 0.931454 0.373769 0.418211
O O7 0.399344 0.198011 0.416717
O O8 0.132430 0.353632 0.665521
O O9 0.287515 0.043717 0.755468
O O10 0.906879 0.185496 0.923597
O O11 0.815247 0.419555 0.639317
O O12 0.293184 0.437076 0.118200
O O13 0.500000 0.500000 0.500000
O O14 0.000000 0.500000 0.000000
O O15 0.599768 0.223203 0.070595
O O16 0.500000 0.500000 0.000000
#
# Coordination Sequence:
#
# PCOD9083183 Si02
#       7
#     2   2   2   2   2   2   2
#     4  10  19  36  62  85 109 142 181 217 264 330
#     4  10  21  36  53  84 113 144 178 223 274 326
#     4  10  19  34  52  75  98 139 174 231 273 314
#     4  12  22  35  55  78 114 143 182 234 282 313
#     4   8  16  32  55  78 104 138 177 207 251 327
#     4  10  20  33  53  74 101 130 193 229 259 316
#     4  12  21  35  55  81 104 149 193 231 269 327
#
# _framework density 17.797947000000001
#
# number of rings (size 3 to 8) (size 9 to 14) (size 15 to 20)
#    0.000    1.714    2.857    2.571    0.000    0.000 
#    0.000    2.857    0.000    0.000    0.000    0.000 
#    0.000    0.000    0.000    0.000    0.000    0.000 
#
# Total GULP energy -78042.550449 kJ/mol
# GULP energy per Si atom -5574.467889 kJ/mol
# Density = 1.775744 g / cm^3
# Si number density = 17.797947 Si / 1000 Ang^3
#
#
#
# Elastic Constant Matrix: (Units=GPa)
#
#
# Indices 1 2 3 4 5 6 
#
# 1 46.6382 16.1096 -12.0287 -4.8378 -0.9682 -3.8496
# 2 16.1096 101.6375 3.5608 -13.5190 4.4578 -22.8886
# 3 -12.0287 3.5608 86.3717 5.0622 -10.0800 1.2808
# 4 -4.8378 -13.5190 5.0622 34.2080 -12.9570 1.0269
# 5 -0.9682 4.4578 -10.0800 -12.9570 26.4378 -2.0320
# 6 -3.8496 -22.8886 1.2808 1.0269 -2.0320 21.8034
#
#
#
# Elastic Compliance Matrix: (Units=1/GPa)
#
#
# Indices 1 2 3 4 5 6 
#
# 1 0.024148 -0.003636 0.003852 0.003108 0.004527 0.000496
# 2 -0.003636 0.014358 -0.001557 0.005139 0.000472 0.014325
# 3 0.003852 -0.001557 0.012802 0.000046 0.005213 -0.001223
# 4 0.003108 0.005139 0.000046 0.038574 0.018620 0.005860
# 5 0.004527 0.000472 0.005213 0.018620 0.049386 0.004714
# 6 0.000496 0.014325 -0.001223 0.005860 0.004714 0.061225
#
#
# Mechanical properties :
#
#
# Convention : Reuss Voigt Hill
#
# Bulk Modulus (GPa) = 20.56462 27.77010 24.16736
# Shear Modulus (GPa) = 22.79102 31.62357 27.20729
#
# Velocity S-wave (km/s) = 3.58235 4.21980 3.91407
# Velocity P-wave (km/s) = 5.35635 6.27528 5.83394
#
# Compressibility (1/GPa) = 0.04862720
#
# Stress axis : x y z
#
# Youngs Moduli (GPa) = 41.41073 69.64526 78.11079
#
# Poissons Ratio (x) = 0.25322 -0.30087
# Poissons Ratio (y) = 0.15057 0.12161
# Poissons Ratio (z) = -0.15951 0.10843
#
# Static dielectric constant tensor:
#      x y z
#    x 1.603370 -0.043030 0.014260 
#    y -0.043030 1.630500 -0.013670 
#    z 0.014260 -0.013670 1.606050 
# 
# From -- ./inp_files/35093.got.cif
#   From: 2010.05.17/outbox.cif.g08.bks.cpg/sg2_18_cif.got.tgz:35093.got - 2010.06.03 11:33:40.
