data_PCOD9083231
_publ_section_title
;
Structure prediction by ZEFSAII (Michael W. Deem and Ramdas Pophale) SiO2 
 PCOD9083231
Probable space group: P -1
;
_chemical_formula_sum "Si O2"
_cell_formula_units_Z 16
_cell_length_a 18.878407
_cell_length_b 9.414666
_cell_length_c 18.640962
_cell_angle_alpha 128.480273
_cell_angle_beta 22.784887
_cell_angle_gamma 140.772521
_cell_volume 752.068321
_symmetry_space_group_name_H-M "P -1"
_symmetry_group_IT_number 2
_symmetry_cell_setting 'triclinic'
loop_
_space_group_symop_operation_xyz
x,y,z
-x,-y,-z
loop_
_atom_site_type_symbol
_atom_site_label
_atom_site_fract_x
_atom_site_fract_y
_atom_site_fract_z
Si Si1 0.580171 0.480072 0.117685
Si Si2 0.658881 0.218044 0.861695
Si Si3 0.450758 0.544184 0.637977
Si Si4 0.143891 0.465052 0.705271
Si Si5 0.964036 0.976952 0.111370
Si Si6 0.802748 0.473347 0.491484
Si Si7 0.603649 0.184679 0.129886
Si Si8 0.530916 0.966689 0.544529
O O1 0.325519 0.417748 0.344307
O O2 0.620728 0.363782 0.110259
O O3 0.599845 0.381877 0.994508
O O4 0.785473 0.771870 0.016673
O O5 0.947858 0.379324 0.651648
O O6 0.569939 0.080178 0.826075
O O7 0.500000 0.000000 0.000000
O O8 0.500000 0.500000 0.500000
O O9 0.661023 0.570505 0.492457
O O10 0.482677 0.771141 0.703738
O O11 0.168689 0.302069 0.838831
O O12 0.122476 0.508593 0.655763
O O13 0.277049 0.695030 0.706154
O O14 0.864886 0.262876 0.924235
O O15 0.756441 0.976814 0.334412
O O16 0.000000 0.000000 0.000000
O O17 0.603560 0.181665 0.593949
O O18 0.500000 0.000000 0.500000
#
# Coordination Sequence:
#
# PCOD9083231 Si02
#       8
#     2   2   2   2   2   2   2   2
#     4  11  19  31  54  88 110 145 184 233 283 328
#     4  10  21  33  49  83 123 150 183 228 287 344
#     4  11  25  39  56  85 117 151 191 233 286 338
#     4  10  19  34  53  79 111 153 184 227 284 343
#     4  11  18  33  57  82 113 144 182 239 283 331
#     4  11  18  30  52  86 119 143 183 236 287 330
#     4  11  21  36  57  78 122 151 187 228 287 339
#     4   9  17  27  47  80 116 136 177 228 280 328
#
# _framework density 21.274663
#
# number of rings (size 3 to 8) (size 9 to 14) (size 15 to 20)
#    0.000    1.500    6.250    2.250    1.750    3.500 
#    0.000    0.000    0.000    0.750    0.000    1.750 
#    0.000    0.000    0.000    0.000    0.000    0.000 
#
# Total GULP energy -89116.177816 kJ/mol
# GULP energy per Si atom -5569.761114 kJ/mol
# Density = 2.122624 g / cm^3
# Si number density = 21.274663 Si / 1000 Ang^3
#
#
#
# Elastic Constant Matrix: (Units=GPa)
#
#
# Indices 1 2 3 4 5 6 
#
# 1 22.5367 23.9540 7.5335 -2.7705 7.6780 16.2418
# 2 23.9540 152.8669 61.6639 -1.4825 -4.5095 44.3339
# 3 7.5335 61.6639 110.9898 1.8229 -13.1320 18.2814
# 4 -2.7705 -1.4825 1.8229 35.9860 7.8884 -2.2858
# 5 7.6780 -4.5095 -13.1320 7.8884 25.1258 4.2940
# 6 16.2418 44.3339 18.2814 -2.2858 4.2940 32.0781
#
#
#
# Elastic Compliance Matrix: (Units=1/GPa)
#
#
# Indices 1 2 3 4 5 6 
#
# 1 0.080136 -0.003673 -0.001206 0.009232 -0.023374 -0.031024
# 2 -0.003673 0.013122 -0.004108 -0.001397 0.004265 -0.014605
# 3 -0.001206 -0.004108 0.012644 -0.002666 0.007436 -0.002103
# 4 0.009232 -0.001397 -0.002666 0.032074 -0.015061 0.003077
# 5 -0.023374 0.004265 0.007436 -0.015061 0.057532 -0.007073
# 6 -0.031024 -0.014605 -0.002103 0.003077 -0.007073 0.069433
#
#
# Mechanical properties :
#
#
# Convention : Reuss Voigt Hill
#
# Bulk Modulus (GPa) = 11.37284 52.52182 31.94733
# Shear Modulus (GPa) = 16.01414 31.52076 23.76745
#
# Velocity S-wave (km/s) = 2.74657 3.85335 3.34604
# Velocity P-wave (km/s) = 3.92626 6.67374 5.47514
#
# Compressibility (1/GPa) = 0.08792882
#
# Stress axis : x y z
#
# Youngs Moduli (GPa) = 12.47876 76.20534 79.08875
#
# Poissons Ratio (x) = 0.27993 0.09535
# Poissons Ratio (y) = 0.04584 0.32489
# Poissons Ratio (z) = 0.01504 0.31305
#
# Static dielectric constant tensor:
#      x y z
#    x 1.977180 0.001660 0.132960 
#    y 0.001660 1.848820 0.014510 
#    z 0.132960 0.014510 1.777260 
# 
# From -- ./inp_files/349710.got.cif
#   From: 2010.05.17/outbox.cif.g08.bks.cpg/sg2_175_cif.got.tgz:349710.got - 2010.06.03 11:33:40.
