data_PCOD9083336
_publ_section_title
;
Structure prediction by ZEFSAII (Michael W. Deem and Ramdas Pophale) SiO2 
 PCOD9083336
Probable space group: P -1
;
_chemical_formula_sum "Si O2"
_cell_formula_units_Z 14
_cell_length_a 14.543062
_cell_length_b 8.847346
_cell_length_c 13.554933
_cell_angle_alpha 65.110895
_cell_angle_beta 150.818689
_cell_angle_gamma 95.076005
_cell_volume 598.594397
_symmetry_space_group_name_H-M "P -1"
_symmetry_group_IT_number 2
_symmetry_cell_setting 'triclinic'
loop_
_space_group_symop_operation_xyz
x,y,z
-x,-y,-z
loop_
_atom_site_type_symbol
_atom_site_label
_atom_site_fract_x
_atom_site_fract_y
_atom_site_fract_z
Si Si1 0.264974 0.988812 0.318678
Si Si2 0.506792 0.544040 0.628191
Si Si3 0.338755 0.965509 0.794788
Si Si4 0.144777 0.912053 0.962226
Si Si5 0.183267 0.752874 0.833548
Si Si6 0.434821 0.049332 0.661845
Si Si7 0.922194 0.467401 0.828295
O O1 0.431347 0.772710 0.470505
O O2 0.065106 0.974512 0.184799
O O3 0.397460 0.983409 0.540795
O O4 0.145400 0.213515 0.091735
O O5 0.707822 0.466779 0.584985
O O6 0.627898 0.471984 0.870632
O O7 0.719814 0.340968 0.819607
O O8 0.447830 0.914495 0.801250
O O9 0.054063 0.178344 0.463873
O O10 0.329276 0.792791 0.886783
O O11 0.500000 0.000000 0.000000
O O12 0.076985 0.921176 0.781134
O O13 0.333428 0.957767 0.123887
O O14 0.190621 0.297212 0.385242
O O15 0.000000 0.500000 0.000000
#
# Coordination Sequence:
#
# PCOD9083336 Si02
#       7
#     2   2   2   2   2   2   2
#     4  11  20  36  61  80 119 155 186 236 284 329
#     4   9  19  38  56  84 119 148 190 237 280 339
#     4  11  17  33  63  84 109 152 189 237 287 338
#     4   9  19  37  55  83 111 149 190 228 281 339
#     4   9  20  34  57  88 108 148 195 226 288 343
#     4  10  19  34  54  86 115 146 196 237 278 337
#     4   9  19  34  58  88 112 154 194 228 281 340
#
# _framework density 23.388126
#
# number of rings (size 3 to 8) (size 9 to 14) (size 15 to 20)
#    0.857    1.429    2.857    0.429    0.000    2.286 
#    0.000    9.286    0.000   15.429    0.000    0.000 
#    0.000    0.000    0.000    0.000    0.000    0.000 
#
# Total GULP energy -77991.614085 kJ/mol
# GULP energy per Si atom -5570.829578 kJ/mol
# Density = 2.333489 g / cm^3
# Si number density = 23.388126 Si / 1000 Ang^3
#
#
#
# Elastic Constant Matrix: (Units=GPa)
#
#
# Indices 1 2 3 4 5 6 
#
# 1 86.8896 11.1346 25.9916 1.7649 2.7986 15.9196
# 2 11.1346 110.6608 47.7142 12.2824 9.1438 -0.8741
# 3 25.9916 47.7142 95.3684 29.7990 -8.9764 5.2455
# 4 1.7649 12.2824 29.7990 46.8570 4.9383 2.8619
# 5 2.7986 9.1438 -8.9764 4.9383 27.1819 9.7115
# 6 15.9196 -0.8741 5.2455 2.8619 9.7115 30.3287
#
#
#
# Elastic Compliance Matrix: (Units=1/GPa)
#
#
# Indices 1 2 3 4 5 6 
#
# 1 0.014015 0.000343 -0.004667 0.002881 -0.001343 -0.006381
# 2 0.000343 0.013291 -0.008763 0.002804 -0.009518 0.004502
# 3 -0.004667 -0.008763 0.021741 -0.012594 0.014713 -0.005086
# 4 0.002881 0.002804 -0.012594 0.029606 -0.011344 0.001585
# 5 -0.001343 -0.009518 0.014713 -0.011344 0.053548 -0.018190
# 6 -0.006381 0.004502 -0.005086 0.001585 -0.018190 0.043006
#
#
# Mechanical properties :
#
#
# Convention : Reuss Voigt Hill
#
# Bulk Modulus (GPa) = 43.71848 51.39996 47.55922
# Shear Modulus (GPa) = 23.92279 34.74538 29.33409
#
# Velocity S-wave (km/s) = 3.20169 3.85853 3.54535
# Velocity P-wave (km/s) = 5.69218 6.47114 6.09412
#
# Compressibility (1/GPa) = 0.02287362
#
# Stress axis : x y z
#
# Youngs Moduli (GPa) = 71.35298 75.23728 45.99512
#
# Poissons Ratio (x) = -0.02579 0.21465
# Poissons Ratio (y) = -0.02446 0.40305
# Poissons Ratio (z) = 0.33300 0.65930
#
# Static dielectric constant tensor:
#      x y z
#    x 1.911500 0.013310 0.026800 
#    y 0.013310 1.871020 0.040480 
#    z 0.026800 0.040480 1.987140 
# 
# From -- ./inp_files/528315.got.cif
#   From: 2010.05.17/outbox.cif.g08.bks.cpg/sg2_265_cif.got.tgz:528315.got - 2010.06.03 11:33:40.
