data_PCOD9083916
_publ_section_title
;
Structure prediction by ZEFSAII (Michael W. Deem and Ramdas Pophale) SiO2 
 PCOD9083916
Probable space group: P -1
;
_chemical_formula_sum "Si O2"
_cell_formula_units_Z 16
_cell_length_a 9.194951
_cell_length_b 12.592014
_cell_length_c 11.316394
_cell_angle_alpha 32.981956
_cell_angle_beta 84.095078
_cell_angle_gamma 97.155343
_cell_volume 653.478059
_symmetry_space_group_name_H-M "P -1"
_symmetry_group_IT_number 2
_symmetry_cell_setting 'triclinic'
loop_
_space_group_symop_operation_xyz
x,y,z
-x,-y,-z
loop_
_atom_site_type_symbol
_atom_site_label
_atom_site_fract_x
_atom_site_fract_y
_atom_site_fract_z
Si Si1 0.445040 0.183605 0.289824
Si Si2 0.230869 0.644641 0.988134
Si Si3 0.490661 0.630838 0.526286
Si Si4 0.643056 0.081754 0.043930
Si Si5 0.268391 0.500394 0.448998
Si Si6 0.665132 0.082233 0.676037
Si Si7 0.971187 0.757376 0.460917
Si Si8 0.120441 0.983542 0.604898
O O1 0.615871 0.370342 0.076856
O O2 0.298272 0.162140 0.404989
O O3 0.500000 0.000000 0.500000
O O4 0.358194 0.092841 0.257509
O O5 0.302538 0.823554 0.917915
O O6 0.137560 0.757083 0.812044
O O7 0.118083 0.432232 0.260796
O O8 0.352161 0.507090 0.560596
O O9 0.598097 0.498940 0.661157
O O10 0.406709 0.739653 0.520688
O O11 0.629181 0.842977 0.260318
O O12 0.454416 0.033002 0.100427
O O13 0.742351 0.272265 0.775098
O O14 0.106320 0.323828 0.583720
O O15 0.844878 0.192058 0.593035
O O16 0.941893 0.961600 0.318055
O O17 0.000000 0.000000 0.500000
#
# Coordination Sequence:
#
# PCOD9083916 Si02
#       8
#     2   2   2   2   2   2   2   2
#     4   9  18  36  57  75 103 143 180 211 263 318
#     4   9  20  37  55  78 107 140 180 217 259 319
#     4   9  19  34  58  79 107 140 178 219 266 308
#     4   8  17  35  57  75 107 142 175 210 266 315
#     4  10  19  34  59  82 102 137 188 217 254 328
#     4   9  19  36  52  77 113 139 168 224 269 310
#     4  11  22  36  53  83 109 137 179 220 269 314
#     4  11  21  36  57  77 109 141 173 223 269 308
#
# _framework density 24.484373000000001
#
# number of rings (size 3 to 8) (size 9 to 14) (size 15 to 20)
#    0.750    1.750    1.250    1.125    1.750    1.500 
#    2.250    0.000    0.000    1.500    0.000    0.000 
#    0.000    0.000    0.000    0.000    0.000    0.000 
#
# Total GULP energy -89142.137419 kJ/mol
# GULP energy per Si atom -5571.383589 kJ/mol
# Density = 2.442865 g / cm^3
# Si number density = 24.484373 Si / 1000 Ang^3
#
#
#
# Elastic Constant Matrix: (Units=GPa)
#
#
# Indices 1 2 3 4 5 6 
#
# 1 138.1336 5.2700 25.0929 -0.3336 -10.9984 7.0495
# 2 5.2700 50.2851 -9.9925 -7.9879 -1.8163 3.7346
# 3 25.0929 -9.9925 49.1088 -7.9124 -0.2433 -0.1578
# 4 -0.3336 -7.9879 -7.9124 25.5312 0.5681 -0.9457
# 5 -10.9984 -1.8163 -0.2433 0.5681 27.4720 -0.3967
# 6 7.0495 3.7346 -0.1578 -0.9457 -0.3967 43.4731
#
#
#
# Elastic Compliance Matrix: (Units=1/GPa)
#
#
# Indices 1 2 3 4 5 6 
#
# 1 0.008574 -0.002069 -0.005152 -0.002251 0.003279 -0.001250
# 2 -0.002069 0.023173 0.007288 0.009417 0.000553 -0.001419
# 3 -0.005152 0.007288 0.026143 0.010368 -0.001556 0.000516
# 4 -0.002251 0.009417 0.010368 0.045344 -0.001116 0.000570
# 5 0.003279 0.000553 -0.001556 -0.001116 0.037755 -0.000265
# 6 -0.001250 -0.001419 0.000516 0.000570 -0.000265 0.023339
#
#
# Mechanical properties :
#
#
# Convention : Reuss Voigt Hill
#
# Bulk Modulus (GPa) = 17.23470 30.91870 24.07670
# Shear Modulus (GPa) = 27.24270 33.77239 30.50754
#
# Velocity S-wave (km/s) = 3.33927 3.71798 3.53370
# Velocity P-wave (km/s) = 4.68209 5.57553 5.14823
#
# Compressibility (1/GPa) = 0.05802248
#
# Stress axis : x y z
#
# Youngs Moduli (GPa) = 116.63641 43.15410 38.25125
#
# Poissons Ratio (x) = 0.08927 0.19708
# Poissons Ratio (y) = 0.24129 -0.27876
# Poissons Ratio (z) = 0.60094 -0.31449
#
# Static dielectric constant tensor:
#      x y z
#    x 1.928460 -0.002240 0.022040 
#    y -0.002240 2.077400 0.032410 
#    z 0.022040 0.032410 1.984180 
# 
# From -- ./inp_files/502532.got.cif
#   From: 2010.05.17/outbox.cif.g08.bks.cpg/sg2_252_cif.got.tgz:502532.got - 2010.06.03 11:33:40.
