data_PCOD9083540
_publ_section_title
;
Structure prediction by ZEFSAII (Michael W. Deem and Ramdas Pophale) SiO2 
 PCOD9083540
Probable space group: P -1
;
_chemical_formula_sum "Si O2"
_cell_formula_units_Z 16
_cell_length_a 6.968826
_cell_length_b 14.466450
_cell_length_c 16.153296
_cell_angle_alpha 37.401601
_cell_angle_beta 102.335276
_cell_angle_gamma 128.623420
_cell_volume 621.246621
_symmetry_space_group_name_H-M "P -1"
_symmetry_group_IT_number 2
_symmetry_cell_setting 'triclinic'
loop_
_space_group_symop_operation_xyz
x,y,z
-x,-y,-z
loop_
_atom_site_type_symbol
_atom_site_label
_atom_site_fract_x
_atom_site_fract_y
_atom_site_fract_z
Si Si1 0.648981 0.990525 0.448297
Si Si2 0.144294 0.235052 0.749363
Si Si3 0.367193 0.666690 0.372465
Si Si4 0.775781 0.074932 0.229729
Si Si5 0.006108 0.575618 0.646457
Si Si6 0.907483 0.034852 0.584318
Si Si7 0.377291 0.494297 0.907153
Si Si8 0.445293 0.303832 0.896700
O O1 0.736976 0.134657 0.271274
O O2 0.952282 0.112997 0.436657
O O3 0.348022 0.713843 0.590559
O O4 0.500000 0.000000 0.500000
O O5 0.210713 0.436319 0.571422
O O6 0.320826 0.217216 0.720295
O O7 0.308083 0.314646 0.797192
O O8 0.796414 0.974502 0.910586
O O9 0.467420 0.857877 0.307512
O O10 0.164516 0.592967 0.328101
O O11 0.892832 0.979366 0.345880
O O12 0.017791 0.291239 0.036315
O O13 0.770592 0.431308 0.804383
O O14 0.050926 0.785948 0.487671
O O15 0.573886 0.763809 0.732735
O O16 0.439783 0.412965 0.897029
O O17 0.500000 0.500000 0.000000
#
# Coordination Sequence:
#
# PCOD9083540 Si02
#       8
#     2   2   2   2   2   2   2   2
#     4  10  24  41  58  83 121 162 198 236 296 360
#     4   9  18  32  56  92 119 151 188 250 290 346
#     4  10  19  35  61  90 119 148 200 242 299 342
#     4  11  21  39  64  89 115 151 201 255 288 338
#     4  10  23  39  59  88 125 159 190 237 301 358
#     4  10  22  39  62  88 114 155 203 241 289 347
#     4  10  23  33  58  92 117 147 196 255 288 335
#     4  10  19  34  56  86 126 149 192 242 300 340
#
# _framework density 25.754667000000001
#
# number of rings (size 3 to 8) (size 9 to 14) (size 15 to 20)
#    0.000    2.000    1.250    2.625   12.250    0.500 
#    0.000    3.750    0.000    1.500    0.000    0.000 
#    0.000    0.000    0.000    0.000    0.000    0.000 
#
# Total GULP energy -89394.652959 kJ/mol
# GULP energy per Si atom -5587.165810 kJ/mol
# Density = 2.569605 g / cm^3
# Si number density = 25.754667 Si / 1000 Ang^3
#
#
#
# Elastic Constant Matrix: (Units=GPa)
#
#
# Indices 1 2 3 4 5 6 
#
# 1 63.0148 17.2125 14.3512 8.6700 -10.1375 0.9459
# 2 17.2125 164.6944 38.6966 19.2373 3.7780 -5.8598
# 3 14.3512 38.6966 129.2091 -0.1184 -21.7181 1.0625
# 4 8.6700 19.2373 -0.1184 41.4736 -2.5342 -12.6274
# 5 -10.1375 3.7780 -21.7181 -2.5342 34.4563 7.0053
# 6 0.9459 -5.8598 1.0625 -12.6274 7.0053 37.7326
#
#
#
# Elastic Compliance Matrix: (Units=1/GPa)
#
#
# Indices 1 2 3 4 5 6 
#
# 1 0.017817 -0.001529 -0.000602 -0.003558 0.005348 -0.002851
# 2 -0.001529 0.007293 -0.002573 -0.003014 -0.003264 0.000841
# 3 -0.000602 -0.002573 0.009701 0.001310 0.006610 -0.001446
# 4 -0.003558 -0.003014 0.001310 0.029097 0.000368 0.009253
# 5 0.005348 -0.003264 0.006610 0.000368 0.036674 -0.007513
# 6 -0.002851 0.000841 -0.001446 0.009253 -0.007513 0.031236
#
#
# Mechanical properties :
#
#
# Convention : Reuss Voigt Hill
#
# Bulk Modulus (GPa) = 39.36463 55.27097 47.31780
# Shear Modulus (GPa) = 33.40161 41.84304 37.62233
#
# Velocity S-wave (km/s) = 3.60518 4.03510 3.82618
# Velocity P-wave (km/s) = 5.71379 6.57393 6.15889
#
# Compressibility (1/GPa) = 0.02540352
#
# Stress axis : x y z
#
# Youngs Moduli (GPa) = 56.12684 137.11919 103.08426
#
# Poissons Ratio (x) = 0.20968 0.06204
# Poissons Ratio (y) = 0.08583 0.26519
# Poissons Ratio (z) = 0.03378 0.35274
#
# Static dielectric constant tensor:
#      x y z
#    x 2.258850 0.081380 0.009190 
#    y 0.081380 2.059870 0.055120 
#    z 0.009190 0.055120 2.177680 
# 
# From -- ./inp_files/397774.got.cif
#   From: 2010.05.17/outbox.cif.g08.bks.cpg/sg2_199_cif.got.tgz:397774.got - 2010.06.03 11:33:40.
