data_PCOD9083115
_publ_section_title
;
Structure prediction by ZEFSAII (Michael W. Deem and Ramdas Pophale) SiO2 
 PCOD9083115
Probable space group: P -1
;
_chemical_formula_sum "Si O2"
_cell_formula_units_Z 14
_cell_length_a 15.577537
_cell_length_b 11.761821
_cell_length_c 5.769139
_cell_angle_alpha 82.646682
_cell_angle_beta 121.443684
_cell_angle_gamma 57.642575
_cell_volume 628.537849
_symmetry_space_group_name_H-M "P -1"
_symmetry_group_IT_number 2
_symmetry_cell_setting 'triclinic'
loop_
_space_group_symop_operation_xyz
x,y,z
-x,-y,-z
loop_
_atom_site_type_symbol
_atom_site_label
_atom_site_fract_x
_atom_site_fract_y
_atom_site_fract_z
Si Si1 0.106345 0.271309 0.654716
Si Si2 0.845489 0.587745 0.662753
Si Si3 0.835557 0.135095 0.144935
Si Si4 0.548735 0.902973 0.343582
Si Si5 0.892183 0.324924 0.020037
Si Si6 0.165133 0.061143 0.183213
Si Si7 0.659881 0.092157 0.131813
O O1 0.853780 0.634348 0.402215
O O2 0.957401 0.347488 0.316443
O O3 0.226544 0.093940 0.751623
O O4 0.122395 0.211974 0.950084
O O5 0.717445 0.749077 0.585071
O O6 0.828392 0.466294 0.710199
O O7 0.000000 0.500000 0.000000
O O8 0.799754 0.294190 0.986716
O O9 0.723024 0.166424 0.151154
O O10 0.000000 0.000000 0.500000
O O11 0.832903 0.049348 0.950156
O O12 0.500000 0.000000 0.500000
O O13 0.478592 0.833323 0.224168
O O14 0.500000 0.000000 0.000000
O O15 0.032464 0.154007 0.145629
O O16 0.319526 0.943448 0.555424
#
# Coordination Sequence:
#
# PCOD9083115 Si02
#       7
#     2   2   2   2   2   2   2
#     4   9  18  35  58  94 133 173 221 283 345 404
#     4  10  23  45  67 102 142 178 230 299 360 420
#     4  11  19  34  60  97 135 181 235 291 334 415
#     4  12  28  49  75 103 142 190 241 290 359 439
#     4  10  20  35  57  95 137 176 226 284 357 399
#     4  10  19  33  63  95 139 174 237 286 347 405
#     4  10  22  36  64  95 127 175 234 285 338 411
#
# _framework density 22.273917000000001
#
# number of rings (size 3 to 8) (size 9 to 14) (size 15 to 20)
#    0.000    1.714    5.714    0.429    4.000    0.571 
#    5.143    0.714    0.000    0.857    0.000    0.000 
#    0.000    0.000    0.000    0.000    0.000    0.000 
#
# Total GULP energy -77985.647831 kJ/mol
# GULP energy per Si atom -5570.403417 kJ/mol
# Density = 2.222322 g / cm^3
# Si number density = 22.273917 Si / 1000 Ang^3
#
#
#
# Elastic Constant Matrix: (Units=GPa)
#
#
# Indices 1 2 3 4 5 6 
#
# 1 175.7261 34.5869 55.8907 -1.9646 -25.2698 35.9449
# 2 34.5869 78.7042 35.4940 6.9704 -0.9975 2.7912
# 3 55.8907 35.4940 89.6478 17.1809 6.2300 1.8502
# 4 -1.9646 6.9704 17.1809 31.1158 3.6164 -1.6134
# 5 -25.2698 -0.9975 6.2300 3.6164 39.2196 -9.3211
# 6 35.9449 2.7912 1.8502 -1.6134 -9.3211 47.9791
#
#
#
# Elastic Compliance Matrix: (Units=1/GPa)
#
#
# Indices 1 2 3 4 5 6 
#
# 1 0.010288 -0.001483 -0.006829 0.003753 0.005883 -0.006089
# 2 -0.001483 0.015765 -0.005209 -0.000778 0.000453 0.000457
# 3 -0.006829 -0.005209 0.019595 -0.009217 -0.006040 0.003180
# 4 0.003753 -0.000778 -0.009217 0.037565 0.000132 -0.001122
# 5 0.005883 0.000453 -0.006040 0.000132 0.030665 0.001761
# 6 -0.006089 0.000457 0.003180 -0.001122 0.001761 0.025559
#
#
# Mechanical properties :
#
#
# Convention : Reuss Voigt Hill
#
# Bulk Modulus (GPa) = 53.74679 66.22456 59.98568
# Shear Modulus (GPa) = 28.95479 38.20335 33.57907
#
# Velocity S-wave (km/s) = 3.60938 4.14594 3.88693
# Velocity P-wave (km/s) = 6.44612 7.26050 6.86540
#
# Compressibility (1/GPa) = 0.01860576
#
# Stress axis : x y z
#
# Youngs Moduli (GPa) = 97.19979 63.43089 51.03237
#
# Poissons Ratio (x) = 0.09408 0.34852
# Poissons Ratio (y) = 0.14416 0.26583
# Poissons Ratio (z) = 0.66381 0.33041
#
# Static dielectric constant tensor:
#      x y z
#    x 1.972350 -0.017060 -0.045960 
#    y -0.017060 1.846120 0.046700 
#    z -0.045960 0.046700 1.977490 
# 
# From -- ./inp_files/95041.got.cif
#   From: 2010.05.17/outbox.cif.g08.bks.cpg/sg2_48_cif.got.tgz:95041.got - 2010.06.03 11:33:40.
