data_PCOD9083335
_publ_section_title
;
Structure prediction by ZEFSAII (Michael W. Deem and Ramdas Pophale) SiO2 
 PCOD9083335
Probable space group: P -1
;
_chemical_formula_sum "Si O2"
_cell_formula_units_Z 16
_cell_length_a 14.380753
_cell_length_b 9.127326
_cell_length_c 14.423156
_cell_angle_alpha 143.392180
_cell_angle_beta 40.107216
_cell_angle_gamma 142.007379
_cell_volume 648.297315
_symmetry_space_group_name_H-M "P -1"
_symmetry_group_IT_number 2
_symmetry_cell_setting 'triclinic'
loop_
_space_group_symop_operation_xyz
x,y,z
-x,-y,-z
loop_
_atom_site_type_symbol
_atom_site_label
_atom_site_fract_x
_atom_site_fract_y
_atom_site_fract_z
Si Si1 0.362997 0.021377 0.885430
Si Si2 0.550713 0.580603 0.131890
Si Si3 0.995646 0.610622 0.665288
Si Si4 0.705627 0.753445 0.379312
Si Si5 0.414617 0.213011 0.323379
Si Si6 0.207274 0.626150 0.122639
Si Si7 0.331883 0.790370 0.477786
Si Si8 0.995539 0.192074 0.927205
O O1 0.354770 0.122888 0.839641
O O2 0.457029 0.845329 0.742518
O O3 0.488104 0.312852 0.979928
O O4 0.188972 0.890369 0.999244
O O5 0.382128 0.565379 0.286843
O O6 0.683336 0.531203 0.062595
O O7 0.170313 0.658200 0.594066
O O8 0.000000 0.500000 0.500000
O O9 0.855526 0.420792 0.746528
O O10 0.986733 0.900829 0.821752
O O11 0.537176 0.511905 0.344757
O O12 0.700862 0.762687 0.498666
O O13 0.863854 0.726308 0.214459
O O14 0.708037 0.030390 0.476406
O O15 0.317303 0.956744 0.198753
O O16 0.055078 0.447536 0.083108
O O17 0.500000 0.000000 0.500000
#
# Coordination Sequence:
#
# PCOD9083335 Si02
#       8
#     2   2   2   2   2   2   2   2
#     4  10  20  33  59  82 113 149 189 240 277 344
#     4  10  19  34  54  86 115 146 189 231 290 339
#     4  11  22  35  56  86 122 152 188 235 291 349
#     4  10  22  40  61  84 115 157 200 233 284 351
#     4  10  22  41  62  81 114 162 199 231 280 353
#     4  11  22  37  59  88 119 154 187 242 298 341
#     4  11  22  35  59  88 115 146 187 243 290 338
#     4  11  22  35  57  88 118 149 191 246 294 334
#
# _framework density 24.680035
#
# number of rings (size 3 to 8) (size 9 to 14) (size 15 to 20)
#    0.000    1.500    2.500    4.125    3.500    1.000 
#    0.000    0.000    0.000    9.750    0.000    0.000 
#    0.000    0.000    0.000    0.000    0.000    0.000 
#
# Total GULP energy -89280.433887 kJ/mol
# GULP energy per Si atom -5580.027118 kJ/mol
# Density = 2.462386 g / cm^3
# Si number density = 24.680035 Si / 1000 Ang^3
#
#
#
# Elastic Constant Matrix: (Units=GPa)
#
#
# Indices 1 2 3 4 5 6 
#
# 1 25.3382 11.6676 13.6624 -6.7056 2.2627 13.3245
# 2 11.6676 111.6444 31.7347 -8.3837 -5.8920 11.5813
# 3 13.6624 31.7347 109.4661 -24.0089 1.1739 -3.8071
# 4 -6.7056 -8.3837 -24.0089 52.8326 2.3283 -6.3586
# 5 2.2627 -5.8920 1.1739 2.3283 23.7757 -0.1454
# 6 13.3245 11.5813 -3.8071 -6.3586 -0.1454 24.1869
#
#
#
# Elastic Compliance Matrix: (Units=1/GPa)
#
#
# Indices 1 2 3 4 5 6 
#
# 1 0.064491 -0.000675 -0.009114 -0.000217 -0.006058 -0.036733
# 2 -0.000675 0.010652 -0.003380 -0.000713 0.002907 -0.005431
# 3 -0.009114 -0.003380 0.012794 0.005379 -0.001067 0.010061
# 4 -0.000217 -0.000713 0.005379 0.022202 -0.002552 0.007129
# 5 -0.006058 0.002907 -0.001067 -0.002552 0.043668 0.001369
# 6 -0.036733 -0.005431 0.010061 0.007129 0.001369 0.067647
#
#
# Mechanical properties :
#
#
# Convention : Reuss Voigt Hill
#
# Bulk Modulus (GPa) = 16.23408 40.06423 28.14915
# Shear Modulus (GPa) = 18.63428 32.78464 25.70946
#
# Velocity S-wave (km/s) = 2.75077 3.64866 3.23106
# Velocity P-wave (km/s) = 4.08425 5.83258 5.03488
#
# Compressibility (1/GPa) = 0.06159881
#
# Stress axis : x y z
#
# Youngs Moduli (GPa) = 15.50609 93.88298 78.16368
#
# Poissons Ratio (x) = 0.06335 0.71236
# Poissons Ratio (y) = 0.01046 0.26421
# Poissons Ratio (z) = 0.14132 0.31734
#
# Static dielectric constant tensor:
#      x y z
#    x 2.155700 -0.045640 0.058360 
#    y -0.045640 1.958190 0.014790 
#    z 0.058360 0.014790 2.080570 
# 
# From -- ./inp_files/424205.got.cif
#   From: 2010.05.17/outbox.cif.g08.bks.cpg/sg2_213_cif.got.tgz:424205.got - 2010.06.03 11:33:40.
