data_PCOD9083109
_publ_section_title
;
Structure prediction by ZEFSAII (Michael W. Deem and Ramdas Pophale) SiO2 
 PCOD9083109
Probable space group: P -1
;
_chemical_formula_sum "Si O2"
_cell_formula_units_Z 16
_cell_length_a 10.426363
_cell_length_b 8.909750
_cell_length_c 7.908004
_cell_angle_alpha 55.286797
_cell_angle_beta 88.647253
_cell_angle_gamma 91.324407
_cell_volume 603.104602
_symmetry_space_group_name_H-M "P -1"
_symmetry_group_IT_number 2
_symmetry_cell_setting 'triclinic'
loop_
_space_group_symop_operation_xyz
x,y,z
-x,-y,-z
loop_
_atom_site_type_symbol
_atom_site_label
_atom_site_fract_x
_atom_site_fract_y
_atom_site_fract_z
Si Si1 0.668658 0.838876 0.000913
Si Si2 0.921476 0.015343 0.752875
Si Si3 0.176396 0.944584 0.636070
Si Si4 0.131924 0.513494 0.888081
Si Si5 0.688263 0.502794 0.807230
Si Si6 0.435788 0.557391 0.637391
Si Si7 0.586964 0.083421 0.160481
Si Si8 0.183597 0.599691 0.473528
O O1 0.634790 0.626217 0.171721
O O2 0.621871 0.946835 0.097459
O O3 0.565610 0.906456 0.823434
O O4 0.818452 0.889569 0.938495
O O5 0.873817 0.975585 0.587332
O O6 0.897164 0.223798 0.669677
O O7 0.073155 0.985785 0.760208
O O8 0.166290 0.728636 0.752155
O O9 0.323907 0.986095 0.648709
O O10 0.119820 0.481906 0.705552
O O11 0.231139 0.434007 0.072786
O O12 0.000000 0.500000 0.000000
O O13 0.556256 0.607879 0.719235
O O14 0.775711 0.503234 0.633278
O O15 0.640035 0.289256 0.974047
O O16 0.500000 0.500000 0.500000
O O17 0.320503 0.676402 0.501789
#
# Coordination Sequence:
#
# PCOD9083109 Si02
#       8
#     2   2   2   2   2   2   2   2
#     4  10  19  33  63  87 108 145 199 237 273 356
#     4  10  20  37  60  83 111 156 195 233 286 343
#     4   9  21  39  56  80 122 151 184 246 291 333
#     4  10  22  37  58  83 117 153 196 237 284 348
#     4   9  18  39  58  83 117 150 188 240 291 344
#     4   9  20  36  59  86 120 148 183 240 298 343
#     4   9  18  35  58  86 111 147 189 241 287 332
#     4  10  20  38  60  82 117 157 184 238 301 334
#
# _framework density 26.529394
#
# number of rings (size 3 to 8) (size 9 to 14) (size 15 to 20)
#    0.000    2.500    1.250    0.000    3.500    2.000 
#    0.000    7.500    0.000    0.000    0.000    0.000 
#    0.000    0.000    0.000    0.000    0.000    0.000 
#
# Total GULP energy -89396.353247 kJ/mol
# GULP energy per Si atom -5587.272078 kJ/mol
# Density = 2.646901 g / cm^3
# Si number density = 26.529394 Si / 1000 Ang^3
#
#
#
# Elastic Constant Matrix: (Units=GPa)
#
#
# Indices 1 2 3 4 5 6 
#
# 1 47.0548 2.8791 18.4180 -0.3119 9.2287 2.7546
# 2 2.8791 58.0120 23.0201 17.2489 1.7907 7.4030
# 3 18.4180 23.0201 114.7614 22.9595 -19.8309 14.9925
# 4 -0.3119 17.2489 22.9595 28.8577 -11.7935 -5.3748
# 5 9.2287 1.7907 -19.8309 -11.7935 37.7745 6.6212
# 6 2.7546 7.4030 14.9925 -5.3748 6.6212 28.3435
#
#
#
# Elastic Compliance Matrix: (Units=1/GPa)
#
#
# Indices 1 2 3 4 5 6 
#
# 1 0.025623 0.000718 -0.006819 0.001893 -0.009915 0.003604
# 2 0.000718 0.023997 -0.001686 -0.016870 -0.006203 -0.007196
# 3 -0.006819 -0.001686 0.014860 -0.009391 0.008458 -0.010514
# 4 0.001893 -0.016870 -0.009391 0.060082 0.011008 0.018011
# 5 -0.009915 -0.006203 0.008458 0.011008 0.038613 -0.008823
# 6 0.003604 -0.007196 -0.010514 0.018011 -0.008823 0.047849
#
#
# Mechanical properties :
#
#
# Convention : Reuss Voigt Hill
#
# Bulk Modulus (GPa) = 20.44735 34.27363 27.36049
# Shear Modulus (GPa) = 20.58465 30.69585 25.64025
#
# Velocity S-wave (km/s) = 2.78855 3.40524 3.11221
# Velocity P-wave (km/s) = 4.25349 5.32992 4.82184
#
# Compressibility (1/GPa) = 0.04890608
#
# Stress axis : x y z
#
# Youngs Moduli (GPa) = 39.02734 41.67220 67.29439
#
# Poissons Ratio (x) = -0.02990 0.45888
# Poissons Ratio (y) = -0.02800 0.11343
# Poissons Ratio (z) = 0.26613 0.07024
#
# Static dielectric constant tensor:
#      x y z
#    x 2.203940 -0.037400 0.059240 
#    y -0.037400 2.034060 0.026430 
#    z 0.059240 0.026430 2.103280 
# 
# From -- ./inp_files/175021.got.cif
#   From: 2010.05.17/outbox.cif.g08.bks.cpg/sg2_88_cif.got.tgz:175021.got - 2010.06.03 11:33:40.
