data_PCOD9083710
_publ_section_title
;
Structure prediction by ZEFSAII (Michael W. Deem and Ramdas Pophale) SiO2 
 PCOD9083710
Probable space group: P -1
;
_chemical_formula_sum "Si O2"
_cell_formula_units_Z 14
_cell_length_a 13.740345
_cell_length_b 8.184526
_cell_length_c 11.607026
_cell_angle_alpha 103.133767
_cell_angle_beta 51.799058
_cell_angle_gamma 135.226498
_cell_volume 667.471110
_symmetry_space_group_name_H-M "P -1"
_symmetry_group_IT_number 2
_symmetry_cell_setting 'triclinic'
loop_
_space_group_symop_operation_xyz
x,y,z
-x,-y,-z
loop_
_atom_site_type_symbol
_atom_site_label
_atom_site_fract_x
_atom_site_fract_y
_atom_site_fract_z
Si Si1 0.586360 0.634510 0.182220
Si Si2 0.130776 0.303139 0.161337
Si Si3 0.355368 0.936623 0.753537
Si Si4 0.843194 0.704011 0.591588
Si Si5 0.745855 0.382317 0.421929
Si Si6 0.120491 0.495912 0.990570
Si Si7 0.202485 0.278562 0.748031
O O1 0.364916 0.429293 0.296403
O O2 0.633859 0.628524 0.277792
O O3 0.676004 0.910168 0.150538
O O4 0.695452 0.624230 0.011344
O O5 0.154673 0.351593 0.286849
O O6 0.114874 0.456935 0.123214
O O7 0.941521 0.004981 0.235398
O O8 0.236032 0.756109 0.700510
O O9 0.323264 0.768329 0.849257
O O10 0.561168 0.152033 0.589265
O O11 0.877684 0.585987 0.457585
O O12 0.000000 0.000000 0.500000
O O13 0.731761 0.528521 0.369235
O O14 0.093269 0.287128 0.919777
O O15 0.000000 0.500000 0.000000
#
# Coordination Sequence:
#
# PCOD9083710 Si02
#       7
#     2   2   2   2   2   2   2
#     4  10  21  37  62  96 114 159 209 254 305 345
#     4  11  21  37  62  94 124 154 204 253 305 368
#     4   9  18  34  58  83 116 150 202 253 291 348
#     4  11  22  39  59  88 133 164 194 246 308 375
#     4   9  19  36  57  86 117 160 198 243 307 353
#     4  10  19  34  57  88 118 156 200 255 301 345
#     4  10  19  35  62  91 119 149 214 258 294 353
#
# _framework density 20.974689999999999
#
# number of rings (size 3 to 8) (size 9 to 14) (size 15 to 20)
#    0.000    2.000    1.429    3.857    0.000    2.286 
#    2.571    2.857    0.000   21.429    0.000    0.000 
#    0.000    0.000    0.000    0.000    0.000    0.000 
#
# Total GULP energy -77957.935116 kJ/mol
# GULP energy per Si atom -5568.423937 kJ/mol
# Density = 2.092695 g / cm^3
# Si number density = 20.974690 Si / 1000 Ang^3
#
#
#
# Elastic Constant Matrix: (Units=GPa)
#
#
# Indices 1 2 3 4 5 6 
#
# 1 92.7785 29.9995 30.8961 -8.7471 22.3442 20.5866
# 2 29.9995 103.4605 23.5397 -4.7317 10.8527 13.7854
# 3 30.8961 23.5397 66.2607 -17.1757 23.7782 13.0867
# 4 -8.7471 -4.7317 -17.1757 42.2040 1.4655 3.2220
# 5 22.3442 10.8527 23.7782 1.4655 41.9895 1.9536
# 6 20.5866 13.7854 13.0867 3.2220 1.9536 24.8983
#
#
#
# Elastic Compliance Matrix: (Units=1/GPa)
#
#
# Indices 1 2 3 4 5 6 
#
# 1 0.016558 -0.002032 -0.000974 0.003977 -0.007315 -0.011994
# 2 -0.002032 0.011259 -0.002148 0.000244 -0.000462 -0.003420
# 3 -0.000974 -0.002148 0.026927 0.011965 -0.014006 -0.012608
# 4 0.003977 0.000244 0.011965 0.030731 -0.009425 -0.012950
# 5 -0.007315 -0.000462 -0.014006 -0.009425 0.035525 0.012098
# 6 -0.011994 -0.003420 -0.012608 -0.012950 0.012098 0.059327
#
#
# Mechanical properties :
#
#
# Convention : Reuss Voigt Hill
#
# Bulk Modulus (GPa) = 22.50430 47.93000 35.21715
# Shear Modulus (GPa) = 24.33728 33.68931 29.01330
#
# Velocity S-wave (km/s) = 3.41004 4.01208 3.72325
# Velocity P-wave (km/s) = 5.12416 6.66058 5.94224
#
# Compressibility (1/GPa) = 0.04443595
#
# Stress axis : x y z
#
# Youngs Moduli (GPa) = 60.39441 88.82006 37.13798
#
# Poissons Ratio (x) = 0.18050 0.03616
# Poissons Ratio (y) = 0.12273 0.07977
# Poissons Ratio (z) = 0.05880 0.19077
#
# Static dielectric constant tensor:
#      x y z
#    x 1.802720 -0.006690 -0.033860 
#    y -0.006690 1.796020 -0.020540 
#    z -0.033860 -0.020540 1.872500 
# 
# From -- ./inp_files/263778.got.cif
#   From: 2010.05.17/outbox.cif.g08.bks.cpg/sg2_132_cif.got.tgz:263778.got - 2010.06.03 11:33:40.
