data_PCOD9083135
_publ_section_title
;
Structure prediction by ZEFSAII (Michael W. Deem and Ramdas Pophale) SiO2 
 PCOD9083135
Probable space group: P -1
;
_chemical_formula_sum "Si O2"
_cell_formula_units_Z 16
_cell_length_a 11.685960
_cell_length_b 10.018607
_cell_length_c 9.570450
_cell_angle_alpha 50.988640
_cell_angle_beta 127.488549
_cell_angle_gamma 122.513077
_cell_volume 668.817774
_symmetry_space_group_name_H-M "P -1"
_symmetry_group_IT_number 2
_symmetry_cell_setting 'triclinic'
loop_
_space_group_symop_operation_xyz
x,y,z
-x,-y,-z
loop_
_atom_site_type_symbol
_atom_site_label
_atom_site_fract_x
_atom_site_fract_y
_atom_site_fract_z
Si Si1 0.720298 0.227264 0.745517
Si Si2 0.251251 0.214375 0.638644
Si Si3 0.705655 0.695782 0.973301
Si Si4 0.094009 0.995452 0.895413
Si Si5 0.429485 0.785439 0.078734
Si Si6 0.451541 0.871945 0.740242
Si Si7 0.834609 0.505356 0.421620
Si Si8 0.767316 0.893284 0.626345
O O1 0.673734 0.296165 0.814024
O O2 0.591201 0.045961 0.753581
O O3 0.736384 0.340224 0.543478
O O4 0.881464 0.187836 0.909893
O O5 0.194184 0.035758 0.803694
O O6 0.424478 0.291544 0.754091
O O7 0.159111 0.339785 0.559584
O O8 0.236728 0.168291 0.496263
O O9 0.544596 0.734558 0.849726
O O10 0.726663 0.719083 0.808603
O O11 0.829918 0.860029 0.028870
O O12 0.743840 0.541359 0.194431
O O13 0.930960 0.995016 0.729073
O O14 0.370184 0.780460 0.881081
O O15 0.500000 0.000000 0.000000
O O16 0.338094 0.972052 0.517922
O O17 0.000000 0.500000 0.500000
#
# Coordination Sequence:
#
# PCOD9083135 Si02
#       8
#     2   2   2   2   2   2   2   2
#     4  10  19  37  67  87 116 170 204 243 304 366
#     4  11  21  38  62  93 125 156 207 263 299 358
#     4  10  22  41  60  87 128 164 204 250 303 371
#     4  10  20  38  62  92 121 160 206 246 316 366
#     4  10  15  36  64  92 123 147 204 256 301 361
#     4  10  19  38  64  94 125 154 205 254 305 363
#     4  11  24  42  61  88 122 170 213 245 301 374
#     4  12  21  34  63  98 124 155 203 265 304 357
#
# _framework density 23.922809999999998
#
# number of rings (size 3 to 8) (size 9 to 14) (size 15 to 20)
#    0.000    1.500    7.500    1.875    0.000    3.500 
#    0.000    3.125    0.000    6.000    0.000    0.000 
#    0.000    0.000    0.000    0.000    0.000    0.000 
#
# Total GULP energy -89268.644943 kJ/mol
# GULP energy per Si atom -5579.290309 kJ/mol
# Density = 2.386836 g / cm^3
# Si number density = 23.922810 Si / 1000 Ang^3
#
#
#
# Elastic Constant Matrix: (Units=GPa)
#
#
# Indices 1 2 3 4 5 6 
#
# 1 132.8576 27.0004 84.4786 -11.3880 -8.4008 -6.3943
# 2 27.0004 39.9832 24.9286 4.8312 -0.4494 -6.9253
# 3 84.4786 24.9286 189.6348 -4.9535 -13.0434 0.8817
# 4 -11.3880 4.8312 -4.9535 21.8463 2.4746 0.1361
# 5 -8.4008 -0.4494 -13.0434 2.4746 74.3304 7.1225
# 6 -6.3943 -6.9253 0.8817 0.1361 7.1225 28.9293
#
#
#
# Elastic Compliance Matrix: (Units=1/GPa)
#
#
# Indices 1 2 3 4 5 6 
#
# 1 0.012257 -0.006062 -0.004480 0.006681 0.000214 0.001310
# 2 -0.006062 0.032846 -0.002010 -0.010793 -0.001143 0.006917
# 3 -0.004480 -0.002010 0.007605 -0.000269 0.001012 -0.001951
# 4 0.006681 -0.010793 -0.000269 0.051700 -0.000973 -0.001102
# 5 0.000214 -0.001143 0.001012 -0.000973 0.014036 -0.003708
# 6 0.001310 0.006917 -0.001951 -0.001102 -0.003708 0.037490
#
#
# Mechanical properties :
#
#
# Convention : Reuss Voigt Hill
#
# Bulk Modulus (GPa) = 36.22622 70.58785 53.40704
# Shear Modulus (GPa) = 26.28261 40.09238 33.18750
#
# Velocity S-wave (km/s) = 3.31817 4.09822 3.72865
# Velocity P-wave (km/s) = 5.46408 7.20864 6.39612
#
# Compressibility (1/GPa) = 0.02760432
#
# Stress axis : x y z
#
# Youngs Moduli (GPa) = 81.58729 30.44473 131.49208
#
# Poissons Ratio (x) = 0.18454 0.58910
# Poissons Ratio (y) = 0.49455 0.26433
# Poissons Ratio (z) = 0.36552 0.06120
#
# Static dielectric constant tensor:
#      x y z
#    x 1.953050 -0.019300 -0.023830 
#    y -0.019300 2.045210 -0.052830 
#    z -0.023830 -0.052830 1.939460 
# 
# From -- ./inp_files/244642.got.cif
#   From: 2010.05.17/outbox.cif.g08.bks.cpg/sg2_123_cif.got.tgz:244642.got - 2010.06.03 11:33:40.
