data_PCOD9083451
_publ_section_title
;
Structure prediction by ZEFSAII (Michael W. Deem and Ramdas Pophale) SiO2 
 PCOD9083451
Probable space group: P -1
;
_chemical_formula_sum "Si O2"
_cell_formula_units_Z 16
_cell_length_a 25.434660
_cell_length_b 11.208912
_cell_length_c 9.891206
_cell_angle_alpha 28.067452
_cell_angle_beta 45.841210
_cell_angle_gamma 44.579069
_cell_volume 911.241314
_symmetry_space_group_name_H-M "P -1"
_symmetry_group_IT_number 2
_symmetry_cell_setting 'triclinic'
loop_
_space_group_symop_operation_xyz
x,y,z
-x,-y,-z
loop_
_atom_site_type_symbol
_atom_site_label
_atom_site_fract_x
_atom_site_fract_y
_atom_site_fract_z
Si Si1 0.145092 0.354969 0.681017
Si Si2 0.845449 0.654585 0.655335
Si Si3 0.952386 0.047527 0.674818
Si Si4 0.934958 0.065083 0.164425
Si Si5 0.575966 0.424052 0.350850
Si Si6 0.323322 0.176739 0.553029
Si Si7 0.670261 0.829755 0.777500
Si Si8 0.579268 0.420678 0.019874
O O1 0.145809 0.354153 0.515604
O O2 0.233451 0.266604 0.661584
O O3 0.100435 0.650766 0.513238
O O4 0.100419 0.148594 0.015500
O O5 0.756233 0.743789 0.762136
O O6 0.884939 0.864983 0.432424
O O7 0.884937 0.365200 0.932179
O O8 0.018035 0.981856 0.735877
O O9 0.000000 0.000000 0.500000
O O10 0.000000 0.000000 0.000000
O O11 0.500000 0.500000 0.500000
O O12 0.564282 0.435699 0.195631
O O13 0.624191 0.127100 0.598347
O O14 0.624179 0.624604 0.100869
O O15 0.322845 0.177183 0.390425
O O16 0.370289 0.878151 0.806718
O O17 0.370271 0.381454 0.303446
O O18 0.500000 0.500000 0.000000
#
# Coordination Sequence:
#
# PCOD9083451 Si02
#       8
#     2   2   2   2   2   2   2   2
#     4  11  20  38  60  83 109 145 189 232 272 326
#     4  11  20  35  61  87 109 137 188 246 273 306
#     4  12  25  38  57  80 115 152 184 220 279 341
#     4  12  21  36  59  86 109 140 188 232 279 321
#     4  10  19  34  56  79 110 145 176 210 264 332
#     4   9  19  33  57  83 104 138 183 225 265 311
#     4   9  19  33  54  84 108 138 180 221 268 315
#     4  10  19  34  56  83 108 136 178 226 264 309
#
# _framework density 17.558465999999999
#
# number of rings (size 3 to 8) (size 9 to 14) (size 15 to 20)
#    0.000    1.500    2.500    3.750    0.000    4.000 
#    0.000    0.000   16.500    0.000    0.000    0.000 
#    0.000    0.000    0.000    0.000    0.000    0.000 
#
# Total GULP energy -89317.164187 kJ/mol
# GULP energy per Si atom -5582.322762 kJ/mol
# Density = 1.751850 g / cm^3
# Si number density = 17.558466 Si / 1000 Ang^3
#
#
#
# Elastic Constant Matrix: (Units=GPa)
#
#
# Indices 1 2 3 4 5 6 
#
# 1 160.2661 79.8783 95.8642 -11.8174 -16.6436 -35.7378
# 2 79.8783 136.2494 97.1518 -9.6044 -7.3729 -32.6865
# 3 95.8642 97.1518 183.1958 -32.7610 -29.6981 -30.6291
# 4 -11.8174 -9.6044 -32.7610 39.1754 -1.9382 8.4280
# 5 -16.6436 -7.3729 -29.6981 -1.9382 32.6321 4.2683
# 6 -35.7378 -32.6865 -30.6291 8.4280 4.2683 35.5152
#
#
#
# Elastic Compliance Matrix: (Units=1/GPa)
#
#
# Indices 1 2 3 4 5 6 
#
# 1 0.010882 -0.002561 -0.003462 -0.001448 0.000971 0.005834
# 2 -0.002561 0.015025 -0.007304 -0.004948 -0.005744 0.006816
# 3 -0.003462 -0.007304 0.014395 0.010028 0.010467 -0.001430
# 4 -0.001448 -0.004948 0.010028 0.034209 0.010179 -0.006703
# 5 0.000971 -0.005744 0.010467 0.010179 0.040305 -0.002541
# 6 0.005834 0.006816 -0.001430 -0.006703 -0.002541 0.040964
#
#
# Mechanical properties :
#
#
# Convention : Reuss Voigt Hill
#
# Bulk Modulus (GPa) = 73.27493 113.94445 93.60969
# Shear Modulus (GPa) = 26.74021 35.25235 30.99628
#
# Velocity S-wave (km/s) = 3.90670 4.48561 4.20613
# Velocity P-wave (km/s) = 7.88494 9.58451 8.77596
#
# Compressibility (1/GPa) = 0.01364723
#
# Stress axis : x y z
#
# Youngs Moduli (GPa) = 91.89369 66.55751 69.46733
#
# Poissons Ratio (x) = 0.17044 0.24053
# Poissons Ratio (y) = 0.23532 0.50740
# Poissons Ratio (z) = 0.31818 0.48615
#
# Static dielectric constant tensor:
#      x y z
#    x 1.574150 -0.004800 -0.002460 
#    y -0.004800 1.571510 -0.002670 
#    z -0.002460 -0.002670 1.574630 
# 
# From -- ./inp_files/109381.got.cif
#   From: 2010.05.17/outbox.cif.g08.bks.cpg/sg2_55_cif.got.tgz:109381.got - 2010.06.03 11:33:40.
