data_PCOD9083332
_publ_section_title
;
Structure prediction by ZEFSAII (Michael W. Deem and Ramdas Pophale) SiO2 
 PCOD9083332
Probable space group: P -1
;
_chemical_formula_sum "Si O2"
_cell_formula_units_Z 16
_cell_length_a 11.685993
_cell_length_b 16.552605
_cell_length_c 17.059059
_cell_angle_alpha 24.807985
_cell_angle_beta 142.069191
_cell_angle_gamma 141.770703
_cell_volume 819.530262
_symmetry_space_group_name_H-M "P -1"
_symmetry_group_IT_number 2
_symmetry_cell_setting 'triclinic'
loop_
_space_group_symop_operation_xyz
x,y,z
-x,-y,-z
loop_
_atom_site_type_symbol
_atom_site_label
_atom_site_fract_x
_atom_site_fract_y
_atom_site_fract_z
Si Si1 0.215558 0.971587 0.943311
Si Si2 0.872838 0.474981 0.773022
Si Si3 0.686271 0.520084 0.963530
Si Si4 0.528922 0.992596 0.215071
Si Si5 0.466884 0.923689 0.679166
Si Si6 0.357475 0.277472 0.615716
Si Si7 0.229416 0.044097 0.312400
Si Si8 0.769897 0.436500 0.921688
O O1 0.995737 0.987328 0.802417
O O2 0.344217 0.127351 0.813472
O O3 0.204624 0.742803 0.115669
O O4 0.325410 0.007258 0.054502
O O5 0.845694 0.665040 0.545110
O O6 0.750931 0.475259 0.786399
O O7 0.095989 0.497402 0.890861
O O8 0.677901 0.719267 0.827529
O O9 0.551274 0.309098 0.104981
O O10 0.672984 0.541732 0.842964
O O11 0.522626 0.967179 0.327504
O O12 0.685481 0.202847 0.098462
O O13 0.597102 0.832543 0.340353
O O14 0.654810 0.009426 0.651573
O O15 0.287663 0.939767 0.513356
O O16 0.500000 0.500000 0.500000
O O17 0.000000 0.500000 0.000000
#
# Coordination Sequence:
#
# PCOD9083332 Si02
#       8
#     2   2   2   2   2   2   2   2
#     4  11  22  40  58  87 119 156 195 240 294 349
#     4  10  19  34  54  85 121 155 193 230 291 352
#     4   9  19  35  58  84 114 152 191 243 290 347
#     4  11  22  38  59  87 125 151 196 243 287 350
#     4  10  22  41  59  89 112 150 202 246 291 344
#     4  12  22  34  59  85 122 162 188 234 290 355
#     4  10  22  40  65  80 115 155 197 247 293 343
#     4   9  18  34  53  84 122 153 187 233 284 349
#
# _framework density 19.52338
#
# number of rings (size 3 to 8) (size 9 to 14) (size 15 to 20)
#    0.000    1.750    2.500    2.250    1.750    0.500 
#    0.000    2.500    0.000    0.750    0.000    0.000 
#    0.000    0.000    0.000    0.000    0.000    0.000 
#
# Total GULP energy -89171.674558 kJ/mol
# GULP energy per Si atom -5573.229660 kJ/mol
# Density = 1.947894 g / cm^3
# Si number density = 19.523380 Si / 1000 Ang^3
#
#
#
# Elastic Constant Matrix: (Units=GPa)
#
#
# Indices 1 2 3 4 5 6 
#
# 1 78.5269 46.7069 29.9551 11.6815 -11.4795 -8.2801
# 2 46.7069 104.9731 24.0628 3.9199 -4.2216 -2.5856
# 3 29.9551 24.0628 76.8587 11.5772 -2.1329 -2.2313
# 4 11.6815 3.9199 11.5772 30.3620 -3.2249 1.3980
# 5 -11.4795 -4.2216 -2.1329 -3.2249 26.2881 7.4989
# 6 -8.2801 -2.5856 -2.2313 1.3980 7.4989 21.7986
#
#
#
# Elastic Compliance Matrix: (Units=1/GPa)
#
#
# Indices 1 2 3 4 5 6 
#
# 1 0.021337 -0.007856 -0.004800 -0.005003 0.005605 0.005074
# 2 -0.007856 0.013211 -0.001414 0.001836 -0.000798 -0.001405
# 3 -0.004800 -0.001414 0.015931 -0.004248 -0.001693 0.000495
# 4 -0.005003 0.001836 -0.004248 0.036934 0.003965 -0.005850
# 5 0.005605 -0.000798 -0.001693 0.003965 0.044630 -0.013746
# 6 0.005074 -0.001405 0.000495 -0.005850 -0.013746 0.052790
#
#
# Mechanical properties :
#
#
# Convention : Reuss Voigt Hill
#
# Bulk Modulus (GPa) = 44.76328 51.31203 48.03766
# Shear Modulus (GPa) = 22.68412 26.33199 24.50806
#
# Velocity S-wave (km/s) = 3.41236 3.67651 3.54689
# Velocity P-wave (km/s) = 6.20511 6.66046 6.43681
#
# Compressibility (1/GPa) = 0.02233974
#
# Stress axis : x y z
#
# Youngs Moduli (GPa) = 46.86715 75.69693 62.76901
#
# Poissons Ratio (x) = 0.59469 0.30128
# Poissons Ratio (y) = 0.36820 0.08873
# Poissons Ratio (z) = 0.22495 0.10700
#
# Static dielectric constant tensor:
#      x y z
#    x 1.692710 -0.009720 -0.007440 
#    y -0.009720 1.749680 0.060350 
#    z -0.007440 0.060350 1.736200 
# 
# From -- ./inp_files/570303.got.cif
#   From: 2010.05.17/outbox.cif.g08.bks.cpg/sg2_286_cif.got.tgz:570303.got - 2010.06.03 11:33:40.
