data_PCOD9083961
_publ_section_title
;
Structure prediction by ZEFSAII (Michael W. Deem and Ramdas Pophale) SiO2 
 PCOD9083961
Probable space group: P -1
;
_chemical_formula_sum "Si O2"
_cell_formula_units_Z 16
_cell_length_a 8.177942
_cell_length_b 16.470153
_cell_length_c 8.048849
_cell_angle_alpha 130.668366
_cell_angle_beta 97.296858
_cell_angle_gamma 101.671163
_cell_volume 754.820693
_symmetry_space_group_name_H-M "P -1"
_symmetry_group_IT_number 2
_symmetry_cell_setting 'triclinic'
loop_
_space_group_symop_operation_xyz
x,y,z
-x,-y,-z
loop_
_atom_site_type_symbol
_atom_site_label
_atom_site_fract_x
_atom_site_fract_y
_atom_site_fract_z
Si Si1 0.370422 0.502914 0.741038
Si Si2 0.247893 0.386674 0.210432
Si Si3 0.586273 0.939395 0.279697
Si Si4 0.879074 0.954389 0.582924
Si Si5 0.922674 0.412830 0.024467
Si Si6 0.823877 0.853800 0.965642
Si Si7 0.681681 0.738718 0.439927
Si Si8 0.373056 0.811333 0.355978
O O1 0.311087 0.452281 0.481240
O O2 0.579461 0.583045 0.847883
O O3 0.233975 0.559149 0.864369
O O4 0.349990 0.393976 0.711967
O O5 0.092504 0.422333 0.167440
O O6 0.169231 0.251628 0.064313
O O7 0.679372 0.893087 0.089887
O O8 0.411947 0.839763 0.200629
O O9 0.700619 0.963086 0.499213
O O10 0.596131 0.064681 0.393884
O O11 0.985149 0.040291 0.856909
O O12 0.830549 0.820630 0.441980
O O13 0.000000 0.000000 0.500000
O O14 0.824842 0.281564 0.774212
O O15 0.000000 0.500000 0.000000
O O16 0.750776 0.803484 0.710133
O O17 0.502637 0.754745 0.379181
#
# Coordination Sequence:
#
# PCOD9083961 Si02
#       8
#     2   2   2   2   2   2   2   2
#     4  10  23  43  63  87 122 159 201 251 300 354
#     4  10  22  42  65  88 119 160 202 247 302 359
#     4   9  19  35  57  80 111 156 192 241 300 351
#     4   9  18  33  54  79 110 145 188 236 288 350
#     4  12  25  38  61  92 121 159 203 247 298 355
#     4  10  19  34  59  86 112 152 200 244 300 355
#     4  10  21  36  56  83 117 156 196 246 298 350
#     4  10  21  37  53  81 118 151 199 242 289 358
#
# _framework density 21.197087
#
# number of rings (size 3 to 8) (size 9 to 14) (size 15 to 20)
#    0.000    2.000    0.000    3.000    0.000    7.500 
#    0.000    1.250    0.000    0.000    0.000    0.000 
#    0.000    0.000    0.000    0.000    0.000    0.000 
#
# Total GULP energy -89247.475186 kJ/mol
# GULP energy per Si atom -5577.967199 kJ/mol
# Density = 2.114884 g / cm^3
# Si number density = 21.197087 Si / 1000 Ang^3
#
#
#
# Elastic Constant Matrix: (Units=GPa)
#
#
# Indices 1 2 3 4 5 6 
#
# 1 82.5315 52.8666 14.0170 6.6179 -3.5679 -2.2840
# 2 52.8666 136.3346 22.8511 15.5990 11.2376 -0.2725
# 3 14.0170 22.8511 45.9890 1.7271 7.1026 4.1913
# 4 6.6179 15.5990 1.7271 31.6461 4.5797 3.2625
# 5 -3.5679 11.2376 7.1026 4.5797 38.7017 7.3089
# 6 -2.2840 -0.2725 4.1913 3.2625 7.3089 37.9582
#
#
#
# Elastic Compliance Matrix: (Units=1/GPa)
#
#
# Indices 1 2 3 4 5 6 
#
# 1 0.016861 -0.006315 -0.002618 -0.000890 0.003862 0.000591
# 2 -0.006315 0.010941 -0.003004 -0.003574 -0.002956 0.000907
# 3 -0.002618 -0.003004 0.024756 0.001445 -0.003642 -0.002336
# 4 -0.000890 -0.003574 0.001445 0.034152 -0.002855 -0.002624
# 5 0.003862 -0.002956 -0.003642 -0.002855 0.028950 -0.004716
# 6 0.000591 0.000907 -0.002336 -0.002624 -0.004716 0.027778
#
#
# Mechanical properties :
#
#
# Convention : Reuss Voigt Hill
#
# Bulk Modulus (GPa) = 34.86164 49.36939 42.11552
# Shear Modulus (GPa) = 28.26867 33.33589 30.80228
#
# Velocity S-wave (km/s) = 3.65583 3.96998 3.81614
# Velocity P-wave (km/s) = 5.85681 6.66000 6.27128
#
# Compressibility (1/GPa) = 0.02868482
#
# Stress axis : x y z
#
# Youngs Moduli (GPa) = 59.30878 91.39556 40.39423
#
# Poissons Ratio (x) = 0.57713 0.10577
# Poissons Ratio (y) = 0.37451 0.12134
# Poissons Ratio (z) = 0.15529 0.27453
#
# Static dielectric constant tensor:
#      x y z
#    x 1.796630 -0.018530 0.042650 
#    y -0.018530 1.746310 0.016760 
#    z 0.042650 0.016760 1.809190 
# 
# From -- ./inp_files/204443.got.cif
#   From: 2010.05.17/outbox.cif.g08.bks.cpg/sg2_103_cif.got.tgz:204443.got - 2010.06.03 11:33:40.
