data_PCOD9083797
_publ_section_title
;
Structure prediction by ZEFSAII (Michael W. Deem and Ramdas Pophale) SiO2 
 PCOD9083797
Probable space group: P -1
;
_chemical_formula_sum "Si O2"
_cell_formula_units_Z 16
_cell_length_a 6.838998
_cell_length_b 9.043338
_cell_length_c 17.700939
_cell_angle_alpha 141.954936
_cell_angle_beta 99.348981
_cell_angle_gamma 98.751109
_cell_volume 590.903068
_symmetry_space_group_name_H-M "P -1"
_symmetry_group_IT_number 2
_symmetry_cell_setting 'triclinic'
loop_
_space_group_symop_operation_xyz
x,y,z
-x,-y,-z
loop_
_atom_site_type_symbol
_atom_site_label
_atom_site_fract_x
_atom_site_fract_y
_atom_site_fract_z
Si Si1 0.526457 0.877393 0.531631
Si Si2 0.264155 0.511425 0.480559
Si Si3 0.004732 0.029452 0.363385
Si Si4 0.200133 0.284076 0.928495
Si Si5 0.631029 0.685867 0.784378
Si Si6 0.740840 0.235800 0.951107
Si Si7 0.067114 0.785019 0.795854
Si Si8 0.250144 0.471142 0.775446
O O1 0.358201 0.808365 0.565832
O O2 0.480922 0.584721 0.380088
O O3 0.500000 0.000000 0.500000
O O4 0.776699 0.022138 0.636587
O O5 0.500000 0.500000 0.500000
O O6 0.097877 0.323956 0.329898
O O7 0.114580 0.351793 0.480456
O O8 0.863853 0.866344 0.216649
O O9 0.859096 0.851543 0.352758
O O10 0.972666 0.263925 0.943161
O O11 0.342605 0.602888 0.046841
O O12 0.250039 0.084377 0.904571
O O13 0.893083 0.781000 0.846029
O O14 0.507752 0.602229 0.822222
O O15 0.601714 0.919911 0.832851
O O16 0.780447 0.388818 0.094982
O O17 0.147534 0.572699 0.742590
#
# Coordination Sequence:
#
# PCOD9083797 Si02
#       8
#     2   2   2   2   2   2   2   2
#     4  10  19  34  58  84 108 141 185 232 280 329
#     4   8  15  30  55  77 104 143 177 218 273 324
#     4   9  17  31  53  79 106 144 183 222 276 330
#     4   8  16  32  57  79 106 147 187 227 277 332
#     4  10  21  35  54  82 116 146 182 231 280 332
#     4   9  18  35  56  81 111 150 189 225 279 333
#     4   9  18  34  55  82 110 142 187 229 272 325
#     4  11  21  34  58  84 112 149 186 229 276 327
#
# _framework density 27.077199
#
# number of rings (size 3 to 8) (size 9 to 14) (size 15 to 20)
#    0.000    2.750    0.000    2.625    0.000    2.500 
#    0.000    1.875    0.000   74.250    0.000    0.000 
#    0.000    0.000    0.000    0.000    0.000    0.000 
#
# Total GULP energy -89267.800579 kJ/mol
# GULP energy per Si atom -5579.237536 kJ/mol
# Density = 2.701557 g / cm^3
# Si number density = 27.077199 Si / 1000 Ang^3
#
#
#
# Elastic Constant Matrix: (Units=GPa)
#
#
# Indices 1 2 3 4 5 6 
#
# 1 54.9347 49.9168 24.2342 11.7615 -2.0714 4.8831
# 2 49.9168 240.1502 42.0893 64.1147 10.4571 7.2240
# 3 24.2342 42.0893 95.8955 4.4796 5.1754 -8.0816
# 4 11.7615 64.1147 4.4796 63.6680 -1.6368 3.5226
# 5 -2.0714 10.4571 5.1754 -1.6368 34.7210 3.8601
# 6 4.8831 7.2240 -8.0816 3.5226 3.8601 34.5040
#
#
#
# Elastic Compliance Matrix: (Units=1/GPa)
#
#
# Indices 1 2 3 4 5 6 
#
# 1 0.024881 -0.004538 -0.004905 0.000659 0.004085 -0.004244
# 2 -0.004538 0.007201 -0.001611 -0.006345 -0.002463 -0.000319
# 3 -0.004905 -0.001611 0.012773 0.001348 -0.002106 0.004121
# 4 0.000659 -0.006345 0.001348 0.022011 0.002900 -0.001021
# 5 0.004085 -0.002463 -0.002106 0.002900 0.030714 -0.004288
# 6 -0.004244 -0.000319 0.004121 -0.001021 -0.004288 0.031199
#
#
# Mechanical properties :
#
#
# Convention : Reuss Voigt Hill
#
# Bulk Modulus (GPa) = 43.96370 69.27345 56.61857
# Shear Modulus (GPa) = 31.55216 44.89460 38.22338
#
# Velocity S-wave (km/s) = 3.41730 4.07630 3.76126
# Velocity P-wave (km/s) = 5.64290 6.91333 6.31017
#
# Compressibility (1/GPa) = 0.02274604
#
# Stress axis : x y z
#
# Youngs Moduli (GPa) = 40.19120 138.87888 78.29197
#
# Poissons Ratio (x) = 0.63024 0.38402
# Poissons Ratio (y) = 0.18239 0.12614
# Poissons Ratio (z) = 0.19713 0.22375
#
# Static dielectric constant tensor:
#      x y z
#    x 2.278370 0.046880 -0.028890 
#    y 0.046880 2.280460 0.035990 
#    z -0.028890 0.035990 2.044590 
# 
# From -- ./inp_files/557591.got.cif
#   From: 2010.05.17/outbox.cif.g08.bks.cpg/sg2_279_cif.got.tgz:557591.got - 2010.06.03 11:33:40.
