data_PCOD9083290
_publ_section_title
;
Structure prediction by ZEFSAII (Michael W. Deem and Ramdas Pophale) SiO2 
 PCOD9083290
Probable space group: P -1
;
_chemical_formula_sum "Si O2"
_cell_formula_units_Z 16
_cell_length_a 18.480453
_cell_length_b 12.075731
_cell_length_c 16.673518
_cell_angle_alpha 22.575159
_cell_angle_beta 153.490807
_cell_angle_gamma 152.331644
_cell_volume 598.103412
_symmetry_space_group_name_H-M "P -1"
_symmetry_group_IT_number 2
_symmetry_cell_setting 'triclinic'
loop_
_space_group_symop_operation_xyz
x,y,z
-x,-y,-z
loop_
_atom_site_type_symbol
_atom_site_label
_atom_site_fract_x
_atom_site_fract_y
_atom_site_fract_z
Si Si1 0.453376 0.165686 0.637386
Si Si2 0.361970 0.751364 0.957104
Si Si3 0.101308 0.681087 0.055814
Si Si4 0.684322 0.286102 0.330887
Si Si5 0.794821 0.784166 0.749360
Si Si6 0.797830 0.777991 0.443249
Si Si7 0.229674 0.374639 0.663894
Si Si8 0.079985 0.355421 0.814369
O O1 0.500000 0.500000 0.500000
O O2 0.248694 0.121479 0.445654
O O3 0.495317 0.962367 0.884737
O O4 0.462467 0.968734 0.696793
O O5 0.216378 0.530345 0.901910
O O6 0.301958 0.997308 0.780558
O O7 0.373092 0.500415 0.199580
O O8 0.222197 0.503663 0.327690
O O9 0.000000 0.500000 0.000000
O O10 0.957056 0.677943 0.979980
O O11 0.184651 0.031084 0.880479
O O12 0.634155 0.407808 0.282575
O O13 0.801920 0.559297 0.206966
O O14 0.805433 0.083568 0.608449
O O15 0.740899 0.633531 0.396093
O O16 0.000000 0.000000 0.500000
O O17 0.063309 0.480425 0.437128
O O18 0.000000 0.000000 0.000000
#
# Coordination Sequence:
#
# PCOD9083290 Si02
#       8
#     2   2   2   2   2   2   2   2
#     4   9  21  40  59  78 103 133 185 246 281 311
#     4  11  20  37  53  83 111 141 188 216 262 333
#     4  12  20  32  51  77 116 155 182 207 253 323
#     4   9  22  34  50  81 107 144 185 220 278 322
#     4  10  19  34  54  79 110 138 180 220 274 322
#     4  12  22  32  50  80 115 155 180 207 253 324
#     4  12  21  33  47  73 119 150 180 212 257 328
#     4  11  20  30  53  76 115 151 175 215 266 326
#
# _framework density 26.751228000000001
#
# number of rings (size 3 to 8) (size 9 to 14) (size 15 to 20)
#    0.750    0.500    5.000    1.875    3.500    0.500 
#    0.000    0.000    0.000    0.750    0.000    6.125 
#    0.000    0.000    0.000    0.000    0.000    0.000 
#
# Total GULP energy -89334.978640 kJ/mol
# GULP energy per Si atom -5583.436165 kJ/mol
# Density = 2.669034 g / cm^3
# Si number density = 26.751228 Si / 1000 Ang^3
#
#
#
# Elastic Constant Matrix: (Units=GPa)
#
#
# Indices 1 2 3 4 5 6 
#
# 1 71.5179 46.8840 27.8818 -10.6951 1.5768 -38.4631
# 2 46.8840 170.1858 49.4641 -38.2574 -5.0519 -42.5157
# 3 27.8818 49.4641 167.5817 -28.4505 -24.7124 -11.9151
# 4 -10.6951 -38.2574 -28.4505 47.7188 1.5382 0.7824
# 5 1.5768 -5.0519 -24.7124 1.5382 43.6157 0.1152
# 6 -38.4631 -42.5157 -11.9151 0.7824 0.1152 56.1236
#
#
#
# Elastic Compliance Matrix: (Units=1/GPa)
#
#
# Indices 1 2 3 4 5 6 
#
# 1 0.024591 -0.001889 -0.002461 0.002371 -0.002625 0.014872
# 2 -0.001889 0.009578 -0.000931 0.006595 0.000403 0.005671
# 3 -0.002461 -0.000931 0.007770 0.003210 0.004272 -0.000796
# 4 0.002371 0.006595 0.003210 0.028528 0.001473 0.006901
# 5 -0.002625 0.000403 0.004272 0.001473 0.025440 -0.000660
# 6 0.014872 0.005671 -0.000796 0.006901 -0.000660 0.032042
#
#
# Mechanical properties :
#
#
# Convention : Reuss Voigt Hill
#
# Bulk Modulus (GPa) = 31.87018 73.08279 52.47648
# Shear Modulus (GPa) = 33.56423 48.49533 41.02978
#
# Velocity S-wave (km/s) = 3.54599 4.26235 3.92056
# Velocity P-wave (km/s) = 5.35768 7.18347 6.33668
#
# Compressibility (1/GPa) = 0.03137730
#
# Stress axis : x y z
#
# Youngs Moduli (GPa) = 40.66552 104.40742 128.70295
#
# Poissons Ratio (x) = 0.19722 0.31675
# Poissons Ratio (y) = 0.07682 0.11977
# Poissons Ratio (z) = 0.10008 0.09716
#
# Static dielectric constant tensor:
#      x y z
#    x 2.308020 0.070080 -0.051560 
#    y 0.070080 2.167620 0.038380 
#    z -0.051560 0.038380 2.124990 
# 
# From -- ./inp_files/579216.got.cif
#   From: 2010.05.17/outbox.cif.g08.bks.cpg/sg2_290_cif.got.tgz:579216.got - 2010.06.03 11:33:40.
