data_PCOD9083224
_publ_section_title
;
Structure prediction by ZEFSAII (Michael W. Deem and Ramdas Pophale) SiO2 
 PCOD9083224
Probable space group: P -1
;
_chemical_formula_sum "Si O2"
_cell_formula_units_Z 16
_cell_length_a 15.456426
_cell_length_b 12.208601
_cell_length_c 8.618350
_cell_angle_alpha 63.679679
_cell_angle_beta 41.131564
_cell_angle_gamma 50.078943
_cell_volume 817.852380
_symmetry_space_group_name_H-M "P -1"
_symmetry_group_IT_number 2
_symmetry_cell_setting 'triclinic'
loop_
_space_group_symop_operation_xyz
x,y,z
-x,-y,-z
loop_
_atom_site_type_symbol
_atom_site_label
_atom_site_fract_x
_atom_site_fract_y
_atom_site_fract_z
Si Si1 0.431103 0.324166 0.343966
Si Si2 0.395222 0.041259 0.271707
Si Si3 0.706917 0.654917 0.811632
Si Si4 0.815119 0.728519 0.143481
Si Si5 0.336965 0.958469 0.926322
Si Si6 0.892576 0.497189 0.937433
Si Si7 0.361878 0.825413 0.300543
Si Si8 0.360132 0.555879 0.533850
O O1 0.339597 0.377451 0.270756
O O2 0.339131 0.269708 0.604701
O O3 0.598448 0.185184 0.170868
O O4 0.425049 0.454410 0.359233
O O5 0.339768 0.929625 0.408068
O O6 0.271604 0.209310 0.322916
O O7 0.511191 0.029399 0.255599
O O8 0.500000 0.000000 0.000000
O O9 0.843304 0.532527 0.803785
O O10 0.547079 0.720584 0.085856
O O11 0.939627 0.632859 0.165231
O O12 0.785810 0.886684 0.069184
O O13 0.871824 0.638833 0.962204
O O14 0.297205 0.921022 0.172072
O O15 0.773213 0.463246 0.202638
O O16 0.300500 0.720159 0.474485
O O17 0.500000 0.500000 0.500000
#
# Coordination Sequence:
#
# PCOD9083224 Si02
#       8
#     2   2   2   2   2   2   2   2
#     4   9  21  33  53  82 101 133 170 215 265 297
#     4   7  13  24  48  74  99 122 165 208 249 290
#     4   9  16  32  50  80 103 130 170 214 258 302
#     4  10  19  34  53  78 108 134 170 218 252 304
#     4   9  17  31  54  77 104 130 169 217 256 300
#     4  10  20  33  53  77 107 141 171 205 259 302
#     4   9  16  29  50  77 101 136 166 214 248 301
#     4  11  21  34  52  79 105 135 174 212 251 311
#
# _framework density 19.563434000000001
#
# number of rings (size 3 to 8) (size 9 to 14) (size 15 to 20)
#    0.000    3.250    1.250    2.625    1.750    2.500 
#    0.000    0.625    0.000    0.750    0.000    0.000 
#    0.000    0.000    0.000    0.000    0.000    0.000 
#
# Total GULP energy -89157.107377 kJ/mol
# GULP energy per Si atom -5572.319211 kJ/mol
# Density = 1.951891 g / cm^3
# Si number density = 19.563434 Si / 1000 Ang^3
#
#
#
# Elastic Constant Matrix: (Units=GPa)
#
#
# Indices 1 2 3 4 5 6 
#
# 1 62.0639 53.8212 8.4819 -5.0739 18.1498 12.1689
# 2 53.8212 113.1682 22.6785 -17.3023 17.6158 11.8990
# 3 8.4819 22.6785 20.8631 -4.5615 4.3891 5.5540
# 4 -5.0739 -17.3023 -4.5615 18.2273 -1.1457 3.6232
# 5 18.1498 17.6158 4.3891 -1.1457 21.4185 -0.6551
# 6 12.1689 11.8990 5.5540 3.6232 -0.6551 41.5249
#
#
#
# Elastic Compliance Matrix: (Units=1/GPa)
#
#
# Indices 1 2 3 4 5 6 
#
# 1 0.034427 -0.014405 0.007088 -0.002121 -0.019107 -0.007026
# 2 -0.014405 0.020527 -0.013229 0.012276 -0.001338 -0.000983
# 3 0.007088 -0.013229 0.064641 0.006591 -0.008253 -0.007637
# 4 -0.002121 0.012276 0.006591 0.069152 -0.006254 -0.009910
# 5 -0.019107 -0.001338 -0.008253 -0.006254 0.065602 0.008667
# 6 -0.007026 -0.000983 -0.007637 -0.009910 0.008667 0.028445
#
#
# Mechanical properties :
#
#
# Convention : Reuss Voigt Hill
#
# Bulk Modulus (GPa) = 12.73843 40.67313 26.70578
# Shear Modulus (GPa) = 14.28353 23.64172 18.96262
#
# Velocity S-wave (km/s) = 2.70499 3.48007 3.11672
# Velocity P-wave (km/s) = 4.03503 6.08139 5.16066
#
# Compressibility (1/GPa) = 0.07850262
#
# Stress axis : x y z
#
# Youngs Moduli (GPa) = 29.04680 48.71654 15.47014
#
# Poissons Ratio (x) = 0.70176 -0.10966
# Poissons Ratio (y) = 0.41842 0.20466
# Poissons Ratio (z) = -0.20589 0.64449
#
# Static dielectric constant tensor:
#      x y z
#    x 1.706440 0.009990 0.025730 
#    y 0.009990 1.738870 -0.011460 
#    z 0.025730 -0.011460 1.731130 
# 
# From -- ./inp_files/331665.got.cif
#   From: 2010.05.17/outbox.cif.g08.bks.cpg/sg2_166_cif.got.tgz:331665.got - 2010.06.03 11:33:40.
