data_PCOD9083718
_publ_section_title
;
Structure prediction by ZEFSAII (Michael W. Deem and Ramdas Pophale) SiO2 
 PCOD9083718
Probable space group: P -1
;
_chemical_formula_sum "Si O2"
_cell_formula_units_Z 16
_cell_length_a 7.515177
_cell_length_b 11.069013
_cell_length_c 14.289675
_cell_angle_alpha 55.466804
_cell_angle_beta 38.334769
_cell_angle_gamma 61.081700
_cell_volume 605.618876
_symmetry_space_group_name_H-M "P -1"
_symmetry_group_IT_number 2
_symmetry_cell_setting 'triclinic'
loop_
_space_group_symop_operation_xyz
x,y,z
-x,-y,-z
loop_
_atom_site_type_symbol
_atom_site_label
_atom_site_fract_x
_atom_site_fract_y
_atom_site_fract_z
Si Si1 0.382514 0.326036 0.061843
Si Si2 0.429485 0.374153 0.223880
Si Si3 0.200138 0.191700 0.020036
Si Si4 0.982006 0.736155 0.133629
Si Si5 0.376368 0.838474 0.390174
Si Si6 0.175875 0.517481 0.565110
Si Si7 0.438720 0.248798 0.460161
Si Si8 0.166261 0.889383 0.262841
O O1 0.312064 0.300525 0.210627
O O2 0.175135 0.269724 0.095551
O O3 0.403960 0.495460 0.947272
O O4 0.708247 0.249176 0.955355
O O5 0.559869 0.270840 0.297071
O O6 0.143818 0.451328 0.357048
O O7 0.165598 0.024139 0.132836
O O8 0.007649 0.248717 0.988112
O O9 0.532570 0.205981 0.842300
O O10 0.718856 0.847575 0.226118
O O11 0.890324 0.576991 0.273639
O O12 0.294225 0.673419 0.468803
O O13 0.368441 0.848540 0.501719
O O14 0.205816 0.931220 0.338613
O O15 0.375218 0.406778 0.468250
O O16 0.127260 0.185648 0.601039
#
# Coordination Sequence:
#
# PCOD9083718 Si02
#       8
#     2   2   2   2   2   2   2   2
#     4  10  22  39  52  81 117 152 183 222 271 335
#     4  10  21  36  57  82 115 148 184 223 281 334
#     4  10  21  37  60  77 116 153 180 228 273 328
#     4   9  19  34  55  83 108 144 183 219 277 335
#     4  10  20  32  57  89 113 135 181 235 286 325
#     4  10  19  34  57  89 113 136 181 236 286 325
#     4  11  20  34  58  85 113 143 176 242 281 316
#     4  10  21  36  56  90 108 143 192 224 280 328
#
# _framework density 26.419257999999999
#
# number of rings (size 3 to 8) (size 9 to 14) (size 15 to 20)
#    0.000    2.000    1.250    4.125    5.250    1.000 
#    2.250    8.125    0.000    1.500    0.000    0.000 
#    0.000    0.000    0.000    0.000    0.000    0.000 
#
# Total GULP energy -89449.457774 kJ/mol
# GULP energy per Si atom -5590.591111 kJ/mol
# Density = 2.635913 g / cm^3
# Si number density = 26.419258 Si / 1000 Ang^3
#
#
#
# Elastic Constant Matrix: (Units=GPa)
#
#
# Indices 1 2 3 4 5 6 
#
# 1 158.3533 11.8040 61.1960 -4.8968 41.8420 4.9494
# 2 11.8040 14.2043 19.3237 1.1048 9.4001 2.0177
# 3 61.1960 19.3237 144.4730 14.2662 44.9931 13.5191
# 4 -4.8968 1.1048 14.2662 24.8614 5.2306 4.8671
# 5 41.8420 9.4001 44.9931 5.2306 65.7136 7.5897
# 6 4.9494 2.0177 13.5191 4.8671 7.5897 28.1350
#
#
#
# Elastic Compliance Matrix: (Units=1/GPa)
#
#
# Indices 1 2 3 4 5 6 
#
# 1 0.008570 -0.001296 -0.002702 0.004050 -0.003767 0.000199
# 2 -0.001296 0.088172 -0.009845 0.002654 -0.005210 -0.000419
# 3 -0.002702 -0.009845 0.011356 -0.005331 -0.003958 -0.002285
# 4 0.004050 0.002654 -0.005331 0.045540 -0.002286 -0.005602
# 5 -0.003767 -0.005210 -0.003958 -0.002286 0.021539 -0.002477
# 6 0.000199 -0.000419 -0.002285 -0.005602 -0.002477 0.038273
#
#
# Mechanical properties :
#
#
# Convention : Reuss Voigt Hill
#
# Bulk Modulus (GPa) = 12.43603 55.74201 34.08902
# Shear Modulus (GPa) = 18.66088 38.72246 28.69167
#
# Velocity S-wave (km/s) = 2.66058 3.83259 3.29905
# Velocity P-wave (km/s) = 3.76240 6.38199 5.23858
#
# Compressibility (1/GPa) = 0.08041152
#
# Stress axis : x y z
#
# Youngs Moduli (GPa) = 116.68336 11.34152 88.05889
#
# Poissons Ratio (x) = 0.01470 0.23796
# Poissons Ratio (y) = 0.15126 0.86690
# Poissons Ratio (z) = 0.31531 0.11165
#
# Static dielectric constant tensor:
#      x y z
#    x 2.083630 -0.025200 -0.009480 
#    y -0.025200 2.164920 0.085690 
#    z -0.009480 0.085690 2.125290 
# 
# From -- ./inp_files/392323.got.cif
#   From: 2010.05.17/outbox.cif.g08.bks.cpg/sg2_197_cif.got.tgz:392323.got - 2010.06.03 11:33:40.
