data_PCOD9083982
_publ_section_title
;
Structure prediction by ZEFSAII (Michael W. Deem and Ramdas Pophale) SiO2 
 PCOD9083982
Probable space group: P -1
;
_chemical_formula_sum "Si O2"
_cell_formula_units_Z 16
_cell_length_a 5.804326
_cell_length_b 10.104514
_cell_length_c 16.422461
_cell_angle_alpha 51.383013
_cell_angle_beta 125.709418
_cell_angle_gamma 114.007670
_cell_volume 609.694150
_symmetry_space_group_name_H-M "P -1"
_symmetry_group_IT_number 2
_symmetry_cell_setting 'triclinic'
loop_
_space_group_symop_operation_xyz
x,y,z
-x,-y,-z
loop_
_atom_site_type_symbol
_atom_site_label
_atom_site_fract_x
_atom_site_fract_y
_atom_site_fract_z
Si Si1 0.316515 0.161622 0.903250
Si Si2 0.633735 0.558449 0.320991
Si Si3 0.231869 0.811992 0.706810
Si Si4 0.803089 0.099219 0.521964
Si Si5 0.743475 0.354184 0.560388
Si Si6 0.142967 0.751979 0.947225
Si Si7 0.766644 0.035333 0.787005
Si Si8 0.940441 0.522922 0.845362
O O1 0.369716 0.255124 0.791150
O O2 0.515444 0.262540 0.972729
O O3 0.980574 0.123747 0.866010
O O4 0.500000 0.000000 0.000000
O O5 0.571704 0.497496 0.425079
O O6 0.380563 0.459221 0.258487
O O7 0.972772 0.548227 0.383583
O O8 0.196079 0.822684 0.597981
O O9 0.518195 0.886999 0.782740
O O10 0.149881 0.617203 0.787873
O O11 0.016415 0.952519 0.634879
O O12 0.829145 0.238876 0.544258
O O13 0.500000 0.000000 0.500000
O O14 0.638878 0.199515 0.656450
O O15 0.024823 0.936062 0.838379
O O16 0.002159 0.638896 0.891506
O O17 0.037189 0.667750 0.043929
#
# Coordination Sequence:
#
# PCOD9083982 Si02
#       8
#     2   2   2   2   2   2   2   2
#     4   8  16  34  58  87 114 155 205 238 295 355
#     4   9  19  32  59  87 115 159 198 239 292 358
#     4  11  24  35  60  95 118 154 204 249 292 354
#     4  11  22  39  59  88 124 162 195 239 300 362
#     4  10  19  35  59  85 119 160 194 237 305 357
#     4   9  19  36  62  84 113 167 199 240 306 349
#     4  10  19  34  59  87 120 153 196 254 291 352
#     4  10  20  36  56  86 121 152 206 246 287 362
#
# _framework density 26.242668999999999
#
# number of rings (size 3 to 8) (size 9 to 14) (size 15 to 20)
#    0.000    2.250    1.250    1.500    3.500    0.500 
#    0.000    1.250    0.000    0.000    0.000    0.000 
#    0.000    0.000    0.000    0.000    0.000    0.000 
#
# Total GULP energy -89076.757664 kJ/mol
# GULP energy per Si atom -5567.297354 kJ/mol
# Density = 2.618294 g / cm^3
# Si number density = 26.242669 Si / 1000 Ang^3
#
#
#
# Elastic Constant Matrix: (Units=GPa)
#
#
# Indices 1 2 3 4 5 6 
#
# 1 23.4003 -2.9032 7.3206 26.5251 13.6411 -11.8158
# 2 -2.9032 81.6852 8.6349 46.0572 18.3278 -8.5637
# 3 7.3206 8.6349 138.8120 27.2790 5.6796 -18.6030
# 4 26.5251 46.0572 27.2790 39.7180 10.5983 45.6649
# 5 13.6411 18.3278 5.6796 10.5983 35.6179 10.1086
# 6 -11.8158 -8.5637 -18.6030 45.6649 10.1086 8.3578
#
#
#
# Elastic Compliance Matrix: (Units=1/GPa)
#
#
# Indices 1 2 3 4 5 6 
#
# 1 0.028928 -0.003873 -0.005009 0.009120 -0.006357 -0.016361
# 2 -0.003873 0.010582 -0.001975 0.002176 -0.001821 -0.008713
# 3 -0.005009 -0.001975 0.007225 0.001035 0.001674 -0.000703
# 4 0.009120 0.002176 0.001035 0.002803 -0.009456 0.013545
# 5 -0.006357 -0.001821 0.001674 -0.009456 0.032517 0.005207
# 6 -0.016361 -0.008713 -0.000703 0.013545 0.005207 0.005722
#
#
# Mechanical properties :
#
#
# Convention : Reuss Voigt Hill
#
# Bulk Modulus (GPa) = 39.96775 30.00022 34.98398
# Shear Modulus (GPa) = 42.43362 32.12843 37.28102
#
# Velocity S-wave (km/s) = 4.02552 3.50277 3.77321
# Velocity P-wave (km/s) = 6.07203 5.27407 5.68706
#
# Compressibility (1/GPa) = 0.02502017
#
# Stress axis : x y z
#
# Youngs Moduli (GPa) = 34.56844 94.50250 138.41048
#
# Poissons Ratio (x) = 0.36603 0.69335
# Poissons Ratio (y) = 0.13389 0.27331
# Poissons Ratio (z) = 0.17317 0.18661
#
# Static dielectric constant tensor:
#      x y z
#    x 2.082530 0.054980 -0.060840 
#    y 0.054980 2.376110 0.131810 
#    z -0.060840 0.131810 2.267650 
# 
# From -- ./inp_files/549474.got.cif
#   From: 2010.05.17/outbox.cif.g08.bks.cpg/sg2_275_cif.got.tgz:549474.got - 2010.06.03 11:33:40.
