data_PCOD9083819
_publ_section_title
;
Structure prediction by ZEFSAII (Michael W. Deem and Ramdas Pophale) SiO2 
 PCOD9083819
Probable space group: P -1
;
_chemical_formula_sum "Si O2"
_cell_formula_units_Z 12
_cell_length_a 13.847420
_cell_length_b 7.307114
_cell_length_c 8.073931
_cell_angle_alpha 73.669680
_cell_angle_beta 89.765834
_cell_angle_gamma 42.347762
_cell_volume 501.214655
_symmetry_space_group_name_H-M "P -1"
_symmetry_group_IT_number 2
_symmetry_cell_setting 'triclinic'
loop_
_space_group_symop_operation_xyz
x,y,z
-x,-y,-z
loop_
_atom_site_type_symbol
_atom_site_label
_atom_site_fract_x
_atom_site_fract_y
_atom_site_fract_z
Si Si1 0.670151 0.383867 0.877532
Si Si2 0.211921 0.141446 0.154741
Si Si3 0.667086 0.204425 0.275330
Si Si4 0.555072 0.964589 0.691613
Si Si5 0.044298 0.283034 0.412974
Si Si6 0.264554 0.296265 0.782139
O O1 0.512215 0.543504 0.760754
O O2 0.666259 0.615902 0.808085
O O3 0.789541 0.070053 0.863726
O O4 0.679344 0.323938 0.086888
O O5 0.352237 0.982696 0.313213
O O6 0.071563 0.362434 0.223654
O O7 0.243625 0.240909 0.979562
O O8 0.797342 0.051540 0.446510
O O9 0.705259 0.936934 0.270666
O O10 0.500000 0.000000 0.500000
O O11 0.415293 0.185055 0.766311
O O12 0.000000 0.500000 0.500000
O O13 0.896959 0.377643 0.357421
#
# Coordination Sequence:
#
# PCOD9083819 Si02
#       6
#     2   2   2   2   2   2
#     4   9  19  36  56  85 114 143 190 232 280 333
#     4  11  21  36  63  85 110 152 190 233 280 330
#     4   8  16  32  55  79 113 151 181 230 280 329
#     4  11  22  37  60  87 114 146 187 239 281 327
#     4  10  19  34  58  85 114 153 190 226 284 340
#     4   9  19  35  56  85 117 150 188 228 282 339
#
# _framework density 23.941839000000002
#
# number of rings (size 3 to 8) (size 9 to 14) (size 15 to 20)
#    0.000    2.333    0.000    5.000    0.000    2.667 
#    0.000    0.000    0.000   41.000    0.000    0.000 
#    0.000    0.000    0.000    0.000    0.000    0.000 
#
# Total GULP energy -66916.940867 kJ/mol
# GULP energy per Si atom -5576.411739 kJ/mol
# Density = 2.388735 g / cm^3
# Si number density = 23.941839 Si / 1000 Ang^3
#
#
#
# Elastic Constant Matrix: (Units=GPa)
#
#
# Indices 1 2 3 4 5 6 
#
# 1 69.3884 28.2340 7.4848 6.4407 0.0283 -2.3229
# 2 28.2340 85.7014 28.8763 21.8366 -3.1986 -10.2925
# 3 7.4848 28.8763 58.0846 -4.4772 0.9286 -2.7278
# 4 6.4407 21.8366 -4.4772 43.9505 -3.3556 -0.5521
# 5 0.0283 -3.1986 0.9286 -3.3556 27.7377 0.2613
# 6 -2.3229 -10.2925 -2.7278 -0.5521 0.2613 29.9746
#
#
#
# Elastic Compliance Matrix: (Units=1/GPa)
#
#
# Indices 1 2 3 4 5 6 
#
# 1 0.016704 -0.006060 0.000884 0.000593 -0.000667 -0.000689
# 2 -0.006060 0.020209 -0.009805 -0.009977 0.001407 0.005381
# 3 0.000884 -0.009805 0.022476 0.006939 -0.001034 -0.001116
# 4 0.000593 -0.009977 0.006939 0.028460 0.002081 -0.002242
# 5 -0.000667 0.001407 -0.001034 0.002081 0.036501 0.000058
# 6 -0.000689 0.005381 -0.001116 -0.002242 0.000058 0.035013
#
#
# Mechanical properties :
#
#
# Convention : Reuss Voigt Hill
#
# Bulk Modulus (GPa) = 33.98114 38.04050 36.01082
# Shear Modulus (GPa) = 25.10879 30.23783 27.67331
#
# Velocity S-wave (km/s) = 3.24194 3.55768 3.40348
# Velocity P-wave (km/s) = 5.31391 5.72707 5.52435
#
# Compressibility (1/GPa) = 0.02942809
#
# Stress axis : x y z
#
# Youngs Moduli (GPa) = 59.86546 49.48209 44.49249
#
# Poissons Ratio (x) = 0.29986 -0.03934
# Poissons Ratio (y) = 0.36278 0.43624
# Poissons Ratio (z) = -0.05293 0.48516
#
# Static dielectric constant tensor:
#      x y z
#    x 1.855240 -0.058270 0.003870 
#    y -0.058270 2.022550 -0.075610 
#    z 0.003870 -0.075610 2.071300 
# 
# From -- ./inp_files/147956.got.cif
#   From: 2010.05.17/outbox.cif.g08.bks.cpg/sg2_74_cif.got.tgz:147956.got - 2010.06.03 11:33:40.
