data_PCOD9083268
_publ_section_title
;
Structure prediction by ZEFSAII (Michael W. Deem and Ramdas Pophale) SiO2 
 PCOD9083268
Probable space group: P -1
;
_chemical_formula_sum "Si O2"
_cell_formula_units_Z 16
_cell_length_a 7.808019
_cell_length_b 15.632171
_cell_length_c 11.733944
_cell_angle_alpha 147.216977
_cell_angle_beta 80.952161
_cell_angle_gamma 86.382028
_cell_volume 712.913399
_symmetry_space_group_name_H-M "P -1"
_symmetry_group_IT_number 2
_symmetry_cell_setting 'triclinic'
loop_
_space_group_symop_operation_xyz
x,y,z
-x,-y,-z
loop_
_atom_site_type_symbol
_atom_site_label
_atom_site_fract_x
_atom_site_fract_y
_atom_site_fract_z
Si Si1 0.435420 0.198733 0.986491
Si Si2 0.462933 0.314122 0.442887
Si Si3 0.369158 0.721684 0.141389
Si Si4 0.871812 0.342472 0.095753
Si Si5 0.360684 0.675299 0.343155
Si Si6 0.228806 0.850532 0.936070
Si Si7 0.799817 0.826491 0.827227
Si Si8 0.877190 0.458744 0.636187
O O1 0.621610 0.142329 0.978045
O O2 0.296964 0.127825 0.988256
O O3 0.309921 0.400260 0.235605
O O4 0.515030 0.181615 0.830320
O O5 0.318737 0.505757 0.676744
O O6 0.528160 0.258548 0.502116
O O7 0.646553 0.288443 0.322050
O O8 0.356583 0.206528 0.272707
O O9 0.325629 0.767475 0.329034
O O10 0.188845 0.726446 0.091293
O O11 0.506408 0.523535 0.907447
O O12 0.912977 0.204214 0.036640
O O13 0.023963 0.430658 0.179829
O O14 0.178204 0.663244 0.408718
O O15 0.156577 0.022318 0.065787
O O16 0.979226 0.655139 0.599727
#
# Coordination Sequence:
#
# PCOD9083268 Si02
#       8
#     2   2   2   2   2   2   2   2
#     4   9  17  32  54  75 101 135 171 211 252 302
#     4   9  17  31  52  76 101 139 176 208 254 309
#     4   8  16  31  52  76 100 133 176 216 251 296
#     4   9  18  31  51  76 104 137 172 211 259 308
#     4   9  17  31  51  76 105 133 172 217 253 299
#     4  10  19  34  54  75 105 141 175 209 251 313
#     4  10  20  34  53  79 110 135 166 214 266 310
#     4  10  20  32  50  80 111 135 165 213 264 307
#
# _framework density 22.443117999999998
#
# number of rings (size 3 to 8) (size 9 to 14) (size 15 to 20)
#    0.000    2.750    0.000    3.000    0.000    6.500 
#    0.000    5.000    0.000    9.750    0.000    3.500 
#    0.000    3.000    0.000    0.000    0.000    0.000 
#
# Total GULP energy -89242.637665 kJ/mol
# GULP energy per Si atom -5577.664854 kJ/mol
# Density = 2.239204 g / cm^3
# Si number density = 22.443118 Si / 1000 Ang^3
#
#
#
# Elastic Constant Matrix: (Units=GPa)
#
#
# Indices 1 2 3 4 5 6 
#
# 1 120.0756 39.0594 3.9024 -5.3994 -0.9500 6.4830
# 2 39.0594 158.4394 26.6753 -14.2399 7.2233 9.8753
# 3 3.9024 26.6753 11.8908 3.6385 -4.5285 5.5476
# 4 -5.3994 -14.2399 3.6385 27.0371 -0.8708 -0.5971
# 5 -0.9500 7.2233 -4.5285 -0.8708 10.3075 -6.3560
# 6 6.4830 9.8753 5.5476 -0.5971 -6.3560 15.9427
#
#
#
# Elastic Compliance Matrix: (Units=1/GPa)
#
#
# Indices 1 2 3 4 5 6 
#
# 1 0.009628 -0.005114 0.013318 -0.002317 0.008957 -0.001898
# 2 -0.005114 0.027352 -0.085856 0.022806 -0.060528 -0.008264
# 3 0.013318 -0.085856 0.383874 -0.087063 0.222451 -0.000387
# 4 -0.002317 0.022806 -0.087063 0.058634 -0.049840 -0.000563
# 5 0.008957 -0.060528 0.222451 -0.049840 0.272846 0.063354
# 6 -0.001898 -0.008264 -0.000387 -0.000563 0.063354 0.093986
#
#
# Mechanical properties :
#
#
# Convention : Reuss Voigt Hill
#
# Bulk Modulus (GPa) = 3.76577 47.74224 25.75401
# Shear Modulus (GPa) = 4.58656 25.37537 14.98097
#
# Velocity S-wave (km/s) = 1.43111 3.36617 2.58642
# Velocity P-wave (km/s) = 2.10055 6.03546 4.51880
#
# Compressibility (1/GPa) = 0.26555005
#
# Stress axis : x y z
#
# Youngs Moduli (GPa) = 103.86413 36.56086 2.60502
#
# Poissons Ratio (x) = 0.18698 -0.03469
# Poissons Ratio (y) = 0.53117 0.22366
# Poissons Ratio (z) = -1.38328 3.13897
#
# Static dielectric constant tensor:
#      x y z
#    x 1.904210 0.017310 0.021230 
#    y 0.017310 1.877990 0.003120 
#    z 0.021230 0.003120 1.814530 
# 
# From -- ./inp_files/223401.got.cif
#   From: 2010.05.17/outbox.cif.g08.bks.cpg/sg2_112_cif.got.tgz:223401.got - 2010.06.03 11:33:40.
