data_PCOD9083474
_publ_section_title
;
Structure prediction by ZEFSAII (Michael W. Deem and Ramdas Pophale) SiO2 
 PCOD9083474
Probable space group: P -1
;
_chemical_formula_sum "Si O2"
_cell_formula_units_Z 14
_cell_length_a 14.580327
_cell_length_b 8.575178
_cell_length_c 8.431128
_cell_angle_alpha 67.700577
_cell_angle_beta 112.843241
_cell_angle_gamma 140.882671
_cell_volume 607.327795
_symmetry_space_group_name_H-M "P -1"
_symmetry_group_IT_number 2
_symmetry_cell_setting 'triclinic'
loop_
_space_group_symop_operation_xyz
x,y,z
-x,-y,-z
loop_
_atom_site_type_symbol
_atom_site_label
_atom_site_fract_x
_atom_site_fract_y
_atom_site_fract_z
Si Si1 0.354013 0.903103 0.863049
Si Si2 0.019191 0.786275 0.751314
Si Si3 0.855853 0.998871 0.894436
Si Si4 0.781210 0.720616 0.450172
Si Si5 0.461279 0.809478 0.412930
Si Si6 0.223809 0.773916 0.153399
Si Si7 0.835312 0.642806 0.169076
O O1 0.246699 0.625808 0.832651
O O2 0.413413 0.067423 0.681003
O O3 0.264688 0.874170 0.960712
O O4 0.500000 0.000000 0.000000
O O5 0.063879 0.869033 0.932108
O O6 0.895019 0.768688 0.624922
O O7 0.936249 0.502728 0.801842
O O8 0.154895 0.012257 0.641655
O O9 0.788202 0.731423 0.979339
O O10 0.751624 0.029776 0.798590
O O11 0.989129 0.160601 0.800041
O O12 0.615416 0.462044 0.484000
O O13 0.796470 0.650462 0.315770
O O14 0.331059 0.753412 0.264384
O O15 0.500000 0.000000 0.500000
#
# Coordination Sequence:
#
# PCOD9083474 Si02
#       7
#     2   2   2   2   2   2   2
#     4  10  20  34  55  81 103 146 188 214 263 322
#     4   9  17  31  54  78 108 136 171 222 274 315
#     4  10  20  34  56  83 113 136 177 232 276 315
#     4   9  18  32  52  81 105 143 180 213 267 325
#     4  10  19  35  56  76 109 148 184 216 261 327
#     4  10  20  35  56  85 107 139 180 230 273 311
#     4  10  19  34  56  82 108 143 180 222 275 323
#
# _framework density 23.051803
#
# number of rings (size 3 to 8) (size 9 to 14) (size 15 to 20)
#    0.000    2.286    2.857    0.429    0.000    0.000 
#    0.000    7.143    0.000    3.429    3.714    0.000 
#    0.000    0.000    0.000    0.000    0.000    0.000 
#
# Total GULP energy -78004.991843 kJ/mol
# GULP energy per Si atom -5571.785132 kJ/mol
# Density = 2.299934 g / cm^3
# Si number density = 23.051803 Si / 1000 Ang^3
#
#
#
# Elastic Constant Matrix: (Units=GPa)
#
#
# Indices 1 2 3 4 5 6 
#
# 1 76.4695 16.6215 16.0810 -25.9468 -21.2451 -1.6779
# 2 16.6215 91.2706 38.5782 -43.1304 -22.3832 10.3415
# 3 16.0810 38.5782 78.5708 -33.1262 -19.7831 7.9998
# 4 -25.9468 -43.1304 -33.1262 45.7682 10.2977 -2.1455
# 5 -21.2451 -22.3832 -19.7831 10.2977 36.1477 -5.0125
# 6 -1.6779 10.3415 7.9998 -2.1455 -5.0125 11.3745
#
#
#
# Elastic Compliance Matrix: (Units=1/GPa)
#
#
# Indices 1 2 3 4 5 6 
#
# 1 0.020409 0.005159 0.002616 0.015670 0.012865 0.005105
# 2 0.005159 0.025249 0.000780 0.024333 0.010272 -0.013627
# 3 0.002616 0.000780 0.021193 0.015338 0.008030 -0.008797
# 4 0.015670 0.024333 0.015338 0.061126 0.013435 -0.013149
# 5 0.012865 0.010272 0.008030 0.013435 0.043338 0.008543
# 6 0.005105 -0.013627 -0.008797 -0.013149 0.008543 0.108529
#
#
# Mechanical properties :
#
#
# Convention : Reuss Voigt Hill
#
# Bulk Modulus (GPa) = 11.91035 43.20801 27.55918
# Shear Modulus (GPa) = 17.19856 30.32677 23.76267
#
# Velocity S-wave (km/s) = 2.73442 3.63104 3.21415
# Velocity P-wave (km/s) = 3.89196 6.03025 5.07500
#
# Compressibility (1/GPa) = 0.08396057
#
# Stress axis : x y z
#
# Youngs Moduli (GPa) = 48.99849 39.60513 47.18483
#
# Poissons Ratio (x) = -0.20433 -0.12343
# Poissons Ratio (y) = -0.25279 -0.03679
# Poissons Ratio (z) = -0.12817 -0.03088
#
# Static dielectric constant tensor:
#      x y z
#    x 1.869440 0.012400 0.041380 
#    y 0.012400 1.897430 -0.027890 
#    z 0.041380 -0.027890 1.936180 
# 
# From -- ./inp_files/154891.got.cif
#   From: 2010.05.17/outbox.cif.g08.bks.cpg/sg2_78_cif.got.tgz:154891.got - 2010.06.03 11:33:40.
