data_PCOD9083735
_publ_section_title
;
Structure prediction by ZEFSAII (Michael W. Deem and Ramdas Pophale) SiO2 
 PCOD9083735
Probable space group: P -1
;
_chemical_formula_sum "Si O2"
_cell_formula_units_Z 16
_cell_length_a 10.948364
_cell_length_b 16.951532
_cell_length_c 7.975029
_cell_angle_alpha 91.672366
_cell_angle_beta 57.515879
_cell_angle_gamma 43.120196
_cell_volume 582.794141
_symmetry_space_group_name_H-M "P -1"
_symmetry_group_IT_number 2
_symmetry_cell_setting 'triclinic'
loop_
_space_group_symop_operation_xyz
x,y,z
-x,-y,-z
loop_
_atom_site_type_symbol
_atom_site_label
_atom_site_fract_x
_atom_site_fract_y
_atom_site_fract_z
Si Si1 0.112574 0.777423 0.291221
Si Si2 0.920399 0.881220 0.065385
Si Si3 0.790277 0.767555 0.149621
Si Si4 0.378476 0.447264 0.520248
Si Si5 0.833141 0.420425 0.665568
Si Si6 0.822098 0.629877 0.398353
Si Si7 0.069244 0.028904 0.252136
Si Si8 0.516415 0.763997 0.168256
O O1 0.048636 0.714719 0.339247
O O2 0.984634 0.877482 0.561473
O O3 0.977144 0.873117 0.219296
O O4 0.487503 0.604354 0.001886
O O5 0.270834 0.697010 0.727434
O O6 0.821521 0.994107 0.009671
O O7 0.745173 0.882336 0.185491
O O8 0.615148 0.806452 0.132645
O O9 0.699393 0.758517 0.376142
O O10 0.156505 0.573385 0.845217
O O11 0.226841 0.566204 0.483458
O O12 0.365732 0.360924 0.469032
O O13 0.073057 0.376211 0.510211
O O14 0.161444 0.436821 0.070299
O O15 0.735169 0.147397 0.508364
O O16 0.329173 0.849580 0.137240
#
# Coordination Sequence:
#
# PCOD9083735 Si02
#       8
#     2   2   2   2   2   2   2   2
#     4  10  21  37  61  94 121 155 202 253 296 353
#     4  11  22  38  63  93 119 160 200 245 305 358
#     4  11  21  37  62  90 123 150 203 256 301 353
#     4  10  21  31  57  91 120 155 192 244 308 361
#     4  10  19  34  57  91 126 150 194 254 307 346
#     4  11  19  37  61  89 125 149 197 254 304 353
#     4  11  22  43  66  81 126 165 205 238 295 367
#     4  10  23  39  62  89 117 168 199 244 301 354
#
# _framework density 27.453949000000001
#
# number of rings (size 3 to 8) (size 9 to 14) (size 15 to 20)
#    0.000    1.500    2.500    4.500    0.000    0.500 
#    0.000    3.125   11.000    0.000    0.000    0.000 
#    0.000    0.000    0.000    0.000    0.000    0.000 
#
# Total GULP energy -89693.315704 kJ/mol
# GULP energy per Si atom -5605.832231 kJ/mol
# Density = 2.739146 g / cm^3
# Si number density = 27.453949 Si / 1000 Ang^3
#
#
#
# Elastic Constant Matrix: (Units=GPa)
#
#
# Indices 1 2 3 4 5 6 
#
# 1 119.4681 24.7341 16.0171 -4.8443 -22.3290 19.3676
# 2 24.7341 143.1041 21.9296 -29.4451 2.5341 -3.3744
# 3 16.0171 21.9296 125.0345 -18.1208 -0.3850 12.1295
# 4 -4.8443 -29.4451 -18.1208 36.3373 -0.4727 -2.0761
# 5 -22.3290 2.5341 -0.3850 -0.4727 42.2897 -3.6941
# 6 19.3676 -3.3744 12.1295 -2.0761 -3.6941 44.3957
#
#
#
# Elastic Compliance Matrix: (Units=1/GPa)
#
#
# Indices 1 2 3 4 5 6 
#
# 1 0.010523 -0.002067 -0.000679 -0.000779 0.005302 -0.004157
# 2 -0.002067 0.008884 -0.000503 0.006764 -0.001385 0.001915
# 3 -0.000679 -0.000503 0.008924 0.003831 -0.000382 -0.002033
# 4 -0.000779 0.006764 0.003831 0.034885 -0.000268 0.001416
# 5 0.005302 -0.001385 -0.000382 -0.000268 0.026512 -0.000120
# 6 -0.004157 0.001915 -0.002033 0.001416 -0.000120 0.025096
#
#
# Mechanical properties :
#
#
# Convention : Reuss Voigt Hill
#
# Bulk Modulus (GPa) = 45.80241 56.99647 51.39944
# Shear Modulus (GPa) = 38.88081 46.26626 42.57354
#
# Velocity S-wave (km/s) = 3.76735 4.10961 3.94220
# Velocity P-wave (km/s) = 5.97022 6.58212 6.28362
#
# Compressibility (1/GPa) = 0.02183291
#
# Stress axis : x y z
#
# Youngs Moduli (GPa) = 95.03269 112.56621 112.05420
#
# Poissons Ratio (x) = 0.23267 0.07605
# Poissons Ratio (y) = 0.19643 0.05638
# Poissons Ratio (z) = 0.06450 0.05664
#
# Static dielectric constant tensor:
#      x y z
#    x 2.091090 0.030550 0.026990 
#    y 0.030550 2.130290 0.041040 
#    z 0.026990 0.041040 2.155540 
# 
# From -- ./inp_files/279363.got.cif
#   From: 2010.05.17/outbox.cif.g08.bks.cpg/sg2_140_cif.got.tgz:279363.got - 2010.06.03 11:33:40.
