data_PCOD9083555
_publ_section_title
;
Structure prediction by ZEFSAII (Michael W. Deem and Ramdas Pophale) SiO2 
 PCOD9083555
Probable space group: P -1
;
_chemical_formula_sum "Si O2"
_cell_formula_units_Z 16
_cell_length_a 14.168597
_cell_length_b 10.376940
_cell_length_c 10.465281
_cell_angle_alpha 49.666065
_cell_angle_beta 138.240446
_cell_angle_gamma 141.548570
_cell_volume 629.821320
_symmetry_space_group_name_H-M "P -1"
_symmetry_group_IT_number 2
_symmetry_cell_setting 'triclinic'
loop_
_space_group_symop_operation_xyz
x,y,z
-x,-y,-z
loop_
_atom_site_type_symbol
_atom_site_label
_atom_site_fract_x
_atom_site_fract_y
_atom_site_fract_z
Si Si1 0.658716 0.623020 0.737678
Si Si2 0.553893 0.652006 0.078847
Si Si3 0.019196 0.383136 0.931841
Si Si4 0.869451 0.082088 0.187810
Si Si5 0.964452 0.599828 0.520918
Si Si6 0.808910 0.932116 0.486942
Si Si7 0.255386 0.998377 0.273167
Si Si8 0.612595 0.236239 0.322180
O O1 0.490547 0.460018 0.757489
O O2 0.763068 0.828468 0.802919
O O3 0.649859 0.734111 0.530936
O O4 0.786745 0.554271 0.890643
O O5 0.748644 0.863199 0.129591
O O6 0.500000 0.500000 0.000000
O O7 0.419653 0.716900 0.881804
O O8 0.013266 0.551580 0.737926
O O9 0.914108 0.188287 0.850826
O O10 0.904645 0.273454 0.016155
O O11 0.060708 0.133382 0.369022
O O12 0.768741 0.004730 0.270508
O O13 0.753093 0.455046 0.395659
O O14 0.000000 0.500000 0.500000
O O15 0.065457 0.846880 0.452751
O O16 0.424526 0.111950 0.278860
O O17 0.316971 0.902854 0.501516
#
# Coordination Sequence:
#
# PCOD9083555 Si02
#       8
#     2   2   2   2   2   2   2   2
#     4  11  22  35  58  84 122 158 200 243 294 355
#     4  12  21  35  59  91 119 152 196 249 296 352
#     4  10  20  37  60  87 117 157 196 247 295 352
#     4  10  22  41  61  85 121 157 206 244 296 358
#     4  11  22  37  63  91 122 155 197 247 300 357
#     4  10  23  41  60  84 119 166 199 245 297 353
#     4  10  19  34  56  88 120 152 188 245 304 350
#     4  10  20  33  55  89 120 148 189 243 302 347
#
# _framework density 25.404031
#
# number of rings (size 3 to 8) (size 9 to 14) (size 15 to 20)
#    0.000    1.500    2.500    3.375    0.000    4.000 
#    0.000    0.000    0.000    5.250    0.000    0.000 
#    0.000    0.000    0.000    0.000    0.000    0.000 
#
# Total GULP energy -89321.956044 kJ/mol
# GULP energy per Si atom -5582.622253 kJ/mol
# Density = 2.534621 g / cm^3
# Si number density = 25.404031 Si / 1000 Ang^3
#
#
#
# Elastic Constant Matrix: (Units=GPa)
#
#
# Indices 1 2 3 4 5 6 
#
# 1 61.1437 9.7190 37.6591 -13.4009 -10.2276 24.3078
# 2 9.7190 96.7875 11.0181 -33.8302 -6.3201 9.9370
# 3 37.6591 11.0181 129.1391 -33.1173 -21.7487 13.8899
# 4 -13.4009 -33.8302 -33.1173 44.9852 9.8300 -15.3939
# 5 -10.2276 -6.3201 -21.7487 9.8300 34.4561 -7.3405
# 6 24.3078 9.9370 13.8899 -15.3939 -7.3405 26.0131
#
#
#
# Elastic Compliance Matrix: (Units=1/GPa)
#
#
# Indices 1 2 3 4 5 6 
#
# 1 0.031300 -0.002039 -0.007862 -0.007910 0.000046 -0.028939
# 2 -0.002039 0.014545 0.002471 0.013023 0.000521 0.002883
# 3 -0.007862 0.002471 0.012423 0.010061 0.004586 0.007017
# 4 -0.007910 0.013023 0.010061 0.045459 -0.001571 0.023503
# 5 0.000046 0.000521 0.004586 -0.001571 0.033731 0.005898
# 6 -0.028939 0.002883 0.007017 0.023503 0.005898 0.076209
#
#
# Mechanical properties :
#
#
# Convention : Reuss Voigt Hill
#
# Bulk Modulus (GPa) = 23.03640 44.87363 33.95501
# Shear Modulus (GPa) = 20.57649 36.33585 28.45617
#
# Velocity S-wave (km/s) = 2.84908 3.78606 3.35049
# Velocity P-wave (km/s) = 4.46214 6.06751 5.32566
#
# Compressibility (1/GPa) = 0.04340957
#
# Stress axis : x y z
#
# Youngs Moduli (GPa) = 31.94886 68.75085 80.49567
#
# Poissons Ratio (x) = 0.14015 0.63283
# Poissons Ratio (y) = 0.06513 -0.19889
# Poissons Ratio (z) = 0.25117 -0.16987
#
# Static dielectric constant tensor:
#      x y z
#    x 2.052530 -0.030380 -0.054720 
#    y -0.030380 2.021280 -0.032870 
#    z -0.054720 -0.032870 2.093050 
# 
# From -- ./inp_files/306604.got.cif
#   From: 2010.05.17/outbox.cif.g08.bks.cpg/sg2_154_cif.got.tgz:306604.got - 2010.06.03 11:33:40.
