data_PCOD9083421
_publ_section_title
;
Structure prediction by ZEFSAII (Michael W. Deem and Ramdas Pophale) SiO2 
 PCOD9083421
Probable space group: P -1
;
_chemical_formula_sum "Si O2"
_cell_formula_units_Z 14
_cell_length_a 20.292796
_cell_length_b 17.174711
_cell_length_c 7.337836
_cell_angle_alpha 144.493454
_cell_angle_beta 48.165369
_cell_angle_gamma 156.687605
_cell_volume 550.476885
_symmetry_space_group_name_H-M "P -1"
_symmetry_group_IT_number 2
_symmetry_cell_setting 'triclinic'
loop_
_space_group_symop_operation_xyz
x,y,z
-x,-y,-z
loop_
_atom_site_type_symbol
_atom_site_label
_atom_site_fract_x
_atom_site_fract_y
_atom_site_fract_z
Si Si1 0.792294 0.836174 0.521145
Si Si2 0.370330 0.656978 0.125910
Si Si3 0.171774 0.297942 0.510013
Si Si4 0.944043 0.630263 0.357338
Si Si5 0.399911 0.981206 0.269463
Si Si6 0.685132 0.937625 0.700009
Si Si7 0.868353 0.415231 0.464159
O O1 0.805007 0.824274 0.694493
O O2 0.668158 0.793571 0.600114
O O3 0.710620 0.590402 0.125517
O O4 0.994675 0.109527 0.593467
O O5 0.235488 0.602488 0.284211
O O6 0.528978 0.905602 0.441272
O O7 0.353707 0.601434 0.835052
O O8 0.131679 0.317866 0.432255
O O9 0.961411 0.608505 0.490327
O O10 0.129990 0.859626 0.353289
O O11 0.802351 0.339877 0.975874
O O12 0.426992 0.157252 0.446022
O O13 0.500000 0.000000 0.000000
O O14 0.726896 0.124931 0.094094
O O15 0.000000 0.500000 0.500000
#
# Coordination Sequence:
#
# PCOD9083421 Si02
#       7
#     2   2   2   2   2   2   2
#     4   8  17  35  58  78 108 148 187 222 276 323
#     4  10  19  34  55  86 106 149 185 222 280 331
#     4   8  17  35  58  77 111 143 189 224 270 324
#     4  10  20  37  56  82 111 145 186 233 269 321
#     4  11  20  34  54  84 116 143 179 233 284 317
#     4  10  20  37  59  79 111 148 185 233 266 325
#     4  11  20  31  56  82 110 140 183 226 277 323
#
# _framework density 25.432492
#
# number of rings (size 3 to 8) (size 9 to 14) (size 15 to 20)
#    0.857    1.429    2.857    3.429    0.000    1.143 
#    0.000    2.857    0.000    0.857    0.000    0.000 
#    0.000    0.000    0.000    0.000    0.000    0.000 
#
# Total GULP energy -78052.327533 kJ/mol
# GULP energy per Si atom -5575.166252 kJ/mol
# Density = 2.537461 g / cm^3
# Si number density = 25.432492 Si / 1000 Ang^3
#
#
#
# Elastic Constant Matrix: (Units=GPa)
#
#
# Indices 1 2 3 4 5 6 
#
# 1 225.6794 19.8185 25.0759 5.1045 -30.2727 -19.4529
# 2 19.8185 34.5173 8.7483 9.0110 -1.2358 -10.6840
# 3 25.0759 8.7483 55.1320 6.9062 -3.3319 -6.8250
# 4 5.1045 9.0110 6.9062 8.8119 5.9532 0.6596
# 5 -30.2727 -1.2358 -3.3319 5.9532 47.8512 4.1364
# 6 -19.4529 -10.6840 -6.8250 0.6596 4.1364 33.1671
#
#
#
# Elastic Compliance Matrix: (Units=1/GPa)
#
#
# Indices 1 2 3 4 5 6 
#
# 1 0.005422 -0.001018 -0.001365 -0.003604 0.003567 0.002198
# 2 -0.001018 0.048995 0.002164 -0.056764 0.006455 0.015955
# 3 -0.001365 0.002164 0.021738 -0.020753 0.002906 0.004420
# 4 -0.003604 -0.056764 -0.020753 0.211587 -0.029334 -0.025218
# 5 0.003567 0.006455 0.002906 -0.029334 0.027002 0.001985
# 6 0.002198 0.015955 0.004420 -0.025218 0.001985 0.037742
#
#
# Mechanical properties :
#
#
# Convention : Reuss Voigt Hill
#
# Bulk Modulus (GPa) = 13.20710 46.95712 30.08211
# Shear Modulus (GPa) = 13.22181 35.41177 24.31679
#
# Velocity S-wave (km/s) = 2.28256 3.73551 3.09549
# Velocity P-wave (km/s) = 3.48583 6.09171 4.96286
#
# Compressibility (1/GPa) = 0.07571684
#
# Stress axis : x y z
#
# Youngs Moduli (GPa) = 184.44755 20.41024 46.00171
#
# Poissons Ratio (x) = 0.02078 0.06281
# Poissons Ratio (y) = 0.18778 -0.09956
# Poissons Ratio (z) = 0.25183 -0.04417
#
# Static dielectric constant tensor:
#      x y z
#    x 2.239610 -0.063480 -0.024620 
#    y -0.063480 2.124290 0.002310 
#    z -0.024620 0.002310 2.026400 
# 
# From -- ./inp_files/347913.got.cif
#   From: 2010.05.17/outbox.cif.g08.bks.cpg/sg2_174_cif.got.tgz:347913.got - 2010.06.03 11:33:40.
