data_PCOD9083473
_publ_section_title
;
Structure prediction by ZEFSAII (Michael W. Deem and Ramdas Pophale) SiO2 
 PCOD9083473
Probable space group: P -1
;
_chemical_formula_sum "Si O2"
_cell_formula_units_Z 14
_cell_length_a 10.807667
_cell_length_b 12.318124
_cell_length_c 10.287145
_cell_angle_alpha 141.585540
_cell_angle_beta 107.507311
_cell_angle_gamma 57.705987
_cell_volume 701.002648
_symmetry_space_group_name_H-M "P -1"
_symmetry_group_IT_number 2
_symmetry_cell_setting 'triclinic'
loop_
_space_group_symop_operation_xyz
x,y,z
-x,-y,-z
loop_
_atom_site_type_symbol
_atom_site_label
_atom_site_fract_x
_atom_site_fract_y
_atom_site_fract_z
Si Si1 0.637477 0.330118 0.297032
Si Si2 0.754828 0.605854 0.479069
Si Si3 0.927897 0.262346 0.784930
Si Si4 0.919637 0.113354 0.368758
Si Si5 0.519574 0.046864 0.899884
Si Si6 0.020410 0.542936 0.351937
Si Si7 0.195570 0.313441 0.931858
O O1 0.500000 0.500000 0.500000
O O2 0.693665 0.453015 0.341695
O O3 0.774445 0.179424 0.294977
O O4 0.584069 0.199100 0.076009
O O5 0.863759 0.557988 0.346798
O O6 0.862814 0.574582 0.606372
O O7 0.625596 0.837439 0.664595
O O8 0.871342 0.192571 0.576487
O O9 0.819960 0.502295 0.986520
O O10 0.963977 0.122530 0.791365
O O11 0.092778 0.228254 0.764861
O O12 0.995436 0.236519 0.451829
O O13 0.361382 0.156002 0.878509
O O14 0.500000 0.000000 0.000000
O O15 0.105260 0.424410 0.138936
#
# Coordination Sequence:
#
# PCOD9083473 Si02
#       7
#     2   2   2   2   2   2   2
#     4  11  20  33  55  86 114 138 175 227 278 328
#     4  10  21  35  52  81 117 146 170 216 285 331
#     4   9  18  32  54  80 101 143 188 229 255 305
#     4   9  18  33  53  80 105 139 186 224 265 315
#     4  12  20  34  57  85 112 142 176 224 279 327
#     4   9  18  36  52  76 116 140 174 222 271 332
#     4  10  19  34  56  82 107 139 186 227 264 317
#
# _framework density 19.971392999999999
#
# number of rings (size 3 to 8) (size 9 to 14) (size 15 to 20)
#    0.000    2.000    2.857    2.571    0.000    0.000 
#    2.571    2.143    0.000    8.571    0.000    0.000 
#    0.000    0.000    0.000    0.000    0.000    0.000 
#
# Total GULP energy -78094.298007 kJ/mol
# GULP energy per Si atom -5578.164143 kJ/mol
# Density = 1.992594 g / cm^3
# Si number density = 19.971393 Si / 1000 Ang^3
#
#
#
# Elastic Constant Matrix: (Units=GPa)
#
#
# Indices 1 2 3 4 5 6 
#
# 1 91.3200 37.1949 24.7395 21.2127 -0.6268 -7.6911
# 2 37.1949 128.0869 31.3857 27.8890 -8.2819 -23.6734
# 3 24.7395 31.3857 61.4918 16.5820 5.0792 -6.9778
# 4 21.2127 27.8890 16.5820 37.4361 -2.8903 2.4034
# 5 -0.6268 -8.2819 5.0792 -2.8903 22.0927 -5.9483
# 6 -7.6911 -23.6734 -6.9778 2.4034 -5.9483 24.8086
#
#
#
# Elastic Compliance Matrix: (Units=1/GPa)
#
#
# Indices 1 2 3 4 5 6 
#
# 1 0.013920 -0.001593 -0.003058 -0.005475 0.000479 0.002581
# 2 -0.001593 0.014394 -0.003407 -0.008589 0.009131 0.015304
# 3 -0.003058 -0.003407 0.021449 -0.005807 -0.006852 0.000753
# 4 -0.005475 -0.008589 -0.005807 0.039707 -0.001052 -0.015626
# 5 0.000479 0.009131 -0.006852 -0.001052 0.055623 0.020373
# 6 0.002581 0.015304 0.000753 -0.015626 0.020373 0.062323
#
#
# Mechanical properties :
#
#
# Convention : Reuss Voigt Hill
#
# Bulk Modulus (GPa) = 29.71998 51.94877 40.83438
# Shear Modulus (GPa) = 21.29943 29.37272 25.33608
#
# Velocity S-wave (km/s) = 3.26927 3.83918 3.56563
# Velocity P-wave (km/s) = 5.40041 6.76169 6.11902
#
# Compressibility (1/GPa) = 0.03364740
#
# Stress axis : x y z
#
# Youngs Moduli (GPa) = 71.83837 69.47480 46.62227
#
# Poissons Ratio (x) = 0.11066 0.14255
# Poissons Ratio (y) = 0.11443 0.15885
# Poissons Ratio (z) = 0.21965 0.23672
#
# Static dielectric constant tensor:
#      x y z
#    x 1.702980 0.031330 0.034630 
#    y 0.031330 1.747090 0.016280 
#    z 0.034630 0.016280 1.742650 
# 
# From -- ./inp_files/332269.got.cif
#   From: 2010.05.17/outbox.cif.g08.bks.cpg/sg2_167_cif.got.tgz:332269.got - 2010.06.03 11:33:40.
