data_PCOD9083366
_publ_section_title
;
Structure prediction by ZEFSAII (Michael W. Deem and Ramdas Pophale) SiO2 
 PCOD9083366
Probable space group: P -1
;
_chemical_formula_sum "Si O2"
_cell_formula_units_Z 16
_cell_length_a 8.242988
_cell_length_b 7.626268
_cell_length_c 14.228878
_cell_angle_alpha 104.943780
_cell_angle_beta 97.687021
_cell_angle_gamma 53.315636
_cell_volume 692.815042
_symmetry_space_group_name_H-M "P -1"
_symmetry_group_IT_number 2
_symmetry_cell_setting 'triclinic'
loop_
_space_group_symop_operation_xyz
x,y,z
-x,-y,-z
loop_
_atom_site_type_symbol
_atom_site_label
_atom_site_fract_x
_atom_site_fract_y
_atom_site_fract_z
Si Si1 0.162941 0.507245 0.131577
Si Si2 0.758720 0.545266 0.091141
Si Si3 0.746726 0.248896 0.200961
Si Si4 0.532149 0.028157 0.116060
Si Si5 0.680067 0.323563 0.701674
Si Si6 0.784096 0.467456 0.550843
Si Si7 0.445594 0.217119 0.577220
Si Si8 0.974991 0.355472 0.361487
O O1 0.330079 0.266921 0.158387
O O2 0.183025 0.688298 0.206983
O O3 0.956731 0.532949 0.130238
O O4 0.219893 0.496340 0.024995
O O5 0.742955 0.368647 0.121154
O O6 0.578076 0.804246 0.134442
O O7 0.713273 0.057478 0.149797
O O8 0.543121 0.440988 0.267656
O O9 0.931400 0.214325 0.270661
O O10 0.500000 0.000000 0.000000
O O11 0.772526 0.334711 0.614122
O O12 0.619733 0.156960 0.655345
O O13 0.587158 0.623768 0.491732
O O14 0.951138 0.313019 0.462925
O O15 0.841404 0.624266 0.623599
O O16 0.225396 0.381628 0.631692
O O17 0.500000 0.000000 0.500000
#
# Coordination Sequence:
#
# PCOD9083366 Si02
#       8
#     2   2   2   2   2   2   2   2
#     4   9  20  38  59  83 113 147 187 233 276 333
#     4  10  20  40  60  80 118 151 179 236 286 321
#     4  10  20  36  58  84 112 145 187 232 272 335
#     4   9  20  38  58  85 111 148 192 225 280 339
#     4  10  19  34  55  78 104 144 183 217 279 332
#     4   9  17  35  56  69 104 144 175 216 273 325
#     4   9  18  33  50  78 108 133 178 226 270 325
#     4   8  18  34  55  76 103 144 180 216 280 325
#
# _framework density 23.094187000000002
#
# number of rings (size 3 to 8) (size 9 to 14) (size 15 to 20)
#    0.750    2.000    0.000    1.125    0.000    4.500 
#   11.250    8.750    0.000    0.000    0.000    0.000 
#    0.000    0.000    0.000    0.000    0.000    0.000 
#
# Total GULP energy -89150.470384 kJ/mol
# GULP energy per Si atom -5571.904399 kJ/mol
# Density = 2.304162 g / cm^3
# Si number density = 23.094187 Si / 1000 Ang^3
#
#
#
# Elastic Constant Matrix: (Units=GPa)
#
#
# Indices 1 2 3 4 5 6 
#
# 1 37.8231 1.8955 29.5336 -9.5300 10.1932 3.8928
# 2 1.8955 41.0128 12.5835 7.9525 1.9935 2.0293
# 3 29.5336 12.5835 98.3194 3.0029 38.4634 0.7609
# 4 -9.5300 7.9525 3.0029 28.6274 5.4816 6.9312
# 5 10.1932 1.9935 38.4634 5.4816 49.0548 -3.4995
# 6 3.8928 2.0293 0.7609 6.9312 -3.4995 19.8073
#
#
#
# Elastic Compliance Matrix: (Units=1/GPa)
#
#
# Indices 1 2 3 4 5 6 
#
# 1 0.043698 -0.001284 -0.012409 0.020509 -0.002705 -0.015635
# 2 -0.001284 0.027150 -0.004208 -0.008494 0.003499 0.001223
# 3 -0.012409 -0.004208 0.019162 -0.002959 -0.011868 0.001072
# 4 0.020509 -0.008494 -0.002959 0.051648 -0.008988 -0.022708
# 5 -0.002705 0.003499 -0.011868 -0.008988 0.031785 0.009390
# 6 -0.015635 0.001223 0.001072 -0.022708 0.009390 0.062998
#
#
# Mechanical properties :
#
#
# Convention : Reuss Voigt Hill
#
# Bulk Modulus (GPa) = 18.44759 29.46450 23.95605
# Shear Modulus (GPa) = 17.22286 28.37406 22.79846
#
# Velocity S-wave (km/s) = 2.73383 3.50898 3.14537
# Velocity P-wave (km/s) = 4.23916 5.40401 4.85663
#
# Compressibility (1/GPa) = 0.05420761
#
# Stress axis : x y z
#
# Youngs Moduli (GPa) = 22.88421 36.83305 52.18678
#
# Poissons Ratio (x) = 0.04729 0.64759
# Poissons Ratio (y) = 0.02938 0.21961
# Poissons Ratio (z) = 0.28397 0.15500
#
# Static dielectric constant tensor:
#      x y z
#    x 1.879370 -0.037660 0.029650 
#    y -0.037660 1.926910 0.011590 
#    z 0.029650 0.011590 1.902740 
# 
# From -- ./inp_files/555531.got.cif
#   From: 2010.05.17/outbox.cif.g08.bks.cpg/sg2_278_cif.got.tgz:555531.got - 2010.06.03 11:33:40.
