data_PCOD9083250
_publ_section_title
;
Structure prediction by ZEFSAII (Michael W. Deem and Ramdas Pophale) SiO2 
 PCOD9083250
Probable space group: P -1
;
_chemical_formula_sum "Si O2"
_cell_formula_units_Z 16
_cell_length_a 16.701898
_cell_length_b 7.940938
_cell_length_c 16.278128
_cell_angle_alpha 35.885228
_cell_angle_beta 30.413113
_cell_angle_gamma 38.416682
_cell_volume 613.913988
_symmetry_space_group_name_H-M "P -1"
_symmetry_group_IT_number 2
_symmetry_cell_setting 'triclinic'
loop_
_space_group_symop_operation_xyz
x,y,z
-x,-y,-z
loop_
_atom_site_type_symbol
_atom_site_label
_atom_site_fract_x
_atom_site_fract_y
_atom_site_fract_z
Si Si1 0.966882 0.085092 0.629243
Si Si2 0.739514 0.183584 0.350225
Si Si3 0.633943 0.085940 0.113636
Si Si4 0.165716 0.391410 0.007033
Si Si5 0.639103 0.614249 0.994071
Si Si6 0.687853 0.239327 0.687466
Si Si7 0.627169 0.612574 0.436764
Si Si8 0.241718 0.312330 0.356319
O O1 0.860160 0.123591 0.626685
O O2 0.847139 0.338858 0.692271
O O3 0.135282 0.172649 0.443104
O O4 0.978567 0.758061 0.785015
O O5 0.867892 0.308774 0.136097
O O6 0.674201 0.362600 0.422032
O O7 0.569044 0.274653 0.414681
O O8 0.794275 0.841925 0.464257
O O9 0.699032 0.367516 0.968189
O O10 0.438956 0.207621 0.217055
O O11 0.713841 0.857720 0.060286
O O12 0.663008 0.892724 0.249037
O O13 0.251756 0.428554 0.002523
O O14 0.458745 0.589346 0.189050
O O15 0.624897 0.946494 0.842794
O O16 0.702532 0.455130 0.515683
#
# Coordination Sequence:
#
# PCOD9083250 Si02
#       8
#     2   2   2   2   2   2   2   2
#     4  10  22  38  53  84 121 160 192 236 289 359
#     4   9  18  33  55  84 111 151 193 243 288 343
#     4  10  21  37  62  92 112 154 195 245 296 341
#     4  10  21  38  62  88 119 147 198 249 290 341
#     4  10  20  34  56  90 119 148 191 245 295 340
#     4  10  19  34  53  82 122 151 185 247 289 340
#     4   9  18  32  55  84 117 143 191 248 295 335
#     4  10  21  36  55  83 120 155 199 228 293 359
#
# _framework density 26.062284999999999
#
# number of rings (size 3 to 8) (size 9 to 14) (size 15 to 20)
#    0.000    2.250    2.500    0.750    0.000    3.500 
#    0.000    0.625    0.000    4.500    0.000   14.875 
#    0.000    0.000    0.000    0.000    0.000    0.000 
#
# Total GULP energy -89535.929558 kJ/mol
# GULP energy per Si atom -5595.995597 kJ/mol
# Density = 2.600297 g / cm^3
# Si number density = 26.062285 Si / 1000 Ang^3
#
#
#
# Elastic Constant Matrix: (Units=GPa)
#
#
# Indices 1 2 3 4 5 6 
#
# 1 130.2119 17.4109 45.7972 -3.1139 1.9969 -2.6583
# 2 17.4109 54.7711 20.8227 1.3273 3.5877 12.6590
# 3 45.7972 20.8227 103.8626 3.5508 7.7125 -3.4856
# 4 -3.1139 1.3273 3.5508 45.4619 0.4174 3.5524
# 5 1.9969 3.5877 7.7125 0.4174 40.3733 -8.1378
# 6 -2.6583 12.6590 -3.4856 3.5524 -8.1378 32.4810
#
#
#
# Elastic Compliance Matrix: (Units=1/GPa)
#
#
# Indices 1 2 3 4 5 6 
#
# 1 0.009285 -0.001848 -0.003764 0.000889 0.000645 0.001141
# 2 -0.001848 0.022931 -0.003898 0.000349 -0.003296 -0.010371
# 3 -0.003764 -0.003898 0.012290 -0.001274 -0.001331 0.002336
# 4 0.000889 0.000349 -0.001274 0.022372 -0.000628 -0.002804
# 5 0.000645 -0.003296 -0.001331 -0.000628 0.026904 0.008004
# 6 0.001141 -0.010371 0.002336 -0.002804 0.008004 0.037485
#
#
# Mechanical properties :
#
#
# Convention : Reuss Voigt Hill
#
# Bulk Modulus (GPa) = 39.23489 50.76747 45.00118
# Shear Modulus (GPa) = 31.48974 37.31756 34.40365
#
# Velocity S-wave (km/s) = 3.47976 3.78810 3.63720
# Velocity P-wave (km/s) = 5.58855 6.21727 5.91128
#
# Compressibility (1/GPa) = 0.02548752
#
# Stress axis : x y z
#
# Youngs Moduli (GPa) = 107.69695 43.60826 81.36764
#
# Poissons Ratio (x) = 0.08060 0.30624
# Poissons Ratio (y) = 0.19904 0.31714
# Poissons Ratio (z) = 0.40534 0.16997
#
# Static dielectric constant tensor:
#      x y z
#    x 2.051300 0.038870 0.034900 
#    y 0.038870 2.034000 -0.017450 
#    z 0.034900 -0.017450 2.107060 
# 
# From -- ./inp_files/528051.got.cif
#   From: 2010.05.17/outbox.cif.g08.bks.cpg/sg2_265_cif.got.tgz:528051.got - 2010.06.03 11:33:40.
