data_PCOD9083601
_publ_section_title
;
Structure prediction by ZEFSAII (Michael W. Deem and Ramdas Pophale) SiO2 
 PCOD9083601
Probable space group: P -1
;
_chemical_formula_sum "Si O2"
_cell_formula_units_Z 14
_cell_length_a 9.587611
_cell_length_b 14.572135
_cell_length_c 5.613701
_cell_angle_alpha 88.255264
_cell_angle_beta 116.061268
_cell_angle_gamma 125.893589
_cell_volume 542.257116
_symmetry_space_group_name_H-M "P -1"
_symmetry_group_IT_number 2
_symmetry_cell_setting 'triclinic'
loop_
_space_group_symop_operation_xyz
x,y,z
-x,-y,-z
loop_
_atom_site_type_symbol
_atom_site_label
_atom_site_fract_x
_atom_site_fract_y
_atom_site_fract_z
Si Si1 0.867016 0.539219 0.387761
Si Si2 0.420300 0.368712 0.019788
Si Si3 0.119787 0.447538 0.104471
Si Si4 0.180005 0.889393 0.140920
Si Si5 0.892657 0.059078 0.416613
Si Si6 0.421774 0.313296 0.526642
Si Si7 0.507845 0.874203 0.400340
O O1 0.643659 0.410352 0.221694
O O2 0.912973 0.610008 0.659122
O O3 0.000000 0.500000 0.500000
O O4 0.910773 0.608653 0.171460
O O5 0.327850 0.321318 0.216352
O O6 0.500000 0.500000 0.000000
O O7 0.322417 0.291115 0.714064
O O8 0.358885 0.557562 0.287673
O O9 0.000000 0.500000 0.000000
O O10 0.282164 0.827205 0.210692
O O11 0.069319 0.873087 0.308721
O O12 0.379684 0.030043 0.309230
O O13 0.076045 0.880614 0.818911
O O14 0.649785 0.950924 0.274665
O O15 0.000000 0.000000 0.500000
O O16 0.465493 0.223048 0.530599
#
# Coordination Sequence:
#
# PCOD9083601 Si02
#       7
#     2   2   2   2   2   2   2
#     4   8  14  26  45  64  83 117 159 197 241 307
#     4  10  20  33  49  74 100 134 177 219 270 319
#     4   8  14  26  43  67  90 118 163 199 250 302
#     4   9  20  34  56  85 112 146 186 225 275 334
#     4  10  19  34  57  81 111 154 184 215 278 346
#     4  10  20  31  54  77 101 140 178 228 269 319
#     4   9  21  33  58  83 114 140 194 228 275 328
#
# _framework density 25.818013000000001
#
# number of rings (size 3 to 8) (size 9 to 14) (size 15 to 20)
#    0.857    2.000    0.000    1.286    2.000    0.000 
#    0.000    0.000    0.000   20.571    0.000    0.000 
#    0.000    0.000    0.000    0.000    0.000    0.000 
#
# Total GULP energy -78071.055588 kJ/mol
# GULP energy per Si atom -5576.503971 kJ/mol
# Density = 2.575925 g / cm^3
# Si number density = 25.818013 Si / 1000 Ang^3
#
#
#
# Elastic Constant Matrix: (Units=GPa)
#
#
# Indices 1 2 3 4 5 6 
#
# 1 128.0816 21.7257 77.8229 -16.3870 -27.2680 0.9808
# 2 21.7257 81.8863 44.1930 -9.4448 -10.0264 -16.8517
# 3 77.8229 44.1930 277.4460 -16.7136 -60.4432 -6.0395
# 4 -16.3870 -9.4448 -16.7136 28.0334 9.4794 7.9920
# 5 -27.2680 -10.0264 -60.4432 9.4794 54.2917 -1.4834
# 6 0.9808 -16.8517 -6.0395 7.9920 -1.4834 39.8897
#
#
#
# Elastic Compliance Matrix: (Units=1/GPa)
#
#
# Indices 1 2 3 4 5 6 
#
# 1 0.010215 -0.001279 -0.002051 0.004239 0.001819 -0.001884
# 2 -0.001279 0.014879 -0.001794 0.001564 -0.000009 0.005732
# 3 -0.002051 -0.001794 0.005509 -0.000252 0.004826 0.000357
# 4 0.004239 0.001564 -0.000252 0.042758 -0.005554 -0.008255
# 5 0.001819 -0.000009 0.004826 -0.005554 0.025749 0.002753
# 6 -0.001884 0.005732 0.000357 -0.008255 0.002753 0.029347
#
#
# Mechanical properties :
#
#
# Convention : Reuss Voigt Hill
#
# Bulk Modulus (GPa) = 49.12914 86.09967 67.61441
# Shear Modulus (GPa) = 34.36689 47.35446 40.86067
#
# Velocity S-wave (km/s) = 3.65241 4.28736 3.98256
# Velocity P-wave (km/s) = 6.07101 7.61116 6.88429
#
# Compressibility (1/GPa) = 0.02035452
#
# Stress axis : x y z
#
# Youngs Moduli (GPa) = 97.89846 67.21079 181.51466
#
# Poissons Ratio (x) = 0.08598 0.37223
# Poissons Ratio (y) = 0.12524 0.32563
# Poissons Ratio (z) = 0.20076 0.12057
#
# Static dielectric constant tensor:
#      x y z
#    x 2.269400 0.045030 0.084130 
#    y 0.045030 2.022460 0.021750 
#    z 0.084130 0.021750 2.174100 
# 
# From -- ./inp_files/74093.got.cif
#   From: 2010.05.17/outbox.cif.g08.bks.cpg/sg2_38_cif.got.tgz:74093.got - 2010.06.03 11:33:40.
