data_PCOD9083164
_publ_section_title
;
Structure prediction by ZEFSAII (Michael W. Deem and Ramdas Pophale) SiO2 
 PCOD9083164
Probable space group: P -1
;
_chemical_formula_sum "Si O2"
_cell_formula_units_Z 14
_cell_length_a 16.873774
_cell_length_b 16.963151
_cell_length_c 16.900287
_cell_angle_alpha 33.739584
_cell_angle_beta 162.264236
_cell_angle_gamma 146.519185
_cell_volume 792.823685
_symmetry_space_group_name_H-M "P -1"
_symmetry_group_IT_number 2
_symmetry_cell_setting 'triclinic'
loop_
_space_group_symop_operation_xyz
x,y,z
-x,-y,-z
loop_
_atom_site_type_symbol
_atom_site_label
_atom_site_fract_x
_atom_site_fract_y
_atom_site_fract_z
Si Si1 0.005446 0.317345 0.505426
Si Si2 0.643773 0.808704 0.795702
Si Si3 0.259606 0.568689 0.242725
Si Si4 0.552547 0.487729 0.966307
Si Si5 0.427427 0.823238 0.080627
Si Si6 0.867745 0.115135 0.681597
Si Si7 0.092586 0.316835 0.403339
O O1 0.916022 0.166679 0.594981
O O2 0.283398 0.404556 0.736128
O O3 0.038726 0.299814 0.459033
O O4 0.782820 0.405802 0.237681
O O5 0.641047 0.654989 0.882829
O O6 0.349362 0.808457 0.548693
O O7 0.741399 0.943781 0.716738
O O8 0.855716 0.839221 0.044286
O O9 0.500000 0.500000 0.500000
O O10 0.347766 0.740833 0.159195
O O11 0.182535 0.490213 0.319755
O O12 0.000000 0.500000 0.000000
O O13 0.500000 0.500000 0.000000
O O14 0.675506 0.762370 0.335472
O O15 0.173388 0.759647 0.835131
O O16 0.500000 0.000000 0.000000
#
# Coordination Sequence:
#
# PCOD9083164 Si02
#       7
#     2   2   2   2   2   2   2
#     4  12  22  35  55  78 111 140 174 229 276 303
#     4  10  20  33  52  72  98 130 188 220 256 310
#     4   8  16  32  54  75 105 137 170 202 249 321
#     4  12  21  35  54  79 101 141 190 227 254 311
#     4  10  19  36  60  83 104 140 180 212 250 322
#     4  10  19  34  51  73  99 139 168 222 270 310
#     4  10  21  36  53  83 111 140 172 214 275 319
#
# _framework density 17.658401999999999
#
# number of rings (size 3 to 8) (size 9 to 14) (size 15 to 20)
#    0.000    1.714    2.857    2.571    0.000    0.000 
#    0.000    2.857    0.000    0.000    0.000    0.000 
#    0.000    0.000    0.000    0.000    0.000    0.000 
#
# Total GULP energy -78053.393749 kJ/mol
# GULP energy per Si atom -5575.242411 kJ/mol
# Density = 1.761821 g / cm^3
# Si number density = 17.658402 Si / 1000 Ang^3
#
#
#
# Elastic Constant Matrix: (Units=GPa)
#
#
# Indices 1 2 3 4 5 6 
#
# 1 123.0476 51.4610 35.9683 -13.9358 -19.7756 24.7134
# 2 51.4610 104.0639 26.9440 -22.4157 -14.6822 27.3629
# 3 35.9683 26.9440 128.7388 0.4879 5.7954 0.0808
# 4 -13.9358 -22.4157 0.4879 30.4471 6.2693 -11.0103
# 5 -19.7756 -14.6822 5.7954 6.2693 24.7742 -8.6955
# 6 24.7134 27.3629 0.0808 -11.0103 -8.6955 25.7905
#
#
#
# Elastic Compliance Matrix: (Units=1/GPa)
#
#
# Indices 1 2 3 4 5 6 
#
# 1 0.012713 -0.002592 -0.003316 -0.000027 0.006900 -0.007107
# 2 -0.002592 0.016304 -0.002828 0.006242 0.002738 -0.011217
# 3 -0.003316 -0.002828 0.009505 -0.001329 -0.004822 0.003955
# 4 -0.000027 0.006242 -0.001329 0.041763 -0.002990 0.010229
# 5 0.006900 0.002738 -0.004822 -0.002990 0.051717 0.006659
# 6 -0.007107 -0.011217 0.003955 0.010229 0.006659 0.064085
#
#
# Mechanical properties :
#
#
# Convention : Reuss Voigt Hill
#
# Bulk Modulus (GPa) = 47.50218 64.95518 56.22868
# Shear Modulus (GPa) = 22.66797 32.30081 27.48439
#
# Velocity S-wave (km/s) = 3.58675 4.28156 3.94946
# Velocity P-wave (km/s) = 6.64169 7.82985 7.26012
#
# Compressibility (1/GPa) = 0.02105167
#
# Stress axis : x y z
#
# Youngs Moduli (GPa) = 78.65660 61.33533 105.20244
#
# Poissons Ratio (x) = 0.15898 0.34881
# Poissons Ratio (y) = 0.20388 0.29751
# Poissons Ratio (z) = 0.26079 0.17345
#
# Static dielectric constant tensor:
#      x y z
#    x 1.600620 0.057030 -0.009940 
#    y 0.057030 1.620740 -0.014880 
#    z -0.009940 -0.014880 1.616160 
# 
# From -- ./inp_files/43244.got.cif
#   From: 2010.05.17/outbox.cif.g08.bks.cpg/sg2_22_cif.got.tgz:43244.got - 2010.06.03 11:33:40.
