data_PCOD9083692
_publ_section_title
;
Structure prediction by ZEFSAII (Michael W. Deem and Ramdas Pophale) SiO2 
 PCOD9083692
Probable space group: P -1
;
_chemical_formula_sum "Si O2"
_cell_formula_units_Z 16
_cell_length_a 9.093644
_cell_length_b 19.028286
_cell_length_c 21.845229
_cell_angle_alpha 19.338547
_cell_angle_beta 34.737310
_cell_angle_gamma 30.343957
_cell_volume 631.743472
_symmetry_space_group_name_H-M "P -1"
_symmetry_group_IT_number 2
_symmetry_cell_setting 'triclinic'
loop_
_space_group_symop_operation_xyz
x,y,z
-x,-y,-z
loop_
_atom_site_type_symbol
_atom_site_label
_atom_site_fract_x
_atom_site_fract_y
_atom_site_fract_z
Si Si1 0.528716 0.631989 0.586017
Si Si2 0.758023 0.312065 0.019209
Si Si3 0.795903 0.049838 0.414729
Si Si4 0.166932 0.133084 0.575119
Si Si5 0.753654 0.835451 0.774105
Si Si6 0.865938 0.059500 0.066333
Si Si7 0.963046 0.470097 0.176428
Si Si8 0.122687 0.595816 0.447950
O O1 0.595087 0.615216 0.504260
O O2 0.841190 0.549717 0.576882
O O3 0.351020 0.486589 0.775566
O O4 0.342574 0.910632 0.437523
O O5 0.734919 0.072283 0.238568
O O6 0.824949 0.274729 0.952883
O O7 0.500000 0.500000 0.000000
O O8 0.021055 0.340319 0.938844
O O9 0.443970 0.177031 0.430962
O O10 0.916589 0.782799 0.620594
O O11 0.888064 0.990823 0.361811
O O12 0.957082 0.191081 0.270249
O O13 0.883211 0.342532 0.530126
O O14 0.470600 0.886981 0.867221
O O15 0.834447 0.611721 0.885663
O O16 0.050823 0.817786 0.242946
O O17 0.000000 0.000000 0.000000
#
# Coordination Sequence:
#
# PCOD9083692 Si02
#       8
#     2   2   2   2   2   2   2   2
#     4   9  18  33  58  85 102 144 190 225 276 337
#     4  11  20  39  60  84 114 152 186 233 286 341
#     4  10  19  34  57  87 108 144 189 237 281 322
#     4  10  20  36  56  81 119 146 183 233 291 332
#     4  10  19  36  60  81 113 144 189 238 280 323
#     4  10  21  40  59  80 113 154 190 228 282 340
#     4  11  19  36  61  86 111 145 192 234 280 333
#     4   9  18  38  57  78 113 152 185 227 285 341
#
# _framework density 25.326733999999998
#
# number of rings (size 3 to 8) (size 9 to 14) (size 15 to 20)
#    0.000    2.000    2.500    3.750    0.000    0.000 
#   11.250    5.625    0.000    0.000    0.000    0.000 
#    0.000    0.000    0.000    0.000    0.000    0.000 
#
# Total GULP energy -89123.989069 kJ/mol
# GULP energy per Si atom -5570.249317 kJ/mol
# Density = 2.526909 g / cm^3
# Si number density = 25.326734 Si / 1000 Ang^3
#
#
#
# Elastic Constant Matrix: (Units=GPa)
#
#
# Indices 1 2 3 4 5 6 
#
# 1 58.0666 36.3820 37.7013 -0.3721 -22.7825 25.7171
# 2 36.3820 188.6138 31.8948 10.0862 -22.5389 46.8100
# 3 37.7013 31.8948 78.0294 -3.8716 -14.4453 9.7064
# 4 -0.3721 10.0862 -3.8716 36.6011 2.9049 -5.9341
# 5 -22.7825 -22.5389 -14.4453 2.9049 44.6324 -7.5164
# 6 25.7171 46.8100 9.7064 -5.9341 -7.5164 47.7340
#
#
#
# Elastic Compliance Matrix: (Units=1/GPa)
#
#
# Indices 1 2 3 4 5 6 
#
# 1 0.039340 0.001313 -0.015140 -0.005530 0.013170 -0.018017
# 2 0.001313 0.008057 -0.002598 -0.004023 0.002789 -0.008141
# 3 -0.015140 -0.002598 0.020244 0.003937 -0.001595 0.006826
# 4 -0.005530 -0.004023 0.003937 0.030616 -0.004007 0.009299
# 5 0.013170 0.002789 -0.001595 -0.004007 0.029375 -0.005378
# 6 -0.018017 -0.008141 0.006826 0.009299 -0.005378 0.037560
#
#
# Mechanical properties :
#
#
# Convention : Reuss Voigt Hill
#
# Bulk Modulus (GPa) = 28.74348 59.62953 44.18651
# Shear Modulus (GPa) = 23.85052 40.37561 32.11307
#
# Velocity S-wave (km/s) = 3.07206 3.99706 3.56469
# Velocity P-wave (km/s) = 4.89460 6.70054 5.86747
#
# Compressibility (1/GPa) = 0.03479050
#
# Stress axis : x y z
#
# Youngs Moduli (GPa) = 25.41917 124.12069 49.39829
#
# Poissons Ratio (x) = -0.16293 0.74787
# Poissons Ratio (y) = -0.03337 0.12835
# Poissons Ratio (z) = 0.38484 0.32249
#
# Static dielectric constant tensor:
#      x y z
#    x 2.140340 0.031400 0.047780 
#    y 0.031400 2.132540 -0.035540 
#    z 0.047780 -0.035540 2.054900 
# 
# From -- ./inp_files/590450.got.cif
#   From: 2010.05.17/outbox.cif.g08.bks.cpg/sg2_296_cif.got.tgz:590450.got - 2010.06.03 11:33:40.
