data_PCOD9083104
_publ_section_title
;
Structure prediction by ZEFSAII (Michael W. Deem and Ramdas Pophale) SiO2 
 PCOD9083104
Probable space group: P -1
;
_chemical_formula_sum "Si O2"
_cell_formula_units_Z 16
_cell_length_a 13.644199
_cell_length_b 18.020807
_cell_length_c 5.471520
_cell_angle_alpha 80.939151
_cell_angle_beta 60.519273
_cell_angle_gamma 42.113953
_cell_volume 734.046022
_symmetry_space_group_name_H-M "P -1"
_symmetry_group_IT_number 2
_symmetry_cell_setting 'triclinic'
loop_
_space_group_symop_operation_xyz
x,y,z
-x,-y,-z
loop_
_atom_site_type_symbol
_atom_site_label
_atom_site_fract_x
_atom_site_fract_y
_atom_site_fract_z
Si Si1 0.434057 0.724513 0.053241
Si Si2 0.015835 0.276331 0.208760
Si Si3 0.817463 0.131312 0.083987
Si Si4 0.873768 0.279048 0.864853
Si Si5 0.527063 0.772808 0.313466
Si Si6 0.268505 0.453351 0.612187
Si Si7 0.556804 0.532003 0.221993
Si Si8 0.436290 0.072659 0.789088
O O1 0.538546 0.739109 0.039435
O O2 0.394087 0.667249 0.270214
O O3 0.252164 0.851015 0.111151
O O4 0.574938 0.617555 0.741103
O O5 0.986067 0.238162 0.503206
O O6 0.907415 0.410960 0.315354
O O7 0.223695 0.183887 0.987688
O O8 0.950916 0.275007 0.026890
O O9 0.650106 0.182926 0.411963
O O10 0.838203 0.210548 0.007421
O O11 0.000000 0.000000 0.000000
O O12 0.689706 0.416830 0.951790
O O13 0.700173 0.650535 0.304761
O O14 0.499197 0.874418 0.322663
O O15 0.328001 0.464504 0.780949
O O16 0.500000 0.500000 0.500000
O O17 0.500000 0.000000 0.500000
O O18 0.500000 0.000000 0.000000
#
# Coordination Sequence:
#
# PCOD9083104 Si02
#       8
#     2   2   2   2   2   2   2   2
#     4  10  20  40  64  98 140 178 226 286 359 416
#     4  11  25  46  74 106 143 184 236 296 352 421
#     4  11  27  41  65  97 141 194 237 286 347 416
#     4  11  24  43  68 107 144 181 237 290 351 420
#     4  10  25  46  69 103 136 184 237 293 353 425
#     4   9  20  39  65 101 136 174 226 287 357 412
#     4  10  19  33  62  98 140 185 224 281 355 425
#     4  12  30  52  77 101 137 192 243 292 350 418
#
# _framework density 21.796999
#
# number of rings (size 3 to 8) (size 9 to 14) (size 15 to 20)
#    0.000    1.500    1.250    3.000   12.250    2.000 
#    0.000    0.625    0.000    0.000    0.000    0.000 
#    0.000    0.000    0.000    0.000    0.000    0.000 
#
# Total GULP energy -89099.286668 kJ/mol
# GULP energy per Si atom -5568.705417 kJ/mol
# Density = 2.174739 g / cm^3
# Si number density = 21.796999 Si / 1000 Ang^3
#
#
#
# Elastic Constant Matrix: (Units=GPa)
#
#
# Indices 1 2 3 4 5 6 
#
# 1 86.5616 67.7278 33.3452 -4.1062 7.2353 13.1265
# 2 67.7278 180.4943 50.6998 -7.2112 -4.9668 6.4878
# 3 33.3452 50.6998 89.6654 3.7888 -1.0615 2.8501
# 4 -4.1062 -7.2112 3.7888 31.7969 -7.9058 -5.8922
# 5 7.2353 -4.9668 -1.0615 -7.9058 25.4614 3.0375
# 6 13.1265 6.4878 2.8501 -5.8922 3.0375 42.3854
#
#
#
# Elastic Compliance Matrix: (Units=1/GPa)
#
#
# Indices 1 2 3 4 5 6 
#
# 1 0.018856 -0.006177 -0.003417 -0.000976 -0.006492 -0.004335
# 2 -0.006177 0.008833 -0.002790 0.002713 0.004105 0.000831
# 3 -0.003417 -0.002790 0.014112 -0.002687 0.000163 0.000151
# 4 -0.000976 0.002713 -0.002687 0.035860 0.011323 0.004241
# 5 -0.006492 0.004105 0.000163 0.011323 0.045481 -0.000314
# 6 -0.004335 0.000831 0.000151 0.004241 -0.000314 0.025410
#
#
# Mechanical properties :
#
#
# Convention : Reuss Voigt Hill
#
# Bulk Modulus (GPa) = 58.71321 73.36300 66.03810
# Shear Modulus (GPa) = 27.93328 33.59197 30.76262
#
# Velocity S-wave (km/s) = 3.58372 3.92998 3.76083
# Velocity P-wave (km/s) = 6.64220 7.37044 7.01578
#
# Compressibility (1/GPa) = 0.01703194
#
# Stress axis : x y z
#
# Youngs Moduli (GPa) = 53.03438 113.20651 70.86403
#
# Poissons Ratio (x) = 0.69931 0.24215
# Poissons Ratio (y) = 0.32761 0.19770
# Poissons Ratio (z) = 0.18123 0.31584
#
# Static dielectric constant tensor:
#      x y z
#    x 1.904280 -0.149050 0.122520 
#    y -0.149050 2.073280 -0.111040 
#    z 0.122520 -0.111040 1.957230 
# 
# From -- ./inp_files/93566.got.cif
#   From: 2010.05.17/outbox.cif.g08.bks.cpg/sg2_47_cif.got.tgz:93566.got - 2010.06.03 11:33:40.
