data_PCOD9083351
_publ_section_title
;
Structure prediction by ZEFSAII (Michael W. Deem and Ramdas Pophale) SiO2 
 PCOD9083351
Probable space group: P -1
;
_chemical_formula_sum "Si O2"
_cell_formula_units_Z 16
_cell_length_a 8.691463
_cell_length_b 14.057718
_cell_length_c 11.208307
_cell_angle_alpha 118.689360
_cell_angle_beta 77.162750
_cell_angle_gamma 147.222034
_cell_volume 601.049122
_symmetry_space_group_name_H-M "P -1"
_symmetry_group_IT_number 2
_symmetry_cell_setting 'triclinic'
loop_
_space_group_symop_operation_xyz
x,y,z
-x,-y,-z
loop_
_atom_site_type_symbol
_atom_site_label
_atom_site_fract_x
_atom_site_fract_y
_atom_site_fract_z
Si Si1 0.003007 0.696691 0.745620
Si Si2 0.002335 0.826928 0.304085
Si Si3 0.757399 0.565617 0.977828
Si Si4 0.373754 0.241178 0.529004
Si Si5 0.271617 0.277320 0.343788
Si Si6 0.758731 0.221359 0.652735
Si Si7 0.329130 0.699213 0.787768
Si Si8 0.367453 0.729541 0.072637
O O1 0.732100 0.472144 0.587633
O O2 0.950489 0.786621 0.747056
O O3 0.292913 0.784758 0.761297
O O4 0.901527 0.643920 0.869981
O O5 0.973546 0.707798 0.323486
O O6 0.012767 0.771694 0.143853
O O7 0.724069 0.744704 0.331993
O O8 0.298031 0.070856 0.436912
O O9 0.500000 0.500000 0.000000
O O10 0.571094 0.352220 0.934391
O O11 0.140962 0.149744 0.411687
O O12 0.500000 0.500000 0.500000
O O13 0.449921 0.273651 0.264390
O O14 0.581788 0.155167 0.762810
O O15 0.972071 0.444241 0.701297
O O16 0.500000 0.000000 0.500000
O O17 0.437102 0.794436 0.961904
O O18 0.000000 0.500000 0.000000
#
# Coordination Sequence:
#
# PCOD9083351 Si02
#       8
#     2   2   2   2   2   2   2   2
#     4  11  20  37  62  90 115 162 207 241 303 372
#     4  11  21  37  61  87 122 157 187 270 316 340
#     4  12  20  34  62  90 117 155 205 247 306 365
#     4  10  23  39  57  88 123 152 206 251 309 361
#     4  10  23  40  59  86 121 165 209 247 298 368
#     4  11  20  33  58  94 126 153 195 252 313 359
#     4  11  20  38  62  87 125 161 205 254 297 361
#     4  10  19  34  54  90 122 149 196 250 292 355
#
# _framework density 26.620123
#
# number of rings (size 3 to 8) (size 9 to 14) (size 15 to 20)
#    0.000    1.250    6.250    3.000    0.000    2.000 
#    0.000    1.875    0.000    6.000    0.000    0.000 
#    0.000    0.000    0.000    0.000    0.000    0.000 
#
# Total GULP energy -89094.703477 kJ/mol
# GULP energy per Si atom -5568.418967 kJ/mol
# Density = 2.655953 g / cm^3
# Si number density = 26.620123 Si / 1000 Ang^3
#
#
#
# Elastic Constant Matrix: (Units=GPa)
#
#
# Indices 1 2 3 4 5 6 
#
# 1 213.6304 36.8089 52.3852 -17.6022 -4.2255 -31.8166
# 2 36.8089 50.0617 21.3164 -8.0438 1.8972 -2.0133
# 3 52.3852 21.3164 178.4546 -11.6593 -19.7263 -3.1843
# 4 -17.6022 -8.0438 -11.6593 26.1601 0.4323 2.1551
# 5 -4.2255 1.8972 -19.7263 0.4323 41.2395 -6.4778
# 6 -31.8166 -2.0133 -3.1843 2.1551 -6.4778 44.1700
#
#
#
# Elastic Compliance Matrix: (Units=1/GPa)
#
#
# Indices 1 2 3 4 5 6 
#
# 1 0.006476 -0.003774 -0.001111 0.002320 0.000979 0.004443
# 2 -0.003774 0.024249 -0.001858 0.004330 -0.002809 -0.002371
# 3 -0.001111 -0.001858 0.006597 0.001573 0.003106 -0.000031
# 4 0.002320 0.004330 0.001573 0.041814 0.000351 -0.000007
# 5 0.000979 -0.002809 0.003106 0.000351 0.026698 0.004700
# 6 0.004443 -0.002371 -0.000031 -0.000007 0.004700 0.026420
#
#
# Mechanical properties :
#
#
# Convention : Reuss Voigt Hill
#
# Bulk Modulus (GPa) = 41.95625 73.68528 57.82077
# Shear Modulus (GPa) = 32.53382 44.42300 38.47841
#
# Velocity S-wave (km/s) = 3.49972 4.08950 3.80605
# Velocity P-wave (km/s) = 5.66798 7.07383 6.40957
#
# Compressibility (1/GPa) = 0.02383435
#
# Stress axis : x y z
#
# Youngs Moduli (GPa) = 154.41756 41.23949 151.57563
#
# Poissons Ratio (x) = 0.15565 0.16842
# Poissons Ratio (y) = 0.58280 0.28170
# Poissons Ratio (z) = 0.17157 0.07664
#
# Static dielectric constant tensor:
#      x y z
#    x 1.984280 0.012440 -0.199160 
#    y 0.012440 2.119900 0.087560 
#    z -0.199160 0.087560 1.672340 
# 
# From -- ./inp_files/397644.got.cif
#   From: 2010.05.17/outbox.cif.g08.bks.cpg/sg2_199_cif.got.tgz:397644.got - 2010.06.03 11:33:40.
