data_PCOD9083146
_publ_section_title
;
Structure prediction by ZEFSAII (Michael W. Deem and Ramdas Pophale) SiO2 
 PCOD9083146
Probable space group: P -1
;
_chemical_formula_sum "Si O2"
_cell_formula_units_Z 12
_cell_length_a 12.769809
_cell_length_b 6.733282
_cell_length_c 15.182813
_cell_angle_alpha 121.769721
_cell_angle_beta 35.632002
_cell_angle_gamma 141.313046
_cell_volume 454.023322
_symmetry_space_group_name_H-M "P -1"
_symmetry_group_IT_number 2
_symmetry_cell_setting 'triclinic'
loop_
_space_group_symop_operation_xyz
x,y,z
-x,-y,-z
loop_
_atom_site_type_symbol
_atom_site_label
_atom_site_fract_x
_atom_site_fract_y
_atom_site_fract_z
Si Si1 0.467670 0.762330 0.280874
Si Si2 0.737306 0.779050 0.460990
Si Si3 0.013196 0.274749 0.095303
Si Si4 0.745005 0.555524 0.831360
Si Si5 0.486750 0.235888 0.211959
Si Si6 0.033473 0.297470 0.584873
O O1 0.398005 0.719975 0.216526
O O2 0.482857 0.496831 0.233064
O O3 0.211192 0.606384 0.471246
O O4 0.729139 0.102471 0.223497
O O5 0.500000 0.500000 0.500000
O O6 0.606993 0.814354 0.635715
O O7 0.813959 0.601267 0.408649
O O8 0.002407 0.112893 0.316171
O O9 0.117884 0.355405 0.143554
O O10 0.236555 0.605181 0.963094
O O11 0.000000 0.000000 0.000000
O O12 0.500000 0.500000 0.000000
O O13 0.251782 0.886814 0.244136
O O14 0.000000 0.000000 0.500000
#
# Coordination Sequence:
#
# PCOD9083146 Si02
#       6
#     2   2   2   2   2   2
#     4   9  15  23  27  32  40  44  48  56  61  65
#     4  10  16  20  27  33  36  43  52  54  58  69
#     4  10  17  21  26  35  39  42  50  56  60  66
#     4  12  16  21  29  33  37  45  50  54  61  66
#     4   9  14  24  25  29  41  43  47  56  62  64
#     4   8  12  23  27  28  39  45  47  55  63  63
#
# _framework density 26.430358999999999
#
# number of rings (size 3 to 8) (size 9 to 14) (size 15 to 20)
#    0.000    2.667    8.333    3.000    0.000    0.000 
#    0.000    0.000    0.000    0.000    0.000    0.000 
#    0.000    0.000    0.000    0.000    0.000    0.000 
#
# Total GULP energy -66814.205387 kJ/mol
# GULP energy per Si atom -5567.850449 kJ/mol
# Density = 2.637020 g / cm^3
# Si number density = 26.430359 Si / 1000 Ang^3
#
#
#
# Elastic Constant Matrix: (Units=GPa)
#
#
# Indices 1 2 3 4 5 6 
#
# 1 104.7173 78.4100 56.0115 -2.7464 4.8621 47.5627
# 2 78.4100 197.1065 81.7028 -8.6113 1.5330 48.7530
# 3 56.0115 81.7028 127.1716 -46.6250 32.9818 -7.1733
# 4 -2.7464 -8.6113 -46.6250 67.0004 10.5115 -25.1516
# 5 4.8621 1.5330 32.9818 10.5115 29.8622 3.9145
# 6 47.5627 48.7530 -7.1733 -25.1516 3.9145 23.9262
#
#
#
# Elastic Compliance Matrix: (Units=1/GPa)
#
#
# Indices 1 2 3 4 5 6 
#
# 1 0.010484 -0.007336 0.005678 0.006930 -0.010676 0.004841
# 2 -0.007336 0.006703 0.000716 0.003038 -0.001613 0.004598
# 3 0.005678 0.000716 0.002308 -0.004361 0.000210 -0.016674
# 4 0.006930 0.003038 -0.004361 0.006386 0.003263 -0.015096
# 5 -0.010676 -0.001613 0.000210 0.003263 0.030920 0.022944
# 6 0.004841 0.004598 -0.016674 -0.015096 0.022944 -0.001819
#
#
# Mechanical properties :
#
#
# Convention : Reuss Voigt Hill
#
# Bulk Modulus (GPa) = 56.77788 95.69379 76.23583
# Shear Modulus (GPa) = 79.70039 38.34916 59.02477
#
# Velocity S-wave (km/s) = 5.49730 3.81327 4.73082
# Velocity P-wave (km/s) = 7.86273 7.46141 7.66469
#
# Compressibility (1/GPa) = 0.01761249
#
# Stress axis : x y z
#
# Youngs Moduli (GPa) = 95.38392 149.19371 433.21022
#
# Poissons Ratio (x) = 1.09445 -2.45980
# Poissons Ratio (y) = 0.69971 -0.31037
# Poissons Ratio (z) = -0.54160 -0.10689
#
# Static dielectric constant tensor:
#      x y z
#    x 2.556720 0.018480 0.027930 
#    y 0.018480 2.107570 -0.011440 
#    z 0.027930 -0.011440 2.036410 
# 
# From -- ./inp_files/541283.got.cif
#   From: 2010.05.17/outbox.cif.g08.bks.cpg/sg2_271_cif.got.tgz:541283.got - 2010.06.03 11:33:40.
