data_PCOD9083568
_publ_section_title
;
Structure prediction by ZEFSAII (Michael W. Deem and Ramdas Pophale) SiO2 
 PCOD9083568
Probable space group: P -1
;
_chemical_formula_sum "Si O2"
_cell_formula_units_Z 16
_cell_length_a 7.894416
_cell_length_b 14.469989
_cell_length_c 21.220071
_cell_angle_alpha 143.043155
_cell_angle_beta 33.471570
_cell_angle_gamma 142.151116
_cell_volume 746.354041
_symmetry_space_group_name_H-M "P -1"
_symmetry_group_IT_number 2
_symmetry_cell_setting 'triclinic'
loop_
_space_group_symop_operation_xyz
x,y,z
-x,-y,-z
loop_
_atom_site_type_symbol
_atom_site_label
_atom_site_fract_x
_atom_site_fract_y
_atom_site_fract_z
Si Si1 0.239059 0.889813 0.468124
Si Si2 0.478269 0.985633 0.924004
Si Si3 0.981430 0.257566 0.671291
Si Si4 0.189113 0.625828 0.757510
Si Si5 0.045211 0.846687 0.829757
Si Si6 0.718130 0.261671 0.423353
Si Si7 0.228060 0.931478 0.243801
Si Si8 0.109237 0.377809 0.487004
O O1 0.264497 0.869212 0.373317
O O2 0.109739 0.699445 0.427016
O O3 0.500000 0.000000 0.500000
O O4 0.939021 0.950697 0.608500
O O5 0.315134 0.787791 0.851977
O O6 0.804241 0.069039 0.822785
O O7 0.500000 0.000000 0.000000
O O8 0.245784 0.088755 0.038930
O O9 0.033182 0.447632 0.742373
O O10 0.334681 0.233462 0.539703
O O11 0.882358 0.219237 0.754533
O O12 0.983345 0.678952 0.797189
O O13 0.525996 0.623507 0.620012
O O14 0.160010 0.839286 0.718973
O O15 0.380761 0.978581 0.825062
O O16 0.856525 0.442769 0.447437
O O17 0.907479 0.263390 0.430029
#
# Coordination Sequence:
#
# PCOD9083568 Si02
#       8
#     2   2   2   2   2   2   2   2
#     4  12  23  35  59  94 138 167 208 257 334 384
#     4  11  24  44  67  94 122 168 225 269 305 370
#     4  11  23  40  62  94 135 168 202 264 335 387
#     4  10  20  41  64  90 125 170 215 261 316 383
#     4  11  21  38  66  87 122 169 223 251 312 369
#     4  10  20  34  61  92 128 166 205 263 322 380
#     4  11  23  40  61  95 126 166 215 257 325 382
#     4  10  19  34  56  93 128 162 211 260 317 381
#
# _framework density 21.437548
#
# number of rings (size 3 to 8) (size 9 to 14) (size 15 to 20)
#    0.000    1.250    3.750    4.125    1.750    2.000 
#    0.000    4.375    0.000    0.000    0.000    0.000 
#    0.000    0.000    0.000    0.000    0.000    0.000 
#
# Total GULP energy -89126.392572 kJ/mol
# GULP energy per Si atom -5570.399536 kJ/mol
# Density = 2.138875 g / cm^3
# Si number density = 21.437548 Si / 1000 Ang^3
#
#
#
# Elastic Constant Matrix: (Units=GPa)
#
#
# Indices 1 2 3 4 5 6 
#
# 1 65.9646 26.9267 36.2134 0.9857 16.1443 -8.1181
# 2 26.9267 134.5976 34.0489 -4.5845 11.6951 -38.1297
# 3 36.2134 34.0489 101.5390 7.8244 22.1067 -17.0488
# 4 0.9857 -4.5845 7.8244 22.3379 -8.6277 6.3567
# 5 16.1443 11.6951 22.1067 -8.6277 44.6513 -1.6466
# 6 -8.1181 -38.1297 -17.0488 6.3567 -1.6466 30.5341
#
#
#
# Elastic Compliance Matrix: (Units=1/GPa)
#
#
# Indices 1 2 3 4 5 6 
#
# 1 0.020136 -0.002597 -0.005554 -0.000733 -0.004031 -0.001055
# 2 -0.002597 0.012341 0.000007 -0.002520 -0.002226 0.015128
# 3 -0.005554 0.000007 0.015879 -0.010891 -0.007618 0.009255
# 4 -0.000733 -0.002520 -0.010891 0.060790 0.017284 -0.021146
# 5 -0.004031 -0.002226 -0.007618 0.017284 0.031178 -0.010022
# 6 -0.001055 0.015128 0.009255 -0.021146 -0.010022 0.060390
#
#
# Mechanical properties :
#
#
# Convention : Reuss Voigt Hill
#
# Bulk Modulus (GPa) = 31.18377 55.16437 43.17407
# Shear Modulus (GPa) = 21.95956 33.16548 27.56252
#
# Velocity S-wave (km/s) = 3.20402 3.93755 3.58957
# Velocity P-wave (km/s) = 5.31654 6.81622 6.11255
#
# Compressibility (1/GPa) = 0.03206796
#
# Stress axis : x y z
#
# Youngs Moduli (GPa) = 49.66145 81.03357 62.97770
#
# Poissons Ratio (x) = 0.21045 0.34976
# Poissons Ratio (y) = 0.12897 -0.00044
# Poissons Ratio (z) = 0.27580 -0.00056
#
# Static dielectric constant tensor:
#      x y z
#    x 1.991630 -0.042870 0.108440 
#    y -0.042870 1.859640 -0.023080 
#    z 0.108440 -0.023080 1.776950 
# 
# From -- ./inp_files/590276.got.cif
#   From: 2010.05.17/outbox.cif.g08.bks.cpg/sg2_296_cif.got.tgz:590276.got - 2010.06.03 11:33:40.
