data_PCOD9083742
_publ_section_title
;
Structure prediction by ZEFSAII (Michael W. Deem and Ramdas Pophale) SiO2 
 PCOD9083742
Probable space group: P -1
;
_chemical_formula_sum "Si O2"
_cell_formula_units_Z 16
_cell_length_a 8.417356
_cell_length_b 11.631489
_cell_length_c 14.032428
_cell_angle_alpha 104.938444
_cell_angle_beta 132.702924
_cell_angle_gamma 43.568802
_cell_volume 617.427492
_symmetry_space_group_name_H-M "P -1"
_symmetry_group_IT_number 2
_symmetry_cell_setting 'triclinic'
loop_
_space_group_symop_operation_xyz
x,y,z
-x,-y,-z
loop_
_atom_site_type_symbol
_atom_site_label
_atom_site_fract_x
_atom_site_fract_y
_atom_site_fract_z
Si Si1 0.540424 0.364905 0.050083
Si Si2 0.105012 0.619028 0.093668
Si Si3 0.689852 0.264061 0.384164
Si Si4 0.906617 0.931125 0.310206
Si Si5 0.886452 0.796097 0.609814
Si Si6 0.998426 0.466135 0.615374
Si Si7 0.611719 0.265734 0.707810
Si Si8 0.309349 0.228833 0.869123
O O1 0.203137 0.510475 0.013623
O O2 0.864983 0.245408 0.223294
O O3 0.500000 0.500000 0.000000
O O4 0.570609 0.228241 0.976745
O O5 0.358160 0.460581 0.243842
O O6 0.223914 0.705013 0.150847
O O7 0.759535 0.759958 0.043071
O O8 0.779946 0.230234 0.524229
O O9 0.993413 0.206129 0.443491
O O10 0.707310 0.121070 0.322393
O O11 0.089107 0.894649 0.278495
O O12 0.680556 0.909427 0.196806
O O13 0.630700 0.715323 0.322988
O O14 0.939429 0.634186 0.621283
O O15 0.500000 0.000000 0.500000
O O16 0.027406 0.406285 0.720342
O O17 0.681590 0.555012 0.443545
#
# Coordination Sequence:
#
# PCOD9083742 Si02
#       8
#     2   2   2   2   2   2   2   2
#     4  11  21  42  63  97 132 168 220 269 317 391
#     4  10  20  37  61  93 125 171 213 269 318 386
#     4  10  20  40  59  92 134 169 215 261 328 390
#     4  10  22  37  60  93 132 171 213 270 325 386
#     4  11  23  40  64  94 130 172 211 268 332 382
#     4  11  20  34  61  94 127 165 213 271 318 377
#     4  10  19  34  57  94 124 162 215 270 320 366
#     4  11  22  37  66  96 127 168 221 267 325 377
#
# _framework density 25.913974
#
# number of rings (size 3 to 8) (size 9 to 14) (size 15 to 20)
#    0.000    1.500    3.750    2.625    1.750    3.000 
#    0.000    2.500    0.000    2.250    0.000    0.000 
#    0.000    0.000    0.000    0.000    0.000    0.000 
#
# Total GULP energy -89395.547881 kJ/mol
# GULP energy per Si atom -5587.221743 kJ/mol
# Density = 2.585499 g / cm^3
# Si number density = 25.913974 Si / 1000 Ang^3
#
#
#
# Elastic Constant Matrix: (Units=GPa)
#
#
# Indices 1 2 3 4 5 6 
#
# 1 111.8391 37.7587 16.9052 7.3942 -13.6342 7.2610
# 2 37.7587 80.1905 40.6974 21.7435 8.3242 31.2989
# 3 16.9052 40.6974 76.0204 27.2940 5.6901 12.1176
# 4 7.3942 21.7435 27.2940 53.2003 13.8521 8.4932
# 5 -13.6342 8.3242 5.6901 13.8521 47.4677 6.9329
# 6 7.2610 31.2989 12.1176 8.4932 6.9329 40.8896
#
#
#
# Elastic Compliance Matrix: (Units=1/GPa)
#
#
# Indices 1 2 3 4 5 6 
#
# 1 0.011639 -0.007131 0.000712 -0.000601 0.004308 0.002575
# 2 -0.007131 0.028106 -0.009891 -0.002075 -0.002789 -0.016412
# 3 0.000712 -0.009891 0.020374 -0.007259 0.001220 0.002707
# 4 -0.000601 -0.002075 -0.007259 0.025124 -0.006224 -0.000317
# 5 0.004308 -0.002789 0.001220 -0.006224 0.024740 -0.001894
# 6 0.002575 -0.016412 0.002707 -0.000317 -0.001894 0.036146
#
#
# Mechanical properties :
#
#
# Convention : Reuss Voigt Hill
#
# Bulk Modulus (GPa) = 36.36310 50.97475 43.66892
# Shear Modulus (GPa) = 26.60781 39.82409 33.21595
#
# Velocity S-wave (km/s) = 3.20781 3.92443 3.58408
# Velocity P-wave (km/s) = 5.27093 6.34416 5.83229
#
# Compressibility (1/GPa) = 0.02750041
#
# Stress axis : x y z
#
# Youngs Moduli (GPa) = 85.91775 35.57999 49.08132
#
# Poissons Ratio (x) = 0.25373 -0.03496
# Poissons Ratio (y) = 0.61269 0.48544
# Poissons Ratio (z) = -0.06121 0.35191
#
# Static dielectric constant tensor:
#      x y z
#    x 2.073190 -0.071110 0.038180 
#    y -0.071110 2.165150 0.021600 
#    z 0.038180 0.021600 2.027690 
# 
# From -- ./inp_files/215881.got.cif
#   From: 2010.05.17/outbox.cif.g08.bks.cpg/sg2_108_cif.got.tgz:215881.got - 2010.06.03 11:33:40.
