data_PCOD9083840
_publ_section_title
;
Structure prediction by ZEFSAII (Michael W. Deem and Ramdas Pophale) SiO2 
 PCOD9083840
Probable space group: P -1
;
_chemical_formula_sum "Si O2"
_cell_formula_units_Z 16
_cell_length_a 8.643260
_cell_length_b 15.348128
_cell_length_c 14.392493
_cell_angle_alpha 41.897499
_cell_angle_beta 39.558589
_cell_angle_gamma 39.406052
_cell_volume 717.844358
_symmetry_space_group_name_H-M "P -1"
_symmetry_group_IT_number 2
_symmetry_cell_setting 'triclinic'
loop_
_space_group_symop_operation_xyz
x,y,z
-x,-y,-z
loop_
_atom_site_type_symbol
_atom_site_label
_atom_site_fract_x
_atom_site_fract_y
_atom_site_fract_z
Si Si1 0.719897 0.830384 0.543944
Si Si2 0.163981 0.090565 0.374570
Si Si3 0.359578 0.451080 0.185497
Si Si4 0.724756 0.607400 0.382834
Si Si5 0.512947 0.610705 0.299154
Si Si6 0.059219 0.379279 0.147537
Si Si7 0.226816 0.167440 0.693993
Si Si8 0.625512 0.312831 0.898034
O O1 0.875632 0.835163 0.562547
O O2 0.592608 0.716132 0.701520
O O3 0.852466 0.803013 0.401391
O O4 0.500000 0.000000 0.500000
O O5 0.046751 0.230235 0.248622
O O6 0.494138 0.984205 0.298881
O O7 0.000000 0.000000 0.500000
O O8 0.416452 0.520665 0.197740
O O9 0.033218 0.547766 0.252211
O O10 0.500000 0.500000 0.000000
O O11 0.521830 0.690976 0.325331
O O12 0.674187 0.469619 0.538975
O O13 0.695015 0.708685 0.403394
O O14 0.446774 0.701397 0.163453
O O15 0.819908 0.473726 0.254792
O O16 0.383857 0.313553 0.072305
O O17 0.000000 0.500000 0.000000
O O18 0.945870 0.197376 0.854212
#
# Coordination Sequence:
#
# PCOD9083840 Si02
#       8
#     2   2   2   2   2   2   2   2
#     4  10  22  39  59  88 125 163 203 249 303 364
#     4  11  23  41  65  89 121 163 205 252 304 364
#     4  11  21  36  59  89 123 161 204 250 306 364
#     4  10  20  34  57  88 120 158 204 252 299 357
#     4  10  19  34  58  86 119 158 206 251 298 355
#     4  10  22  40  63  92 123 160 205 253 305 362
#     4  10  22  38  58  90 125 158 202 249 308 365
#     4  10  21  36  60  89 124 157 197 257 308 358
#
# _framework density 22.288954
#
# number of rings (size 3 to 8) (size 9 to 14) (size 15 to 20)
#    0.000    1.750    0.000    4.500    0.000    8.500 
#    0.000    1.250    0.000    3.750    0.000    0.000 
#    0.000    0.000    0.000    0.000    0.000    0.000 
#
# Total GULP energy -89137.439355 kJ/mol
# GULP energy per Si atom -5571.089960 kJ/mol
# Density = 2.223822 g / cm^3
# Si number density = 22.288954 Si / 1000 Ang^3
#
#
#
# Elastic Constant Matrix: (Units=GPa)
#
#
# Indices 1 2 3 4 5 6 
#
# 1 75.6727 35.6484 9.2677 -0.3316 -7.9957 13.1079
# 2 35.6484 113.1113 48.0468 -1.2868 -10.8529 -6.9743
# 3 9.2677 48.0468 93.1367 4.8604 -18.0189 -5.5092
# 4 -0.3316 -1.2868 4.8604 49.9679 -4.9131 -9.7463
# 5 -7.9957 -10.8529 -18.0189 -4.9131 34.0600 -2.3367
# 6 13.1079 -6.9743 -5.5092 -9.7463 -2.3367 36.5040
#
#
#
# Elastic Compliance Matrix: (Units=1/GPa)
#
#
# Indices 1 2 3 4 5 6 
#
# 1 0.017631 -0.006541 0.001676 -0.001476 0.002208 -0.007580
# 2 -0.006541 0.013901 -0.006323 0.001829 0.000125 0.004546
# 3 0.001676 -0.006323 0.015135 -0.000879 0.006303 0.000643
# 4 -0.001476 0.001829 -0.000879 0.021791 0.003380 0.006781
# 5 0.002208 0.000125 0.006303 0.003380 0.033964 0.003259
# 6 -0.007580 0.004546 0.000643 0.006781 0.003259 0.033101
#
#
# Mechanical properties :
#
#
# Convention : Reuss Voigt Hill
#
# Bulk Modulus (GPa) = 41.16649 51.98294 46.57471
# Shear Modulus (GPa) = 30.12143 36.70359 33.41251
#
# Velocity S-wave (km/s) = 3.68014 4.06238 3.87597
# Velocity P-wave (km/s) = 6.04710 6.73623 6.40095
#
# Compressibility (1/GPa) = 0.02429160
#
# Stress axis : x y z
#
# Youngs Moduli (GPa) = 56.71933 71.93715 66.07096
#
# Poissons Ratio (x) = 0.47051 -0.11071
# Poissons Ratio (y) = 0.37098 0.41775
# Poissons Ratio (z) = -0.09504 0.45484
#
# Static dielectric constant tensor:
#      x y z
#    x 1.914620 0.003510 0.008020 
#    y 0.003510 1.872540 0.042020 
#    z 0.008020 0.042020 1.846970 
# 
# From -- ./inp_files/505218.got.cif
#   From: 2010.05.17/outbox.cif.g08.bks.cpg/sg2_253_cif.got.tgz:505218.got - 2010.06.03 11:33:40.
