data_PCOD9083806
_publ_section_title
;
Structure prediction by ZEFSAII (Michael W. Deem and Ramdas Pophale) SiO2 
 PCOD9083806
Probable space group: P -1
;
_chemical_formula_sum "Si O2"
_cell_formula_units_Z 16
_cell_length_a 7.031143
_cell_length_b 7.413406
_cell_length_c 24.050160
_cell_angle_alpha 95.259697
_cell_angle_beta 34.735185
_cell_angle_gamma 100.013710
_cell_volume 700.467162
_symmetry_space_group_name_H-M "P -1"
_symmetry_group_IT_number 2
_symmetry_cell_setting 'triclinic'
loop_
_space_group_symop_operation_xyz
x,y,z
-x,-y,-z
loop_
_atom_site_type_symbol
_atom_site_label
_atom_site_fract_x
_atom_site_fract_y
_atom_site_fract_z
Si Si1 0.926555 0.053718 0.368016
Si Si2 0.478769 0.647368 0.557246
Si Si3 0.939285 0.831531 0.778903
Si Si4 0.355764 0.472765 0.776172
Si Si5 0.206876 0.330428 0.076640
Si Si6 0.295725 0.803335 0.118207
Si Si7 0.893191 0.335773 0.721734
Si Si8 0.674843 0.763429 0.620488
O O1 0.137491 0.164062 0.268215
O O2 0.083434 0.106282 0.392180
O O3 0.609142 0.164383 0.442700
O O4 0.940142 0.841590 0.342549
O O5 0.500000 0.500000 0.500000
O O6 0.776132 0.706070 0.532647
O O7 0.176194 0.521428 0.662321
O O8 0.811717 0.683122 0.852463
O O9 0.348175 0.858803 0.688292
O O10 0.794041 0.000229 0.843632
O O11 0.620910 0.384928 0.745266
O O12 0.557596 0.578561 0.679083
O O13 0.154713 0.626818 0.854926
O O14 0.040498 0.315336 0.831832
O O15 0.500000 0.500000 0.000000
O O16 0.361235 0.181103 0.999767
O O17 0.301698 0.714803 0.175356
#
# Coordination Sequence:
#
# PCOD9083806 Si02
#       8
#     2   2   2   2   2   2   2   2
#     4  10  22  39  62  90 117 154 197 242 290 358
#     4  11  24  42  64  90 119 151 191 246 300 357
#     4   9  19  34  56  82 119 157 197 242 286 344
#     4  10  19  34  58  84 115 157 198 238 288 352
#     4   9  19  31  54  85 120 157 197 246 292 332
#     4  10  19  35  55  84 121 157 199 246 291 337
#     4  11  22  39  63  87 118 158 201 238 297 354
#     4  10  19  38  61  86 116 157 196 237 295 350
#
# _framework density 22.841898
#
# number of rings (size 3 to 8) (size 9 to 14) (size 15 to 20)
#    0.000    2.000    2.500    1.125    1.750    1.500 
#    0.000    4.375    0.000   13.500    0.000    0.000 
#    0.000    0.000    0.000    0.000    0.000    0.000 
#
# Total GULP energy -89111.858691 kJ/mol
# GULP energy per Si atom -5569.491168 kJ/mol
# Density = 2.278991 g / cm^3
# Si number density = 22.841898 Si / 1000 Ang^3
#
#
#
# Elastic Constant Matrix: (Units=GPa)
#
#
# Indices 1 2 3 4 5 6 
#
# 1 125.2751 29.6119 29.2647 11.6638 10.8496 -13.2601
# 2 29.6119 102.9282 17.4667 22.5232 -2.1502 -14.2503
# 3 29.2647 17.4667 69.7793 11.5059 18.6724 -6.8512
# 4 11.6638 22.5232 11.5059 32.3315 4.2093 3.7131
# 5 10.8496 -2.1502 18.6724 4.2093 26.7788 3.8356
# 6 -13.2601 -14.2503 -6.8512 3.7131 3.8356 34.3200
#
#
#
# Elastic Compliance Matrix: (Units=1/GPa)
#
#
# Indices 1 2 3 4 5 6 
#
# 1 0.009611 -0.001682 -0.002393 -0.001453 -0.002559 0.002981
# 2 -0.001682 0.013240 -0.001543 -0.009115 0.003518 0.005132
# 3 -0.002393 -0.001543 0.020414 -0.004095 -0.013382 0.004448
# 4 -0.001453 -0.009115 -0.004095 0.040634 -0.002343 -0.009298
# 5 -0.002559 0.003518 -0.013382 -0.002343 0.049432 -0.007470
# 6 0.002981 0.005132 0.004448 -0.009298 -0.007470 0.035149
#
#
# Mechanical properties :
#
#
# Convention : Reuss Voigt Hill
#
# Bulk Modulus (GPa) = 31.22178 50.07435 40.64807
# Shear Modulus (GPa) = 26.26158 33.46200 29.86179
#
# Velocity S-wave (km/s) = 3.39442 3.83161 3.61962
# Velocity P-wave (km/s) = 5.39083 6.44552 5.94162
#
# Compressibility (1/GPa) = 0.03202893
#
# Stress axis : x y z
#
# Youngs Moduli (GPa) = 104.04292 75.52909 48.98684
#
# Poissons Ratio (x) = 0.12703 0.11722
# Poissons Ratio (y) = 0.17498 0.07561
# Poissons Ratio (z) = 0.24895 0.11657
#
# Static dielectric constant tensor:
#      x y z
#    x 1.879960 0.014520 0.092240 
#    y 0.014520 1.930530 0.045290 
#    z 0.092240 0.045290 2.019850 
# 
# From -- ./inp_files/622327.got.cif
#   From: 2010.05.17/outbox.cif.g08.bks.cpg/sg2_312_cif.got.tgz:622327.got - 2010.06.03 11:33:40.
