data_PCOD9083843
_publ_section_title
;
Structure prediction by ZEFSAII (Michael W. Deem and Ramdas Pophale) SiO2 
 PCOD9083843
Probable space group: P -1
;
_chemical_formula_sum "Si O2"
_cell_formula_units_Z 16
_cell_length_a 16.055383
_cell_length_b 9.680100
_cell_length_c 11.462907
_cell_angle_alpha 58.644446
_cell_angle_beta 146.816339
_cell_angle_gamma 97.368297
_cell_volume 627.485819
_symmetry_space_group_name_H-M "P -1"
_symmetry_group_IT_number 2
_symmetry_cell_setting 'triclinic'
loop_
_space_group_symop_operation_xyz
x,y,z
-x,-y,-z
loop_
_atom_site_type_symbol
_atom_site_label
_atom_site_fract_x
_atom_site_fract_y
_atom_site_fract_z
Si Si1 0.625199 0.559072 0.450696
Si Si2 0.261132 0.183772 0.611012
Si Si3 0.749517 0.746295 0.185895
Si Si4 0.189991 0.767403 0.778084
Si Si5 0.748632 0.116424 0.724595
Si Si6 0.063089 0.710267 0.414261
Si Si7 0.718759 0.923144 0.561664
Si Si8 0.651841 0.643433 0.709560
O O1 0.755110 0.619268 0.534441
O O2 0.727108 0.320649 0.636879
O O3 0.604848 0.595900 0.549817
O O4 0.399819 0.718285 0.062972
O O5 0.174115 0.222716 0.620053
O O6 0.186967 0.137165 0.431287
O O7 0.500000 0.000000 0.000000
O O8 0.882644 0.724321 0.248303
O O9 0.775727 0.536018 0.327410
O O10 0.517594 0.942138 0.801980
O O11 0.154494 0.747589 0.611075
O O12 0.234682 0.571489 0.988243
O O13 0.000000 0.000000 0.500000
O O14 0.733087 0.069354 0.594178
O O15 0.554041 0.179308 0.538099
O O16 0.953647 0.899004 0.110528
O O17 0.770847 0.726252 0.784942
#
# Coordination Sequence:
#
# PCOD9083843 Si02
#       8
#     2   2   2   2   2   2   2   2
#     4  10  21  39  62  87 119 165 200 245 294 361
#     4   9  21  41  65  83 116 160 212 242 284 359
#     4  10  21  39  61  86 122 154 200 249 296 350
#     4  11  22  33  56  92 125 151 191 247 313 349
#     4  11  20  35  60  92 121 153 203 246 301 352
#     4  11  23  35  60  94 126 149 188 256 315 343
#     4  10  20  36  62  88 114 161 206 241 289 355
#     4  10  19  34  58  86 122 156 201 241 293 358
#
# _framework density 25.498584000000001
#
# number of rings (size 3 to 8) (size 9 to 14) (size 15 to 20)
#    0.000    1.750    1.250    4.875    7.000    0.000 
#    0.000    6.875    0.000    0.000    0.000    0.000 
#    0.000    0.000    0.000    0.000    0.000    0.000 
#
# Total GULP energy -89650.461625 kJ/mol
# GULP energy per Si atom -5603.153852 kJ/mol
# Density = 2.544055 g / cm^3
# Si number density = 25.498584 Si / 1000 Ang^3
#
#
#
# Elastic Constant Matrix: (Units=GPa)
#
#
# Indices 1 2 3 4 5 6 
#
# 1 45.7915 28.1354 30.3914 -3.2119 -5.4407 -11.3033
# 2 28.1354 151.4699 30.7092 3.8434 -13.9129 -24.2181
# 3 30.3914 30.7092 109.6379 5.8000 -1.9553 -1.6477
# 4 -3.2119 3.8434 5.8000 44.6870 -4.1518 -16.0590
# 5 -5.4407 -13.9129 -1.9553 -4.1518 31.5811 11.8398
# 6 -11.3033 -24.2181 -1.6477 -16.0590 11.8398 35.8145
#
#
#
# Elastic Compliance Matrix: (Units=1/GPa)
#
#
# Indices 1 2 3 4 5 6 
#
# 1 0.032548 -0.002636 -0.008515 0.007825 0.000681 0.011382
# 2 -0.002636 0.008264 -0.001547 0.001128 0.001476 0.004703
# 3 -0.008515 -0.001547 0.012041 -0.003793 -0.000082 -0.004853
# 4 0.007825 0.001128 -0.003793 0.029149 -0.000690 0.016356
# 5 0.000681 0.001476 -0.000082 -0.000690 0.036526 -0.011175
# 6 0.011382 0.004703 -0.004853 0.016356 -0.011175 0.045499
#
#
# Mechanical properties :
#
#
# Convention : Reuss Voigt Hill
#
# Bulk Modulus (GPa) = 36.41884 53.93015 45.17449
# Shear Modulus (GPa) = 25.17951 36.92740 31.05345
#
# Velocity S-wave (km/s) = 3.14584 3.80967 3.49356
# Velocity P-wave (km/s) = 5.24488 6.36770 5.83337
#
# Compressibility (1/GPa) = 0.02745832
#
# Stress axis : x y z
#
# Youngs Moduli (GPa) = 30.72399 121.00606 83.05155
#
# Poissons Ratio (x) = 0.31893 0.70716
# Poissons Ratio (y) = 0.08098 0.12846
# Poissons Ratio (z) = 0.26161 0.18717
#
# Static dielectric constant tensor:
#      x y z
#    x 2.062980 0.029990 0.003570 
#    y 0.029990 2.008730 -0.030730 
#    z 0.003570 -0.030730 1.956230 
# 
# From -- ./inp_files/263525.got.cif
#   From: 2010.05.17/outbox.cif.g08.bks.cpg/sg2_132_cif.got.tgz:263525.got - 2010.06.03 11:33:40.
