data_PCOD9083756
_publ_section_title
;
Structure prediction by ZEFSAII (Michael W. Deem and Ramdas Pophale) SiO2 
 PCOD9083756
Probable space group: P -1
;
_chemical_formula_sum "Si O2"
_cell_formula_units_Z 12
_cell_length_a 7.330896
_cell_length_b 9.494985
_cell_length_c 10.748941
_cell_angle_alpha 54.846697
_cell_angle_beta 57.479544
_cell_angle_gamma 69.389856
_cell_volume 514.837425
_symmetry_space_group_name_H-M "P -1"
_symmetry_group_IT_number 2
_symmetry_cell_setting 'triclinic'
loop_
_space_group_symop_operation_xyz
x,y,z
-x,-y,-z
loop_
_atom_site_type_symbol
_atom_site_label
_atom_site_fract_x
_atom_site_fract_y
_atom_site_fract_z
Si Si1 0.679417 0.160644 0.194880
Si Si2 0.459857 0.758016 0.042403
Si Si3 0.229517 0.549648 0.446195
Si Si4 0.003147 0.146578 0.527446
Si Si5 0.428559 0.208931 0.489988
Si Si6 0.160899 0.072954 0.074194
O O1 0.555517 0.280994 0.077660
O O2 0.641518 0.222651 0.320259
O O3 0.932072 0.148444 0.068220
O O4 0.587301 0.968503 0.338346
O O5 0.700333 0.783776 0.987714
O O6 0.351692 0.636710 0.242690
O O7 0.327362 0.948153 0.998009
O O8 0.161645 0.685151 0.510891
O O9 0.363087 0.371488 0.517413
O O10 0.000000 0.500000 0.500000
O O11 0.240068 0.199616 0.456526
O O12 0.914513 0.055222 0.727678
O O13 0.000000 0.000000 0.500000
#
# Coordination Sequence:
#
# PCOD9083756 Si02
#       6
#     2   2   2   2   2   2
#     4  10  19  34  58  81 109 151 189 223 274 336
#     4  10  19  34  58  80 108 149 188 227 280 331
#     4   9  19  35  55  83 112 143 186 235 279 328
#     4   9  16  31  56  80 107 146 186 224 276 334
#     4   9  19  34  54  83 115 143 186 234 273 328
#     4   9  19  32  52  83 109 138 190 234 264 330
#
# _framework density 23.308327999999999
#
# number of rings (size 3 to 8) (size 9 to 14) (size 15 to 20)
#    0.000    2.667    0.000    2.500    0.000    0.667 
#    0.000    0.833    0.000   55.000    0.000    3.500 
#    0.000    0.000    0.000    0.000    0.000    0.000 
#
# Total GULP energy -66934.713235 kJ/mol
# GULP energy per Si atom -5577.892770 kJ/mol
# Density = 2.325528 g / cm^3
# Si number density = 23.308328 Si / 1000 Ang^3
#
#
#
# Elastic Constant Matrix: (Units=GPa)
#
#
# Indices 1 2 3 4 5 6 
#
# 1 79.0477 7.4987 25.8042 -6.4016 -16.5048 3.6272
# 2 7.4987 127.6900 -10.3883 6.5500 8.7107 -14.1763
# 3 25.8042 -10.3883 45.7839 5.8542 -14.5434 -6.7460
# 4 -6.4016 6.5500 5.8542 22.1284 6.9497 2.3427
# 5 -16.5048 8.7107 -14.5434 6.9497 30.8965 2.1552
# 6 3.6272 -14.1763 -6.7460 2.3427 2.1552 18.5206
#
#
#
# Elastic Compliance Matrix: (Units=1/GPa)
#
#
# Indices 1 2 3 4 5 6 
#
# 1 0.020595 -0.005042 -0.015459 0.012075 0.003509 -0.015459
# 2 -0.005042 0.010698 0.007800 -0.007695 -0.001224 0.013133
# 3 -0.015459 0.007800 0.044050 -0.025716 0.014204 0.026643
# 4 0.012075 -0.007695 -0.025716 0.065500 -0.016545 -0.023981
# 5 0.003509 -0.001224 0.014204 -0.016545 0.044965 0.000410
# 6 -0.015459 0.013133 0.026643 -0.023981 0.000410 0.079764
#
#
# Mechanical properties :
#
#
# Convention : Reuss Voigt Hill
#
# Bulk Modulus (GPa) = 20.02386 33.15009 26.58697
# Shear Modulus (GPa) = 16.25372 29.61624 22.93498
#
# Velocity S-wave (km/s) = 2.64358 3.56846 3.14025
# Velocity P-wave (km/s) = 4.23409 5.58854 4.95779
#
# Compressibility (1/GPa) = 0.04994043
#
# Stress axis : x y z
#
# Youngs Moduli (GPa) = 48.55506 93.47231 22.70155
#
# Poissons Ratio (x) = 0.47131 0.35094
# Poissons Ratio (y) = 0.24483 -0.17706
# Poissons Ratio (z) = 0.75060 -0.72905
#
# Static dielectric constant tensor:
#      x y z
#    x 2.037020 -0.000470 -0.055510 
#    y -0.000470 2.038790 0.067650 
#    z -0.055510 0.067650 1.869950 
# 
# From -- ./inp_files/150276.got.cif
#   From: 2010.05.17/outbox.cif.g08.bks.cpg/sg2_76_cif.got.tgz:150276.got - 2010.06.03 11:33:40.
