data_PCOD9083156
_publ_section_title
;
Structure prediction by ZEFSAII (Michael W. Deem and Ramdas Pophale) SiO2 
 PCOD9083156
Probable space group: P -1
;
_chemical_formula_sum "Si O2"
_cell_formula_units_Z 14
_cell_length_a 7.673273
_cell_length_b 9.427864
_cell_length_c 13.538661
_cell_angle_alpha 109.355385
_cell_angle_beta 125.323120
_cell_angle_gamma 114.088735
_cell_volume 472.609257
_symmetry_space_group_name_H-M "P -1"
_symmetry_group_IT_number 2
_symmetry_cell_setting 'triclinic'
loop_
_space_group_symop_operation_xyz
x,y,z
-x,-y,-z
loop_
_atom_site_type_symbol
_atom_site_label
_atom_site_fract_x
_atom_site_fract_y
_atom_site_fract_z
Si Si1 0.281151 0.575718 0.852120
Si Si2 0.200718 0.387360 0.988624
Si Si3 0.881723 0.248146 0.046734
Si Si4 0.354673 0.845681 0.584369
Si Si5 0.207810 0.186931 0.246583
Si Si6 0.915468 0.720158 0.568144
Si Si7 0.426129 0.223538 0.647299
O O1 0.626400 0.680313 0.956638
O O2 0.357366 0.780168 0.972034
O O3 0.987104 0.414243 0.636765
O O4 0.158900 0.407082 0.866522
O O5 0.486252 0.658172 0.189543
O O6 0.103496 0.737360 0.064079
O O7 0.938561 0.106901 0.061215
O O8 0.242950 0.536337 0.250838
O O9 0.676733 0.910929 0.693976
O O10 0.244475 0.815681 0.655923
O O11 0.385511 0.024114 0.582141
O O12 0.575489 0.434693 0.377611
O O13 0.112882 0.238566 0.320842
O O14 0.873916 0.843057 0.512965
#
# Coordination Sequence:
#
# PCOD9083156 Si02
#       7
#     2   2   2   2   2   2   2
#     4  11  19  32  60  79 109 145 184 217 282 309
#     4   9  21  37  51  86 108 142 185 228 257 338
#     4   9  20  39  55  81 114 143 178 234 261 323
#     4  12  21  33  57  89 110 143 171 234 276 321
#     4  10  21  34  53  85 111 144 186 216 270 332
#     4  10  19  34  50  78 118 140 173 228 267 315
#     4   9  20  37  51  82 123 129 180 229 276 316
#
# _framework density 29.622776000000002
#
# number of rings (size 3 to 8) (size 9 to 14) (size 15 to 20)
#    0.857    1.143    1.429    3.857    0.000    3.429 
#    0.000    0.000    0.000    0.857    7.429    7.000 
#    0.000    0.143    0.000    0.000    0.000    0.000 
#
# Total GULP energy -78416.092267 kJ/mol
# GULP energy per Si atom -5601.149448 kJ/mol
# Density = 2.955535 g / cm^3
# Si number density = 29.622776 Si / 1000 Ang^3
#
#
#
# Elastic Constant Matrix: (Units=GPa)
#
#
# Indices 1 2 3 4 5 6 
#
# 1 204.8582 41.2989 39.9287 -0.3463 9.9973 -22.1135
# 2 41.2989 154.4627 7.1206 -9.8687 -1.8145 -30.6150
# 3 39.9287 7.1206 64.4897 -17.2661 2.7956 0.9947
# 4 -0.3463 -9.8687 -17.2661 46.3461 -0.0727 6.0159
# 5 9.9973 -1.8145 2.7956 -0.0727 54.8976 -1.1811
# 6 -22.1135 -30.6150 0.9947 6.0159 -1.1811 56.9848
#
#
#
# Elastic Compliance Matrix: (Units=1/GPa)
#
#
# Indices 1 2 3 4 5 6 
#
# 1 0.006215 -0.001204 -0.004259 -0.002063 -0.000914 0.002038
# 2 -0.001204 0.007561 0.000157 0.001209 0.000538 0.003476
# 3 -0.004259 0.000157 0.020304 0.007924 -0.000302 -0.002766
# 4 -0.002063 0.001209 0.007924 0.025153 -0.000018 -0.002945
# 5 -0.000914 0.000538 -0.000302 -0.000018 0.018422 0.000323
# 6 0.002038 0.003476 -0.002766 -0.002945 0.000323 0.020573
#
#
# Mechanical properties :
#
#
# Convention : Reuss Voigt Hill
#
# Bulk Modulus (GPa) = 42.61084 66.72301 54.66693
# Shear Modulus (GPa) = 42.85842 54.00986 48.43414
#
# Velocity S-wave (km/s) = 3.80782 4.27459 4.04794
# Velocity P-wave (km/s) = 5.80933 6.85098 6.35155
#
# Compressibility (1/GPa) = 0.02346820
#
# Stress axis : x y z
#
# Youngs Moduli (GPa) = 160.88849 132.25415 49.25245
#
# Poissons Ratio (x) = 0.15924 0.20979
# Poissons Ratio (y) = 0.19371 -0.00776
# Poissons Ratio (z) = 0.68530 -0.02083
#
# Static dielectric constant tensor:
#      x y z
#    x 2.357390 0.075790 0.058820 
#    y 0.075790 2.497420 0.166610 
#    z 0.058820 0.166610 2.377570 
# 
# From -- ./inp_files/495507.got.cif
#   From: 2010.05.17/outbox.cif.g08.bks.cpg/sg2_248_cif.got.tgz:495507.got - 2010.06.03 11:33:40.
