data_PCOD9083440
_publ_section_title
;
Structure prediction by ZEFSAII (Michael W. Deem and Ramdas Pophale) SiO2 
 PCOD9083440
Probable space group: P -1
;
_chemical_formula_sum "Si O2"
_cell_formula_units_Z 15
_cell_length_a 9.279224
_cell_length_b 13.686532
_cell_length_c 8.674645
_cell_angle_alpha 115.693007
_cell_angle_beta 132.398563
_cell_angle_gamma 43.155966
_cell_volume 552.742103
_symmetry_space_group_name_H-M "P -1"
_symmetry_group_IT_number 2
_symmetry_cell_setting 'triclinic'
loop_
_space_group_symop_operation_xyz
x,y,z
-x,-y,-z
loop_
_atom_site_type_symbol
_atom_site_label
_atom_site_fract_x
_atom_site_fract_y
_atom_site_fract_z
Si Si1 0.694761 0.687236 0.459150
Si Si2 0.932115 0.549918 0.221820
Si Si3 0.720467 0.971637 0.037427
Si Si4 0.806498 0.367924 0.886802
Si Si5 0.303667 0.978968 0.288505
Si Si6 0.149361 0.705373 0.801837
Si Si7 0.000000 0.000000 0.500000
Si Si8 0.161964 0.692064 0.456318
O O1 0.785545 0.583659 0.596644
O O2 0.404714 0.838904 0.361424
O O3 0.913248 0.703036 0.630125
O O4 0.745721 0.614398 0.281179
O O5 0.961624 0.663902 0.275349
O O6 0.853330 0.480748 0.006080
O O7 0.924257 0.800098 0.033114
O O8 0.833354 0.030488 0.251248
O O9 0.500000 0.000000 0.000000
O O10 0.631791 0.051297 0.864745
O O11 0.684901 0.376422 0.642016
O O12 0.703720 0.368660 0.981792
O O13 0.500000 0.000000 0.500000
O O14 0.009353 0.123834 0.188542
O O15 0.273518 0.647830 0.682137
O O16 0.976413 0.141557 0.542026
#
# Coordination Sequence:
#
# PCOD9083440 Si02
#       8
#     2   2   2   2   2   2   1   2
#     4   8  15  26  49  81 115 147 195 246 291 353
#     4   9  16  29  49  83 116 155 196 243 298 355
#     4  10  22  38  62  88 121 160 197 250 311 347
#     4   9  18  32  52  91 113 144 211 240 284 380
#     4   9  17  30  55  89 117 146 201 256 291 361
#     4   8  16  30  50  79 114 147 187 248 301 342
#     4  10  24  40  58  92 124 156 206 246 294 378
#     4  10  19  34  56  75 120 160 186 252 304 339
#
# _framework density 27.137430999999999
#
# number of rings (size 3 to 8) (size 9 to 14) (size 15 to 20)
#    0.000    2.933    0.000    2.000   11.200    0.000 
#    0.000    6.000    0.000    1.600    0.000    0.000 
#    0.000    0.000    0.000    0.000    0.000    0.000 
#
# Total GULP energy -83627.707647 kJ/mol
# GULP energy per Si atom -5575.180510 kJ/mol
# Density = 2.707567 g / cm^3
# Si number density = 27.137431 Si / 1000 Ang^3
#
#
#
# Elastic Constant Matrix: (Units=GPa)
#
#
# Indices 1 2 3 4 5 6 
#
# 1 125.0041 45.6609 62.7901 6.2230 -1.8700 8.5459
# 2 45.6609 148.3646 37.2265 6.9095 11.4841 24.4114
# 3 62.7901 37.2265 189.2741 6.8200 -33.0440 16.0152
# 4 6.2230 6.9095 6.8200 50.8169 23.4347 -3.7031
# 5 -1.8700 11.4841 -33.0440 23.4347 46.2366 9.9601
# 6 8.5459 24.4114 16.0152 -3.7031 9.9601 44.8816
#
#
#
# Elastic Compliance Matrix: (Units=1/GPa)
#
#
# Indices 1 2 3 4 5 6 
#
# 1 0.010483 -0.002404 -0.003429 0.000433 -0.001860 0.000983
# 2 -0.002404 0.008432 -0.000969 0.000054 -0.002203 -0.003289
# 3 -0.003429 -0.000969 0.009113 -0.005967 0.010703 -0.004939
# 4 0.000433 0.000054 -0.005967 0.031354 -0.022206 0.009532
# 5 -0.001860 -0.002203 0.010703 -0.022206 0.043990 -0.013861
# 6 0.000983 -0.003289 -0.004939 0.009532 -0.013861 0.029508
#
#
# Mechanical properties :
#
#
# Convention : Reuss Voigt Hill
#
# Bulk Modulus (GPa) = 69.32371 83.77753 76.55062
# Shear Modulus (GPa) = 33.04851 49.51803 41.28327
#
# Velocity S-wave (km/s) = 3.49351 4.27630 3.90457
# Velocity P-wave (km/s) = 6.47099 7.43780 6.97118
#
# Compressibility (1/GPa) = 0.01442508
#
# Stress axis : x y z
#
# Youngs Moduli (GPa) = 95.38826 118.58904 109.73381
#
# Poissons Ratio (x) = 0.28510 0.37623
# Poissons Ratio (y) = 0.22932 0.10636
# Poissons Ratio (z) = 0.32705 0.11494
#
# Static dielectric constant tensor:
#      x y z
#    x 2.149430 -0.016760 -0.019760 
#    y -0.016760 2.232270 -0.056700 
#    z -0.019760 -0.056700 2.241720 
# 
# From -- ./inp_files/268676.got.cif
#   From: 2010.05.17/outbox.cif.g08.bks.cpg/sg2_135_cif.got.tgz:268676.got - 2010.06.03 11:33:40.
