data_PCOD9083004
_publ_section_title
;
Structure prediction by ZEFSAII (Michael W. Deem and Ramdas Pophale) SiO2 
 PCOD9083004
Probable space group: P -1
;
_chemical_formula_sum "Si O2"
_cell_formula_units_Z 14
_cell_length_a 8.531952
_cell_length_b 10.197624
_cell_length_c 17.294064
_cell_angle_alpha 56.289401
_cell_angle_beta 28.296247
_cell_angle_gamma 60.926743
_cell_volume 593.315890
_symmetry_space_group_name_H-M "P -1"
_symmetry_group_IT_number 2
_symmetry_cell_setting 'triclinic'
loop_
_space_group_symop_operation_xyz
x,y,z
-x,-y,-z
loop_
_atom_site_type_symbol
_atom_site_label
_atom_site_fract_x
_atom_site_fract_y
_atom_site_fract_z
Si Si1 0.636683 0.622383 0.466013
Si Si2 0.941091 0.751795 0.156069
Si Si3 0.686955 0.845282 0.002851
Si Si4 0.579922 0.379406 0.684194
Si Si5 0.280913 0.910280 0.835176
Si Si6 0.800170 0.116306 0.358773
Si Si7 0.049452 0.116161 0.512148
O O1 0.500000 0.500000 0.500000
O O2 0.949950 0.691670 0.259579
O O3 0.698999 0.552657 0.547670
O O4 0.370744 0.758592 0.551544
O O5 0.765802 0.635076 0.209075
O O6 0.702906 0.905079 0.213261
O O7 0.269404 0.811577 0.951559
O O8 0.926314 0.899228 0.951392
O O9 0.960336 0.800581 0.834047
O O10 0.484165 0.698920 0.178286
O O11 0.500000 0.000000 0.000000
O O12 0.841565 0.270645 0.561542
O O13 0.561216 0.848148 0.677501
O O14 0.500000 0.000000 0.500000
O O15 0.025736 0.993391 0.346648
O O16 0.000000 0.000000 0.500000
#
# Coordination Sequence:
#
# PCOD9083004 Si02
#       7
#     2   2   2   2   2   2   2
#     4  10  20  40  61  92 129 168 205 259 326 375
#     4   9  17  34  58  86 115 162 199 258 309 364
#     4  11  22  37  59  91 124 165 216 259 311 378
#     4  10  21  35  59  87 126 160 206 257 315 373
#     4  10  19  33  60  89 121 155 214 262 302 362
#     4  12  23  40  67  90 126 169 217 260 316 380
#     4  12  20  36  61  97 121 163 216 260 306 379
#
# _framework density 23.596197
#
# number of rings (size 3 to 8) (size 9 to 14) (size 15 to 20)
#    0.000    1.429    5.714    0.857    0.000    0.571 
#    0.000    1.429    0.000    0.000    0.000    0.000 
#    0.000    0.000    0.000    0.000    0.000    0.000 
#
# Total GULP energy -77979.714067 kJ/mol
# GULP energy per Si atom -5569.979576 kJ/mol
# Density = 2.354249 g / cm^3
# Si number density = 23.596197 Si / 1000 Ang^3
#
#
#
# Elastic Constant Matrix: (Units=GPa)
#
#
# Indices 1 2 3 4 5 6 
#
# 1 42.7402 -0.2303 28.8930 -8.2777 13.2187 -9.9688
# 2 -0.2303 46.8979 20.1436 -5.6774 7.6426 -4.7037
# 3 28.8930 20.1436 162.4651 -23.8351 50.8857 -17.1846
# 4 -8.2777 -5.6774 -23.8351 39.1511 -14.1660 18.0795
# 5 13.2187 7.6426 50.8857 -14.1660 44.5867 -7.7585
# 6 -9.9688 -4.7037 -17.1846 18.0795 -7.7585 33.5924
#
#
#
# Elastic Compliance Matrix: (Units=1/GPa)
#
#
# Indices 1 2 3 4 5 6 
#
# 1 0.028436 0.002913 -0.003587 0.000075 -0.003750 0.006105
# 2 0.002913 0.022980 -0.002671 0.001051 -0.001090 0.001898
# 3 -0.003587 -0.002671 0.010514 0.001203 -0.009922 0.001001
# 4 0.000075 0.001051 0.001203 0.037141 0.007172 -0.017548
# 5 -0.003750 -0.001090 -0.009922 0.007172 0.037043 -0.001646
# 6 0.006105 0.001898 0.001001 -0.017548 -0.001646 0.041423
#
#
# Mechanical properties :
#
#
# Convention : Reuss Voigt Hill
#
# Bulk Modulus (GPa) = 18.10287 38.85733 28.48010
# Shear Modulus (GPa) = 24.67429 37.01917 30.84673
#
# Velocity S-wave (km/s) = 3.23722 3.96518 3.61955
# Velocity P-wave (km/s) = 4.65418 6.12102 5.43729
#
# Compressibility (1/GPa) = 0.05523987
#
# Stress axis : x y z
#
# Youngs Moduli (GPa) = 35.16680 43.51676 95.10859
#
# Poissons Ratio (x) = -0.12675 0.34116
# Poissons Ratio (y) = -0.10243 0.25401
# Poissons Ratio (z) = 0.12614 0.11622
#
# Static dielectric constant tensor:
#      x y z
#    x 2.000400 0.010770 -0.010560 
#    y 0.010770 1.864720 -0.099590 
#    z -0.010560 -0.099590 2.116120 
# 
# From -- ./inp_files/204074.got.cif
#   From: 2010.05.17/outbox.cif.g08.bks.cpg/sg2_103_cif.got.tgz:204074.got - 2010.06.03 11:33:40.
