data_PCOD9083496
_publ_section_title
;
Structure prediction by ZEFSAII (Michael W. Deem and Ramdas Pophale) SiO2 
 PCOD9083496
Probable space group: P -1
;
_chemical_formula_sum "Si O2"
_cell_formula_units_Z 16
_cell_length_a 11.323338
_cell_length_b 15.018076
_cell_length_c 9.891505
_cell_angle_alpha 139.901503
_cell_angle_beta 136.509116
_cell_angle_gamma 62.272626
_cell_volume 730.249266
_symmetry_space_group_name_H-M "P -1"
_symmetry_group_IT_number 2
_symmetry_cell_setting 'triclinic'
loop_
_space_group_symop_operation_xyz
x,y,z
-x,-y,-z
loop_
_atom_site_type_symbol
_atom_site_label
_atom_site_fract_x
_atom_site_fract_y
_atom_site_fract_z
Si Si1 0.271450 0.137172 0.853246
Si Si2 0.366173 0.185193 0.675970
Si Si3 0.615426 0.454899 0.160234
Si Si4 0.100667 0.851855 0.321066
Si Si5 0.610647 0.597666 0.594658
Si Si6 0.999565 0.545667 0.897983
Si Si7 0.114683 0.918430 0.097975
Si Si8 0.913588 0.646846 0.488769
O O1 0.330126 0.186504 0.808485
O O2 0.070158 0.151216 0.730674
O O3 0.257155 0.969356 0.647782
O O4 0.384346 0.239616 0.175130
O O5 0.230267 0.264933 0.579673
O O6 0.305723 0.023167 0.386621
O O7 0.555618 0.285793 0.927764
O O8 0.553471 0.533350 0.328691
O O9 0.813860 0.528737 0.373381
O O10 0.500000 0.500000 0.000000
O O11 0.060738 0.900265 0.191575
O O12 0.133635 0.694261 0.159880
O O13 0.500000 0.500000 0.500000
O O14 0.809694 0.577359 0.746588
O O15 0.032523 0.428073 0.685813
O O16 0.000000 0.500000 0.000000
O O17 0.068816 0.760681 0.817205
O O18 0.000000 0.000000 0.000000
#
# Coordination Sequence:
#
# PCOD9083496 Si02
#       8
#     2   2   2   2   2   2   2   2
#     4   9  16  31  55  80 112 143 198 249 284 344
#     4   9  17  33  55  86 114 156 194 248 300 357
#     4  10  21  34  57  89 120 152 197 250 305 352
#     4   9  18  31  53  84 112 151 195 246 298 347
#     4  11  21  36  62  88 116 157 206 243 301 364
#     4  11  24  38  60  89 123 160 200 250 309 362
#     4   9  18  32  55  83 118 151 203 250 300 358
#     4  10  19  34  56  83 121 153 201 248 298 359
#
# _framework density 21.910326000000001
#
# number of rings (size 3 to 8) (size 9 to 14) (size 15 to 20)
#    0.000    2.250    1.250    3.000    1.750    3.000 
#    0.000    0.000    2.750    3.000    0.000    0.000 
#    0.000    0.000    0.000    0.000    0.000    0.000 
#
# Total GULP energy -89222.955215 kJ/mol
# GULP energy per Si atom -5576.434701 kJ/mol
# Density = 2.186046 g / cm^3
# Si number density = 21.910326 Si / 1000 Ang^3
#
#
#
# Elastic Constant Matrix: (Units=GPa)
#
#
# Indices 1 2 3 4 5 6 
#
# 1 78.8912 28.0507 64.7345 11.1020 4.0179 23.4281
# 2 28.0507 63.6250 46.6340 6.4301 -0.3908 24.8305
# 3 64.7345 46.6340 234.3245 35.8031 -6.9782 23.9078
# 4 11.1020 6.4301 35.8031 43.6605 13.3215 -0.0932
# 5 4.0179 -0.3908 -6.9782 13.3215 32.9160 -1.2642
# 6 23.4281 24.8305 23.9078 -0.0932 -1.2642 32.6264
#
#
#
# Elastic Compliance Matrix: (Units=1/GPa)
#
#
# Indices 1 2 3 4 5 6 
#
# 1 0.019963 -0.001806 -0.004197 -0.000287 -0.003617 -0.010027
# 2 -0.001806 0.024616 -0.002691 -0.000905 -0.000286 -0.015480
# 3 -0.004197 -0.002691 0.006908 -0.005472 0.004165 0.000146
# 4 -0.000287 -0.000905 -0.005472 0.031831 -0.013847 0.004459
# 5 -0.003617 -0.000286 0.004165 -0.013847 0.037350 0.001171
# 6 -0.010027 -0.015480 0.000146 0.004459 0.001171 0.049582
#
#
# Mechanical properties :
#
#
# Convention : Reuss Voigt Hill
#
# Bulk Modulus (GPa) = 29.32465 72.85323 51.08894
# Shear Modulus (GPa) = 25.12495 37.66869 31.39682
#
# Velocity S-wave (km/s) = 3.39000 4.15085 3.78956
# Velocity P-wave (km/s) = 5.36057 7.50303 6.52040
#
# Compressibility (1/GPa) = 0.03410101
#
# Stress axis : x y z
#
# Youngs Moduli (GPa) = 50.09152 40.62324 144.76602
#
# Poissons Ratio (x) = 0.07335 0.60753
# Poissons Ratio (y) = 0.09045 0.38957
# Poissons Ratio (z) = 0.21022 0.10932
#
# Static dielectric constant tensor:
#      x y z
#    x 1.785820 -0.016710 0.021850 
#    y -0.016710 1.804060 0.045490 
#    z 0.021850 0.045490 1.880140 
# 
# From -- ./inp_files/271279.got.cif
#   From: 2010.05.17/outbox.cif.g08.bks.cpg/sg2_136_cif.got.tgz:271279.got - 2010.06.03 11:33:40.
