data_PCOD9083282
_publ_section_title
;
Structure prediction by ZEFSAII (Michael W. Deem and Ramdas Pophale) SiO2 
 PCOD9083282
Probable space group: P -1
;
_chemical_formula_sum "Si O2"
_cell_formula_units_Z 16
_cell_length_a 34.404958
_cell_length_b 22.979218
_cell_length_c 27.427044
_cell_angle_alpha 163.318739
_cell_angle_beta 7.706041
_cell_angle_gamma 164.078837
_cell_volume 790.307880
_symmetry_space_group_name_H-M "P -1"
_symmetry_group_IT_number 2
_symmetry_cell_setting 'triclinic'
loop_
_space_group_symop_operation_xyz
x,y,z
-x,-y,-z
loop_
_atom_site_type_symbol
_atom_site_label
_atom_site_fract_x
_atom_site_fract_y
_atom_site_fract_z
Si Si1 0.689246 0.536522 0.396380
Si Si2 0.421902 0.934461 0.335542
Si Si3 0.047895 0.182976 0.896754
Si Si4 0.033405 0.809282 0.890291
Si Si5 0.941151 0.350786 0.061239
Si Si6 0.456602 0.371069 0.249478
Si Si7 0.252518 0.788432 0.322796
Si Si8 0.703230 0.367827 0.663437
O O1 0.400742 0.320542 0.581374
O O2 0.616715 0.685945 0.648275
O O3 0.000000 0.500000 0.000000
O O4 0.757460 0.611777 0.316440
O O5 0.427509 0.861723 0.214747
O O6 0.424729 0.755287 0.226963
O O7 0.695724 0.147269 0.177951
O O8 0.114234 0.000980 0.778842
O O9 0.053791 0.946303 0.687810
O O10 0.859132 0.182515 0.180534
O O11 0.962493 0.293417 0.044685
O O12 0.258673 0.798690 0.558455
O O13 0.757325 0.583519 0.047178
O O14 0.813180 0.549564 0.373384
O O15 0.534390 0.206827 0.984802
O O16 0.028750 0.546680 0.413430
O O17 0.500000 0.500000 0.000000
#
# Coordination Sequence:
#
# PCOD9083282 Si02
#       8
#     2   2   2   2   2   2   2   2
#     4   9  17  34  56  77 102 138 172 203 249 310
#     4  10  20  36  53  72 102 142 173 202 249 312
#     4  10  19  34  55  79 104 132 168 214 255 296
#     4   8  18  35  53  71 100 138 172 202 251 312
#     4  10  19  34  54  78 102 134 175 212 246 296
#     4   8  17  33  54  74 101 136 171 206 250 304
#     4  10  20  36  53  76 105 136 168 208 258 308
#     4  11  21  34  53  79 104 130 168 219 259 292
#
# _framework density 20.245272
#
# number of rings (size 3 to 8) (size 9 to 14) (size 15 to 20)
#    0.000    2.500    0.000    4.125    0.000    1.000 
#    0.000   14.375    0.000    0.000    0.000    0.000 
#    0.000    0.000    0.000    0.000    0.000    0.000 
#
# Total GULP energy -89228.356057 kJ/mol
# GULP energy per Si atom -5576.772254 kJ/mol
# Density = 2.019919 g / cm^3
# Si number density = 20.245272 Si / 1000 Ang^3
#
#
#
# Elastic Constant Matrix: (Units=GPa)
#
#
# Indices 1 2 3 4 5 6 
#
# 1 119.2596 7.6459 22.4705 18.6356 9.8984 7.4649
# 2 7.6459 32.9482 0.3589 3.9420 3.2576 9.5012
# 3 22.4705 0.3589 29.5425 10.4327 19.2234 13.9673
# 4 18.6356 3.9420 10.4327 24.2027 5.9657 1.9939
# 5 9.8984 3.2576 19.2234 5.9657 29.8671 5.2240
# 6 7.4649 9.5012 13.9673 1.9939 5.2240 33.2643
#
#
#
# Elastic Compliance Matrix: (Units=1/GPa)
#
#
# Indices 1 2 3 4 5 6 
#
# 1 0.010717 -0.002862 -0.010004 -0.004578 0.003711 0.002305
# 2 -0.002862 0.037518 0.019530 -0.008229 -0.011270 -0.016011
# 3 -0.010004 0.019530 0.100568 -0.022882 -0.052691 -0.035914
# 4 -0.004578 -0.008229 -0.022882 0.054133 0.004756 0.008994
# 5 0.003711 -0.011270 -0.052691 0.004756 0.063965 0.014180
# 6 0.002305 -0.016011 -0.035914 0.008994 0.014180 0.046432
#
#
# Mechanical properties :
#
#
# Convention : Reuss Voigt Hill
#
# Bulk Modulus (GPa) = 6.16784 26.96676 16.56730
# Shear Modulus (GPa) = 14.12241 27.55182 20.83711
#
# Velocity S-wave (km/s) = 2.64401 3.69304 3.21165
# Velocity P-wave (km/s) = 3.51770 5.61549 4.68551
#
# Compressibility (1/GPa) = 0.16213120
#
# Stress axis : x y z
#
# Youngs Moduli (GPa) = 93.31376 26.65389 9.94351
#
# Poissons Ratio (x) = 0.07628 0.09947
# Poissons Ratio (y) = 0.26704 -0.19420
# Poissons Ratio (z) = 0.93351 -0.52055
#
# Static dielectric constant tensor:
#      x y z
#    x 1.744720 0.008530 0.013680 
#    y 0.008530 1.715730 -0.029790 
#    z 0.013680 -0.029790 1.747130 
# 
# From -- ./inp_files/196292.got.cif
#   From: 2010.05.17/outbox.cif.g08.bks.cpg/sg2_99_cif.got.tgz:196292.got - 2010.06.03 11:33:40.
