data_PCOD9083899
_publ_section_title
;
Structure prediction by ZEFSAII (Michael W. Deem and Ramdas Pophale) SiO2 
 PCOD9083899
Probable space group: P -1
;
_chemical_formula_sum "Si O2"
_cell_formula_units_Z 16
_cell_length_a 11.535038
_cell_length_b 7.698513
_cell_length_c 12.026720
_cell_angle_alpha 92.397937
_cell_angle_beta 116.005477
_cell_angle_gamma 125.152911
_cell_volume 719.124862
_symmetry_space_group_name_H-M "P -1"
_symmetry_group_IT_number 2
_symmetry_cell_setting 'triclinic'
loop_
_space_group_symop_operation_xyz
x,y,z
-x,-y,-z
loop_
_atom_site_type_symbol
_atom_site_label
_atom_site_fract_x
_atom_site_fract_y
_atom_site_fract_z
Si Si1 0.560686 0.250421 0.029007
Si Si2 0.965085 0.560166 0.871260
Si Si3 0.909118 0.427306 0.607609
Si Si4 0.219225 0.096432 0.958093
Si Si5 0.996071 0.923305 0.664970
Si Si6 0.248825 0.584073 0.651653
Si Si7 0.660210 0.488764 0.843428
Si Si8 0.282445 0.225447 0.603328
O O1 0.393916 0.224597 0.966233
O O2 0.655679 0.386605 0.958942
O O3 0.657098 0.338615 0.189020
O O4 0.500000 0.000000 0.000000
O O5 0.920815 0.398929 0.742832
O O6 0.796877 0.528070 0.819182
O O7 0.132731 0.832283 0.934156
O O8 0.000000 0.500000 0.000000
O O9 0.953566 0.677091 0.640636
O O10 0.747744 0.279604 0.449281
O O11 0.053979 0.442089 0.608155
O O12 0.272017 0.258001 0.089675
O O13 0.078126 0.058655 0.818226
O O14 0.833775 0.895665 0.559436
O O15 0.148257 0.069446 0.642072
O O16 0.306192 0.453594 0.622173
O O17 0.468179 0.311312 0.707081
#
# Coordination Sequence:
#
# PCOD9083899 Si02
#       8
#     2   2   2   2   2   2   2   2
#     4  12  22  35  63  96 121 156 210 262 305 356
#     4  11  24  43  62  88 129 169 204 249 321 382
#     4   9  20  38  59  86 118 166 201 248 306 366
#     4  11  21  39  61  92 121 164 212 253 303 365
#     4   9  18  34  57  88 126 153 203 248 306 357
#     4  10  19  35  59  90 117 154 207 260 297 358
#     4  12  23  39  63  95 129 157 208 259 312 372
#     4  10  19  34  58  94 122 157 194 261 309 356
#
# _framework density 22.249265000000001
#
# number of rings (size 3 to 8) (size 9 to 14) (size 15 to 20)
#    0.000    1.500    2.500    4.500    0.000    0.000 
#    0.000    5.625    0.000    1.500    0.000    0.000 
#    0.000    0.000    0.000    0.000    0.000    0.000 
#
# Total GULP energy -89121.907948 kJ/mol
# GULP energy per Si atom -5570.119247 kJ/mol
# Density = 2.219862 g / cm^3
# Si number density = 22.249265 Si / 1000 Ang^3
#
#
#
# Elastic Constant Matrix: (Units=GPa)
#
#
# Indices 1 2 3 4 5 6 
#
# 1 62.7739 -11.3301 11.4894 8.9709 -0.0709 13.5537
# 2 -11.3301 37.2398 15.8636 -0.5070 4.9059 6.0991
# 3 11.4894 15.8636 155.0387 -9.1115 21.9422 2.5808
# 4 8.9709 -0.5070 -9.1115 27.2406 5.4318 0.2127
# 5 -0.0709 4.9059 21.9422 5.4318 25.8638 -2.5269
# 6 13.5537 6.0991 2.5808 0.2127 -2.5269 19.1216
#
#
#
# Elastic Compliance Matrix: (Units=1/GPa)
#
#
# Indices 1 2 3 4 5 6 
#
# 1 0.024386 0.011998 -0.003270 -0.008824 0.000414 -0.020518
# 2 0.011998 0.035983 -0.003750 -0.003411 -0.004857 -0.020080
# 3 -0.003270 -0.003750 0.008414 0.005290 -0.007416 0.001340
# 4 -0.008824 -0.003411 0.005290 0.043805 -0.012628 0.004472
# 5 0.000414 -0.004857 -0.007416 -0.012628 0.049402 0.008925
# 6 -0.020518 -0.020080 0.001340 0.004472 0.008925 0.074194
#
#
# Mechanical properties :
#
#
# Convention : Reuss Voigt Hill
#
# Bulk Modulus (GPa) = 12.70020 31.89980 22.30000
# Shear Modulus (GPa) = 19.80401 30.38050 25.09225
#
# Velocity S-wave (km/s) = 2.98669 3.69922 3.36189
# Velocity P-wave (km/s) = 4.19693 5.71089 5.01141
#
# Compressibility (1/GPa) = 0.07873893
#
# Stress axis : x y z
#
# Youngs Moduli (GPa) = 41.00740 27.79109 118.84635
#
# Poissons Ratio (x) = -0.33344 0.38868
# Poissons Ratio (y) = -0.49202 0.44564
# Poissons Ratio (z) = 0.13411 0.10421
#
# Static dielectric constant tensor:
#      x y z
#    x 1.789160 -0.032640 -0.039260 
#    y -0.032640 1.884110 -0.041100 
#    z -0.039260 -0.041100 1.956050 
# 
# From -- ./inp_files/239980.got.cif
#   From: 2010.05.17/outbox.cif.g08.bks.cpg/sg2_120_cif.got.tgz:239980.got - 2010.06.03 11:33:40.
