data_PCOD9083200
_publ_section_title
;
Structure prediction by ZEFSAII (Michael W. Deem and Ramdas Pophale) SiO2 
 PCOD9083200
Probable space group: P -1
;
_chemical_formula_sum "Si O2"
_cell_formula_units_Z 16
_cell_length_a 12.447271
_cell_length_b 15.073544
_cell_length_c 11.128736
_cell_angle_alpha 98.044496
_cell_angle_beta 155.774184
_cell_angle_gamma 81.556925
_cell_volume 847.407246
_symmetry_space_group_name_H-M "P -1"
_symmetry_group_IT_number 2
_symmetry_cell_setting 'triclinic'
loop_
_space_group_symop_operation_xyz
x,y,z
-x,-y,-z
loop_
_atom_site_type_symbol
_atom_site_label
_atom_site_fract_x
_atom_site_fract_y
_atom_site_fract_z
Si Si1 0.746268 0.867282 0.440088
Si Si2 0.869521 0.669084 0.164627
Si Si3 0.257889 0.435744 0.745313
Si Si4 0.825254 0.678333 0.599286
Si Si5 0.220098 0.959400 0.864450
Si Si6 0.635358 0.399878 0.754714
Si Si7 0.389085 0.596594 0.551245
Si Si8 0.912098 0.858404 0.346852
O O1 0.822526 0.783254 0.584612
O O2 0.759705 0.833834 0.308375
O O3 0.462621 0.914040 0.172610
O O4 0.961315 0.942226 0.673922
O O5 0.761786 0.625416 0.168355
O O6 0.126642 0.614938 0.364777
O O7 0.956101 0.769070 0.299397
O O8 0.617634 0.665515 0.820330
O O9 0.256513 0.373941 0.614267
O O10 0.000000 0.500000 0.500000
O O11 0.500000 0.500000 0.000000
O O12 0.605983 0.660737 0.471275
O O13 0.106117 0.636715 0.919773
O O14 0.836385 0.094977 0.328272
O O15 0.236934 0.062025 0.863521
O O16 0.532692 0.499905 0.706920
O O17 0.689168 0.402719 0.668206
#
# Coordination Sequence:
#
# PCOD9083200 Si02
#       8
#     2   2   2   2   2   2   2   2
#     4  10  19  34  52  85 117 145 185 223 277 349
#     4  12  23  37  59  89 116 150 185 243 292 340
#     4  12  23  35  52  82 122 149 175 218 296 363
#     4  12  22  37  60  85 113 152 190 240 286 338
#     4   9  19  33  54  81 125 156 178 216 281 356
#     4  11  24  43  60  79 109 156 210 246 272 331
#     4  11  25  42  60  80 111 154 206 248 282 316
#     4   9  21  33  57  83 126 147 187 223 280 359
#
# _framework density 18.881122000000001
#
# number of rings (size 3 to 8) (size 9 to 14) (size 15 to 20)
#    0.750    0.500    1.250    6.375    1.750    3.000 
#    0.000    0.000    0.000    0.000    0.000   17.500 
#    0.000    0.000    0.000    0.000    0.000    0.000 
#
# Total GULP energy -89274.326545 kJ/mol
# GULP energy per Si atom -5579.645409 kJ/mol
# Density = 1.883815 g / cm^3
# Si number density = 18.881122 Si / 1000 Ang^3
#
#
#
# Elastic Constant Matrix: (Units=GPa)
#
#
# Indices 1 2 3 4 5 6 
#
# 1 55.2324 36.1229 20.7112 -4.7099 6.2061 7.8493
# 2 36.1229 102.8489 30.9255 -2.5781 -3.0619 18.0929
# 3 20.7112 30.9255 108.5742 -13.5327 12.0138 1.7133
# 4 -4.7099 -2.5781 -13.5327 19.9594 5.6023 -1.7500
# 5 6.2061 -3.0619 12.0138 5.6023 25.4840 -0.0449
# 6 7.8493 18.0929 1.7133 -1.7500 -0.0449 22.1523
#
#
#
# Elastic Compliance Matrix: (Units=1/GPa)
#
#
# Indices 1 2 3 4 5 6 
#
# 1 0.025767 -0.008686 -0.000628 0.006795 -0.008519 -0.001468
# 2 -0.008686 0.015879 -0.004234 -0.005789 0.007274 -0.010006
# 3 -0.000628 -0.004234 0.012785 0.010734 -0.008737 0.003523
# 4 0.006795 -0.005789 0.010734 0.064893 -0.021665 0.006573
# 5 -0.008519 0.007274 -0.008737 -0.021665 0.051063 -0.003855
# 6 -0.001468 -0.010006 0.003523 0.006573 -0.003855 0.054074
#
#
# Mechanical properties :
#
#
# Convention : Reuss Voigt Hill
#
# Bulk Modulus (GPa) = 36.58558 49.13050 42.85804
# Shear Modulus (GPa) = 19.18135 25.44553 22.31344
#
# Velocity S-wave (km/s) = 3.19078 3.67505 3.44144
# Velocity P-wave (km/s) = 5.74401 6.63968 6.20802
#
# Compressibility (1/GPa) = 0.02733317
#
# Stress axis : x y z
#
# Youngs Moduli (GPa) = 38.80937 62.97741 78.21458
#
# Poissons Ratio (x) = 0.54703 0.04916
# Poissons Ratio (y) = 0.33710 0.33119
# Poissons Ratio (z) = 0.02439 0.26667
#
# Static dielectric constant tensor:
#      x y z
#    x 1.676470 0.004260 -0.013830 
#    y 0.004260 1.643660 0.013490 
#    z -0.013830 0.013490 1.664850 
# 
# From -- ./inp_files/433916.got.cif
#   From: 2010.05.17/outbox.cif.g08.bks.cpg/sg2_217_cif.got.tgz:433916.got - 2010.06.03 11:33:40.
