data_PCOD9083307
_publ_section_title
;
Structure prediction by ZEFSAII (Michael W. Deem and Ramdas Pophale) SiO2 
 PCOD9083307
Probable space group: P -1
;
_chemical_formula_sum "Si O2"
_cell_formula_units_Z 16
_cell_length_a 21.543432
_cell_length_b 7.919549
_cell_length_c 15.225259
_cell_angle_alpha 101.280106
_cell_angle_beta 158.605906
_cell_angle_gamma 80.505849
_cell_volume 928.194712
_symmetry_space_group_name_H-M "P -1"
_symmetry_group_IT_number 2
_symmetry_cell_setting 'triclinic'
loop_
_space_group_symop_operation_xyz
x,y,z
-x,-y,-z
loop_
_atom_site_type_symbol
_atom_site_label
_atom_site_fract_x
_atom_site_fract_y
_atom_site_fract_z
Si Si1 0.114016 0.174121 0.166224
Si Si2 0.605088 0.598550 0.224185
Si Si3 0.215572 0.319750 0.130422
Si Si4 0.525389 0.847083 0.271014
Si Si5 0.773963 0.331729 0.728436
Si Si6 0.826465 0.327303 0.586966
Si Si7 0.622128 0.981040 0.241824
Si Si8 0.520372 0.922444 0.615469
O O1 0.182101 0.203427 0.161062
O O2 0.275907 0.171687 0.441911
O O3 0.973379 0.313537 0.014096
O O4 0.000000 0.000000 0.000000
O O5 0.482178 0.666265 0.147370
O O6 0.735995 0.472471 0.427009
O O7 0.680775 0.782881 0.303938
O O8 0.500000 0.500000 0.000000
O O9 0.285474 0.500037 0.282584
O O10 0.341626 0.222554 0.224075
O O11 0.029776 0.342393 0.847903
O O12 0.518012 0.985657 0.197037
O O13 0.434111 0.919892 0.242342
O O14 0.776007 0.341987 0.625889
O O15 0.653698 0.171359 0.586559
O O16 0.760384 0.137943 0.446693
O O17 0.500000 0.000000 0.000000
O O18 0.500000 0.000000 0.500000
#
# Coordination Sequence:
#
# PCOD9083307 Si02
#       8
#     2   2   2   2   2   2   2   2
#     4  11  17  34  54  81 110 148 190 230 274 337
#     4  10  20  34  61  88 109 137 195 254 291 332
#     4  11  23  33  51  83 120 152 189 226 279 345
#     4  10  19  34  54  82 113 150 185 231 290 327
#     4  11  21  35  54  80 116 154 191 233 275 334
#     4  11  19  38  58  86 115 146 193 244 287 331
#     4  10  20  35  59  87 108 141 189 245 299 328
#     4  12  22  37  52  80 123 164 191 215 277 363
#
# _framework density 17.237760999999999
#
# number of rings (size 3 to 8) (size 9 to 14) (size 15 to 20)
#    0.750    0.500    5.000    4.125    0.000    0.000 
#    0.000    0.000    0.000    3.000    0.000    2.625 
#    0.000    0.000    0.000    0.000    0.000    0.000 
#
# Total GULP energy -89085.638625 kJ/mol
# GULP energy per Si atom -5567.852414 kJ/mol
# Density = 1.719853 g / cm^3
# Si number density = 17.237761 Si / 1000 Ang^3
#
#
#
# Elastic Constant Matrix: (Units=GPa)
#
#
# Indices 1 2 3 4 5 6 
#
# 1 81.7349 30.5934 46.2708 -12.3407 -12.8856 -15.7143
# 2 30.5934 118.3420 42.2073 0.9198 -9.9816 -13.6582
# 3 46.2708 42.2073 78.5169 -10.9001 -16.0088 -9.7382
# 4 -12.3407 0.9198 -10.9001 31.1743 -0.7547 -4.8839
# 5 -12.8856 -9.9816 -16.0088 -0.7547 30.9534 -2.4302
# 6 -15.7143 -13.6582 -9.7382 -4.8839 -2.4302 43.1619
#
#
#
# Elastic Compliance Matrix: (Units=1/GPa)
#
#
# Indices 1 2 3 4 5 6 
#
# 1 0.020477 -0.001064 -0.009086 0.005996 0.004098 0.005978
# 2 -0.001064 0.010830 -0.005229 -0.002305 0.000417 0.001623
# 3 -0.009086 -0.005229 0.023107 0.004986 0.006697 0.001192
# 4 0.005996 -0.002305 0.004986 0.037524 0.005808 0.007152
# 5 0.004098 0.000417 0.006697 0.005808 0.038219 0.005944
# 6 0.005978 0.001623 0.001192 0.007152 0.005944 0.027271
#
#
# Mechanical properties :
#
#
# Convention : Reuss Voigt Hill
#
# Bulk Modulus (GPa) = 42.27138 57.41522 49.84330
# Shear Modulus (GPa) = 25.50092 31.69273 28.59682
#
# Velocity S-wave (km/s) = 3.85042 4.29250 4.07746
# Velocity P-wave (km/s) = 6.65909 7.61233 7.15161
#
# Compressibility (1/GPa) = 0.02365667
#
# Stress axis : x y z
#
# Youngs Moduli (GPa) = 48.83440 92.33342 43.27741
#
# Poissons Ratio (x) = 0.09826 0.39323
# Poissons Ratio (y) = 0.05197 0.22628
# Poissons Ratio (z) = 0.44372 0.48277
#
# Static dielectric constant tensor:
#      x y z
#    x 1.594810 -0.003000 -0.001500 
#    y -0.003000 1.730110 0.015110 
#    z -0.001500 0.015110 1.596350 
# 
# From -- ./inp_files/376096.got.cif
#   From: 2010.05.17/outbox.cif.g08.bks.cpg/sg2_189_cif.got.tgz:376096.got - 2010.06.03 11:33:40.
