data_PCOD9083508
_publ_section_title
;
Structure prediction by ZEFSAII (Michael W. Deem and Ramdas Pophale) SiO2 
 PCOD9083508
Probable space group: P -1
;
_chemical_formula_sum "Si O2"
_cell_formula_units_Z 16
_cell_length_a 14.176289
_cell_length_b 11.263378
_cell_length_c 14.543253
_cell_angle_alpha 141.913540
_cell_angle_beta 147.183885
_cell_angle_gamma 53.814616
_cell_volume 758.547888
_symmetry_space_group_name_H-M "P -1"
_symmetry_group_IT_number 2
_symmetry_cell_setting 'triclinic'
loop_
_space_group_symop_operation_xyz
x,y,z
-x,-y,-z
loop_
_atom_site_type_symbol
_atom_site_label
_atom_site_fract_x
_atom_site_fract_y
_atom_site_fract_z
Si Si1 0.603982 0.337532 0.523782
Si Si2 0.939628 0.289607 0.671642
Si Si3 0.805064 0.317395 0.850410
Si Si4 0.245539 0.594621 0.572771
Si Si5 0.066589 0.797982 0.927101
Si Si6 0.552521 0.838020 0.877486
Si Si7 0.122592 0.715308 0.722852
Si Si8 0.967800 0.927856 0.234214
O O1 0.500000 0.500000 0.500000
O O2 0.802038 0.393827 0.678399
O O3 0.634680 0.295148 0.629678
O O4 0.518463 0.148729 0.276639
O O5 0.867031 0.275895 0.500904
O O6 0.939023 0.088240 0.601153
O O7 0.121206 0.449931 0.929637
O O8 0.945047 0.214291 0.846394
O O9 0.808295 0.225853 0.898761
O O10 0.436450 0.637707 0.706217
O O11 0.113602 0.379567 0.327726
O O12 0.266446 0.679392 0.744319
O O13 0.166630 0.786570 0.905566
O O14 0.000000 0.000000 0.000000
O O15 0.759541 0.850814 0.039515
O O16 0.500000 0.000000 0.000000
O O17 0.000000 0.500000 0.500000
O O18 0.018960 0.867706 0.682795
#
# Coordination Sequence:
#
# PCOD9083508 Si02
#       8
#     2   2   2   2   2   2   2   2
#     4  10  19  34  56  84 120 152 184 240 312 357
#     4   9  19  33  56  90 121 143 197 249 307 358
#     4  10  19  35  57  92 119 147 205 249 289 361
#     4   9  20  37  54  89 119 150 198 246 296 359
#     4  10  19  36  61  85 115 160 208 248 284 341
#     4  11  21  35  53  88 122 157 187 237 310 363
#     4  10  20  35  56  84 116 160 206 240 286 345
#     4  11  19  33  59  87 120 155 195 238 304 357
#
# _framework density 21.092934
#
# number of rings (size 3 to 8) (size 9 to 14) (size 15 to 20)
#    0.000    2.000    2.500    3.000    0.000    0.500 
#    2.250    0.000    0.000    0.750    6.500   31.500 
#    0.000    0.000    0.000    0.000    0.000    0.000 
#
# Total GULP energy -89073.512324 kJ/mol
# GULP energy per Si atom -5567.094520 kJ/mol
# Density = 2.104493 g / cm^3
# Si number density = 21.092934 Si / 1000 Ang^3
#
#
#
# Elastic Constant Matrix: (Units=GPa)
#
#
# Indices 1 2 3 4 5 6 
#
# 1 128.2387 47.8529 38.4941 -13.1351 -33.2429 15.2789
# 2 47.8529 133.9249 47.0693 -14.3137 -11.7348 22.3667
# 3 38.4941 47.0693 73.2962 -12.9950 -23.0551 9.0766
# 4 -13.1351 -14.3137 -12.9950 27.5390 8.8897 -5.7406
# 5 -33.2429 -11.7348 -23.0551 8.8897 43.0960 -4.7801
# 6 15.2789 22.3667 9.0766 -5.7406 -4.7801 31.1089
#
#
#
# Elastic Compliance Matrix: (Units=1/GPa)
#
#
# Indices 1 2 3 4 5 6 
#
# 1 0.011311 -0.002339 -0.001958 0.000653 0.006666 -0.002157
# 2 -0.002339 0.011195 -0.005895 0.001739 -0.002856 -0.005298
# 3 -0.001958 -0.005895 0.021441 0.003820 0.007658 0.000826
# 4 0.000653 0.001739 0.003820 0.041877 -0.005146 0.004251
# 5 0.006666 -0.002856 0.007658 -0.005146 0.032797 0.000635
# 6 -0.002157 -0.005298 0.000826 0.004251 0.000635 0.037655
#
#
# Mechanical properties :
#
#
# Convention : Reuss Voigt Hill
#
# Bulk Modulus (GPa) = 42.44000 66.92137 54.68068
# Shear Modulus (GPa) = 27.09826 33.81833 30.45829
#
# Velocity S-wave (km/s) = 3.58817 4.00847 3.80413
# Velocity P-wave (km/s) = 6.10989 7.29517 6.72868
#
# Compressibility (1/GPa) = 0.02356268
#
# Stress axis : x y z
#
# Youngs Moduli (GPa) = 88.41309 89.32747 46.63965
#
# Poissons Ratio (x) = 0.20893 0.09134
# Poissons Ratio (y) = 0.20679 0.27492
# Poissons Ratio (z) = 0.17315 0.52654
#
# Static dielectric constant tensor:
#      x y z
#    x 1.825310 0.002210 -0.039810 
#    y 0.002210 1.802670 0.028870 
#    z -0.039810 0.028870 1.862000 
# 
# From -- ./inp_files/532739.got.cif
#   From: 2010.05.17/outbox.cif.g08.bks.cpg/sg2_267_cif.got.tgz:532739.got - 2010.06.03 11:33:40.
