data_PCOD9083060
_publ_section_title
;
Structure prediction by ZEFSAII (Michael W. Deem and Ramdas Pophale) SiO2 
 PCOD9083060
Probable space group: P -1
;
_chemical_formula_sum "Si O2"
_cell_formula_units_Z 16
_cell_length_a 16.164079
_cell_length_b 19.549988
_cell_length_c 11.820937
_cell_angle_alpha 150.069293
_cell_angle_beta 139.361808
_cell_angle_gamma 20.973019
_cell_volume 640.028699
_symmetry_space_group_name_H-M "P -1"
_symmetry_group_IT_number 2
_symmetry_cell_setting 'triclinic'
loop_
_space_group_symop_operation_xyz
x,y,z
-x,-y,-z
loop_
_atom_site_type_symbol
_atom_site_label
_atom_site_fract_x
_atom_site_fract_y
_atom_site_fract_z
Si Si1 0.899955 0.653812 0.849638
Si Si2 0.119812 0.844528 0.037339
Si Si3 0.265288 0.779297 0.538371
Si Si4 0.554187 0.100134 0.312299
Si Si5 0.300523 0.274977 0.911134
Si Si6 0.410190 0.617248 0.226139
Si Si7 0.163978 0.108938 0.083483
Si Si8 0.792668 0.379408 0.558314
O O1 0.719809 0.690122 0.701294
O O2 0.949688 0.667902 0.795245
O O3 0.131707 0.420118 0.834042
O O4 0.726011 0.916820 0.118650
O O5 0.288401 0.655611 0.049474
O O6 0.314816 0.686833 0.914981
O O7 0.990217 0.106617 0.308880
O O8 0.956950 0.856595 0.885592
O O9 0.217021 0.784638 0.366917
O O10 0.542528 0.578214 0.521142
O O11 0.245714 0.657630 0.412906
O O12 0.178756 0.971491 0.811695
O O13 0.573819 0.235616 0.567632
O O14 0.644894 0.914760 0.237931
O O15 0.565039 0.092565 0.895549
O O16 0.184228 0.484089 0.185430
#
# Coordination Sequence:
#
# PCOD9083060 Si02
#       8
#     2   2   2   2   2   2   2   2
#     4  10  19  33  61  90 113 160 192 247 302 339
#     4  10  23  38  58  86 121 159 195 239 303 358
#     4   9  18  34  59  85 117 148 193 246 294 346
#     4  10  21  37  57  91 124 151 199 245 294 353
#     4  10  20  35  61  91 121 150 193 257 294 343
#     4  11  22  39  59  85 120 164 191 237 305 359
#     4   9  19  37  58  91 119 147 202 251 289 352
#     4   9  19  34  57  93 114 144 193 248 295 343
#
# _framework density 24.998881000000001
#
# number of rings (size 3 to 8) (size 9 to 14) (size 15 to 20)
#    0.000    2.250    1.250    1.875    3.500    1.500 
#    0.000    2.500    0.000    1.500    0.000    0.000 
#    0.000    0.000    0.000    0.000    0.000    0.000 
#
# Total GULP energy -89367.574164 kJ/mol
# GULP energy per Si atom -5585.473385 kJ/mol
# Density = 2.494198 g / cm^3
# Si number density = 24.998881 Si / 1000 Ang^3
#
#
#
# Elastic Constant Matrix: (Units=GPa)
#
#
# Indices 1 2 3 4 5 6 
#
# 1 70.7419 30.5028 26.2155 9.2341 5.6205 6.6918
# 2 30.5028 113.7487 12.6718 -7.6579 4.7115 4.2200
# 3 26.2155 12.6718 59.2255 7.7669 3.5272 -5.2675
# 4 9.2341 -7.6579 7.7669 29.9771 -1.8999 -10.5240
# 5 5.6205 4.7115 3.5272 -1.8999 34.6161 6.6260
# 6 6.6918 4.2200 -5.2675 -10.5240 6.6260 37.0989
#
#
#
# Elastic Compliance Matrix: (Units=1/GPa)
#
#
# Indices 1 2 3 4 5 6 
#
# 1 0.020849 -0.005002 -0.007601 -0.008031 -0.001157 -0.006343
# 2 -0.005002 0.010488 -0.000522 0.004694 -0.000507 0.001057
# 3 -0.007601 -0.000522 0.021087 -0.001892 -0.001751 0.004200
# 4 -0.008031 0.004694 -0.001892 0.041924 0.000785 0.012399
# 5 -0.001157 -0.000507 -0.001751 0.000785 0.030359 -0.005182
# 6 -0.006343 0.001057 0.004200 0.012399 -0.005182 0.033018
#
#
# Mechanical properties :
#
#
# Convention : Reuss Voigt Hill
#
# Bulk Modulus (GPa) = 38.20199 42.49959 40.35079
# Shear Modulus (GPa) = 25.94728 31.96014 28.95371
#
# Velocity S-wave (km/s) = 3.22520 3.57944 3.40693
# Velocity P-wave (km/s) = 5.40221 5.84129 5.62604
#
# Compressibility (1/GPa) = 0.02617664
#
# Stress axis : x y z
#
# Youngs Moduli (GPa) = 47.96317 95.34275 47.42368
#
# Poissons Ratio (x) = 0.47687 0.36045
# Poissons Ratio (y) = 0.23990 0.02473
# Poissons Ratio (z) = 0.36455 0.04972
#
# Static dielectric constant tensor:
#      x y z
#    x 2.099640 -0.000850 -0.056460 
#    y -0.000850 2.131040 0.003930 
#    z -0.056460 0.003930 1.980730 
# 
# From -- ./inp_files/467188.got.cif
#   From: 2010.05.17/outbox.cif.g08.bks.cpg/sg2_234_cif.got.tgz:467188.got - 2010.06.03 11:33:40.
