data_PCOD9083047
_publ_section_title
;
Structure prediction by ZEFSAII (Michael W. Deem and Ramdas Pophale) SiO2 
 PCOD9083047
Probable space group: P -1
;
_chemical_formula_sum "Si O2"
_cell_formula_units_Z 16
_cell_length_a 7.482929
_cell_length_b 16.024116
_cell_length_c 7.494473
_cell_angle_alpha 46.602676
_cell_angle_beta 108.823182
_cell_angle_gamma 95.079535
_cell_volume 606.347147
_symmetry_space_group_name_H-M "P -1"
_symmetry_group_IT_number 2
_symmetry_cell_setting 'triclinic'
loop_
_space_group_symop_operation_xyz
x,y,z
-x,-y,-z
loop_
_atom_site_type_symbol
_atom_site_label
_atom_site_fract_x
_atom_site_fract_y
_atom_site_fract_z
Si Si1 0.877348 0.038369 0.161329
Si Si2 0.698961 0.010663 0.800994
Si Si3 0.933785 0.414048 0.460499
Si Si4 0.545906 0.251841 0.261676
Si Si5 0.045127 0.187157 0.254988
Si Si6 0.499843 0.414867 0.297131
Si Si7 0.288449 0.225282 0.949274
Si Si8 0.846443 0.408263 0.046150
O O1 0.882927 0.908862 0.430673
O O2 0.282610 0.935185 0.079149
O O3 0.083100 0.029546 0.142287
O O4 0.619715 0.891088 0.955319
O O5 0.598692 0.112669 0.490728
O O6 0.120745 0.866440 0.822974
O O7 0.717343 0.396156 0.467733
O O8 0.926091 0.453332 0.191299
O O9 0.000000 0.500000 0.500000
O O10 0.100401 0.298648 0.689498
O O11 0.452524 0.301692 0.346968
O O12 0.740213 0.303879 0.242456
O O13 0.438468 0.297197 0.975772
O O14 0.985207 0.322507 0.086957
O O15 0.215001 0.183661 0.175115
O O16 0.500000 0.500000 0.000000
O O17 0.319635 0.488456 0.237964
#
# Coordination Sequence:
#
# PCOD9083047 Si02
#       8
#     2   2   2   2   2   2   2   2
#     4   9  19  34  55  84 109 146 186 230 267 335
#     4  10  19  33  61  81 107 147 196 222 267 325
#     4  10  19  36  60  84 108 143 194 233 261 326
#     4  10  19  35  56  82 111 144 189 227 266 327
#     4  10  20  34  55  83 117 143 178 227 289 327
#     4   8  18  32  56  80 103 141 187 229 266 317
#     4  11  22  33  57  87 114 143 186 230 276 327
#     4  10  19  37  61  79 108 151 186 226 280 326
#
# _framework density 26.387523999999999
#
# number of rings (size 3 to 8) (size 9 to 14) (size 15 to 20)
#    0.000    2.500    1.250    3.375    8.750    0.000 
#    0.000    3.750    5.500    0.000    0.000    0.000 
#    0.000    0.000    0.000    0.000    0.000    0.000 
#
# Total GULP energy -89363.658167 kJ/mol
# GULP energy per Si atom -5585.228635 kJ/mol
# Density = 2.632747 g / cm^3
# Si number density = 26.387524 Si / 1000 Ang^3
#
#
#
# Elastic Constant Matrix: (Units=GPa)
#
#
# Indices 1 2 3 4 5 6 
#
# 1 38.2951 19.2154 -0.8268 9.4960 14.0008 -3.2308
# 2 19.2154 129.9433 54.2326 -19.2684 27.0715 5.7712
# 3 -0.8268 54.2326 99.8304 6.2348 26.5239 10.6723
# 4 9.4960 -19.2684 6.2348 42.9458 0.9240 0.9772
# 5 14.0008 27.0715 26.5239 0.9240 36.7818 4.7485
# 6 -3.2308 5.7712 10.6723 0.9772 4.7485 22.2276
#
#
#
# Elastic Compliance Matrix: (Units=1/GPa)
#
#
# Indices 1 2 3 4 5 6 
#
# 1 0.041357 -0.009270 0.009881 -0.014559 -0.016697 0.007881
# 2 -0.009270 0.014078 -0.007844 0.009563 -0.001237 -0.001393
# 3 0.009881 -0.007844 0.017885 -0.008020 -0.010354 -0.002550
# 4 -0.014559 0.009563 -0.008020 0.031944 0.003869 -0.002979
# 5 -0.016697 -0.001237 -0.010354 0.003869 0.042651 -0.006416
# 6 0.007881 -0.001393 -0.002550 -0.002979 -0.006416 0.049222
#
#
# Mechanical properties :
#
#
# Convention : Reuss Voigt Hill
#
# Bulk Modulus (GPa) = 16.99129 45.92348 31.45739
# Shear Modulus (GPa) = 21.62438 33.42087 27.52263
#
# Velocity S-wave (km/s) = 2.86578 3.56271 3.23308
# Velocity P-wave (km/s) = 4.17174 5.86218 5.08766
#
# Compressibility (1/GPa) = 0.05885367
#
# Stress axis : x y z
#
# Youngs Moduli (GPa) = 24.17957 71.03323 55.91363
#
# Poissons Ratio (x) = 0.65848 -0.55251
# Poissons Ratio (y) = 0.22415 0.43861
# Poissons Ratio (z) = -0.23893 0.55722
#
# Static dielectric constant tensor:
#      x y z
#    x 2.313950 0.136730 0.013710 
#    y 0.136730 2.427920 0.061810 
#    z 0.013710 0.061810 2.040230 
# 
# From -- ./inp_files/206069.got.cif
#   From: 2010.05.17/outbox.cif.g08.bks.cpg/sg2_104_cif.got.tgz:206069.got - 2010.06.03 11:33:40.
