data_PCOD9083754
_publ_section_title
;
Structure prediction by ZEFSAII (Michael W. Deem and Ramdas Pophale) SiO2 
 PCOD9083754
Probable space group: P -1
;
_chemical_formula_sum "Si O2"
_cell_formula_units_Z 14
_cell_length_a 16.253273
_cell_length_b 9.025573
_cell_length_c 6.996870
_cell_angle_alpha 108.215825
_cell_angle_beta 63.477342
_cell_angle_gamma 138.534666
_cell_volume 607.703753
_symmetry_space_group_name_H-M "P -1"
_symmetry_group_IT_number 2
_symmetry_cell_setting 'triclinic'
loop_
_space_group_symop_operation_xyz
x,y,z
-x,-y,-z
loop_
_atom_site_type_symbol
_atom_site_label
_atom_site_fract_x
_atom_site_fract_y
_atom_site_fract_z
Si Si1 0.463164 0.160532 0.998057
Si Si2 0.376577 0.535232 0.715576
Si Si3 0.093424 0.339979 0.023264
Si Si4 0.378376 0.742663 0.455375
Si Si5 0.935376 0.916275 0.738368
Si Si6 0.695010 0.807395 0.069348
Si Si7 0.785800 0.252192 0.118283
O O1 0.592060 0.252295 0.793026
O O2 0.338259 0.901836 0.967147
O O3 0.500023 0.241207 0.208007
O O4 0.419047 0.263406 0.975113
O O5 0.387474 0.593165 0.506401
O O6 0.242934 0.460444 0.887471
O O7 0.355417 0.336342 0.742595
O O8 0.053190 0.238689 0.235985
O O9 0.096927 0.523339 0.028866
O O10 0.011425 0.131240 0.881025
O O11 0.251820 0.682700 0.637383
O O12 0.500000 0.000000 0.500000
O O13 0.785181 0.794518 0.855468
O O14 0.000000 0.000000 0.500000
O O15 0.783454 0.071088 0.118573
#
# Coordination Sequence:
#
# PCOD9083754 Si02
#       7
#     2   2   2   2   2   2   2
#     4   9  19  35  54  81 117 143 179 214 264 325
#     4  10  19  34  58  79 115 149 175 220 267 319
#     4   9  20  37  58  82 102 142 184 224 274 317
#     4   9  18  33  52  79 108 146 184 206 258 332
#     4  10  21  40  61  75 102 142 189 228 268 322
#     4   9  20  35  55  81 110 147 177 226 273 310
#     4   8  18  34  54  81 114 136 176 220 268 321
#
# _framework density 23.037541999999998
#
# number of rings (size 3 to 8) (size 9 to 14) (size 15 to 20)
#    0.857    2.000    0.000    0.429    0.000   10.857 
#    0.000    6.429    0.000    0.000    0.000    0.000 
#    0.000    0.000    0.000    0.000    0.000    0.000 
#
# Total GULP energy -78017.545522 kJ/mol
# GULP energy per Si atom -5572.681823 kJ/mol
# Density = 2.298511 g / cm^3
# Si number density = 23.037542 Si / 1000 Ang^3
#
#
#
# Elastic Constant Matrix: (Units=GPa)
#
#
# Indices 1 2 3 4 5 6 
#
# 1 58.0884 14.8619 5.6525 2.2962 5.8290 -19.9772
# 2 14.8619 102.2554 8.4479 -19.4378 11.7041 -20.0212
# 3 5.6525 8.4479 76.2372 -14.9473 1.8990 -10.1295
# 4 2.2962 -19.4378 -14.9473 30.3918 -3.8890 14.3753
# 5 5.8290 11.7041 1.8990 -3.8890 20.4780 -5.7825
# 6 -19.9772 -20.0212 -10.1295 14.3753 -5.7825 37.6776
#
#
#
# Elastic Compliance Matrix: (Units=1/GPa)
#
#
# Indices 1 2 3 4 5 6 
#
# 1 0.023870 -0.002221 -0.001725 -0.011551 -0.003350 0.014906
# 2 -0.002221 0.012282 0.000516 0.006626 -0.004538 0.002263
# 3 -0.001725 0.000516 0.014718 0.007507 0.000402 0.000514
# 4 -0.011551 0.006626 0.007507 0.051430 0.002996 -0.019748
# 5 -0.003350 -0.004538 0.000402 0.002996 0.053767 0.003029
# 6 0.014906 0.002263 0.000514 -0.019748 0.003029 0.043785
#
#
# Mechanical properties :
#
#
# Convention : Reuss Voigt Hill
#
# Bulk Modulus (GPa) = 22.72106 32.72285 27.72195
# Shear Modulus (GPa) = 22.58567 31.55071 27.06819
#
# Velocity S-wave (km/s) = 3.13451 3.70474 3.43149
# Velocity P-wave (km/s) = 4.79419 5.70395 5.26874
#
# Compressibility (1/GPa) = 0.04401203
#
# Stress axis : x y z
#
# Youngs Moduli (GPa) = 41.89347 81.42314 67.94491
#
# Poissons Ratio (x) = 0.18081 0.11717
# Poissons Ratio (y) = 0.09303 -0.03509
# Poissons Ratio (z) = 0.07225 -0.04205
#
# Static dielectric constant tensor:
#      x y z
#    x 1.925460 -0.020450 -0.000160 
#    y -0.020450 1.939020 -0.018310 
#    z -0.000160 -0.018310 1.822050 
# 
# From -- ./inp_files/105148.got.cif
#   From: 2010.05.17/outbox.cif.g08.bks.cpg/sg2_53_cif.got.tgz:105148.got - 2010.06.03 11:33:40.
