data_PCOD9083795
_publ_section_title
;
Structure prediction by ZEFSAII (Michael W. Deem and Ramdas Pophale) SiO2 
 PCOD9083795
Probable space group: P -1
;
_chemical_formula_sum "Si O2"
_cell_formula_units_Z 14
_cell_length_a 13.389391
_cell_length_b 10.109577
_cell_length_c 9.941044
_cell_angle_alpha 95.845603
_cell_angle_beta 33.604384
_cell_angle_gamma 113.311927
_cell_volume 611.441519
_symmetry_space_group_name_H-M "P -1"
_symmetry_group_IT_number 2
_symmetry_cell_setting 'triclinic'
loop_
_space_group_symop_operation_xyz
x,y,z
-x,-y,-z
loop_
_atom_site_type_symbol
_atom_site_label
_atom_site_fract_x
_atom_site_fract_y
_atom_site_fract_z
Si Si1 0.893607 0.939801 0.260700
Si Si2 0.502712 0.588156 0.637887
Si Si3 0.246880 0.850946 0.641004
Si Si4 0.309402 0.481604 0.118785
Si Si5 0.284434 0.970251 0.919601
Si Si6 0.874395 0.308730 0.728044
Si Si7 0.064148 0.503949 0.079990
O O1 0.735972 0.747366 0.423365
O O2 0.749533 0.011449 0.433552
O O3 0.093992 0.000562 0.141644
O O4 0.000000 0.000000 0.000000
O O5 0.500000 0.500000 0.500000
O O6 0.394564 0.475129 0.875749
O O7 0.324421 0.626611 0.809104
O O8 0.243290 0.878807 0.809721
O O9 0.037013 0.683936 0.808600
O O10 0.472770 0.872009 0.354481
O O11 0.270487 0.629011 0.164906
O O12 0.063886 0.336069 0.419028
O O13 0.500000 0.500000 0.000000
O O14 0.256236 0.861656 0.067213
O O15 0.015192 0.435205 0.705773
O O16 0.000000 0.500000 0.000000
#
# Coordination Sequence:
#
# PCOD9083795 Si02
#       7
#     2   2   2   2   2   2   2
#     4  10  21  35  56  86 125 160 198 249 308 365
#     4  11  23  39  62  95 121 154 209 260 304 358
#     4  10  20  35  54  89 127 160 201 245 311 361
#     4  10  22  38  61  87 124 164 200 253 312 364
#     4  10  19  34  58  83 121 165 202 248 302 369
#     4  10  21  39  59  89 120 161 211 248 303 371
#     4  11  22  35  60  91 127 157 196 261 302 350
#
# _framework density 22.896711
#
# number of rings (size 3 to 8) (size 9 to 14) (size 15 to 20)
#    0.000    1.714    1.429    4.286    6.000    0.000 
#    0.000    0.000    0.000   15.429    0.000   52.000 
#    0.000    0.000    0.000    0.000    0.000    0.000 
#
# Total GULP energy -78034.542285 kJ/mol
# GULP energy per Si atom -5573.895877 kJ/mol
# Density = 2.284460 g / cm^3
# Si number density = 22.896711 Si / 1000 Ang^3
#
#
#
# Elastic Constant Matrix: (Units=GPa)
#
#
# Indices 1 2 3 4 5 6 
#
# 1 112.8228 9.3432 45.5468 8.5627 -0.0844 -28.0986
# 2 9.3432 28.8254 15.8500 -0.8297 4.4890 -8.0673
# 3 45.5468 15.8500 136.6159 4.5919 3.5890 -8.3028
# 4 8.5627 -0.8297 4.5919 20.2700 -1.2940 3.2713
# 5 -0.0844 4.4890 3.5890 -1.2940 46.3965 3.2261
# 6 -28.0986 -8.0673 -8.3028 3.2713 3.2261 30.7246
#
#
#
# Elastic Compliance Matrix: (Units=1/GPa)
#
#
# Indices 1 2 3 4 5 6 
#
# 1 0.014077 0.001076 -0.003762 -0.007205 -0.000892 0.013001
# 2 0.001076 0.040418 -0.004278 0.000136 -0.004331 0.010881
# 3 -0.003762 -0.004278 0.008956 -0.000286 -0.000148 -0.002098
# 4 -0.007205 0.000136 -0.000286 0.054651 0.002403 -0.012702
# 5 -0.000892 -0.004331 -0.000148 0.002403 0.022369 -0.004598
# 6 0.013001 0.010881 -0.002098 -0.012702 -0.004598 0.048562
#
#
# Mechanical properties :
#
#
# Convention : Reuss Voigt Hill
#
# Bulk Modulus (GPa) = 20.19211 46.63823 33.41517
# Shear Modulus (GPa) = 22.78211 33.31317 28.04764
#
# Velocity S-wave (km/s) = 3.15778 3.81850 3.50374
# Velocity P-wave (km/s) = 4.70461 6.31303 5.56721
#
# Compressibility (1/GPa) = 0.04952429
#
# Stress axis : x y z
#
# Youngs Moduli (GPa) = 71.03653 24.74117 111.65188
#
# Poissons Ratio (x) = -0.02662 0.42007
# Poissons Ratio (y) = -0.07644 0.47760
# Poissons Ratio (z) = 0.26726 0.10583
#
# Static dielectric constant tensor:
#      x y z
#    x 1.922780 -0.037760 0.051030 
#    y -0.037760 1.998970 0.141890 
#    z 0.051030 0.141890 1.906110 
# 
# From -- ./inp_files/450063.got.cif
#   From: 2010.05.17/outbox.cif.g08.bks.cpg/sg2_226_cif.got.tgz:450063.got - 2010.06.03 11:33:40.
