data_PCOD9083313
_publ_section_title
;
Structure prediction by ZEFSAII (Michael W. Deem and Ramdas Pophale) SiO2 
 PCOD9083313
Probable space group: P -1
;
_chemical_formula_sum "Si O2"
_cell_formula_units_Z 16
_cell_length_a 9.417783
_cell_length_b 9.444018
_cell_length_c 20.869222
_cell_angle_alpha 111.669123
_cell_angle_beta 43.266132
_cell_angle_gamma 76.079478
_cell_volume 709.637329
_symmetry_space_group_name_H-M "P -1"
_symmetry_group_IT_number 2
_symmetry_cell_setting 'triclinic'
loop_
_space_group_symop_operation_xyz
x,y,z
-x,-y,-z
loop_
_atom_site_type_symbol
_atom_site_label
_atom_site_fract_x
_atom_site_fract_y
_atom_site_fract_z
Si Si1 0.502957 0.716516 0.725668
Si Si2 0.699969 0.118703 0.045961
Si Si3 0.081334 0.636152 0.671263
Si Si4 0.486258 0.137132 0.582817
Si Si5 0.696715 0.334632 0.512281
Si Si6 0.503104 0.867610 0.620653
Si Si7 0.764271 0.739615 0.918464
Si Si8 0.691718 0.262394 0.940080
O O1 0.561761 0.715017 0.780501
O O2 0.652342 0.468238 0.610249
O O3 0.602089 0.775286 0.646292
O O4 0.086696 0.957433 0.901136
O O5 0.205354 0.117137 0.032439
O O6 0.578858 0.299561 0.057280
O O7 0.343681 0.562775 0.623535
O O8 0.031622 0.759250 0.643095
O O9 0.782638 0.762242 0.839236
O O10 0.283036 0.369353 0.535382
O O11 0.724045 0.141502 0.487710
O O12 0.565498 0.001547 0.599268
O O13 0.106553 0.435226 0.764701
O O14 0.500000 0.000000 0.500000
O O15 0.098960 0.060142 0.773669
O O16 0.440875 0.823552 0.056092
O O17 0.500000 0.500000 0.000000
#
# Coordination Sequence:
#
# PCOD9083313 Si02
#       8
#     2   2   2   2   2   2   2   2
#     4   9  18  34  55  75 107 147 185 220 258 325
#     4  10  20  36  53  76 111 147 184 217 265 327
#     4   9  17  31  54  82 104 135 183 233 263 310
#     4  11  18  29  51  87 114 132 171 234 279 308
#     4   9  16  28  51  79 106 131 178 222 272 308
#     4  10  19  34  54  83 112 139 180 223 275 315
#     4  11  20  35  53  83 112 141 181 221 278 322
#     4  11  23  35  53  82 115 143 175 224 279 325
#
# _framework density 22.546727000000001
#
# number of rings (size 3 to 8) (size 9 to 14) (size 15 to 20)
#    0.000    2.000    6.250    0.375    1.750    0.000 
#    0.000    1.875    0.000    3.000    0.000    1.750 
#    0.000    0.000    0.000    0.000    0.000    0.000 
#
# Total GULP energy -89240.515564 kJ/mol
# GULP energy per Si atom -5577.532223 kJ/mol
# Density = 2.249541 g / cm^3
# Si number density = 22.546727 Si / 1000 Ang^3
#
#
#
# Elastic Constant Matrix: (Units=GPa)
#
#
# Indices 1 2 3 4 5 6 
#
# 1 46.2008 43.7056 39.4745 0.0921 20.6167 -8.9264
# 2 43.7056 219.6824 45.4364 -15.4228 32.5204 10.1518
# 3 39.4745 45.4364 113.8323 -15.1230 39.9551 -3.8247
# 4 0.0921 -15.4228 -15.1230 29.8467 -0.1170 -3.0976
# 5 20.6167 32.5204 39.9551 -0.1170 49.8121 -6.7569
# 6 -8.9264 10.1518 -3.8247 -3.0976 -6.7569 20.5489
#
#
#
# Elastic Compliance Matrix: (Units=1/GPa)
#
#
# Indices 1 2 3 4 5 6 
#
# 1 0.042891 -0.007343 -0.012154 -0.008165 -0.000715 0.018532
# 2 -0.007343 0.006811 0.001212 0.003427 -0.003308 -0.006900
# 3 -0.012154 0.001212 0.017054 0.008779 -0.010056 -0.004687
# 4 -0.008165 0.003427 0.008779 0.039779 -0.005739 0.000504
# 5 -0.000715 -0.003308 -0.010056 -0.005739 0.031811 0.009047
# 6 0.018532 -0.006900 -0.004687 0.000504 0.009047 0.062302
#
#
# Mechanical properties :
#
#
# Convention : Reuss Voigt Hill
#
# Bulk Modulus (GPa) = 33.12655 70.77204 51.94930
# Shear Modulus (GPa) = 20.21999 36.78147 28.50073
#
# Velocity S-wave (km/s) = 2.99792 4.04337 3.55924
# Velocity P-wave (km/s) = 5.16794 7.29765 6.32310
#
# Compressibility (1/GPa) = 0.03018727
#
# Stress axis : x y z
#
# Youngs Moduli (GPa) = 23.31470 146.81240 58.63714
#
# Poissons Ratio (x) = 1.07807 0.71267
# Poissons Ratio (y) = 0.17120 -0.07108
# Poissons Ratio (z) = 0.28336 -0.17798
#
# Static dielectric constant tensor:
#      x y z
#    x 1.997830 0.002680 -0.043690 
#    y 0.002680 1.881160 -0.006730 
#    z -0.043690 -0.006730 1.957470 
# 
# From -- ./inp_files/609617.got.cif
#   From: 2010.05.17/outbox.cif.g08.bks.cpg/sg2_305_cif.got.tgz:609617.got - 2010.06.03 11:33:40.
