data_PCOD9083379
_publ_section_title
;
Structure prediction by ZEFSAII (Michael W. Deem and Ramdas Pophale) SiO2 
 PCOD9083379
Probable space group: P -1
;
_chemical_formula_sum "Si O2"
_cell_formula_units_Z 16
_cell_length_a 12.386812
_cell_length_b 7.738944
_cell_length_c 9.222747
_cell_angle_alpha 89.373535
_cell_angle_beta 68.341731
_cell_angle_gamma 71.883992
_cell_volume 775.539127
_symmetry_space_group_name_H-M "P -1"
_symmetry_group_IT_number 2
_symmetry_cell_setting 'triclinic'
loop_
_space_group_symop_operation_xyz
x,y,z
-x,-y,-z
loop_
_atom_site_type_symbol
_atom_site_label
_atom_site_fract_x
_atom_site_fract_y
_atom_site_fract_z
Si Si1 0.243872 0.914906 0.549048
Si Si2 0.758167 0.666299 0.783284
Si Si3 0.489752 0.817058 0.582558
Si Si4 0.491663 0.814566 0.932308
Si Si5 0.999196 0.046260 0.830614
Si Si6 0.748772 0.084496 0.787878
Si Si7 0.239280 0.342755 0.545589
Si Si8 0.997650 0.545750 0.167501
O O1 0.366449 0.799297 0.575353
O O2 0.247775 0.854700 0.380466
O O3 0.241995 0.128885 0.550089
O O4 0.119662 0.916010 0.689923
O O5 0.624398 0.662250 0.897829
O O6 0.785049 0.591808 0.608168
O O7 0.875477 0.576170 0.823446
O O8 0.740499 0.881064 0.782521
O O9 0.479501 0.836360 0.762906
O O10 0.622249 0.667017 0.484507
O O11 0.500000 0.000000 0.500000
O O12 0.370681 0.792970 0.065450
O O13 0.500000 0.000000 0.000000
O O14 0.873684 0.057200 0.812976
O O15 0.006979 0.247584 0.814474
O O16 0.000000 0.000000 0.000000
O O17 0.127327 0.461578 0.697405
O O18 0.000000 0.500000 0.000000
#
# Coordination Sequence:
#
# PCOD9083379 Si02
#       8
#     2   2   2   2   2   2   2   2
#     4   9  18  31  51  77 103 133 170 212 258 304
#     4   9  18  34  54  77 104 134 169 209 254 305
#     4   9  15  27  47  74 104 133 167 211 255 299
#     4   9  17  29  51  80 105 134 171 212 254 300
#     4  11  22  36  52  75 106 138 171 214 259 308
#     4  10  19  34  55  80 104 134 172 214 258 306
#     4   8  17  31  50  74 103 133 166 208 255 300
#     4  11  22  34  51  77 103 135 173 212 256 304
#
# _framework density 20.630808999999999
#
# number of rings (size 3 to 8) (size 9 to 14) (size 15 to 20)
#    0.000    2.500    0.000    4.500    0.000    6.000 
#    0.000    1.875    0.000    0.000    0.000    7.875 
#    0.000    0.000    0.000    0.000    0.000    0.000 
#
# Total GULP energy -89243.504673 kJ/mol
# GULP energy per Si atom -5577.719042 kJ/mol
# Density = 2.058385 g / cm^3
# Si number density = 20.630809 Si / 1000 Ang^3
#
#
#
# Elastic Constant Matrix: (Units=GPa)
#
#
# Indices 1 2 3 4 5 6 
#
# 1 193.7120 16.7104 122.0690 12.2326 -13.3484 -55.8465
# 2 16.7104 30.1040 27.4218 2.9724 -2.3321 -14.9530
# 3 122.0690 27.4218 193.5992 14.2377 -22.5287 -49.2417
# 4 12.2326 2.9724 14.2377 12.3637 -9.2675 -0.3211
# 5 -13.3484 -2.3321 -22.5287 -9.2675 37.9592 -0.0669
# 6 -55.8465 -14.9530 -49.2417 -0.3211 -0.0669 43.4972
#
#
#
# Elastic Compliance Matrix: (Units=1/GPa)
#
#
# Indices 1 2 3 4 5 6 
#
# 1 0.010980 0.003653 -0.004316 -0.006542 -0.000055 0.010419
# 2 0.003653 0.043130 -0.004005 -0.009544 -0.000746 0.014912
# 3 -0.004316 -0.004005 0.010366 -0.004020 0.003415 0.004793
# 4 -0.006542 -0.009544 -0.004020 0.110044 0.021567 -0.015386
# 5 -0.000055 -0.000746 0.003415 0.021567 0.033578 0.003751
# 6 0.010419 0.014912 0.004793 -0.015386 0.003751 0.046811
#
#
# Mechanical properties :
#
#
# Convention : Reuss Voigt Hill
#
# Bulk Modulus (GPa) = 18.13515 83.31307 50.72411
# Shear Modulus (GPa) = 17.69139 35.51162 26.60151
#
# Velocity S-wave (km/s) = 2.93153 4.15334 3.59473
# Velocity P-wave (km/s) = 4.50198 7.96686 6.47065
#
# Compressibility (1/GPa) = 0.05514154
#
# Stress axis : x y z
#
# Youngs Moduli (GPa) = 91.07591 23.18588 96.47147
#
# Poissons Ratio (x) = -0.08471 0.41634
# Poissons Ratio (y) = -0.33273 0.38632
# Poissons Ratio (z) = 0.39306 0.09285
#
# Static dielectric constant tensor:
#      x y z
#    x 1.756260 0.025400 -0.056970 
#    y 0.025400 1.773670 -0.002000 
#    z -0.056970 -0.002000 1.721190 
# 
# From -- ./inp_files/185902.got.cif
#   From: 2010.05.17/outbox.cif.g08.bks.cpg/sg2_93_cif.got.tgz:185902.got - 2010.06.03 11:33:40.
