data_PCOD9083363
_publ_section_title
;
Structure prediction by ZEFSAII (Michael W. Deem and Ramdas Pophale) SiO2 
 PCOD9083363
Probable space group: P -1
;
_chemical_formula_sum "Si O2"
_cell_formula_units_Z 16
_cell_length_a 18.283356
_cell_length_b 12.709865
_cell_length_c 12.183147
_cell_angle_alpha 99.254495
_cell_angle_beta 129.964272
_cell_angle_gamma 39.175316
_cell_volume 983.857995
_symmetry_space_group_name_H-M "P -1"
_symmetry_group_IT_number 2
_symmetry_cell_setting 'triclinic'
loop_
_space_group_symop_operation_xyz
x,y,z
-x,-y,-z
loop_
_atom_site_type_symbol
_atom_site_label
_atom_site_fract_x
_atom_site_fract_y
_atom_site_fract_z
Si Si1 0.437818 0.410951 0.525745
Si Si2 0.176295 0.344510 0.428352
Si Si3 0.223999 0.745316 0.211600
Si Si4 0.659714 0.596245 0.780559
Si Si5 0.715739 0.889600 0.089067
Si Si6 0.075811 0.320824 0.110312
Si Si7 0.415694 0.986088 0.774737
Si Si8 0.552050 0.137876 0.754498
O O1 0.242931 0.675962 0.341140
O O2 0.629284 0.298475 0.665705
O O3 0.432999 0.318171 0.418038
O O4 0.459160 0.340553 0.653859
O O5 0.160728 0.279277 0.300699
O O6 0.370842 0.230251 0.581474
O O7 0.960156 0.622887 0.271361
O O8 0.226803 0.230096 0.569099
O O9 0.305131 0.563983 0.188315
O O10 0.000000 0.000000 0.000000
O O11 0.512171 0.801166 0.757929
O O12 0.878696 0.439966 0.959448
O O13 0.654961 0.982765 0.169017
O O14 0.594050 0.898993 0.949592
O O15 0.634212 0.049901 0.943365
O O16 0.252135 0.087877 0.170409
O O17 0.000000 0.500000 0.000000
#
# Coordination Sequence:
#
# PCOD9083363 Si02
#       8
#     2   2   2   2   2   2   2   2
#     4   9  20  34  52  79 102 128 169 212 270 315
#     4  11  20  33  49  75 106 148 176 211 250 297
#     4   9  19  35  54  78 104 130 165 217 272 314
#     4  10  19  34  55  77 105 138 170 213 262 306
#     4  10  21  35  50  73 108 145 180 210 246 294
#     4  12  19  30  49  78 113 139 170 206 261 312
#     4  10  20  36  51  73 105 143 184 214 238 301
#     4  11  21  32  51  74 108 140 170 214 261 313
#
# _framework density 16.262511
#
# number of rings (size 3 to 8) (size 9 to 14) (size 15 to 20)
#    0.750    1.000    2.500    3.750    0.000    0.000 
#    0.000    0.000    0.000    0.750    0.000    1.750 
#    0.000    0.000    0.000    0.000    0.000    0.000 
#
# Total GULP energy -89117.960017 kJ/mol
# GULP energy per Si atom -5569.872501 kJ/mol
# Density = 1.622550 g / cm^3
# Si number density = 16.262511 Si / 1000 Ang^3
#
#
#
# Elastic Constant Matrix: (Units=GPa)
#
#
# Indices 1 2 3 4 5 6 
#
# 1 82.5036 26.0404 52.5121 0.9339 -22.6281 -3.0420
# 2 26.0404 29.4931 27.8476 -4.6739 -10.1581 -3.9221
# 3 52.5121 27.8476 116.9807 -8.8249 -17.1663 0.2146
# 4 0.9339 -4.6739 -8.8249 23.8963 3.9594 -1.8280
# 5 -22.6281 -10.1581 -17.1663 3.9594 31.5191 -0.2436
# 6 -3.0420 -3.9221 0.2146 -1.8280 -0.2436 19.7798
#
#
#
# Elastic Compliance Matrix: (Units=1/GPa)
#
#
# Indices 1 2 3 4 5 6 
#
# 1 0.022774 -0.011514 -0.006561 -0.007159 0.009971 0.000752
# 2 -0.011514 0.054533 -0.006476 0.008698 0.004767 0.009975
# 3 -0.006561 -0.006476 0.013317 0.003753 -0.000032 -0.002091
# 4 -0.007159 0.008698 0.003753 0.046595 -0.006109 0.004814
# 5 0.009971 0.004767 -0.000032 -0.006109 0.041190 0.002422
# 6 0.000752 0.009975 -0.002091 0.004814 0.002422 0.053148
#
#
# Mechanical properties :
#
#
# Convention : Reuss Voigt Hill
#
# Bulk Modulus (GPa) = 24.08227 49.08639 36.58433
# Shear Modulus (GPa) = 16.97796 23.21086 20.09441
#
# Velocity S-wave (km/s) = 3.23459 3.78201 3.51896
# Velocity P-wave (km/s) = 5.36570 7.02287 6.24946
#
# Compressibility (1/GPa) = 0.04152433
#
# Stress axis : x y z
#
# Youngs Moduli (GPa) = 43.90995 18.33739 75.08993
#
# Poissons Ratio (x) = 0.21113 0.49263
# Poissons Ratio (y) = 0.50556 0.48629
# Poissons Ratio (z) = 0.28807 0.11875
#
# Static dielectric constant tensor:
#      x y z
#    x 1.553110 0.014000 -0.022940 
#    y 0.014000 1.534710 -0.008210 
#    z -0.022940 -0.008210 1.574390 
# 
# From -- ./inp_files/99793.got.cif
#   From: 2010.05.17/outbox.cif.g08.bks.cpg/sg2_50_cif.got.tgz:99793.got - 2010.06.03 11:33:40.
