data_PCOD9083651
_publ_section_title
;
Structure prediction by ZEFSAII (Michael W. Deem and Ramdas Pophale) SiO2 
 PCOD9083651
Probable space group: P -1
;
_chemical_formula_sum "Si O2"
_cell_formula_units_Z 16
_cell_length_a 11.374509
_cell_length_b 9.765763
_cell_length_c 12.265027
_cell_angle_alpha 123.153546
_cell_angle_beta 34.268052
_cell_angle_gamma 107.870684
_cell_volume 611.069683
_symmetry_space_group_name_H-M "P -1"
_symmetry_group_IT_number 2
_symmetry_cell_setting 'triclinic'
loop_
_space_group_symop_operation_xyz
x,y,z
-x,-y,-z
loop_
_atom_site_type_symbol
_atom_site_label
_atom_site_fract_x
_atom_site_fract_y
_atom_site_fract_z
Si Si1 0.037946 0.232456 0.630588
Si Si2 0.884941 0.685493 0.714274
Si Si3 0.267867 0.371792 0.687756
Si Si4 0.781670 0.166312 0.611141
Si Si5 0.697709 0.257853 0.164752
Si Si6 0.502053 0.186150 0.625219
Si Si7 0.565451 0.795968 0.845230
Si Si8 0.014435 0.901683 0.835124
O O1 0.069526 0.330317 0.758393
O O2 0.215021 0.263332 0.422451
O O3 0.820104 0.262024 0.735404
O O4 0.133928 0.032111 0.503616
O O5 0.640298 0.727850 0.877595
O O6 0.000000 0.500000 0.500000
O O7 0.031867 0.795603 0.594176
O O8 0.893557 0.755178 0.858681
O O9 0.490829 0.262220 0.404015
O O10 0.245630 0.570877 0.775104
O O11 0.309533 0.316338 0.758614
O O12 0.569810 0.192742 0.705118
O O13 0.606553 0.268013 0.115906
O O14 0.883683 0.075195 0.944536
O O15 0.729876 0.203071 0.412509
O O16 0.500000 0.000000 0.500000
O O17 0.500000 0.000000 0.000000
O O18 0.000000 0.000000 0.000000
#
# Coordination Sequence:
#
# PCOD9083651 Si02
#       8
#     2   2   2   2   2   2   2   2
#     4   9  18  35  57  82 109 156 194 235 287 368
#     4  10  22  36  58  88 117 151 195 249 302 358
#     4  10  20  35  61  89 119 153 198 247 298 360
#     4   9  19  34  56  81 111 150 201 232 290 357
#     4  10  21  36  58  89 119 152 197 247 302 352
#     4  11  21  36  59  87 119 160 199 245 304 365
#     4  10  19  34  57  84 111 147 192 240 293 346
#     4  11  22  37  59  89 121 155 199 252 302 354
#
# _framework density 26.183595
#
# number of rings (size 3 to 8) (size 9 to 14) (size 15 to 20)
#    0.000    2.000    3.750    0.000    3.500    2.000 
#    0.000    0.625    0.000    2.250    0.000    0.000 
#    0.000    0.000    0.000    0.000    0.000    0.000 
#
# Total GULP energy -89189.486003 kJ/mol
# GULP energy per Si atom -5574.342875 kJ/mol
# Density = 2.612400 g / cm^3
# Si number density = 26.183595 Si / 1000 Ang^3
#
#
#
# Elastic Constant Matrix: (Units=GPa)
#
#
# Indices 1 2 3 4 5 6 
#
# 1 248.9620 50.3878 49.7302 15.4162 11.4831 56.8069
# 2 50.3878 82.8052 16.4865 21.3765 -1.8467 32.8064
# 3 49.7302 16.4865 68.9048 15.1172 -2.3072 4.9062
# 4 15.4162 21.3765 15.1172 54.2426 0.2953 12.6822
# 5 11.4831 -1.8467 -2.3072 0.2953 30.0788 -1.3606
# 6 56.8069 32.8064 4.9062 12.6822 -1.3606 51.2651
#
#
#
# Elastic Compliance Matrix: (Units=1/GPa)
#
#
# Indices 1 2 3 4 5 6 
#
# 1 0.006753 -0.000884 -0.004575 0.001335 -0.003309 -0.006898
# 2 -0.000884 0.017696 -0.002032 -0.004026 0.000895 -0.009130
# 3 -0.004575 -0.002032 0.019004 -0.004563 0.003385 0.005770
# 4 0.001335 -0.004026 -0.004563 0.021836 -0.001498 -0.003908
# 5 -0.003309 0.000895 0.003385 -0.001498 0.035023 0.004070
# 6 -0.006898 -0.009130 0.005770 -0.003908 0.004070 0.033515
#
#
# Mechanical properties :
#
#
# Convention : Reuss Voigt Hill
#
# Bulk Modulus (GPa) = 35.12425 70.43120 52.77772
# Shear Modulus (GPa) = 31.58541 46.05514 38.82027
#
# Velocity S-wave (km/s) = 3.47696 4.19851 3.85466
# Velocity P-wave (km/s) = 5.43716 7.10357 6.32548
#
# Compressibility (1/GPa) = 0.02847036
#
# Stress axis : x y z
#
# Youngs Moduli (GPa) = 148.07556 56.51049 52.61919
#
# Poissons Ratio (x) = 0.04996 0.24073
# Poissons Ratio (y) = 0.13092 0.10695
# Poissons Ratio (z) = 0.67744 0.11486
#
# Static dielectric constant tensor:
#      x y z
#    x 2.687110 -0.070020 0.581230 
#    y -0.070020 1.934380 -0.189990 
#    z 0.581230 -0.189990 2.488740 
# 
# From -- ./inp_files/500481.got.cif
#   From: 2010.05.17/outbox.cif.g08.bks.cpg/sg2_251_cif.got.tgz:500481.got - 2010.06.03 11:33:40.
