data_PCOD9083430
_publ_section_title
;
Structure prediction by ZEFSAII (Michael W. Deem and Ramdas Pophale) SiO2 
 PCOD9083430
Probable space group: P -1
;
_chemical_formula_sum "Si O2"
_cell_formula_units_Z 16
_cell_length_a 14.590238
_cell_length_b 9.520151
_cell_length_c 8.238268
_cell_angle_alpha 77.847287
_cell_angle_beta 40.649673
_cell_angle_gamma 99.789150
_cell_volume 623.437438
_symmetry_space_group_name_H-M "P -1"
_symmetry_group_IT_number 2
_symmetry_cell_setting 'triclinic'
loop_
_space_group_symop_operation_xyz
x,y,z
-x,-y,-z
loop_
_atom_site_type_symbol
_atom_site_label
_atom_site_fract_x
_atom_site_fract_y
_atom_site_fract_z
Si Si1 0.122375 0.458155 0.158230
Si Si2 0.445260 0.197936 0.110549
Si Si3 0.577683 0.867374 0.205395
Si Si4 0.272415 0.874089 0.623282
Si Si5 0.855163 0.946312 0.012504
Si Si6 0.910687 0.656976 0.116840
Si Si7 0.767966 0.263025 0.814812
Si Si8 0.820849 0.701840 0.566973
O O1 0.171365 0.447160 0.911289
O O2 0.166143 0.636850 0.129456
O O3 0.189388 0.385676 0.226495
O O4 0.924753 0.341356 0.468162
O O5 0.330938 0.274364 0.275600
O O6 0.348508 0.999467 0.335756
O O7 0.613480 0.275920 0.963147
O O8 0.480586 0.217911 0.868474
O O9 0.414719 0.847104 0.508536
O O10 0.701309 0.823155 0.134623
O O11 0.697980 0.067151 0.972959
O O12 0.100827 0.709071 0.852203
O O13 0.229571 0.982549 0.773498
O O14 0.914066 0.831839 0.044103
O O15 0.015810 0.110340 0.685020
O O16 0.841836 0.609529 0.403698
#
# Coordination Sequence:
#
# PCOD9083430 Si02
#       8
#     2   2   2   2   2   2   2   2
#     4  11  23  42  64  80 120 165 198 240 284 353
#     4  11  20  37  62  88 117 150 192 250 301 341
#     4  11  21  34  63  89 115 154 194 241 303 347
#     4  10  19  34  55  88 123 145 181 252 295 344
#     4  11  20  35  58  91 120 149 189 247 303 343
#     4  11  21  39  63  91 118 154 195 241 303 346
#     4  10  23  40  59  86 118 157 203 240 286 350
#     4  11  22  38  62  91 121 151 199 244 290 354
#
# _framework density 25.664164
#
# number of rings (size 3 to 8) (size 9 to 14) (size 15 to 20)
#    0.000    1.250    3.750    4.875    0.000    1.500 
#    0.000    3.125   11.000    0.000    0.000    0.000 
#    0.000    0.000    0.000    0.000    0.000    0.000 
#
# Total GULP energy -89612.382271 kJ/mol
# GULP energy per Si atom -5600.773892 kJ/mol
# Density = 2.560575 g / cm^3
# Si number density = 25.664164 Si / 1000 Ang^3
#
#
#
# Elastic Constant Matrix: (Units=GPa)
#
#
# Indices 1 2 3 4 5 6 
#
# 1 156.1598 21.6952 34.8565 11.1105 -22.5541 5.8688
# 2 21.6952 64.2560 8.8473 8.3934 12.8386 15.4250
# 3 34.8565 8.8473 79.8344 10.2947 -18.9794 -2.0391
# 4 11.1105 8.3934 10.2947 28.0572 4.0485 8.6584
# 5 -22.5541 12.8386 -18.9794 4.0485 47.7260 3.9096
# 6 5.8688 15.4250 -2.0391 8.6584 3.9096 47.1097
#
#
#
# Elastic Compliance Matrix: (Units=1/GPa)
#
#
# Indices 1 2 3 4 5 6 
#
# 1 0.007969 -0.002925 -0.001940 -0.002123 0.003966 -0.000058
# 2 -0.002925 0.019801 -0.002633 -0.001080 -0.007219 -0.005435
# 3 -0.001940 -0.002633 0.016040 -0.005994 0.006485 0.002362
# 4 -0.002123 -0.001080 -0.005994 0.042000 -0.006098 -0.006854
# 5 0.003966 -0.007219 0.006485 -0.006098 0.027786 0.000965
# 6 -0.000058 -0.005435 0.002362 -0.006854 0.000965 0.024296
#
#
# Mechanical properties :
#
#
# Convention : Reuss Voigt Hill
#
# Bulk Modulus (GPa) = 34.70524 47.89422 41.29973
# Shear Modulus (GPa) = 30.77063 40.23534 35.50298
#
# Velocity S-wave (km/s) = 3.46637 3.96379 3.72340
# Velocity P-wave (km/s) = 5.43812 6.29693 5.88322
#
# Compressibility (1/GPa) = 0.02881409
#
# Stress axis : x y z
#
# Youngs Moduli (GPa) = 125.48382 50.50228 62.34509
#
# Poissons Ratio (x) = 0.14771 0.12095
# Poissons Ratio (y) = 0.36701 0.16416
# Poissons Ratio (z) = 0.24345 0.13298
#
# Static dielectric constant tensor:
#      x y z
#    x 2.076780 0.001980 0.042780 
#    y 0.001980 2.013050 -0.002600 
#    z 0.042780 -0.002600 2.019050 
# 
# From -- ./inp_files/274584.got.cif
#   From: 2010.05.17/outbox.cif.g08.bks.cpg/sg2_138_cif.got.tgz:274584.got - 2010.06.03 11:33:40.
