data_PCOD9083009
_publ_section_title
;
Structure prediction by ZEFSAII (Michael W. Deem and Ramdas Pophale) SiO2 
 PCOD9083009
Probable space group: P -1
;
_chemical_formula_sum "Si O2"
_cell_formula_units_Z 13
_cell_length_a 5.369084
_cell_length_b 15.415055
_cell_length_c 16.027195
_cell_angle_alpha 152.877402
_cell_angle_beta 61.037594
_cell_angle_gamma 121.397041
_cell_volume 515.471521
_symmetry_space_group_name_H-M "P -1"
_symmetry_group_IT_number 2
_symmetry_cell_setting 'triclinic'
loop_
_space_group_symop_operation_xyz
x,y,z
-x,-y,-z
loop_
_atom_site_type_symbol
_atom_site_label
_atom_site_fract_x
_atom_site_fract_y
_atom_site_fract_z
Si Si1 0.679860 0.288971 0.074486
Si Si2 0.304098 0.224809 0.919662
Si Si3 0.159746 0.200690 0.599599
Si Si4 0.539741 0.668503 0.500382
Si Si5 0.500000 0.000000 0.000000
Si Si6 0.443113 0.764979 0.292869
Si Si7 0.012798 0.175210 0.299674
O O1 0.546969 0.457306 0.282024
O O2 0.554373 0.087669 0.971143
O O3 0.566074 0.271719 0.983780
O O4 0.026476 0.319792 0.060641
O O5 0.411703 0.268021 0.845419
O O6 0.168648 0.993194 0.754712
O O7 0.296519 0.184297 0.472979
O O8 0.408380 0.307411 0.713588
O O9 0.901520 0.310610 0.722649
O O10 0.000000 0.000000 0.500000
O O11 0.733277 0.692521 0.572429
O O12 0.218771 0.707654 0.597602
O O13 0.188726 0.073806 0.119229
O O14 0.500000 0.000000 0.500000
#
# Coordination Sequence:
#
# PCOD9083009 Si02
#       7
#     2   2   2   2   1   2   2
#     4  11  26  44  66  93 136 165 217 266 332 386
#     4  11  22  43  66  95 131 179 209 266 327 381
#     4  10  19  34  58  90 126 161 212 255 300 369
#     4  12  24  42  66 100 129 172 211 273 317 375
#     4  10  26  46  68  98 124 172 210 268 328 398
#     4  10  19  33  60  90 121 164 219 255 293 373
#     4  11  23  41  70  94 129 164 220 262 325 387
#
# _framework density 25.219628
#
# number of rings (size 3 to 8) (size 9 to 14) (size 15 to 20)
#    0.000    1.231    0.000    8.308    0.000    6.769 
#    0.000    4.615    0.000    0.000    0.000    0.000 
#    0.000    0.000    0.000    0.000    0.000    0.000 
#
# Total GULP energy -72544.154944 kJ/mol
# GULP energy per Si atom -5580.319611 kJ/mol
# Density = 2.516223 g / cm^3
# Si number density = 25.219628 Si / 1000 Ang^3
#
#
#
# Elastic Constant Matrix: (Units=GPa)
#
#
# Indices 1 2 3 4 5 6 
#
# 1 210.5132 7.3199 33.8005 -10.0230 -19.0435 5.4328
# 2 7.3199 66.4038 -8.8304 -4.6176 -3.9432 -3.1668
# 3 33.8005 -8.8304 67.3729 6.0976 -23.4282 5.0715
# 4 -10.0230 -4.6176 6.0976 31.7309 9.3620 -19.5115
# 5 -19.0435 -3.9432 -23.4282 9.3620 48.9946 -16.2025
# 6 5.4328 -3.1668 5.0715 -19.5115 -16.2025 27.5758
#
#
#
# Elastic Compliance Matrix: (Units=1/GPa)
#
#
# Indices 1 2 3 4 5 6 
#
# 1 0.005424 -0.000622 -0.003029 0.003350 0.000696 0.002197
# 2 -0.000622 0.016431 0.002814 0.005008 0.003890 0.007321
# 3 -0.003029 0.002814 0.021407 -0.010393 0.009733 -0.004652
# 4 0.003350 0.005008 -0.010393 0.064489 0.000132 0.047534
# 5 0.000696 0.003890 0.009733 0.000132 0.031233 0.016965
# 6 0.002197 0.007321 -0.004652 0.047534 0.016965 0.081128
#
#
# Mechanical properties :
#
#
# Convention : Reuss Voigt Hill
#
# Bulk Modulus (GPa) = 24.04589 45.43001 34.73795
# Shear Modulus (GPa) = 21.21811 42.46027 31.83919
#
# Velocity S-wave (km/s) = 2.90372 4.10765 3.55699
# Velocity P-wave (km/s) = 4.56042 6.36788 5.53838
#
# Compressibility (1/GPa) = 0.04158715
#
# Stress axis : x y z
#
# Youngs Moduli (GPa) = 184.36283 60.86238 46.71453
#
# Poissons Ratio (x) = 0.03784 0.14151
# Poissons Ratio (y) = 0.11462 -0.13145
# Poissons Ratio (z) = 0.55849 -0.17126
#
# Static dielectric constant tensor:
#      x y z
#    x 1.970560 -0.081890 -0.022670 
#    y -0.081890 1.964260 0.075070 
#    z -0.022670 0.075070 1.978880 
# 
# From -- ./inp_files/313012.got.cif
#   From: 2010.05.17/outbox.cif.g08.bks.cpg/sg2_157_cif.got.tgz:313012.got - 2010.06.03 11:33:40.
