data_PCOD9083976
_publ_section_title
;
Structure prediction by ZEFSAII (Michael W. Deem and Ramdas Pophale) SiO2 
 PCOD9083976
Probable space group: P -1
;
_chemical_formula_sum "Si O2"
_cell_formula_units_Z 16
_cell_length_a 12.243885
_cell_length_b 7.882077
_cell_length_c 8.787870
_cell_angle_alpha 68.911474
_cell_angle_beta 120.346309
_cell_angle_gamma 111.558836
_cell_volume 664.472246
_symmetry_space_group_name_H-M "P -1"
_symmetry_group_IT_number 2
_symmetry_cell_setting 'triclinic'
loop_
_space_group_symop_operation_xyz
x,y,z
-x,-y,-z
loop_
_atom_site_type_symbol
_atom_site_label
_atom_site_fract_x
_atom_site_fract_y
_atom_site_fract_z
Si Si1 0.997129 0.549739 0.807200
Si Si2 0.508602 0.708314 0.585627
Si Si3 0.343793 0.953329 0.224512
Si Si4 0.367049 0.537405 0.821250
Si Si5 0.070831 0.342781 0.672171
Si Si6 0.264748 0.746075 0.942490
Si Si7 0.756300 0.600183 0.724614
Si Si8 0.095235 0.984431 0.209014
O O1 0.042004 0.383560 0.812385
O O2 0.849577 0.557258 0.670112
O O3 0.112939 0.730576 0.802092
O O4 0.000000 0.500000 0.000000
O O5 0.439849 0.827409 0.388340
O O6 0.402520 0.579649 0.657614
O O7 0.612014 0.625135 0.592553
O O8 0.590883 0.841878 0.732965
O O9 0.319294 0.918604 0.038339
O O10 0.209829 0.898923 0.243368
O O11 0.227229 0.386051 0.764180
O O12 0.500000 0.500000 0.000000
O O13 0.335041 0.705449 0.850036
O O14 0.000000 0.500000 0.500000
O O15 0.983219 0.133876 0.667608
O O16 0.263430 0.564701 0.109120
O O17 0.836964 0.805174 0.763324
O O18 0.000000 0.000000 0.000000
#
# Coordination Sequence:
#
# PCOD9083976 Si02
#       8
#     2   2   2   2   2   2   2   2
#     4   9  18  35  59  87 117 152 203 256 293 353
#     4  10  22  39  59  84 127 161 195 253 308 367
#     4  10  22  38  60  91 118 157 209 250 306 362
#     4  11  22  39  59  86 127 162 200 247 306 371
#     4  11  24  41  64  90 126 166 203 251 321 367
#     4  10  19  36  59  89 118 160 202 250 308 363
#     4  10  19  34  59  87 117 147 204 254 295 346
#     4  11  20  35  64  92 115 154 211 257 297 357
#
# _framework density 24.079260000000001
#
# number of rings (size 3 to 8) (size 9 to 14) (size 15 to 20)
#    0.000    1.750    1.250    5.250    1.750    1.000 
#    2.250    0.625    0.000    0.000    0.000    0.000 
#    0.000    0.000    0.000    0.000    0.000    0.000 
#
# Total GULP energy -89211.944409 kJ/mol
# GULP energy per Si atom -5575.746526 kJ/mol
# Density = 2.402445 g / cm^3
# Si number density = 24.079260 Si / 1000 Ang^3
#
#
#
# Elastic Constant Matrix: (Units=GPa)
#
#
# Indices 1 2 3 4 5 6 
#
# 1 189.1978 28.5595 23.7339 10.0283 24.4017 17.4665
# 2 28.5595 84.0340 31.8569 12.9190 10.8171 18.7421
# 3 23.7339 31.8569 55.1646 11.3262 16.0545 13.0270
# 4 10.0283 12.9190 11.3262 35.7999 -3.1392 2.1699
# 5 24.4017 10.8171 16.0545 -3.1392 42.7296 8.4858
# 6 17.4665 18.7421 13.0270 2.1699 8.4858 32.4888
#
#
#
# Elastic Compliance Matrix: (Units=1/GPa)
#
#
# Indices 1 2 3 4 5 6 
#
# 1 0.006083 -0.000893 -0.000622 -0.001326 -0.002775 -0.001692
# 2 -0.000893 0.016787 -0.007207 -0.003163 -0.000055 -0.006089
# 3 -0.000622 -0.007207 0.026974 -0.006191 -0.007632 -0.003917
# 4 -0.001326 -0.003163 -0.006191 0.031846 0.005958 0.001337
# 5 -0.002775 -0.000055 -0.007632 0.005958 0.028979 -0.003383
# 6 -0.001692 -0.006089 -0.003917 0.001337 -0.003383 0.037567
#
#
# Mechanical properties :
#
#
# Convention : Reuss Voigt Hill
#
# Bulk Modulus (GPa) = 30.86339 55.18855 43.02597
# Shear Modulus (GPa) = 28.33202 38.48673 33.40938
#
# Velocity S-wave (km/s) = 3.43390 4.00226 3.72892
# Velocity P-wave (km/s) = 5.34486 6.65783 6.03714
#
# Compressibility (1/GPa) = 0.03240085
#
# Stress axis : x y z
#
# Youngs Moduli (GPa) = 164.40016 59.57060 37.07257
#
# Poissons Ratio (x) = 0.05320 0.02305
# Poissons Ratio (y) = 0.14682 0.26717
# Poissons Ratio (z) = 0.10222 0.42930
#
# Static dielectric constant tensor:
#      x y z
#    x 1.950960 -0.003490 -0.034380 
#    y -0.003490 2.078050 0.040410 
#    z -0.034380 0.040410 1.991200 
# 
# From -- ./inp_files/243191.got.cif
#   From: 2010.05.17/outbox.cif.g08.bks.cpg/sg2_122_cif.got.tgz:243191.got - 2010.06.03 11:33:40.
