data_PCOD9083776
_publ_section_title
;
Structure prediction by ZEFSAII (Michael W. Deem and Ramdas Pophale) SiO2 
 PCOD9083776
Probable space group: P -1
;
_chemical_formula_sum "Si O2"
_cell_formula_units_Z 16
_cell_length_a 15.639771
_cell_length_b 9.407948
_cell_length_c 10.307767
_cell_angle_alpha 113.405637
_cell_angle_beta 130.252708
_cell_angle_gamma 36.495971
_cell_volume 663.035308
_symmetry_space_group_name_H-M "P -1"
_symmetry_group_IT_number 2
_symmetry_cell_setting 'triclinic'
loop_
_space_group_symop_operation_xyz
x,y,z
-x,-y,-z
loop_
_atom_site_type_symbol
_atom_site_label
_atom_site_fract_x
_atom_site_fract_y
_atom_site_fract_z
Si Si1 0.539884 0.420162 0.701033
Si Si2 0.062224 0.697371 0.558789
Si Si3 0.233927 0.828499 0.711831
Si Si4 0.337790 0.924229 0.070596
Si Si5 0.146474 0.968176 0.290187
Si Si6 0.357266 0.182023 0.756725
Si Si7 0.026490 0.754171 0.056157
Si Si8 0.363874 0.338519 0.095474
O O1 0.331729 0.679201 0.618521
O O2 0.639271 0.259726 0.609406
O O3 0.639740 0.472635 0.854344
O O4 0.583786 0.246138 0.789278
O O5 0.184784 0.719649 0.691718
O O6 0.190405 0.409977 0.585905
O O7 0.934937 0.879079 0.379929
O O8 0.935128 0.835734 0.609132
O O9 0.355054 0.794082 0.915740
O O10 0.464000 0.930800 0.165677
O O11 0.125801 0.167967 0.982282
O O12 0.077875 0.865738 0.207924
O O13 0.060325 0.114688 0.121913
O O14 0.433285 0.929203 0.764478
O O15 0.320569 0.297739 0.904092
O O16 0.212542 0.468545 0.102126
#
# Coordination Sequence:
#
# PCOD9083776 Si02
#       8
#     2   2   2   2   2   2   2   2
#     4  10  19  34  58  82 104 134 184 220 260 310
#     4  11  21  35  51  81 115 135 173 219 272 308
#     4  11  21  32  54  82 107 141 174 219 262 317
#     4  11  19  33  59  82 105 135 181 223 256 307
#     4   9  17  30  52  79 108 135 167 226 267 300
#     4  11  21  34  55  80 111 137 174 224 259 314
#     4   9  17  30  53  80 104 134 176 218 265 305
#     4  10  20  33  55  81 107 138 175 218 268 308
#
# _framework density 24.131443999999998
#
# number of rings (size 3 to 8) (size 9 to 14) (size 15 to 20)
#    0.000    1.750    5.000    1.875    0.000    1.000 
#    0.000    0.625    0.000    0.750    0.000    0.000 
#    0.000    0.000    0.000    0.000    0.000    0.000 
#
# Total GULP energy -89391.280970 kJ/mol
# GULP energy per Si atom -5586.955061 kJ/mol
# Density = 2.407652 g / cm^3
# Si number density = 24.131444 Si / 1000 Ang^3
#
#
#
# Elastic Constant Matrix: (Units=GPa)
#
#
# Indices 1 2 3 4 5 6 
#
# 1 94.3219 30.0486 3.0236 11.7856 0.1182 -30.0031
# 2 30.0486 101.8679 9.0676 -26.7864 -3.6858 -23.4884
# 3 3.0236 9.0676 31.3692 -15.9876 -0.6487 1.7566
# 4 11.7856 -26.7864 -15.9876 34.6704 -3.7087 1.2270
# 5 0.1182 -3.6858 -0.6487 -3.7087 22.7486 -5.0615
# 6 -30.0031 -23.4884 1.7566 1.2270 -5.0615 40.8244
#
#
#
# Elastic Compliance Matrix: (Units=1/GPa)
#
#
# Indices 1 2 3 4 5 6 
#
# 1 0.018094 -0.006343 -0.008397 -0.015458 -0.001595 0.010277
# 2 -0.006343 0.017750 0.004837 0.018686 0.007360 0.005694
# 3 -0.008397 0.004837 0.046383 0.028776 0.005606 -0.005554
# 4 -0.015458 0.018686 0.028776 0.063353 0.013803 -0.002040
# 5 -0.001595 0.007360 0.005606 0.013803 0.049470 0.008540
# 6 0.010277 0.005694 -0.005554 -0.002040 0.008540 0.036683
#
#
# Mechanical properties :
#
#
# Convention : Reuss Voigt Hill
#
# Bulk Modulus (GPa) = 16.02009 34.64873 25.33441
# Shear Modulus (GPa) = 18.35915 32.00997 25.18456
#
# Velocity S-wave (km/s) = 2.76125 3.64604 3.23405
# Velocity P-wave (km/s) = 4.10111 5.66695 4.94638
#
# Compressibility (1/GPa) = 0.06242164
#
# Stress axis : x y z
#
# Youngs Moduli (GPa) = 55.26633 56.33948 21.55981
#
# Poissons Ratio (x) = 0.35734 0.18104
# Poissons Ratio (y) = 0.35053 -0.10429
# Poissons Ratio (z) = 0.46408 -0.27254
#
# Static dielectric constant tensor:
#      x y z
#    x 1.941540 -0.051610 0.022000 
#    y -0.051610 1.934260 -0.060230 
#    z 0.022000 -0.060230 1.924880 
# 
# From -- ./inp_files/254165.got.cif
#   From: 2010.05.17/outbox.cif.g08.bks.cpg/sg2_128_cif.got.tgz:254165.got - 2010.06.03 11:33:40.
