data_PCOD9083124
_publ_section_title
;
Structure prediction by ZEFSAII (Michael W. Deem and Ramdas Pophale) SiO2 
 PCOD9083124
Probable space group: P -1
;
_chemical_formula_sum "Si O2"
_cell_formula_units_Z 16
_cell_length_a 10.892658
_cell_length_b 12.809802
_cell_length_c 9.439701
_cell_angle_alpha 134.218591
_cell_angle_beta 54.091615
_cell_angle_gamma 111.100513
_cell_volume 761.851251
_symmetry_space_group_name_H-M "P -1"
_symmetry_group_IT_number 2
_symmetry_cell_setting 'triclinic'
loop_
_space_group_symop_operation_xyz
x,y,z
-x,-y,-z
loop_
_atom_site_type_symbol
_atom_site_label
_atom_site_fract_x
_atom_site_fract_y
_atom_site_fract_z
Si Si1 0.139239 0.988222 0.286997
Si Si2 0.508829 0.318629 0.949035
Si Si3 0.701665 0.386698 0.628422
Si Si4 0.774547 0.445596 0.074371
Si Si5 0.017751 0.536496 0.311752
Si Si6 0.861305 0.275385 0.144766
Si Si7 0.467193 0.868873 0.006383
Si Si8 0.264104 0.300951 0.457952
O O1 0.188515 0.148593 0.374253
O O2 0.106880 0.893344 0.079587
O O3 0.287013 0.900403 0.173120
O O4 0.000000 0.000000 0.500000
O O5 0.372679 0.445952 0.160328
O O6 0.635858 0.388579 0.027493
O O7 0.474918 0.168021 0.907469
O O8 0.588623 0.303883 0.727830
O O9 0.867029 0.395128 0.596360
O O10 0.733020 0.309403 0.383134
O O11 0.810178 0.355051 0.107420
O O12 0.740507 0.610518 0.308968
O O13 0.915928 0.436089 0.863041
O O14 0.004600 0.363617 0.176661
O O15 0.844682 0.607641 0.494155
O O16 0.560724 0.731752 0.736305
O O17 0.500000 0.000000 0.000000
#
# Coordination Sequence:
#
# PCOD9083124 Si02
#       8
#     2   2   2   2   2   2   2   2
#     4  11  22  37  60  91 122 160 201 264 313 362
#     4  10  20  39  61  94 125 162 204 255 314 366
#     4  10  23  35  60  93 130 165 201 253 309 375
#     4  10  19  33  64  92 120 156 210 263 305 358
#     4  10  20  38  58  91 128 163 202 254 310 367
#     4  11  20  35  60  91 119 156 212 253 305 369
#     4  10  22  38  60  91 121 158 206 258 313 359
#     4  10  21  35  60  93 123 153 204 258 311 356
#
# _framework density 21.001474000000002
#
# number of rings (size 3 to 8) (size 9 to 14) (size 15 to 20)
#    0.000    1.750    1.250    4.875    3.500    1.000 
#    0.000    0.625    0.000    3.000    3.250    0.000 
#    0.000    0.000    0.000    0.000    0.000    0.000 
#
# Total GULP energy -89128.667313 kJ/mol
# GULP energy per Si atom -5570.541707 kJ/mol
# Density = 2.095367 g / cm^3
# Si number density = 21.001474 Si / 1000 Ang^3
#
#
#
# Elastic Constant Matrix: (Units=GPa)
#
#
# Indices 1 2 3 4 5 6 
#
# 1 37.7426 -0.8763 24.3487 -8.0105 -16.8122 -6.4666
# 2 -0.8763 101.0793 46.9785 -12.8676 12.4235 -6.1586
# 3 24.3487 46.9785 137.4403 -29.4116 -3.1917 7.7817
# 4 -8.0105 -12.8676 -29.4116 45.4550 -1.3992 6.0987
# 5 -16.8122 12.4235 -3.1917 -1.3992 35.6204 -0.6979
# 6 -6.4666 -6.1586 7.7817 6.0987 -0.6979 20.4772
#
#
#
# Elastic Compliance Matrix: (Units=1/GPa)
#
#
# Indices 1 2 3 4 5 6 
#
# 1 0.045085 0.003837 -0.009817 0.000650 0.019471 0.019592
# 2 0.003837 0.013463 -0.005873 -0.000421 -0.003280 0.007506
# 3 -0.009817 -0.005873 0.013077 0.006617 -0.001386 -0.011854
# 4 0.000650 -0.000421 0.006617 0.027764 0.001929 -0.010639
# 5 0.019471 -0.003280 -0.001386 0.001929 0.038485 0.006426
# 6 0.019592 0.007506 -0.011854 -0.010639 0.006426 0.065171
#
#
# Mechanical properties :
#
#
# Convention : Reuss Voigt Hill
#
# Bulk Modulus (GPa) = 20.86799 46.35155 33.60977
# Shear Modulus (GPa) = 20.59953 34.03127 27.31540
#
# Velocity S-wave (km/s) = 3.13527 4.02982 3.61035
# Velocity P-wave (km/s) = 4.80256 6.61597 5.78081
#
# Compressibility (1/GPa) = 0.04792027
#
# Stress axis : x y z
#
# Youngs Moduli (GPa) = 22.18021 74.27862 76.46870
#
# Poissons Ratio (x) = -0.28498 0.75066
# Poissons Ratio (y) = -0.08510 0.44907
# Poissons Ratio (z) = 0.21773 0.43621
#
# Static dielectric constant tensor:
#      x y z
#    x 1.805030 0.006870 0.011850 
#    y 0.006870 1.900410 -0.011430 
#    z 0.011850 -0.011430 1.786330 
# 
# From -- ./inp_files/263291.got.cif
#   From: 2010.05.17/outbox.cif.g08.bks.cpg/sg2_132_cif.got.tgz:263291.got - 2010.06.03 11:33:40.
