data_PCOD9083811
_publ_section_title
;
Structure prediction by ZEFSAII (Michael W. Deem and Ramdas Pophale) SiO2 
 PCOD9083811
Probable space group: P -1
;
_chemical_formula_sum "Si O2"
_cell_formula_units_Z 14
_cell_length_a 8.302235
_cell_length_b 6.624917
_cell_length_c 12.115817
_cell_angle_alpha 123.405590
_cell_angle_beta 101.722312
_cell_angle_gamma 87.168209
_cell_volume 543.103545
_symmetry_space_group_name_H-M "P -1"
_symmetry_group_IT_number 2
_symmetry_cell_setting 'triclinic'
loop_
_space_group_symop_operation_xyz
x,y,z
-x,-y,-z
loop_
_atom_site_type_symbol
_atom_site_label
_atom_site_fract_x
_atom_site_fract_y
_atom_site_fract_z
Si Si1 0.317120 0.507982 0.568363
Si Si2 0.160237 0.467766 0.173517
Si Si3 0.182623 0.901379 0.791923
Si Si4 0.609799 0.245917 0.571735
Si Si5 0.828202 0.906509 0.731703
Si Si6 0.797433 0.287350 0.024305
Si Si7 0.561008 0.763470 0.003221
O O1 0.201150 0.626371 0.674017
O O2 0.488397 0.463409 0.638083
O O3 0.338423 0.705414 0.532788
O O4 0.260067 0.255881 0.425332
O O5 0.236998 0.719282 0.313813
O O6 0.160142 0.293414 0.228360
O O7 0.298222 0.378375 0.081279
O O8 0.972296 0.447677 0.096513
O O9 0.171778 0.887825 0.919514
O O10 0.014755 0.979805 0.744111
O O11 0.337928 0.086645 0.841015
O O12 0.500000 0.000000 0.500000
O O13 0.770563 0.129871 0.861925
O O14 0.616392 0.384754 0.047899
O O15 0.500000 0.000000 0.000000
#
# Coordination Sequence:
#
# PCOD9083811 Si02
#       7
#     2   2   2   2   2   2   2
#     4  10  22  34  60  92 115 156 201 242 300 351
#     4  10  17  33  51  82 115 154 198 238 292 352
#     4  10  17  30  51  88 125 150 197 249 290 350
#     4  10  22  39  60  85 122 160 198 245 296 355
#     4  10  17  31  52  87 124 152 195 246 296 352
#     4  10  18  28  52  86 120 156 196 244 293 353
#     4  10  16  24  49  80 117 148 195 242 286 345
#
# _framework density 25.777773
#
# number of rings (size 3 to 8) (size 9 to 14) (size 15 to 20)
#    0.000    2.000    4.286    3.000    4.000    0.000 
#    0.000    0.000    0.000   23.143    0.000    0.000 
#    0.000    0.143    0.000    0.000    0.000    0.000 
#
# Total GULP energy -78152.712593 kJ/mol
# GULP energy per Si atom -5582.336614 kJ/mol
# Density = 2.571910 g / cm^3
# Si number density = 25.777773 Si / 1000 Ang^3
#
#
#
# Elastic Constant Matrix: (Units=GPa)
#
#
# Indices 1 2 3 4 5 6 
#
# 1 194.2970 14.2867 71.0998 7.0423 39.9997 -8.3956
# 2 14.2867 70.4841 45.1098 3.5511 20.9650 5.1808
# 3 71.0998 45.1098 148.6969 19.8148 21.8649 6.2223
# 4 7.0423 3.5511 19.8148 32.6375 3.9437 9.9237
# 5 39.9997 20.9650 21.8649 3.9437 52.6826 8.5008
# 6 -8.3956 5.1808 6.2223 9.9237 8.5008 28.6976
#
#
#
# Elastic Compliance Matrix: (Units=1/GPa)
#
#
# Indices 1 2 3 4 5 6 
#
# 1 0.007756 0.002220 -0.003647 -0.000364 -0.005966 0.004552
# 2 0.002220 0.019777 -0.006294 0.002102 -0.007071 -0.000189
# 3 -0.003647 -0.006294 0.010898 -0.005014 0.001277 -0.000938
# 4 -0.000364 0.002102 -0.005014 0.037243 0.000750 -0.012500
# 5 -0.005966 -0.007071 0.001277 0.000750 0.027201 -0.009063
# 6 0.004552 -0.000189 -0.000938 -0.012500 -0.009063 0.043423
#
#
# Mechanical properties :
#
#
# Convention : Reuss Voigt Hill
#
# Bulk Modulus (GPa) = 43.49751 74.94118 59.21935
# Shear Modulus (GPa) = 29.51564 41.66897 35.59230
#
# Velocity S-wave (km/s) = 3.38746 4.02490 3.71986
# Velocity P-wave (km/s) = 5.67543 7.12284 6.43993
#
# Compressibility (1/GPa) = 0.02298982
#
# Stress axis : x y z
#
# Youngs Moduli (GPa) = 128.92957 50.56481 91.76282
#
# Poissons Ratio (x) = -0.11226 0.33464
# Poissons Ratio (y) = -0.28625 0.57752
# Poissons Ratio (z) = 0.47018 0.31824
#
# Static dielectric constant tensor:
#      x y z
#    x 2.105960 0.060940 0.030920 
#    y 0.060940 2.165890 0.037190 
#    z 0.030920 0.037190 2.038760 
# 
# From -- ./inp_files/490219.got.cif
#   From: 2010.05.17/outbox.cif.g08.bks.cpg/sg2_246_cif.got.tgz:490219.got - 2010.06.03 11:33:40.
