data_PCOD9083422
_publ_section_title
;
Structure prediction by ZEFSAII (Michael W. Deem and Ramdas Pophale) SiO2 
 PCOD9083422
Probable space group: P -1
;
_chemical_formula_sum "Si O2"
_cell_formula_units_Z 16
_cell_length_a 10.549891
_cell_length_b 14.749218
_cell_length_c 9.596757
_cell_angle_alpha 37.212848
_cell_angle_beta 82.868158
_cell_angle_gamma 63.229718
_cell_volume 726.259808
_symmetry_space_group_name_H-M "P -1"
_symmetry_group_IT_number 2
_symmetry_cell_setting 'triclinic'
loop_
_space_group_symop_operation_xyz
x,y,z
-x,-y,-z
loop_
_atom_site_type_symbol
_atom_site_label
_atom_site_fract_x
_atom_site_fract_y
_atom_site_fract_z
Si Si1 0.053941 0.610939 0.436103
Si Si2 0.631148 0.978570 0.321126
Si Si3 0.278115 0.649619 0.820930
Si Si4 0.953836 0.582379 0.753685
Si Si5 0.509705 0.225748 0.310955
Si Si6 0.131817 0.664231 0.089674
Si Si7 0.793487 0.031642 0.019214
Si Si8 0.928477 0.057148 0.710264
O O1 0.173147 0.605427 0.317818
O O2 0.000000 0.500000 0.500000
O O3 0.086290 0.554250 0.662511
O O4 0.898424 0.820646 0.208117
O O5 0.810508 0.796107 0.529722
O O6 0.532504 0.891008 0.447471
O O7 0.638017 0.075793 0.061530
O O8 0.582333 0.108334 0.303172
O O9 0.379574 0.729629 0.681780
O O10 0.120117 0.787507 0.586863
O O11 0.361540 0.435381 0.037324
O O12 0.250872 0.667918 0.968544
O O13 0.891663 0.477836 0.809415
O O14 0.000000 0.500000 0.000000
O O15 0.970051 0.871819 0.856313
O O16 0.908506 0.022162 0.133137
O O17 0.798126 0.134269 0.756890
#
# Coordination Sequence:
#
# PCOD9083422 Si02
#       8
#     2   2   2   2   2   2   2   2
#     4   8  17  32  50  81 120 141 174 223 296 358
#     4  10  20  39  59  78 113 152 198 245 283 331
#     4  11  22  37  56  83 118 153 199 237 280 347
#     4  10  20  31  58  91 117 140 187 244 303 346
#     4  10  23  38  56  78 110 161 206 238 270 330
#     4  10  19  34  55  86 114 150 182 233 303 355
#     4   9  19  36  60  86 116 147 183 239 314 349
#     4  10  21  35  58  90 121 146 181 241 306 366
#
# _framework density 22.030684000000001
#
# number of rings (size 3 to 8) (size 9 to 14) (size 15 to 20)
#    0.000    2.250    1.250    1.125    5.250    0.000 
#    0.000    1.250    0.000    6.000    0.000    0.000 
#    0.000    0.000    0.000    0.000    0.000    0.000 
#
# Total GULP energy -89114.138578 kJ/mol
# GULP energy per Si atom -5569.633661 kJ/mol
# Density = 2.198054 g / cm^3
# Si number density = 22.030684 Si / 1000 Ang^3
#
#
#
# Elastic Constant Matrix: (Units=GPa)
#
#
# Indices 1 2 3 4 5 6 
#
# 1 56.8226 23.9875 18.3198 11.9640 -30.6184 -3.0958
# 2 23.9875 135.4406 52.1037 12.9052 -13.3561 -7.6734
# 3 18.3198 52.1037 77.0152 19.6960 -17.6948 -5.8569
# 4 11.9640 12.9052 19.6960 46.1792 -5.9730 -16.1171
# 5 -30.6184 -13.3561 -17.6948 -5.9730 32.3327 4.6142
# 6 -3.0958 -7.6734 -5.8569 -16.1171 4.6142 24.4366
#
#
#
# Elastic Compliance Matrix: (Units=1/GPa)
#
#
# Indices 1 2 3 4 5 6 
#
# 1 0.039892 -0.004441 0.003747 -0.008728 0.037565 -0.008292
# 2 -0.004441 0.010558 -0.007215 0.001803 -0.003880 0.002946
# 3 0.003747 -0.007215 0.021317 -0.008013 0.011340 -0.004108
# 4 -0.008728 0.001803 -0.008013 0.033012 -0.008800 0.020975
# 5 0.037565 -0.003880 0.011340 -0.008800 0.071337 -0.013016
# 6 -0.008292 0.002946 -0.004108 0.020975 -0.013016 0.056103
#
#
# Mechanical properties :
#
#
# Convention : Reuss Voigt Hill
#
# Bulk Modulus (GPa) = 17.87316 50.90004 34.38660
# Shear Modulus (GPa) = 18.74864 32.24751 25.49808
#
# Velocity S-wave (km/s) = 2.92040 3.83005 3.40573
# Velocity P-wave (km/s) = 4.41612 6.53555 5.57743
#
# Compressibility (1/GPa) = 0.05594980
#
# Stress axis : x y z
#
# Youngs Moduli (GPa) = 25.06745 94.71626 46.91136
#
# Poissons Ratio (x) = 0.42059 -0.17578
# Poissons Ratio (y) = 0.11131 0.33847
# Poissons Ratio (z) = -0.09393 0.68339
#
# Static dielectric constant tensor:
#      x y z
#    x 1.941750 -0.011520 -0.087620 
#    y -0.011520 1.837480 0.038330 
#    z -0.087620 0.038330 1.911900 
# 
# From -- ./inp_files/269461.got.cif
#   From: 2010.05.17/outbox.cif.g08.bks.cpg/sg2_135_cif.got.tgz:269461.got - 2010.06.03 11:33:40.
