data_PCOD9083534
_publ_section_title
;
Structure prediction by ZEFSAII (Michael W. Deem and Ramdas Pophale) SiO2 
 PCOD9083534
Probable space group: P -1
;
_chemical_formula_sum "Si O2"
_cell_formula_units_Z 16
_cell_length_a 13.666882
_cell_length_b 22.504981
_cell_length_c 8.253030
_cell_angle_alpha 116.204258
_cell_angle_beta 73.738618
_cell_angle_gamma 158.894244
_cell_volume 748.621726
_symmetry_space_group_name_H-M "P -1"
_symmetry_group_IT_number 2
_symmetry_cell_setting 'triclinic'
loop_
_space_group_symop_operation_xyz
x,y,z
-x,-y,-z
loop_
_atom_site_type_symbol
_atom_site_label
_atom_site_fract_x
_atom_site_fract_y
_atom_site_fract_z
Si Si1 0.088826 0.809048 0.931520
Si Si2 0.623550 0.102057 0.821681
Si Si3 0.654657 0.437442 0.527261
Si Si4 0.171896 0.296459 0.488416
Si Si5 0.990566 0.936338 0.794329
Si Si6 0.774958 0.712647 0.172078
Si Si7 0.318516 0.195228 0.677208
Si Si8 0.110799 0.728035 0.415785
O O1 0.818083 0.604817 0.719444
O O2 0.373818 0.988750 0.900138
O O3 0.171923 0.808795 0.035859
O O4 0.024701 0.838148 0.086998
O O5 0.815872 0.253280 0.774088
O O6 0.420420 0.924311 0.605410
O O7 0.335895 0.254921 0.370294
O O8 0.577472 0.344194 0.604800
O O9 0.879405 0.548710 0.420869
O O10 0.500000 0.500000 0.500000
O O11 0.006571 0.140575 0.265820
O O12 0.158809 0.259606 0.635156
O O13 0.028710 0.282326 0.549107
O O14 0.264398 0.117306 0.762830
O O15 0.000000 0.000000 0.000000
O O16 0.670712 0.721508 0.181788
O O17 0.500000 0.500000 0.000000
O O18 0.000000 0.000000 0.500000
#
# Coordination Sequence:
#
# PCOD9083534 Si02
#       8
#     2   2   2   2   2   2   2   2
#     4  10  19  34  56  86 116 151 192 238 291 330
#     4   9  20  33  51  88 118 144 194 244 287 329
#     4  10  19  35  54  80 116 151 185 230 281 342
#     4  12  22  36  56  88 120 146 190 233 296 345
#     4  11  24  36  53  85 125 158 183 225 291 359
#     4  12  21  33  59  88 116 148 188 235 287 345
#     4  10  20  37  50  81 126 150 186 219 280 362
#     4  10  19  35  58  83 121 150 185 246 289 325
#
# _framework density 21.372609000000001
#
# number of rings (size 3 to 8) (size 9 to 14) (size 15 to 20)
#    0.000    1.500    6.250    0.000    3.500    1.000 
#    0.000    0.000    0.000    0.000    0.000  110.250 
#    0.000    0.000    0.000    0.000    0.000    0.000 
#
# Total GULP energy -89139.614079 kJ/mol
# GULP energy per Si atom -5571.225880 kJ/mol
# Density = 2.132396 g / cm^3
# Si number density = 21.372609 Si / 1000 Ang^3
#
#
#
# Elastic Constant Matrix: (Units=GPa)
#
#
# Indices 1 2 3 4 5 6 
#
# 1 31.2245 12.4337 21.8604 4.4033 4.5940 -5.7309
# 2 12.4337 175.6130 30.8632 -40.8625 -5.3328 -12.9782
# 3 21.8604 30.8632 86.9183 -14.5044 0.4122 3.1678
# 4 4.4033 -40.8625 -14.5044 44.4101 -3.4663 -1.4523
# 5 4.5940 -5.3328 0.4122 -3.4663 30.5279 6.0060
# 6 -5.7309 -12.9782 3.1678 -1.4523 6.0060 24.6837
#
#
#
# Elastic Compliance Matrix: (Units=1/GPa)
#
#
# Indices 1 2 3 4 5 6 
#
# 1 0.049075 -0.003460 -0.013722 -0.013022 -0.011933 0.013473
# 2 -0.003460 0.008279 -0.000883 0.007960 0.002174 0.003602
# 3 -0.013722 -0.000883 0.016484 0.006008 0.003608 -0.006290
# 4 -0.013022 0.007960 0.006008 0.033660 0.006957 0.000678
# 5 -0.011933 0.002174 0.003608 0.006957 0.037815 -0.010882
# 6 0.013473 0.003602 -0.006290 0.000678 -0.010882 0.049030
#
#
# Mechanical properties :
#
#
# Convention : Reuss Voigt Hill
#
# Bulk Modulus (GPa) = 26.51816 47.11893 36.81855
# Shear Modulus (GPa) = 20.57267 35.16423 27.86845
#
# Velocity S-wave (km/s) = 3.10590 4.06062 3.61492
# Velocity P-wave (km/s) = 5.02958 6.63921 5.88964
#
# Compressibility (1/GPa) = 0.03771001
#
# Stress axis : x y z
#
# Youngs Moduli (GPa) = 20.37686 120.79124 60.66375
#
# Poissons Ratio (x) = 0.41790 0.83241
# Poissons Ratio (y) = 0.07050 0.05356
# Poissons Ratio (z) = 0.27960 0.10664
#
# Static dielectric constant tensor:
#      x y z
#    x 1.802310 0.012680 0.031660 
#    y 0.012680 1.875260 -0.068030 
#    z 0.031660 -0.068030 1.825490 
# 
# From -- ./inp_files/179091.got.cif
#   From: 2010.05.17/outbox.cif.g08.bks.cpg/sg2_90_cif.got.tgz:179091.got - 2010.06.03 11:33:40.
