data_PCOD9083165
_publ_section_title
;
Structure prediction by ZEFSAII (Michael W. Deem and Ramdas Pophale) SiO2 
 PCOD9083165
Probable space group: P -1
;
_chemical_formula_sum "Si O2"
_cell_formula_units_Z 16
_cell_length_a 12.100877
_cell_length_b 14.219386
_cell_length_c 5.019859
_cell_angle_alpha 76.721428
_cell_angle_beta 108.041661
_cell_angle_gamma 89.776518
_cell_volume 796.693843
_symmetry_space_group_name_H-M "P -1"
_symmetry_group_IT_number 2
_symmetry_cell_setting 'triclinic'
loop_
_space_group_symop_operation_xyz
x,y,z
-x,-y,-z
loop_
_atom_site_type_symbol
_atom_site_label
_atom_site_fract_x
_atom_site_fract_y
_atom_site_fract_z
Si Si1 0.421370 0.443604 0.775571
Si Si2 0.051448 0.076949 0.783470
Si Si3 0.157891 0.448470 0.620735
Si Si4 0.237799 0.783429 0.424296
Si Si5 0.004979 0.284959 0.793317
Si Si6 0.372580 0.635658 0.289347
Si Si7 0.171705 0.905853 0.765476
Si Si8 0.871469 0.412614 0.005237
O O1 0.295318 0.419718 0.798506
O O2 0.387556 0.525889 0.477489
O O3 0.507809 0.356060 0.783540
O O4 0.500000 0.500000 0.000000
O O5 0.063784 0.175829 0.887209
O O6 0.955115 0.101373 0.463969
O O7 0.163107 0.018972 0.768317
O O8 0.000000 0.000000 0.000000
O O9 0.087200 0.355057 0.662155
O O10 0.141426 0.506362 0.293639
O O11 0.113852 0.525631 0.762304
O O12 0.345240 0.710392 0.460162
O O13 0.254951 0.855539 0.633790
O O14 0.124445 0.722706 0.424372
O O15 0.198053 0.847136 0.093489
O O16 0.970548 0.332887 0.023545
O O17 0.251403 0.637595 0.036505
#
# Coordination Sequence:
#
# PCOD9083165 Si02
#       8
#     2   2   2   2   2   2   2   2
#     4  10  19  35  53  72 108 140 176 223 258 301
#     4  10  19  36  50  76 109 145 173 215 259 314
#     4  11  22  36  51  76 107 144 174 211 256 310
#     4  10  21  33  53  80 105 135 176 215 262 313
#     4  10  21  34  53  77 107 143 172 210 260 318
#     4   9  20  33  54  77 101 140 177 219 260 305
#     4  10  19  34  51  75 109 134 171 219 260 307
#     4  10  21  36  50  76 108 138 176 210 254 310
#
# _framework density 20.082995
#
# number of rings (size 3 to 8) (size 9 to 14) (size 15 to 20)
#    0.000    2.000    3.750    0.750    1.750    7.000 
#    0.000    0.000    0.000    0.000    0.000    1.750 
#    0.000    0.125    0.000    0.000    0.000    0.000 
#
# Total GULP energy -89247.546409 kJ/mol
# GULP energy per Si atom -5577.971651 kJ/mol
# Density = 2.003729 g / cm^3
# Si number density = 20.082995 Si / 1000 Ang^3
#
#
#
# Elastic Constant Matrix: (Units=GPa)
#
#
# Indices 1 2 3 4 5 6 
#
# 1 125.7237 63.5312 17.5003 1.4801 -4.3513 -26.3278
# 2 63.5312 154.4902 29.0406 -2.3805 -15.2891 -38.7525
# 3 17.5003 29.0406 85.7024 6.7503 -10.9820 1.8492
# 4 1.4801 -2.3805 6.7503 20.4979 -5.0849 -4.9205
# 5 -4.3513 -15.2891 -10.9820 -5.0849 15.2263 5.6492
# 6 -26.3278 -38.7525 1.8492 -4.9205 5.6492 33.8487
#
#
#
# Elastic Compliance Matrix: (Units=1/GPa)
#
#
# Indices 1 2 3 4 5 6 
#
# 1 0.010776 -0.003054 -0.001700 -0.000062 -0.003281 0.005517
# 2 -0.003054 0.012044 -0.003386 0.007210 0.006923 0.011491
# 3 -0.001700 -0.003386 0.014772 -0.005074 0.008076 -0.008092
# 4 -0.000062 0.007210 -0.005074 0.059165 0.018103 0.014063
# 5 -0.003281 0.006923 0.008076 0.018103 0.086084 -0.006803
# 6 0.005517 0.011491 -0.008092 0.014063 -0.006803 0.050612
#
#
# Mechanical properties :
#
#
# Convention : Reuss Voigt Hill
#
# Bulk Modulus (GPa) = 46.92246 65.11783 56.02015
# Shear Modulus (GPa) = 19.46751 30.97087 25.21919
#
# Velocity S-wave (km/s) = 3.11682 3.93127 3.54750
# Velocity P-wave (km/s) = 6.03057 7.28706 6.68839
#
# Compressibility (1/GPa) = 0.02131175
#
# Stress axis : x y z
#
# Youngs Moduli (GPa) = 92.79684 83.02944 67.69530
#
# Poissons Ratio (x) = 0.25354 0.11510
# Poissons Ratio (y) = 0.28336 0.22924
# Poissons Ratio (z) = 0.15778 0.28117
#
# Static dielectric constant tensor:
#      x y z
#    x 1.776450 -0.048390 -0.015590 
#    y -0.048390 1.762450 0.018650 
#    z -0.015590 0.018650 1.860780 
# 
# From -- ./inp_files/75814.got.cif
#   From: 2010.05.17/outbox.cif.g08.bks.cpg/sg2_38_cif.got.tgz:75814.got - 2010.06.03 11:33:40.
