data_PCOD9083052
_publ_section_title
;
Structure prediction by ZEFSAII (Michael W. Deem and Ramdas Pophale) SiO2 
 PCOD9083052
Probable space group: P -1
;
_chemical_formula_sum "Si O2"
_cell_formula_units_Z 14
_cell_length_a 10.732617
_cell_length_b 8.569613
_cell_length_c 17.356137
_cell_angle_alpha 109.974521
_cell_angle_beta 39.908297
_cell_angle_gamma 78.841056
_cell_volume 630.556884
_symmetry_space_group_name_H-M "P -1"
_symmetry_group_IT_number 2
_symmetry_cell_setting 'triclinic'
loop_
_space_group_symop_operation_xyz
x,y,z
-x,-y,-z
loop_
_atom_site_type_symbol
_atom_site_label
_atom_site_fract_x
_atom_site_fract_y
_atom_site_fract_z
Si Si1 0.582966 0.804821 0.209586
Si Si2 0.266612 0.863453 0.235488
Si Si3 0.420052 0.153093 0.485465
Si Si4 0.708258 0.022386 0.914683
Si Si5 0.790626 0.456543 0.811173
Si Si6 0.136750 0.660590 0.905762
Si Si7 0.189986 0.825248 0.765704
O O1 0.321268 0.939272 0.296156
O O2 0.667798 0.574991 0.169114
O O3 0.514462 0.974220 0.339684
O O4 0.869603 0.706215 0.016714
O O5 0.099297 0.797232 0.306375
O O6 0.457560 0.327390 0.095786
O O7 0.149452 0.037643 0.246777
O O8 0.067866 0.394905 0.682854
O O9 0.500000 0.000000 0.500000
O O10 0.580742 0.225220 0.406594
O O11 0.953990 0.874568 0.836811
O O12 0.500000 0.000000 0.000000
O O13 0.598438 0.589366 0.003747
O O14 0.298719 0.635360 0.750843
O O15 0.991415 0.908194 0.061937
#
# Coordination Sequence:
#
# PCOD9083052 Si02
#       7
#     2   2   2   2   2   2   2
#     4  10  20  35  62  86 114 150 202 240 276 351
#     4   9  19  36  62  80 112 154 201 227 278 348
#     4  11  24  37  57  88 124 153 184 247 303 335
#     4  10  19  33  61  83 109 152 197 233 272 354
#     4   9  21  37  57  84 116 150 191 233 293 336
#     4   9  20  34  60  87 113 155 196 237 283 344
#     4  10  20  38  58  86 121 150 193 240 293 339
#
# _framework density 22.202596
#
# number of rings (size 3 to 8) (size 9 to 14) (size 15 to 20)
#    0.857    1.429    0.000    2.571    6.000    0.571 
#    0.000    4.286    0.000   18.000    0.000    0.000 
#    0.000    0.000    0.000    0.000    0.000    0.000 
#
# Total GULP energy -78050.332735 kJ/mol
# GULP energy per Si atom -5575.023767 kJ/mol
# Density = 2.215206 g / cm^3
# Si number density = 22.202596 Si / 1000 Ang^3
#
#
#
# Elastic Constant Matrix: (Units=GPa)
#
#
# Indices 1 2 3 4 5 6 
#
# 1 94.1394 4.7488 10.8807 -16.5193 -2.4943 1.0558
# 2 4.7488 56.1979 8.6927 -25.2432 -0.8910 6.4491
# 3 10.8807 8.6927 65.2159 -18.6506 -11.6930 -0.9055
# 4 -16.5193 -25.2432 -18.6506 28.7468 4.2981 -3.7315
# 5 -2.4943 -0.8910 -11.6930 4.2981 35.5942 -2.6982
# 6 1.0558 6.4491 -0.9055 -3.7315 -2.6982 30.9439
#
#
#
# Elastic Compliance Matrix: (Units=1/GPa)
#
#
# Indices 1 2 3 4 5 6 
#
# 1 0.012231 0.003616 0.000464 0.010543 -0.000165 0.000099
# 2 0.003616 0.031764 0.004113 0.032530 -0.001744 -0.002852
# 3 0.000464 0.004113 0.020393 0.016645 0.004989 0.002166
# 4 0.010543 0.032530 0.016645 0.080964 -0.002536 0.002890
# 5 -0.000165 -0.001744 0.004989 -0.002536 0.030200 0.002843
# 6 0.000099 -0.002852 0.002166 0.002890 0.002843 0.033567
#
#
# Mechanical properties :
#
#
# Convention : Reuss Voigt Hill
#
# Bulk Modulus (GPa) = 12.37994 29.35528 20.86761
# Shear Modulus (GPa) = 22.76283 31.80570 27.28427
#
# Velocity S-wave (km/s) = 3.20540 3.78897 3.50934
# Velocity P-wave (km/s) = 4.39175 5.69140 5.08328
#
# Compressibility (1/GPa) = 0.08077581
#
# Stress axis : x y z
#
# Youngs Moduli (GPa) = 81.75937 31.48195 49.03741
#
# Poissons Ratio (x) = -0.11385 -0.02276
# Poissons Ratio (y) = -0.29567 -0.20171
# Poissons Ratio (z) = -0.03795 -0.12950
#
# Static dielectric constant tensor:
#      x y z
#    x 1.797360 0.056450 0.001930 
#    y 0.056450 1.870610 -0.026450 
#    z 0.001930 -0.026450 1.918850 
# 
# From -- ./inp_files/253167.got.cif
#   From: 2010.05.17/outbox.cif.g08.bks.cpg/sg2_127_cif.got.tgz:253167.got - 2010.06.03 11:33:40.
