data_PCOD9083389
_publ_section_title
;
Structure prediction by ZEFSAII (Michael W. Deem and Ramdas Pophale) SiO2 
 PCOD9083389
Probable space group: P -1
;
_chemical_formula_sum "Si O2"
_cell_formula_units_Z 16
_cell_length_a 18.992192
_cell_length_b 13.279128
_cell_length_c 8.928711
_cell_angle_alpha 117.583645
_cell_angle_beta 59.682055
_cell_angle_gamma 157.874198
_cell_volume 732.063456
_symmetry_space_group_name_H-M "P -1"
_symmetry_group_IT_number 2
_symmetry_cell_setting 'triclinic'
loop_
_space_group_symop_operation_xyz
x,y,z
-x,-y,-z
loop_
_atom_site_type_symbol
_atom_site_label
_atom_site_fract_x
_atom_site_fract_y
_atom_site_fract_z
Si Si1 0.935824 0.174480 0.168877
Si Si2 0.788036 0.546451 0.391718
Si Si3 0.375254 0.897658 0.694379
Si Si4 0.357744 0.806519 0.157305
Si Si5 0.949721 0.839855 0.712532
Si Si6 0.350154 0.381554 0.480615
Si Si7 0.815351 0.908609 0.833993
Si Si8 0.790670 0.196257 0.467161
O O1 0.004530 0.151364 0.169444
O O2 0.807683 0.082768 0.362948
O O3 0.141298 0.495304 0.136062
O O4 0.812833 0.995101 0.029895
O O5 0.732534 0.345780 0.284154
O O6 0.648194 0.478264 0.456252
O O7 0.833737 0.612003 0.565752
O O8 0.983212 0.815384 0.277494
O O9 0.245307 0.815555 0.676715
O O10 0.500000 0.000000 0.500000
O O11 0.526525 0.133975 0.816014
O O12 0.337904 0.897552 0.340432
O O13 0.500000 0.000000 0.000000
O O14 0.147816 0.112589 0.599458
O O15 0.833115 0.808640 0.822971
O O16 0.500000 0.500000 0.500000
O O17 0.336946 0.300563 0.278603
O O18 0.000000 0.500000 0.500000
#
# Coordination Sequence:
#
# PCOD9083389 Si02
#       8
#     2   2   2   2   2   2   2   2
#     4  11  20  37  58  84 117 151 187 239 285 332
#     4   9  17  34  55  76 108 147 185 229 278 337
#     4  10  19  34  55  81 110 149 191 229 278 337
#     4  10  21  37  57  83 113 150 197 238 275 333
#     4   9  18  34  57  81 109 149 188 223 281 350
#     4   9  19  35  56  85 112 141 185 237 285 336
#     4   9  19  35  57  81 108 147 191 226 279 349
#     4   9  20  36  54  79 113 152 190 231 282 332
#
# _framework density 21.856028999999999
#
# number of rings (size 3 to 8) (size 9 to 14) (size 15 to 20)
#    0.000    2.500    0.000    4.875    0.000    2.000 
#    0.000   13.750    0.000    0.000    0.000    0.000 
#    0.000    0.000    0.000    0.000    0.000    0.000 
#
# Total GULP energy -89080.179124 kJ/mol
# GULP energy per Si atom -5567.511195 kJ/mol
# Density = 2.180628 g / cm^3
# Si number density = 21.856029 Si / 1000 Ang^3
#
#
#
# Elastic Constant Matrix: (Units=GPa)
#
#
# Indices 1 2 3 4 5 6 
#
# 1 88.3698 16.6274 22.0551 13.3779 15.9238 16.9234
# 2 16.6274 26.1521 11.0894 3.7299 -1.2551 2.6298
# 3 22.0551 11.0894 110.2789 12.4875 9.1618 4.8363
# 4 13.3779 3.7299 12.4875 33.4602 -0.2422 7.5294
# 5 15.9238 -1.2551 9.1618 -0.2422 28.1945 4.8976
# 6 16.9234 2.6298 4.8363 7.5294 4.8976 34.3872
#
#
#
# Elastic Compliance Matrix: (Units=1/GPa)
#
#
# Indices 1 2 3 4 5 6 
#
# 1 0.016460 -0.009372 -0.000951 -0.004087 -0.008547 -0.005138
# 2 -0.009372 0.046042 -0.003456 -0.000127 0.008394 0.000410
# 3 -0.000951 -0.003456 0.010196 -0.003156 -0.003030 0.000421
# 4 -0.004087 -0.000127 -0.003156 0.034014 0.004600 -0.005638
# 5 -0.008547 0.008394 -0.003030 0.004600 0.042219 -0.003030
# 6 -0.005138 0.000410 0.000421 -0.005638 -0.003030 0.033185
#
#
# Mechanical properties :
#
#
# Convention : Reuss Voigt Hill
#
# Bulk Modulus (GPa) = 22.15416 36.03830 29.09623
# Shear Modulus (GPa) = 22.24967 30.87696 26.56332
#
# Velocity S-wave (km/s) = 3.19409 3.76273 3.49001
# Velocity P-wave (km/s) = 4.87456 5.94998 5.43891
#
# Compressibility (1/GPa) = 0.04513825
#
# Stress axis : x y z
#
# Youngs Moduli (GPa) = 60.75458 21.71925 98.07350
#
# Poissons Ratio (x) = 0.20356 0.09329
# Poissons Ratio (y) = 0.56941 0.33899
# Poissons Ratio (z) = 0.05779 0.07507
#
# Static dielectric constant tensor:
#      x y z
#    x 1.893630 0.009030 -0.001660 
#    y 0.009030 1.872710 0.039740 
#    z -0.001660 0.039740 1.815710 
# 
# From -- ./inp_files/243053.got.cif
#   From: 2010.05.17/outbox.cif.g08.bks.cpg/sg2_122_cif.got.tgz:243053.got - 2010.06.03 11:33:40.
