data_PCOD9083991
_publ_section_title
;
Structure prediction by ZEFSAII (Michael W. Deem and Ramdas Pophale) SiO2 
 PCOD9083991
Probable space group: P -1
;
_chemical_formula_sum "Si O2"
_cell_formula_units_Z 16
_cell_length_a 5.502788
_cell_length_b 19.042621
_cell_length_c 9.065088
_cell_angle_alpha 126.131808
_cell_angle_beta 80.538154
_cell_angle_gamma 68.521251
_cell_volume 615.786390
_symmetry_space_group_name_H-M "P -1"
_symmetry_group_IT_number 2
_symmetry_cell_setting 'triclinic'
loop_
_space_group_symop_operation_xyz
x,y,z
-x,-y,-z
loop_
_atom_site_type_symbol
_atom_site_label
_atom_site_fract_x
_atom_site_fract_y
_atom_site_fract_z
Si Si1 0.401601 0.464736 0.828844
Si Si2 0.193334 0.151319 0.323003
Si Si3 0.615875 0.176146 0.476736
Si Si4 0.965217 0.052918 0.728764
Si Si5 0.375345 0.088856 0.895962
Si Si6 0.290662 0.618663 0.598972
Si Si7 0.253888 0.374409 0.276639
Si Si8 0.756865 0.649753 0.074830
O O1 0.659461 0.402381 0.605265
O O2 0.290842 0.397874 0.831326
O O3 0.500000 0.500000 0.000000
O O4 0.115531 0.573328 0.921503
O O5 0.368144 0.204064 0.412296
O O6 0.849288 0.207920 0.477466
O O7 0.385984 0.039286 0.254832
O O8 0.209759 0.130883 0.122002
O O9 0.419439 0.227813 0.709325
O O10 0.851611 0.048395 0.304777
O O11 0.608836 0.120114 0.881598
O O12 0.000000 0.000000 0.500000
O O13 0.143388 0.106502 0.811334
O O14 0.500000 0.500000 0.500000
O O15 0.460448 0.669888 0.701355
O O16 0.948046 0.670834 0.743497
O O17 0.000000 0.500000 0.500000
O O18 0.361730 0.363346 0.083591
#
# Coordination Sequence:
#
# PCOD9083991 Si02
#       8
#     2   2   2   2   2   2   2   2
#     4  11  23  37  61  87 111 155 206 252 294 360
#     4   9  18  35  57  86 111 148 195 230 287 347
#     4  10  22  36  57  85 119 151 184 247 298 341
#     4  10  19  34  59  88 118 153 196 231 275 348
#     4   9  17  32  60  85 111 153 193 232 271 343
#     4  10  19  35  58  80 107 138 194 239 285 343
#     4  10  19  36  58  81 105 150 196 235 287 362
#     4  11  24  37  60  87 118 155 201 255 306 350
#
# _framework density 25.983035999999998
#
# number of rings (size 3 to 8) (size 9 to 14) (size 15 to 20)
#    0.000    2.000    2.500    2.625    3.500    3.000 
#    0.000    0.000    8.250    0.000    0.000    0.000 
#    0.000    0.000    0.000    0.000    0.000    0.000 
#
# Total GULP energy -89417.663039 kJ/mol
# GULP energy per Si atom -5588.603940 kJ/mol
# Density = 2.592390 g / cm^3
# Si number density = 25.983036 Si / 1000 Ang^3
#
#
#
# Elastic Constant Matrix: (Units=GPa)
#
#
# Indices 1 2 3 4 5 6 
#
# 1 202.0176 34.5085 42.9032 -16.2747 2.4215 -36.2236
# 2 34.5085 62.3381 13.4106 -0.5817 -4.9540 -7.1556
# 3 42.9032 13.4106 115.5404 -22.5992 -10.3243 -27.0312
# 4 -16.2747 -0.5817 -22.5992 44.1778 -12.6007 3.9372
# 5 2.4215 -4.9540 -10.3243 -12.6007 45.9344 -9.5460
# 6 -36.2236 -7.1556 -27.0312 3.9372 -9.5460 31.2794
#
#
#
# Elastic Compliance Matrix: (Units=1/GPa)
#
#
# Indices 1 2 3 4 5 6 
#
# 1 0.006965 -0.002850 0.000174 0.002392 0.001634 0.007762
# 2 -0.002850 0.018027 -0.000847 -0.000787 0.001845 0.000754
# 3 0.000174 -0.000847 0.014355 0.008542 0.008355 0.013888
# 4 0.002392 -0.000787 0.008542 0.030453 0.012106 0.009833
# 5 0.001634 0.001845 0.008355 0.012106 0.030693 0.017378
# 6 0.007762 0.000754 0.013888 0.009833 0.017378 0.057199
#
#
# Mechanical properties :
#
#
# Convention : Reuss Voigt Hill
#
# Bulk Modulus (GPa) = 30.95743 62.39342 46.67542
# Shear Modulus (GPa) = 28.48929 43.54990 36.01960
#
# Velocity S-wave (km/s) = 3.31487 4.09845 3.72731
# Velocity P-wave (km/s) = 5.15670 6.81628 6.04372
#
# Compressibility (1/GPa) = 0.03230243
#
# Stress axis : x y z
#
# Youngs Moduli (GPa) = 143.58082 55.47192 69.66125
#
# Poissons Ratio (x) = 0.15809 -0.01214
# Poissons Ratio (y) = 0.40918 0.05899
# Poissons Ratio (z) = -0.02503 0.04697
#
# Static dielectric constant tensor:
#      x y z
#    x 2.665660 -0.233430 0.025810 
#    y -0.233430 2.341530 0.057490 
#    z 0.025810 0.057490 2.094340 
# 
# From -- ./inp_files/39858.got.cif
#   From: 2010.05.17/outbox.cif.g08.bks.cpg/sg2_20_cif.got.tgz:39858.got - 2010.06.03 11:33:40.
