data_PCOD9083897
_publ_section_title
;
Structure prediction by ZEFSAII (Michael W. Deem and Ramdas Pophale) SiO2 
 PCOD9083897
Probable space group: P -1
;
_chemical_formula_sum "Si O2"
_cell_formula_units_Z 16
_cell_length_a 11.577813
_cell_length_b 9.083093
_cell_length_c 9.772634
_cell_angle_alpha 99.426523
_cell_angle_beta 131.813557
_cell_angle_gamma 78.056858
_cell_volume 748.923011
_symmetry_space_group_name_H-M "P -1"
_symmetry_group_IT_number 2
_symmetry_cell_setting 'triclinic'
loop_
_space_group_symop_operation_xyz
x,y,z
-x,-y,-z
loop_
_atom_site_type_symbol
_atom_site_label
_atom_site_fract_x
_atom_site_fract_y
_atom_site_fract_z
Si Si1 0.307067 0.681245 0.215239
Si Si2 0.651909 0.942758 0.279893
Si Si3 0.189289 0.889790 0.784633
Si Si4 0.831221 0.588541 0.838957
Si Si5 0.012129 0.213810 0.191975
Si Si6 0.482907 0.667121 0.072499
Si Si7 0.328849 0.111787 0.119614
Si Si8 0.711995 0.004310 0.643534
O O1 0.286660 0.534008 0.263252
O O2 0.437586 0.661253 0.196992
O O3 0.325418 0.817482 0.351102
O O4 0.145731 0.732383 0.010002
O O5 0.617379 0.776869 0.181001
O O6 0.684367 0.937418 0.465089
O O7 0.786162 0.015077 0.316407
O O8 0.490060 0.060847 0.157604
O O9 0.040406 0.810288 0.697409
O O10 0.334834 0.759720 0.893909
O O11 0.212825 0.007562 0.943235
O O12 0.759071 0.720042 0.907326
O O13 0.868372 0.668874 0.738412
O O14 0.000000 0.500000 0.000000
O O15 0.105975 0.055692 0.196177
O O16 0.500000 0.500000 0.000000
O O17 0.368440 0.059035 0.298258
#
# Coordination Sequence:
#
# PCOD9083897 Si02
#       8
#     2   2   2   2   2   2   2   2
#     4  10  19  34  58  93 107 148 198 244 283 338
#     4  11  23  37  57  90 119 151 193 232 294 348
#     4  10  21  37  59  83 112 157 199 233 278 346
#     4   9  20  31  57  89 112 138 193 249 285 323
#     4   9  19  37  58  81 115 151 197 240 279 340
#     4  10  21  37  60  84 119 151 193 235 286 348
#     4  10  19  36  60  82 116 151 190 242 281 343
#     4  11  20  36  62  84 118 150 190 244 289 340
#
# _framework density 21.364013
#
# number of rings (size 3 to 8) (size 9 to 14) (size 15 to 20)
#    0.000    2.000    3.750    2.250    7.000    0.500 
#    0.000    3.125    0.000    3.750    0.000    0.000 
#    0.000    0.000    0.000    0.000    0.000    0.000 
#
# Total GULP energy -89133.623652 kJ/mol
# GULP energy per Si atom -5570.851478 kJ/mol
# Density = 2.131539 g / cm^3
# Si number density = 21.364013 Si / 1000 Ang^3
#
#
#
# Elastic Constant Matrix: (Units=GPa)
#
#
# Indices 1 2 3 4 5 6 
#
# 1 108.9352 39.5251 9.2833 -9.0501 -19.0758 24.0169
# 2 39.5251 153.9017 23.7675 19.1657 -12.5001 -8.6656
# 3 9.2833 23.7675 49.0834 1.0502 -18.9191 3.2902
# 4 -9.0501 19.1657 1.0502 16.9793 0.7992 -6.9292
# 5 -19.0758 -12.5001 -18.9191 0.7992 24.9876 -7.8336
# 6 24.0169 -8.6656 3.2902 -6.9292 -7.8336 32.8408
#
#
#
# Elastic Compliance Matrix: (Units=1/GPa)
#
#
# Indices 1 2 3 4 5 6 
#
# 1 0.015077 -0.005460 0.003344 0.010048 0.008259 -0.008712
# 2 -0.005460 0.010310 -0.004124 -0.012477 -0.000351 0.004410
# 3 0.003344 -0.004124 0.030783 0.003304 0.023600 -0.000292
# 4 0.010048 -0.012477 0.003304 0.080785 0.003514 0.006912
# 5 0.008259 -0.000351 0.023600 0.003514 0.066443 0.008093
# 6 -0.008712 0.004410 -0.000292 0.006912 0.008093 0.041403
#
#
# Mechanical properties :
#
#
# Convention : Reuss Voigt Hill
#
# Bulk Modulus (GPa) = 22.88712 50.78578 36.83645
# Shear Modulus (GPa) = 18.39285 30.91783 24.65534
#
# Velocity S-wave (km/s) = 2.93734 3.80832 3.40083
# Velocity P-wave (km/s) = 4.71594 6.56971 5.71844
#
# Compressibility (1/GPa) = 0.04369269
#
# Stress axis : x y z
#
# Youngs Moduli (GPa) = 66.32431 96.99078 32.48497
#
# Poissons Ratio (x) = 0.52955 -0.10864
# Poissons Ratio (y) = 0.36212 0.13396
# Poissons Ratio (z) = -0.22181 0.39997
#
# Static dielectric constant tensor:
#      x y z
#    x 1.871060 0.020500 0.035780 
#    y 0.020500 1.783610 -0.035530 
#    z 0.035780 -0.035530 1.801420 
# 
# From -- ./inp_files/185882.got.cif
#   From: 2010.05.17/outbox.cif.g08.bks.cpg/sg2_93_cif.got.tgz:185882.got - 2010.06.03 11:33:40.
