data_PCOD9083298
_publ_section_title
;
Structure prediction by ZEFSAII (Michael W. Deem and Ramdas Pophale) SiO2 
 PCOD9083298
Probable space group: P -1
;
_chemical_formula_sum "Si O2"
_cell_formula_units_Z 16
_cell_length_a 15.438099
_cell_length_b 7.159939
_cell_length_c 10.788220
_cell_angle_alpha 80.399535
_cell_angle_beta 66.942760
_cell_angle_gamma 41.088878
_cell_volume 704.681727
_symmetry_space_group_name_H-M "P -1"
_symmetry_group_IT_number 2
_symmetry_cell_setting 'triclinic'
loop_
_space_group_symop_operation_xyz
x,y,z
-x,-y,-z
loop_
_atom_site_type_symbol
_atom_site_label
_atom_site_fract_x
_atom_site_fract_y
_atom_site_fract_z
Si Si1 0.927180 0.238619 0.844890
Si Si2 0.188271 0.046631 0.350865
Si Si3 0.132159 0.238898 0.094398
Si Si4 0.884699 0.405627 0.580308
Si Si5 0.199711 0.314189 0.809510
Si Si6 0.770970 0.315877 0.152537
Si Si7 0.643116 0.857773 0.499271
Si Si8 0.523974 0.381943 0.636957
O O1 0.893071 0.503658 0.879841
O O2 0.883518 0.291739 0.720916
O O3 0.839363 0.234869 0.986350
O O4 0.097962 0.954016 0.803909
O O5 0.202879 0.034599 0.195676
O O6 0.149243 0.321883 0.390426
O O7 0.044414 0.155952 0.460468
O O8 0.337617 0.741759 0.358361
O O9 0.972474 0.398883 0.144656
O O10 0.212819 0.138412 0.929563
O O11 0.763137 0.543438 0.531306
O O12 0.260877 0.421674 0.810123
O O13 0.270828 0.161316 0.654798
O O14 0.627896 0.410027 0.232959
O O15 0.500000 0.000000 0.500000
O O16 0.580389 0.084257 0.615881
O O17 0.500000 0.500000 0.500000
#
# Coordination Sequence:
#
# PCOD9083298 Si02
#       8
#     2   2   2   2   2   2   2   2
#     4   9  19  35  57  79 104 140 177 220 255 306
#     4   9  17  32  53  79 103 132 181 223 245 304
#     4   9  18  34  59  81  98 140 182 212 256 310
#     4   9  17  32  55  77 100 139 180 211 258 307
#     4  10  19  34  54  81 107 137 173 213 265 314
#     4  10  20  36  52  81 110 135 175 218 264 312
#     4  11  21  37  54  78 112 137 170 222 265 315
#     4  11  23  35  55  79 105 140 178 218 266 308
#
# _framework density 22.705285
#
# number of rings (size 3 to 8) (size 9 to 14) (size 15 to 20)
#    0.000    2.250    2.500    0.750    3.500    0.000 
#    2.250    4.375    0.000    0.750    0.000    0.000 
#    0.000    0.000    0.000    0.000    0.000    0.000 
#
# Total GULP energy -89378.878487 kJ/mol
# GULP energy per Si atom -5586.179905 kJ/mol
# Density = 2.265361 g / cm^3
# Si number density = 22.705285 Si / 1000 Ang^3
#
#
#
# Elastic Constant Matrix: (Units=GPa)
#
#
# Indices 1 2 3 4 5 6 
#
# 1 70.9439 50.2926 39.5383 -2.1735 -10.0845 -25.1932
# 2 50.2926 123.8885 84.7124 -9.0032 -12.4768 -49.5736
# 3 39.5383 84.7124 148.4150 -2.6611 -4.4468 -39.2904
# 4 -2.1735 -9.0032 -2.6611 40.4635 -6.1650 13.7435
# 5 -10.0845 -12.4768 -4.4468 -6.1650 29.9580 2.2509
# 6 -25.1932 -49.5736 -39.2904 13.7435 2.2509 50.7619
#
#
#
# Elastic Compliance Matrix: (Units=1/GPa)
#
#
# Indices 1 2 3 4 5 6 
#
# 1 0.020706 -0.005792 -0.001087 -0.000966 0.003907 0.003868
# 2 -0.005792 0.019999 -0.006808 0.000668 0.004680 0.010998
# 3 -0.001087 -0.006808 0.011414 -0.001903 -0.002068 0.002253
# 4 -0.000966 0.000668 -0.001903 0.028835 0.006310 -0.009386
# 5 0.003907 0.004680 -0.002068 0.006310 0.037521 0.001537
# 6 0.003868 0.010998 0.002253 -0.009386 0.001537 0.036577
#
#
# Mechanical properties :
#
#
# Convention : Reuss Voigt Hill
#
# Bulk Modulus (GPa) = 40.41124 76.92598 58.66861
# Shear Modulus (GPa) = 26.22272 35.48362 30.85317
#
# Velocity S-wave (km/s) = 3.40209 3.95750 3.69026
# Velocity P-wave (km/s) = 5.76794 7.40515 6.63722
#
# Compressibility (1/GPa) = 0.02474559
#
# Stress axis : x y z
#
# Youngs Moduli (GPa) = 48.29423 50.00192 87.61275
#
# Poissons Ratio (x) = 0.28960 0.09522
# Poissons Ratio (y) = 0.27971 0.59650
# Poissons Ratio (z) = 0.05249 0.34043
#
# Static dielectric constant tensor:
#      x y z
#    x 1.975950 0.049120 0.021210 
#    y 0.049120 1.884910 0.001210 
#    z 0.021210 0.001210 1.824330 
# 
# From -- ./inp_files/284136.got.cif
#   From: 2010.05.17/outbox.cif.g08.bks.cpg/sg2_143_cif.got.tgz:284136.got - 2010.06.03 11:33:40.
