data_PCOD9083941
_publ_section_title
;
Structure prediction by ZEFSAII (Michael W. Deem and Ramdas Pophale) SiO2 
 PCOD9083941
Probable space group: P -1
;
_chemical_formula_sum "Si O2"
_cell_formula_units_Z 14
_cell_length_a 8.512516
_cell_length_b 5.463723
_cell_length_c 17.917096
_cell_angle_alpha 128.788585
_cell_angle_beta 91.575700
_cell_angle_gamma 95.099448
_cell_volume 643.250745
_symmetry_space_group_name_H-M "P -1"
_symmetry_group_IT_number 2
_symmetry_cell_setting 'triclinic'
loop_
_space_group_symop_operation_xyz
x,y,z
-x,-y,-z
loop_
_atom_site_type_symbol
_atom_site_label
_atom_site_fract_x
_atom_site_fract_y
_atom_site_fract_z
Si Si1 0.925120 0.740219 0.598261
Si Si2 0.085479 0.564853 0.307525
Si Si3 0.029757 0.675662 0.896425
Si Si4 0.318426 0.008902 0.010802
Si Si5 0.766365 0.284947 0.884259
Si Si6 0.461081 0.772922 0.385703
Si Si7 0.589180 0.845181 0.669945
O O1 0.976495 0.649040 0.664384
O O2 0.730147 0.714814 0.597098
O O3 0.000000 0.500000 0.500000
O O4 0.978761 0.099663 0.640917
O O5 0.273263 0.664166 0.345076
O O6 0.053417 0.378649 0.194497
O O7 0.954293 0.378188 0.888305
O O8 0.217594 0.745897 0.906850
O O9 0.000000 0.000000 0.000000
O O10 0.289554 0.367691 0.059072
O O11 0.273833 0.887354 0.071191
O O12 0.500000 0.000000 0.000000
O O13 0.685217 0.069230 0.775415
O O14 0.516143 0.442343 0.345247
O O15 0.500000 0.000000 0.500000
O O16 0.513631 0.963112 0.348329
#
# Coordination Sequence:
#
# PCOD9083941 Si02
#       7
#     2   2   2   2   2   2   2
#     4  10  20  35  61  84 124 161 203 266 330 364
#     4  10  21  37  60  89 126 159 214 264 316 382
#     4  10  22  39  71 101 126 174 225 269 321 394
#     4  11  25  41  65  94 140 168 215 267 339 384
#     4  11  21  41  69  95 125 177 220 269 314 396
#     4  10  19  34  59  84 121 153 201 266 323 356
#     4  10  20  35  63  88 121 158 218 261 316 378
#
# _framework density 21.764451999999999
#
# number of rings (size 3 to 8) (size 9 to 14) (size 15 to 20)
#    0.000    1.714    2.857    2.571    6.000    2.286 
#    0.000    0.000   37.714    0.000    0.000    0.000 
#    0.000    0.000    0.000    0.000    0.000    0.000 
#
# Total GULP energy -78079.323184 kJ/mol
# GULP energy per Si atom -5577.094513 kJ/mol
# Density = 2.171491 g / cm^3
# Si number density = 21.764452 Si / 1000 Ang^3
#
#
#
# Elastic Constant Matrix: (Units=GPa)
#
#
# Indices 1 2 3 4 5 6 
#
# 1 57.3958 18.8804 21.0331 3.0472 10.6768 4.9391
# 2 18.8804 194.7747 36.1396 0.4119 0.6874 -20.1007
# 3 21.0331 36.1396 113.2162 -2.7016 25.3815 -3.2917
# 4 3.0472 0.4119 -2.7016 39.5917 -4.8954 -0.0131
# 5 10.6768 0.6874 25.3815 -4.8954 34.9508 5.5457
# 6 4.9391 -20.1007 -3.2917 -0.0131 5.5457 18.0999
#
#
#
# Elastic Compliance Matrix: (Units=1/GPa)
#
#
# Indices 1 2 3 4 5 6 
#
# 1 0.020523 -0.002271 -0.002584 -0.002162 -0.003456 -0.007535
# 2 -0.002271 0.006385 -0.001522 0.000072 0.000530 0.007271
# 3 -0.002584 -0.001522 0.011771 -0.000009 -0.008318 0.003704
# 4 -0.002162 0.000072 -0.000009 0.025968 0.004408 -0.000663
# 5 -0.003456 0.000530 -0.008318 0.004408 0.038167 -0.011672
# 6 -0.007535 0.007271 0.003704 -0.000663 -0.011672 0.069630
#
#
# Mechanical properties :
#
#
# Convention : Reuss Voigt Hill
#
# Bulk Modulus (GPa) = 38.57214 57.49920 48.03567
# Shear Modulus (GPa) = 25.79483 37.81738 31.80611
#
# Velocity S-wave (km/s) = 3.44638 4.17295 3.82695
# Velocity P-wave (km/s) = 5.79636 7.04941 6.45337
#
# Compressibility (1/GPa) = 0.02592545
#
# Stress axis : x y z
#
# Youngs Moduli (GPa) = 48.72658 156.61655 84.95695
#
# Poissons Ratio (x) = 0.35564 0.21951
# Poissons Ratio (y) = 0.11065 0.12930
# Poissons Ratio (z) = 0.12590 0.23835
#
# Static dielectric constant tensor:
#      x y z
#    x 1.913510 -0.027150 0.004340 
#    y -0.027150 1.893180 0.002300 
#    z 0.004340 0.002300 1.793060 
# 
# From -- ./inp_files/104720.got.cif
#   From: 2010.05.17/outbox.cif.g08.bks.cpg/sg2_53_cif.got.tgz:104720.got - 2010.06.03 11:33:40.
