data_PCOD9083208
_publ_section_title
;
Structure prediction by ZEFSAII (Michael W. Deem and Ramdas Pophale) SiO2 
 PCOD9083208
Probable space group: P -1
;
_chemical_formula_sum "Si O2"
_cell_formula_units_Z 16
_cell_length_a 6.068088
_cell_length_b 7.264831
_cell_length_c 18.760974
_cell_angle_alpha 66.453201
_cell_angle_beta 65.810262
_cell_angle_gamma 54.910614
_cell_volume 602.242937
_symmetry_space_group_name_H-M "P -1"
_symmetry_group_IT_number 2
_symmetry_cell_setting 'triclinic'
loop_
_space_group_symop_operation_xyz
x,y,z
-x,-y,-z
loop_
_atom_site_type_symbol
_atom_site_label
_atom_site_fract_x
_atom_site_fract_y
_atom_site_fract_z
Si Si1 0.443664 0.807102 0.162467
Si Si2 0.879168 0.856094 0.955484
Si Si3 0.573970 0.154541 0.176301
Si Si4 0.617912 0.348905 0.273713
Si Si5 0.974877 0.258451 0.682839
Si Si6 0.222546 0.505861 0.065576
Si Si7 0.763150 0.436841 0.383272
Si Si8 0.110136 0.681149 0.465394
O O1 0.371025 0.899091 0.076676
O O2 0.531993 0.955864 0.177419
O O3 0.639138 0.534260 0.189264
O O4 0.152723 0.852225 0.229243
O O5 0.829505 0.676525 0.943458
O O6 0.157334 0.852819 0.893094
O O7 0.962253 0.754219 0.040436
O O8 0.613891 0.153969 0.255848
O O9 0.307545 0.400268 0.149603
O O10 0.813119 0.315582 0.319020
O O11 0.309136 0.490875 0.323477
O O12 0.182457 0.347123 0.664765
O O13 0.029723 0.160082 0.610199
O O14 0.500000 0.500000 0.000000
O O15 0.439097 0.559410 0.427818
O O16 0.926899 0.264749 0.453550
O O17 0.000000 0.500000 0.500000
#
# Coordination Sequence:
#
# PCOD9083208 Si02
#       8
#     2   2   2   2   2   2   2   2
#     4   9  20  32  49  76 105 130 162 209 247 293
#     4   9  17  31  54  75  94 134 170 199 251 295
#     4  10  19  34  53  74 103 132 165 204 249 296
#     4   9  20  32  48  77 105 131 162 206 248 295
#     4   8  17  30  48  73 102 129 166 205 246 291
#     4   8  16  32  52  72  97 130 169 206 241 296
#     4   9  15  27  49  72  99 132 168 202 242 298
#     4   8  14  26  45  74  96 129 171 203 243 291
#
# _framework density 26.567354000000002
#
# number of rings (size 3 to 8) (size 9 to 14) (size 15 to 20)
#    0.750    2.500    0.000    0.000    1.750    2.000 
#    0.000    0.625    0.000   26.250    0.000   13.125 
#    0.000    0.000    0.000    0.000    0.000    0.000 
#
# Total GULP energy -89278.427965 kJ/mol
# GULP energy per Si atom -5579.901748 kJ/mol
# Density = 2.650689 g / cm^3
# Si number density = 26.567354 Si / 1000 Ang^3
#
#
#
# Elastic Constant Matrix: (Units=GPa)
#
#
# Indices 1 2 3 4 5 6 
#
# 1 150.7199 48.2313 46.5864 -0.7890 -3.5967 35.4616
# 2 48.2313 89.0348 43.6543 -9.3243 7.0395 25.1763
# 3 46.5864 43.6543 133.5078 3.3278 19.8410 24.7286
# 4 -0.7890 -9.3243 3.3278 27.6660 13.8766 -1.7259
# 5 -3.5967 7.0395 19.8410 13.8766 56.0887 -5.1031
# 6 35.4616 25.1763 24.7286 -1.7259 -5.1031 34.2681
#
#
#
# Elastic Compliance Matrix: (Units=1/GPa)
#
#
# Indices 1 2 3 4 5 6 
#
# 1 0.009568 -0.002912 -0.001279 -0.001582 0.001210 -0.006739
# 2 -0.002912 0.017616 -0.002837 0.007717 -0.004040 -0.008095
# 3 -0.001279 -0.002837 0.010263 -0.000708 -0.003597 -0.004570
# 4 -0.001582 0.007717 -0.000708 0.044692 -0.012157 -0.003081
# 5 0.001210 -0.004040 -0.003597 -0.012157 0.023346 0.007176
# 6 -0.006739 -0.008095 -0.004570 -0.003081 0.007176 0.046313
#
#
# Mechanical properties :
#
#
# Convention : Reuss Voigt Hill
#
# Bulk Modulus (GPa) = 42.74916 72.24516 57.49716
# Shear Modulus (GPa) = 28.79346 39.25726 34.02536
#
# Velocity S-wave (km/s) = 3.29567 3.84819 3.58260
# Velocity P-wave (km/s) = 5.53242 6.85544 6.22915
#
# Compressibility (1/GPa) = 0.02339227
#
# Stress axis : x y z
#
# Youngs Moduli (GPa) = 104.51547 56.76508 97.44200
#
# Poissons Ratio (x) = 0.16530 0.12460
# Poissons Ratio (y) = 0.30434 0.27641
# Poissons Ratio (z) = 0.13364 0.16102
#
# Static dielectric constant tensor:
#      x y z
#    x 2.097050 -0.072590 0.065090 
#    y -0.072590 2.208490 -0.059380 
#    z 0.065090 -0.059380 2.172360 
# 
# From -- ./inp_files/581568.got.cif
#   From: 2010.05.17/outbox.cif.g08.bks.cpg/sg2_291_cif.got.tgz:581568.got - 2010.06.03 11:33:40.
