data_PCOD9083387
_publ_section_title
;
Structure prediction by ZEFSAII (Michael W. Deem and Ramdas Pophale) SiO2 
 PCOD9083387
Probable space group: P -1
;
_chemical_formula_sum "Si O2"
_cell_formula_units_Z 14
_cell_length_a 7.428054
_cell_length_b 19.282122
_cell_length_c 9.284745
_cell_angle_alpha 133.725211
_cell_angle_beta 143.129760
_cell_angle_gamma 57.399526
_cell_volume 576.312545
_symmetry_space_group_name_H-M "P -1"
_symmetry_group_IT_number 2
_symmetry_cell_setting 'triclinic'
loop_
_space_group_symop_operation_xyz
x,y,z
-x,-y,-z
loop_
_atom_site_type_symbol
_atom_site_label
_atom_site_fract_x
_atom_site_fract_y
_atom_site_fract_z
Si Si1 0.644993 0.201289 0.302168
Si Si2 0.378200 0.678348 0.017755
Si Si3 0.638192 0.503748 0.755631
Si Si4 0.284158 0.982558 0.473921
Si Si5 0.661827 0.671155 0.506967
Si Si6 0.294641 0.203863 0.806028
Si Si7 0.779672 0.985166 0.977822
O O1 0.442452 0.231438 0.346980
O O2 0.697903 0.090350 0.135735
O O3 0.976324 0.243984 0.614158
O O4 0.481268 0.243982 0.118594
O O5 0.528770 0.600041 0.900129
O O6 0.020946 0.666654 0.750298
O O7 0.521094 0.666653 0.250256
O O8 0.489962 0.781099 0.171846
O O9 0.500000 0.500000 0.500000
O O10 0.489358 0.415623 0.623370
O O11 0.000000 0.500000 0.000000
O O12 0.225671 0.092413 0.638856
O O13 0.974918 0.937258 0.156260
O O14 0.500000 0.000000 0.500000
O O15 0.474230 0.937247 0.655581
O O16 0.000000 0.000000 0.000000
#
# Coordination Sequence:
#
# PCOD9083387 Si02
#       7
#     2   2   2   2   2   2   2
#     4  10  19  34  55  81 108 142 190 232 269 325
#     4  12  24  39  57  84 118 151 182 227 288 342
#     4  12  24  42  64  84 110 148 194 238 270 324
#     4   8  14  25  45  75 101 128 172 230 271 304
#     4  12  24  39  57  84 118 151 182 227 288 342
#     4  10  19  34  55  81 108 142 190 232 269 325
#     4   8  14  25  45  75 101 128 172 230 271 304
#
# _framework density 24.292373999999999
#
# number of rings (size 3 to 8) (size 9 to 14) (size 15 to 20)
#    0.000    1.714    0.000    6.000    0.000    0.000 
#    0.000    0.000    0.000    0.000    0.000   96.000 
#    0.000    0.000    0.000    0.000    0.000    0.000 
#
# Total GULP energy -78233.638484 kJ/mol
# GULP energy per Si atom -5588.117035 kJ/mol
# Density = 2.423708 g / cm^3
# Si number density = 24.292374 Si / 1000 Ang^3
#
#
#
# Elastic Constant Matrix: (Units=GPa)
#
#
# Indices 1 2 3 4 5 6 
#
# 1 116.0946 66.1446 89.6547 -23.4977 -15.9636 -12.2709
# 2 66.1446 58.8038 124.6766 11.8465 -18.4973 -5.9718
# 3 89.6547 124.6766 228.9204 -120.1185 5.8449 3.6942
# 4 -23.4977 11.8465 -120.1185 38.7001 14.1846 -4.9440
# 5 -15.9636 -18.4973 5.8449 14.1846 57.3140 -3.6080
# 6 -12.2709 -5.9718 3.6942 -4.9440 -3.6080 59.4632
#
#
#
# Elastic Compliance Matrix: (Units=1/GPa)
#
#
# Indices 1 2 3 4 5 6 
#
# 1 0.015939 -0.006518 -0.004408 -0.003001 0.003710 0.002884
# 2 -0.006518 0.007277 0.006155 0.014241 -0.003621 -0.000032
# 3 -0.004408 0.006155 0.000153 -0.004861 0.001909 -0.000589
# 4 -0.003001 0.014241 -0.004861 0.003496 0.003492 0.001616
# 5 0.003710 -0.003621 0.001909 0.003492 0.016352 0.001566
# 6 0.002884 -0.000032 -0.000589 0.001616 0.001566 0.017675
#
#
# Mechanical properties :
#
#
# Convention : Reuss Voigt Hill
#
# Bulk Modulus (GPa) = 72.32920 107.19672 89.76296
# Shear Modulus (GPa) = 66.62667 39.31832 52.97249
#
# Velocity S-wave (km/s) = 5.24276 4.02748 4.67478
# Velocity P-wave (km/s) = 8.15400 8.11486 8.13446
#
# Compressibility (1/GPa) = 0.01382568
#
# Stress axis : x y z
#
# Youngs Moduli (GPa) = 62.73791 137.41370 6544.07367
#
# Poissons Ratio (x) = 0.89568 28.84851
# Poissons Ratio (y) = 0.40894 -40.27629
# Poissons Ratio (z) = 0.27657 -0.84573
#
# Static dielectric constant tensor:
#      x y z
#    x 1.912660 -0.004660 -0.003460 
#    y -0.004660 1.935640 0.004660 
#    z -0.003460 0.004660 1.928940 
# 
# From -- ./inp_files/7507.got.cif
#   From: 2010.05.17/outbox.cif.g08.bks.cpg/sg2_4_cif.got.tgz:7507.got - 2010.06.03 11:33:40.
