data_PCOD9083841
_publ_section_title
;
Structure prediction by ZEFSAII (Michael W. Deem and Ramdas Pophale) SiO2 
 PCOD9083841
Probable space group: P -1
;
_chemical_formula_sum "Si O2"
_cell_formula_units_Z 16
_cell_length_a 12.922136
_cell_length_b 14.639836
_cell_length_c 12.379611
_cell_angle_alpha 93.086903
_cell_angle_beta 33.427634
_cell_angle_gamma 118.103793
_cell_volume 814.674350
_symmetry_space_group_name_H-M "P -1"
_symmetry_group_IT_number 2
_symmetry_cell_setting 'triclinic'
loop_
_space_group_symop_operation_xyz
x,y,z
-x,-y,-z
loop_
_atom_site_type_symbol
_atom_site_label
_atom_site_fract_x
_atom_site_fract_y
_atom_site_fract_z
Si Si1 0.205868 0.253551 0.957948
Si Si2 0.634256 0.859494 0.052552
Si Si3 0.823645 0.352235 0.087326
Si Si4 0.318035 0.443635 0.542236
Si Si5 0.785313 0.794413 0.473280
Si Si6 0.849010 0.849886 0.661721
Si Si7 0.271671 0.880627 0.780820
Si Si8 0.749461 0.123857 0.538029
O O1 0.471661 0.423586 0.715328
O O2 0.302410 0.190753 0.912390
O O3 0.027624 0.179501 0.994683
O O4 0.984336 0.211081 0.239736
O O5 0.617596 0.793977 0.952228
O O6 0.355697 0.818060 0.321764
O O7 0.921146 0.034538 0.797310
O O8 0.499457 0.260298 0.328330
O O9 0.795130 0.251636 0.179893
O O10 0.000000 0.500000 0.000000
O O11 0.029735 0.395744 0.813290
O O12 0.500000 0.500000 0.500000
O O13 0.215574 0.305868 0.584174
O O14 0.741095 0.765852 0.638916
O O15 0.094099 0.878664 0.507633
O O16 0.000000 0.000000 0.500000
O O17 0.500000 0.000000 0.500000
O O18 0.446595 0.964403 0.744508
#
# Coordination Sequence:
#
# PCOD9083841 Si02
#       8
#     2   2   2   2   2   2   2   2
#     4  10  22  40  57  90 130 157 204 252 299 366
#     4  10  22  39  65  93 123 159 206 249 307 363
#     4  12  23  38  59  87 123 158 199 245 299 362
#     4  12  24  42  60  89 124 164 204 246 304 369
#     4  11  23  40  64  91 122 161 201 255 305 360
#     4   9  20  39  61  92 125 154 205 257 301 356
#     4  10  19  34  58  86 120 157 192 238 304 355
#     4  10  21  38  62  91 123 160 202 256 302 358
#
# _framework density 19.639748999999998
#
# number of rings (size 3 to 8) (size 9 to 14) (size 15 to 20)
#    0.000    1.500    2.500    3.750    0.000    6.500 
#    0.000    2.500    0.000    4.500    0.000    0.000 
#    0.000    0.000    0.000    0.000    0.000    0.000 
#
# Total GULP energy -89277.393849 kJ/mol
# GULP energy per Si atom -5579.837116 kJ/mol
# Density = 1.959505 g / cm^3
# Si number density = 19.639749 Si / 1000 Ang^3
#
#
#
# Elastic Constant Matrix: (Units=GPa)
#
#
# Indices 1 2 3 4 5 6 
#
# 1 112.0382 47.1847 28.2149 7.6841 7.5632 -19.6076
# 2 47.1847 107.5515 29.1404 18.8809 11.2178 -7.4514
# 3 28.2149 29.1404 97.7696 10.5371 7.3387 -22.4330
# 4 7.6841 18.8809 10.5371 35.7857 -18.4158 -5.2139
# 5 7.5632 11.2178 7.3387 -18.4158 19.1987 -1.4610
# 6 -19.6076 -7.4514 -22.4330 -5.2139 -1.4610 29.3252
#
#
#
# Elastic Compliance Matrix: (Units=1/GPa)
#
#
# Indices 1 2 3 4 5 6 
#
# 1 0.012255 -0.004857 -0.000636 0.000870 -0.000410 0.006608
# 2 -0.004857 0.021224 0.000661 -0.033335 -0.043129 -0.005424
# 3 -0.000636 0.000661 0.014534 -0.011750 -0.016357 0.007957
# 4 0.000870 -0.033335 -0.011750 0.124970 0.144455 0.012539
# 5 -0.000410 -0.043129 -0.016357 0.144455 0.223259 0.013062
# 6 0.006608 -0.005424 0.007957 0.012539 0.013062 0.046108
#
#
# Mechanical properties :
#
#
# Convention : Reuss Voigt Hill
#
# Bulk Modulus (GPa) = 26.07495 58.49326 42.28411
# Shear Modulus (GPa) = 10.75736 31.04987 20.90361
#
# Velocity S-wave (km/s) = 2.34291 3.98046 3.26598
# Velocity P-wave (km/s) = 4.54141 7.13955 5.98321
#
# Compressibility (1/GPa) = 0.03835098
#
# Stress axis : x y z
#
# Youngs Moduli (GPa) = 81.59613 47.11619 68.80182
#
# Poissons Ratio (x) = 0.22882 0.04376
# Poissons Ratio (y) = 0.39628 -0.04548
# Poissons Ratio (z) = 0.05190 -0.03115
#
# Static dielectric constant tensor:
#      x y z
#    x 1.708340 0.033940 0.005960 
#    y 0.033940 1.707620 0.025340 
#    z 0.005960 0.025340 1.712490 
# 
# From -- ./inp_files/434022.got.cif
#   From: 2010.05.17/outbox.cif.g08.bks.cpg/sg2_218_cif.got.tgz:434022.got - 2010.06.03 11:33:40.
