data_PCOD9083323
_publ_section_title
;
Structure prediction by ZEFSAII (Michael W. Deem and Ramdas Pophale) SiO2 
 PCOD9083323
Probable space group: P -1
;
_chemical_formula_sum "Si O2"
_cell_formula_units_Z 16
_cell_length_a 8.049053
_cell_length_b 23.756202
_cell_length_c 5.430580
_cell_angle_alpha 113.289681
_cell_angle_beta 141.546666
_cell_angle_gamma 65.048170
_cell_volume 581.582618
_symmetry_space_group_name_H-M "P -1"
_symmetry_group_IT_number 2
_symmetry_cell_setting 'triclinic'
loop_
_space_group_symop_operation_xyz
x,y,z
-x,-y,-z
loop_
_atom_site_type_symbol
_atom_site_label
_atom_site_fract_x
_atom_site_fract_y
_atom_site_fract_z
Si Si1 0.854544 0.712264 0.035554
Si Si2 0.122819 0.173055 0.025636
Si Si3 0.222591 0.516983 0.975258
Si Si4 0.258854 0.632337 0.983519
Si Si5 0.817358 0.597913 0.035495
Si Si6 0.260632 0.750359 0.955827
Si Si7 0.578927 0.128165 0.792739
Si Si8 0.474239 0.929020 0.869196
O O1 0.683073 0.662048 0.850994
O O2 0.997898 0.737960 0.478895
O O3 0.739133 0.771495 0.832270
O O4 0.095677 0.671375 0.084172
O O5 0.256800 0.142667 0.381488
O O6 0.223427 0.115562 0.863615
O O7 0.835152 0.211119 0.838621
O O8 0.393832 0.563461 0.121936
O O9 0.357294 0.449887 0.133075
O O10 0.000000 0.500000 0.500000
O O11 0.031435 0.557180 0.027034
O O12 0.406192 0.680107 0.083238
O O13 0.013507 0.618386 0.503560
O O14 0.367322 0.801626 0.005253
O O15 0.675501 0.092291 0.584526
O O16 0.649508 0.087810 0.046736
O O17 0.500000 0.000000 0.000000
#
# Coordination Sequence:
#
# PCOD9083323 Si02
#       8
#     2   2   2   2   2   2   2   2
#     4   9  16  28  49  72 111 139 184 231 284 321
#     4   9  21  35  59  82 115 148 184 233 284 333
#     4   8  12  20  34  58  98 139 182 222 275 322
#     4   8  15  24  40  68 101 143 175 235 275 323
#     4   8  13  21  36  63  98 140 181 225 272 330
#     4  10  19  34  54  84 112 146 190 235 281 336
#     4  10  23  38  63  85 113 150 187 229 282 338
#     4  10  22  43  63  85 116 149 185 231 279 337
#
# _framework density 27.511139
#
# number of rings (size 3 to 8) (size 9 to 14) (size 15 to 20)
#    0.750    2.250    0.000    1.125    3.500    0.000 
#    0.000    1.250    0.000    0.000    0.000    0.875 
#    0.000  197.250    0.000   57.625    0.000   24.750 
#
# Total GULP energy -89330.934181 kJ/mol
# GULP energy per Si atom -5583.183386 kJ/mol
# Density = 2.744852 g / cm^3
# Si number density = 27.511139 Si / 1000 Ang^3
#
#
#
# Elastic Constant Matrix: (Units=GPa)
#
#
# Indices 1 2 3 4 5 6 
#
# 1 92.7655 56.9947 50.4132 2.9379 -16.2651 25.9500
# 2 56.9947 244.1107 51.6081 34.6209 -8.8833 57.6108
# 3 50.4132 51.6081 62.0713 21.1193 -11.6582 12.6750
# 4 2.9379 34.6209 21.1193 38.5618 2.7190 -4.9240
# 5 -16.2651 -8.8833 -11.6582 2.7190 43.4994 -4.0368
# 6 25.9500 57.6108 12.6750 -4.9240 -4.0368 54.5770
#
#
#
# Elastic Compliance Matrix: (Units=1/GPa)
#
#
# Indices 1 2 3 4 5 6 
#
# 1 0.024066 -0.001828 -0.020387 0.010350 0.002173 -0.003684
# 2 -0.001828 0.007460 -0.000676 -0.007171 0.000414 -0.007465
# 3 -0.020387 -0.000676 0.041351 -0.020904 0.004559 -0.000745
# 4 0.010350 -0.007171 -0.020904 0.044807 -0.004960 0.011178
# 5 0.002173 0.000414 0.004559 -0.004960 0.025315 -0.001104
# 6 -0.003684 -0.007465 -0.000745 0.011178 -0.001104 0.029054
#
#
# Mechanical properties :
#
#
# Convention : Reuss Voigt Hill
#
# Bulk Modulus (GPa) = 36.90726 79.66437 58.28581
# Shear Modulus (GPa) = 22.03931 43.32307 32.68119
#
# Velocity S-wave (km/s) = 2.83345 3.97261 3.45037
# Velocity P-wave (km/s) = 4.91417 7.07546 6.09144
#
# Compressibility (1/GPa) = 0.02709494
#
# Stress axis : x y z
#
# Youngs Moduli (GPa) = 41.55216 134.04921 24.18314
#
# Poissons Ratio (x) = 0.24507 0.49303
# Poissons Ratio (y) = 0.07597 0.01634
# Poissons Ratio (z) = 0.84713 0.09058
#
# Static dielectric constant tensor:
#      x y z
#    x 2.190950 0.066980 -0.006950 
#    y 0.066980 2.150210 -0.031340 
#    z -0.006950 -0.031340 2.237870 
# 
# From -- ./inp_files/54541.got.cif
#   From: 2010.05.17/outbox.cif.g08.bks.cpg/sg2_28_cif.got.tgz:54541.got - 2010.06.03 11:33:40.
