data_PCOD9083132
_publ_section_title
;
Structure prediction by ZEFSAII (Michael W. Deem and Ramdas Pophale) SiO2 
 PCOD9083132
Probable space group: P -1
;
_chemical_formula_sum "Si O2"
_cell_formula_units_Z 16
_cell_length_a 7.880331
_cell_length_b 13.303460
_cell_length_c 14.084626
_cell_angle_alpha 34.796348
_cell_angle_beta 121.550409
_cell_angle_gamma 135.104289
_cell_volume 588.437675
_symmetry_space_group_name_H-M "P -1"
_symmetry_group_IT_number 2
_symmetry_cell_setting 'triclinic'
loop_
_space_group_symop_operation_xyz
x,y,z
-x,-y,-z
loop_
_atom_site_type_symbol
_atom_site_label
_atom_site_fract_x
_atom_site_fract_y
_atom_site_fract_z
Si Si1 0.102452 0.998426 0.929022
Si Si2 0.020683 0.846540 0.415639
Si Si3 0.038163 0.549091 0.086233
Si Si4 0.638304 0.610488 0.054168
Si Si5 0.217738 0.559527 0.445423
Si Si6 0.519193 0.441209 0.749707
Si Si7 0.540127 0.142866 0.271245
Si Si8 0.313796 0.019331 0.724516
O O1 0.382956 0.186565 0.881711
O O2 0.033684 0.096549 0.748326
O O3 0.000000 0.000000 0.000000
O O4 0.929758 0.745907 0.047358
O O5 0.907530 0.597373 0.558465
O O6 0.870523 0.907038 0.388865
O O7 0.314423 0.999448 0.388224
O O8 0.207722 0.479103 0.225159
O O9 0.778725 0.370488 0.198055
O O10 0.632283 0.020706 0.335306
O O11 0.000000 0.500000 0.000000
O O12 0.532190 0.494749 0.212167
O O13 0.500000 0.500000 0.000000
O O14 0.569919 0.785518 0.898955
O O15 0.403211 0.516717 0.583154
O O16 0.415342 0.809301 0.286541
O O17 0.000000 0.500000 0.500000
O O18 0.823497 0.193729 0.084933
#
# Coordination Sequence:
#
# PCOD9083132 Si02
#       8
#     2   2   2   2   2   2   2   2
#     4   8  18  33  59  94 130 173 218 282 359 405
#     4  10  21  38  68  98 133 183 237 291 349 426
#     4  10  21  37  66  98 138 178 236 286 357 429
#     4  10  19  33  66 100 137 178 229 294 359 421
#     4  11  23  43  71  98 142 194 240 291 368 428
#     4  10  20  40  66 100 140 187 234 298 361 425
#     4  10  21  38  65  99 135 179 237 282 364 419
#     4  11  22  39  68 102 131 186 240 287 352 432
#
# _framework density 27.190642
#
# number of rings (size 3 to 8) (size 9 to 14) (size 15 to 20)
#    0.000    2.000    3.750    0.375    3.500    1.000 
#    0.000    5.000    8.250    1.500    0.000    0.000 
#    0.000    0.000    0.000    0.000    0.000    0.000 
#
# Total GULP energy -89189.703021 kJ/mol
# GULP energy per Si atom -5574.356439 kJ/mol
# Density = 2.712875 g / cm^3
# Si number density = 27.190642 Si / 1000 Ang^3
#
#
#
# Elastic Constant Matrix: (Units=GPa)
#
#
# Indices 1 2 3 4 5 6 
#
# 1 159.6642 56.0451 37.8958 -19.0821 -12.9618 18.2757
# 2 56.0451 146.6033 39.3884 -22.8842 -10.6943 10.4401
# 3 37.8958 39.3884 76.4171 -22.3346 -1.1773 -0.1083
# 4 -19.0821 -22.8842 -22.3346 60.6019 8.3938 -2.5361
# 5 -12.9618 -10.6943 -1.1773 8.3938 34.6700 1.7960
# 6 18.2757 10.4401 -0.1083 -2.5361 1.7960 52.8163
#
#
#
# Elastic Compliance Matrix: (Units=1/GPa)
#
#
# Indices 1 2 3 4 5 6 
#
# 1 0.008155 -0.001927 -0.002922 0.000325 0.002407 -0.002513
# 2 -0.001927 0.008809 -0.003189 0.001273 0.001636 -0.001076
# 3 -0.002922 -0.003189 0.017544 0.004806 -0.002748 0.002002
# 4 0.000325 0.001273 0.004806 0.019449 -0.004069 0.000718
# 5 0.002407 0.001636 -0.002748 -0.004069 0.031265 -0.002420
# 6 -0.002513 -0.001076 0.002002 0.000718 -0.002420 0.020137
#
#
# Mechanical properties :
#
#
# Convention : Reuss Voigt Hill
#
# Bulk Modulus (GPa) = 54.25697 72.14924 63.20310
# Shear Modulus (GPa) = 39.19089 46.24133 42.71611
#
# Velocity S-wave (km/s) = 3.80061 4.12835 3.96787
# Velocity P-wave (km/s) = 6.26555 7.02257 6.65484
#
# Compressibility (1/GPa) = 0.01843081
#
# Stress axis : x y z
#
# Youngs Moduli (GPa) = 122.62246 113.51532 56.99855
#
# Poissons Ratio (x) = 0.21877 0.16657
# Poissons Ratio (y) = 0.23632 0.18179
# Poissons Ratio (z) = 0.35836 0.36204
#
# Static dielectric constant tensor:
#      x y z
#    x 2.143880 -0.050300 -0.089400 
#    y -0.050300 2.171420 -0.163500 
#    z -0.089400 -0.163500 2.116430 
# 
# From -- ./inp_files/560795.got.cif
#   From: 2010.05.17/outbox.cif.g08.bks.cpg/sg2_281_cif.got.tgz:560795.got - 2010.06.03 11:33:40.
