data_PCOD9083320
_publ_section_title
;
Structure prediction by ZEFSAII (Michael W. Deem and Ramdas Pophale) SiO2 
 PCOD9083320
Probable space group: P -1
;
_chemical_formula_sum "Si O2"
_cell_formula_units_Z 16
_cell_length_a 21.592780
_cell_length_b 7.570454
_cell_length_c 9.792353
_cell_angle_alpha 51.482089
_cell_angle_beta 26.154374
_cell_angle_gamma 50.642038
_cell_volume 538.788439
_symmetry_space_group_name_H-M "P -1"
_symmetry_group_IT_number 2
_symmetry_cell_setting 'triclinic'
loop_
_space_group_symop_operation_xyz
x,y,z
-x,-y,-z
loop_
_atom_site_type_symbol
_atom_site_label
_atom_site_fract_x
_atom_site_fract_y
_atom_site_fract_z
Si Si1 0.944477 0.292623 0.636709
Si Si2 0.845658 0.461537 0.479712
Si Si3 0.332078 0.402322 0.874048
Si Si4 0.672069 0.856917 0.376302
Si Si5 0.745000 0.380566 0.373042
Si Si6 0.672054 0.079280 0.973395
Si Si7 0.466395 0.270250 0.928602
Si Si8 0.878612 0.955978 0.130420
O O1 0.959378 0.307270 0.438036
O O2 0.774483 0.392023 0.940155
O O3 0.000000 0.500000 0.500000
O O4 0.972320 0.064624 0.782947
O O5 0.926307 0.678822 0.190577
O O6 0.771971 0.259324 0.657195
O O7 0.693238 0.618064 0.761121
O O8 0.304583 0.469281 0.739445
O O9 0.469975 0.350300 0.724632
O O10 0.285883 0.152918 0.088518
O O11 0.769379 0.592873 0.315363
O O12 0.503180 0.850942 0.720473
O O13 0.695698 0.995259 0.125950
O O14 0.727990 0.972820 0.339822
O O15 0.591275 0.332406 0.742319
O O16 0.845529 0.138650 0.235419
O O17 0.500000 0.000000 0.000000
#
# Coordination Sequence:
#
# PCOD9083320 Si02
#       8
#     2   2   2   2   2   2   2   2
#     4  10  23  45  65  80 107 150 205 264 303 335
#     4  11  22  36  59  89 120 153 196 236 288 355
#     4   9  21  34  58  80 109 158 197 239 289 345
#     4  10  20  33  56  87 128 165 186 225 279 354
#     4  10  19  34  54  83 123 161 193 222 275 351
#     4  10  19  34  54  87 125 156 192 224 284 359
#     4  11  19  31  48  83 125 155 188 226 274 351
#     4  11  22  38  62  88 118 157 197 242 294 346
#
# _framework density 29.696255000000001
#
# number of rings (size 3 to 8) (size 9 to 14) (size 15 to 20)
#    0.000    1.750    3.750    1.125    0.000    2.000 
#    0.000    0.625    0.000    0.750    0.000    0.000 
#    0.000    0.000    0.000    0.000    0.000    0.000 
#
# Total GULP energy -89351.493233 kJ/mol
# GULP energy per Si atom -5584.468327 kJ/mol
# Density = 2.962867 g / cm^3
# Si number density = 29.696255 Si / 1000 Ang^3
#
#
#
# Elastic Constant Matrix: (Units=GPa)
#
#
# Indices 1 2 3 4 5 6 
#
# 1 65.4651 28.0421 10.1961 -22.5666 -28.6236 9.1949
# 2 28.0421 194.7625 76.1559 -17.1342 3.6758 7.4965
# 3 10.1961 76.1559 101.8685 -36.8422 -6.2478 -9.4144
# 4 -22.5666 -17.1342 -36.8422 59.4549 1.2261 -4.5228
# 5 -28.6236 3.6758 -6.2478 1.2261 41.4904 -21.6475
# 6 9.1949 7.4965 -9.4144 -4.5228 -21.6475 44.1555
#
#
#
# Elastic Compliance Matrix: (Units=1/GPa)
#
#
# Indices 1 2 3 4 5 6 
#
# 1 0.043044 -0.013292 0.019552 0.025369 0.044475 0.021865
# 2 -0.013292 0.012519 -0.014282 -0.010867 -0.018735 -0.012701
# 3 0.019552 -0.014282 0.030974 0.023565 0.030324 0.022238
# 4 0.025369 -0.010867 0.023565 0.038875 0.031939 0.021227
# 5 0.044475 -0.018735 0.030324 0.031939 0.083276 0.044483
# 6 0.021865 -0.012701 0.022238 0.021227 0.044483 0.048974
#
#
# Mechanical properties :
#
#
# Convention : Reuss Voigt Hill
#
# Bulk Modulus (GPa) = 14.18558 65.65379 39.91968
# Shear Modulus (GPa) = 16.82349 45.53363 31.17856
#
# Velocity S-wave (km/s) = 2.38275 3.92000 3.24376
# Velocity P-wave (km/s) = 3.51529 6.53031 5.24415
#
# Compressibility (1/GPa) = 0.07049414
#
# Stress axis : x y z
#
# Youngs Moduli (GPa) = 23.23211 79.87787 32.28491
#
# Poissons Ratio (x) = 1.06173 -0.63124
# Poissons Ratio (y) = 0.30880 0.46109
# Poissons Ratio (z) = -0.45424 1.14080
#
# Static dielectric constant tensor:
#      x y z
#    x 2.708370 -0.095320 0.231960 
#    y -0.095320 2.226940 -0.047130 
#    z 0.231960 -0.047130 2.541340 
# 
# From -- ./inp_files/171458.got.cif
#   From: 2010.05.17/outbox.cif.g08.bks.cpg/sg2_86_cif.got.tgz:171458.got - 2010.06.03 11:33:40.
