data_PCOD9083542
_publ_section_title
;
Structure prediction by ZEFSAII (Michael W. Deem and Ramdas Pophale) SiO2 
 PCOD9083542
Probable space group: P -1
;
_chemical_formula_sum "Si O2"
_cell_formula_units_Z 16
_cell_length_a 12.532753
_cell_length_b 10.316963
_cell_length_c 12.409499
_cell_angle_alpha 69.146788
_cell_angle_beta 26.806457
_cell_angle_gamma 57.615356
_cell_volume 578.833338
_symmetry_space_group_name_H-M "P -1"
_symmetry_group_IT_number 2
_symmetry_cell_setting 'triclinic'
loop_
_space_group_symop_operation_xyz
x,y,z
-x,-y,-z
loop_
_atom_site_type_symbol
_atom_site_label
_atom_site_fract_x
_atom_site_fract_y
_atom_site_fract_z
Si Si1 0.136561 0.168569 0.351961
Si Si2 0.155625 0.496260 0.755655
Si Si3 0.589579 0.189186 0.829928
Si Si4 0.967929 0.604158 0.324960
Si Si5 0.480917 0.585763 0.816350
Si Si6 0.657033 0.967619 0.558283
Si Si7 0.577516 0.356959 0.590885
Si Si8 0.882077 0.023257 0.979885
O O1 0.267313 0.100992 0.369238
O O2 0.806595 0.248372 0.639853
O O3 0.236336 0.002429 0.243720
O O4 0.298353 0.249608 0.131821
O O5 0.063011 0.437221 0.756917
O O6 0.453476 0.381620 0.576034
O O7 0.126849 0.664793 0.694793
O O8 0.000000 0.500000 0.000000
O O9 0.541591 0.233209 0.732963
O O10 0.792970 0.544995 0.568680
O O11 0.793966 0.798560 0.420161
O O12 0.286238 0.546682 0.076446
O O13 0.477709 0.511201 0.721438
O O14 0.314414 0.781708 0.913847
O O15 0.855293 0.034645 0.320578
O O16 0.325750 0.046932 0.819977
O O17 0.000000 0.000000 0.000000
#
# Coordination Sequence:
#
# PCOD9083542 Si02
#       8
#     2   2   2   2   2   2   2   2
#     4  10  22  44  63  88 113 158 204 263 298 348
#     4  10  19  34  56  86 126 159 192 228 304 363
#     4  10  23  41  66  86 117 149 211 256 305 344
#     4   9  18  33  54  78 115 157 180 231 279 349
#     4   9  18  33  53  76 117 151 184 231 282 335
#     4  10  20  38  61  82 117 158 190 250 297 344
#     4  10  21  36  57  90 116 162 189 253 298 362
#     4  10  20  36  57  87 120 164 192 233 291 360
#
# _framework density 27.64181
#
# number of rings (size 3 to 8) (size 9 to 14) (size 15 to 20)
#    0.000    2.250    1.250    1.125    1.750    0.000 
#   13.500    0.000    0.000   28.500    0.000    0.000 
#    0.000    0.000    0.000    0.000    0.000    0.000 
#
# Total GULP energy -89216.282876 kJ/mol
# GULP energy per Si atom -5576.017680 kJ/mol
# Density = 2.757890 g / cm^3
# Si number density = 27.641810 Si / 1000 Ang^3
#
#
#
# Elastic Constant Matrix: (Units=GPa)
#
#
# Indices 1 2 3 4 5 6 
#
# 1 101.4706 -7.3200 60.8603 -9.8024 -17.0923 -18.8201
# 2 -7.3200 90.0413 52.8111 -21.7020 -2.9291 11.0967
# 3 60.8603 52.8111 290.3254 -47.1846 -38.5018 -10.8618
# 4 -9.8024 -21.7020 -47.1846 47.5719 -3.2131 4.1314
# 5 -17.0923 -2.9291 -38.5018 -3.2131 53.8754 -7.0425
# 6 -18.8201 11.0967 -10.8618 4.1314 -7.0425 27.9957
#
#
#
# Elastic Compliance Matrix: (Units=1/GPa)
#
#
# Indices 1 2 3 4 5 6 
#
# 1 0.013624 0.001682 -0.002146 0.000979 0.004054 0.008535
# 2 0.001682 0.014790 -0.002636 0.004991 -0.001134 -0.006776
# 3 -0.002146 -0.002636 0.005584 0.003959 0.003678 0.002110
# 4 0.000979 0.004991 0.003959 0.027982 0.004724 -0.002725
# 5 0.004054 -0.001134 0.003678 0.004724 0.023996 0.009941
# 6 0.008535 -0.006776 0.002110 -0.002725 0.009941 0.047864
#
#
# Mechanical properties :
#
#
# Convention : Reuss Voigt Hill
#
# Bulk Modulus (GPa) = 35.97259 77.17112 56.57185
# Shear Modulus (GPa) = 33.48853 50.92100 42.20477
#
# Velocity S-wave (km/s) = 3.48446 4.29671 3.91173
# Velocity P-wave (km/s) = 5.40654 7.25221 6.39630
#
# Compressibility (1/GPa) = 0.02779894
#
# Stress axis : x y z
#
# Youngs Moduli (GPa) = 73.40019 67.61418 179.08843
#
# Poissons Ratio (x) = -0.11374 0.38431
# Poissons Ratio (y) = -0.12347 0.47200
# Poissons Ratio (z) = 0.15751 0.17820
#
# Static dielectric constant tensor:
#      x y z
#    x -0.201000 -0.188020 1.890350 
#    y -0.188020 2.323510 0.215320 
#    z 1.890350 0.215320 0.786120 
# 
# From -- ./inp_files/427947.got.cif
#   From: 2010.05.17/outbox.cif.g08.bks.cpg/sg2_214_cif.got.tgz:427947.got - 2010.06.03 11:33:40.
