data_PCOD9083812
_publ_section_title
;
Structure prediction by ZEFSAII (Michael W. Deem and Ramdas Pophale) SiO2 
 PCOD9083812
Probable space group: P -1
;
_chemical_formula_sum "Si O2"
_cell_formula_units_Z 16
_cell_length_a 9.435500
_cell_length_b 25.806999
_cell_length_c 11.030397
_cell_angle_alpha 150.970816
_cell_angle_beta 140.862819
_cell_angle_gamma 44.071443
_cell_volume 815.508225
_symmetry_space_group_name_H-M "P -1"
_symmetry_group_IT_number 2
_symmetry_cell_setting 'triclinic'
loop_
_space_group_symop_operation_xyz
x,y,z
-x,-y,-z
loop_
_atom_site_type_symbol
_atom_site_label
_atom_site_fract_x
_atom_site_fract_y
_atom_site_fract_z
Si Si1 0.869538 0.942649 0.896442
Si Si2 0.397593 0.862053 0.412827
Si Si3 0.563669 0.367548 0.918953
Si Si4 0.305596 0.923832 0.731076
Si Si5 0.925837 0.230193 0.164139
Si Si6 0.651735 0.723628 0.611884
Si Si7 0.676543 0.469121 0.447552
Si Si8 0.057673 0.394306 0.238764
O O1 0.607238 0.928344 0.666350
O O2 0.994699 0.823920 0.767738
O O3 0.867798 0.015028 0.165202
O O4 0.000000 0.000000 0.000000
O O5 0.491837 0.742430 0.279979
O O6 0.240122 0.906766 0.513408
O O7 0.253468 0.840044 0.156457
O O8 0.399303 0.377552 0.713691
O O9 0.563908 0.450359 0.201124
O O10 0.818491 0.348900 0.994484
O O11 0.431058 0.812298 0.642740
O O12 0.500000 0.000000 0.000000
O O13 0.818402 0.354446 0.341372
O O14 0.146241 0.224592 0.213373
O O15 0.747620 0.684165 0.724262
O O16 0.500000 0.500000 0.500000
O O17 0.841597 0.560079 0.722150
O O18 0.000000 0.500000 0.500000
#
# Coordination Sequence:
#
# PCOD9083812 Si02
#       8
#     2   2   2   2   2   2   2   2
#     4  11  23  39  57  84 120 148 186 227 283 349
#     4   9  18  36  60  84 108 146 195 230 279 325
#     4   9  18  35  61  82 110 149 188 236 275 328
#     4   9  18  35  56  86 107 139 192 236 260 334
#     4  11  20  38  64  75 114 159 176 236 296 315
#     4  11  18  35  62  84 110 145 193 236 282 312
#     4  10  22  39  56  85 120 148 186 229 280 348
#     4  10  19  34  58  85 107 143 194 230 273 327
#
# _framework density 19.619667
#
# number of rings (size 3 to 8) (size 9 to 14) (size 15 to 20)
#    0.000    2.000    7.500    0.000    0.000    4.000 
#    0.000    5.625    0.000    0.000    0.000    0.000 
#    0.000    0.000    0.000    0.000    0.000    0.000 
#
# Total GULP energy -89086.389670 kJ/mol
# GULP energy per Si atom -5567.899354 kJ/mol
# Density = 1.957501 g / cm^3
# Si number density = 19.619667 Si / 1000 Ang^3
#
#
#
# Elastic Constant Matrix: (Units=GPa)
#
#
# Indices 1 2 3 4 5 6 
#
# 1 116.9065 26.9594 32.1211 2.4919 23.8256 10.2476
# 2 26.9594 84.4360 17.7338 1.8049 11.0330 4.7434
# 3 32.1211 17.7338 79.3590 -7.0667 17.5750 5.2127
# 4 2.4919 1.8049 -7.0667 26.4442 2.9358 3.5345
# 5 23.8256 11.0330 17.5750 2.9358 27.4167 7.6863
# 6 10.2476 4.7434 5.2127 3.5345 7.6863 18.7189
#
#
#
# Elastic Compliance Matrix: (Units=1/GPa)
#
#
# Indices 1 2 3 4 5 6 
#
# 1 0.011289 -0.002066 -0.002537 -0.000577 -0.006706 -0.002088
# 2 -0.002066 0.013191 -0.001658 -0.000814 -0.002165 -0.000707
# 3 -0.002537 -0.001658 0.016321 0.005675 -0.008058 -0.000499
# 4 -0.000577 -0.000814 0.005675 0.040916 -0.005342 -0.006590
# 5 -0.006706 -0.002165 -0.008058 -0.005342 0.052906 -0.014252
# 6 -0.002088 -0.000707 -0.000499 -0.006590 -0.014252 0.061979
#
#
# Mechanical properties :
#
#
# Convention : Reuss Voigt Hill
#
# Bulk Modulus (GPa) = 35.36129 48.25891 41.81010
# Shear Modulus (GPa) = 22.87795 28.10843 25.49319
#
# Velocity S-wave (km/s) = 3.41849 3.78916 3.60859
# Velocity P-wave (km/s) = 5.80034 6.61773 6.22247
#
# Compressibility (1/GPa) = 0.02827951
#
# Stress axis : x y z
#
# Youngs Moduli (GPa) = 88.57978 75.80844 61.27048
#
# Poissons Ratio (x) = 0.15661 0.15544
# Poissons Ratio (y) = 0.18299 0.10160
# Poissons Ratio (z) = 0.22472 0.12570
#
# Static dielectric constant tensor:
#      x y z
#    x 1.680470 0.012670 -0.014290 
#    y 0.012670 1.768720 -0.006850 
#    z -0.014290 -0.006850 1.777730 
# 
# From -- ./inp_files/407238.got.cif
#   From: 2010.05.17/outbox.cif.g08.bks.cpg/sg2_204_cif.got.tgz:407238.got - 2010.06.03 11:33:40.
