data_PCOD9083459
_publ_section_title
;
Structure prediction by ZEFSAII (Michael W. Deem and Ramdas Pophale) SiO2 
 PCOD9083459
Probable space group: P -1
;
_chemical_formula_sum "Si O2"
_cell_formula_units_Z 14
_cell_length_a 7.310895
_cell_length_b 18.756021
_cell_length_c 7.310895
_cell_angle_alpha 128.704361
_cell_angle_beta 142.082002
_cell_angle_gamma 51.295626
_cell_volume 462.194894
_symmetry_space_group_name_H-M "P -1"
_symmetry_group_IT_number 2
_symmetry_cell_setting 'triclinic'
loop_
_space_group_symop_operation_xyz
x,y,z
-x,-y,-z
loop_
_atom_site_type_symbol
_atom_site_label
_atom_site_fract_x
_atom_site_fract_y
_atom_site_fract_z
Si Si1 0.377358 0.595606 0.184952
Si Si2 0.230824 0.974575 0.359385
Si Si3 0.707719 0.250000 0.207719
Si Si4 0.859385 0.525425 0.730824
Si Si5 0.141367 0.177899 0.750739
Si Si6 0.250739 0.322101 0.641367
Si Si7 0.315048 0.095606 0.122642
O O1 0.506751 0.674941 0.320476
O O2 0.515739 0.565416 0.449323
O O3 0.500000 0.500000 0.000000
O O4 0.015216 0.606691 0.917776
O O5 0.949323 0.934584 0.015739
O O6 0.500000 0.000000 0.500000
O O7 0.081872 0.076174 0.497098
O O8 0.417776 0.893309 0.515216
O O9 0.863300 0.249190 0.532554
O O10 0.032554 0.250810 0.363300
O O11 0.484309 0.180017 0.950988
O O12 0.450988 0.319983 0.984309
O O13 0.997098 0.423826 0.581871
O O14 0.000000 0.500000 0.000000
O O15 0.179524 0.174941 0.993248
O O16 0.500000 0.000000 0.000000
#
# Coordination Sequence:
#
# PCOD9083459 Si02
#       7
#     2   2   2   2   2   2   2
#     4  10  19  34  56  80 107 140 181 226 269 325
#     4  11  21  34  57  85 111 134 172 237 289 320
#     4  10  20  32  56  76 104 142 184 222 240 322
#     4  11  21  34  57  85 111 134 172 237 289 320
#     4  10  19  35  55  79 103 140 184 214 266 320
#     4  10  19  35  55  79 103 140 184 214 266 320
#     4  10  19  34  56  80 107 140 181 226 269 325
#
# _framework density 30.290253
#
# number of rings (size 3 to 8) (size 9 to 14) (size 15 to 20)
#    0.000    1.714    0.000    9.429    0.000    0.000 
#    0.000    0.000    0.000   34.286    0.000    0.000 
#    0.000    0.000    0.000    0.000    0.000    0.000 
#
# Total GULP energy -78192.978038 kJ/mol
# GULP energy per Si atom -5585.212717 kJ/mol
# Density = 3.022131 g / cm^3
# Si number density = 30.290253 Si / 1000 Ang^3
#
#
#
# Elastic Constant Matrix: (Units=GPa)
#
#
# Indices 1 2 3 4 5 6 
#
# 1 93.9268 49.9390 48.7735 3.4932 19.5808 31.6441
# 2 49.9390 154.6059 79.7448 -11.6443 7.3937 20.1995
# 3 48.7735 79.7448 250.4965 -15.5906 30.7320 17.0327
# 4 3.4932 -11.6443 -15.5906 98.6420 19.9665 13.2275
# 5 19.5808 7.3937 30.7320 19.9665 57.1262 2.2007
# 6 31.6441 20.1995 17.0327 13.2275 2.2007 49.2319
#
#
#
# Elastic Compliance Matrix: (Units=1/GPa)
#
#
# Indices 1 2 3 4 5 6 
#
# 1 0.017121 -0.003530 -0.000902 0.001085 -0.004946 -0.009314
# 2 -0.003530 0.008834 -0.002142 0.000744 0.000992 -0.000859
# 3 -0.000902 -0.002142 0.005294 0.001235 -0.002671 -0.000585
# 4 0.001085 0.000744 0.001235 0.012021 -0.005163 -0.004429
# 5 -0.004946 0.000992 -0.002671 -0.005163 0.022156 0.004093
# 6 -0.009314 -0.000859 -0.000585 -0.004429 0.004093 0.027861
#
#
# Mechanical properties :
#
#
# Convention : Reuss Voigt Hill
#
# Bulk Modulus (GPa) = 55.24634 95.10486 75.17560
# Shear Modulus (GPa) = 44.45759 62.37148 53.41454
#
# Velocity S-wave (km/s) = 3.83524 4.54268 4.20387
# Velocity P-wave (km/s) = 6.15554 7.67989 6.95957
#
# Compressibility (1/GPa) = 0.01810075
#
# Stress axis : x y z
#
# Youngs Moduli (GPa) = 58.40950 113.20247 188.89658
#
# Poissons Ratio (x) = 0.39955 0.17042
# Poissons Ratio (y) = 0.20616 0.40461
# Poissons Ratio (z) = 0.05270 0.24248
#
# Static dielectric constant tensor:
#      x y z
#    x 2.592100 -0.149230 -0.131440 
#    y -0.149230 2.436740 0.054610 
#    z -0.131440 0.054610 2.166280 
# 
# From -- ./inp_files/215309.got.cif
#   From: 2010.05.17/outbox.cif.g08.bks.cpg/sg2_108_cif.got.tgz:215309.got - 2010.06.03 11:33:40.
