data_PCOD9083837
_publ_section_title
;
Structure prediction by ZEFSAII (Michael W. Deem and Ramdas Pophale) SiO2 
 PCOD9083837
Probable space group: P -1
;
_chemical_formula_sum "Si O2"
_cell_formula_units_Z 14
_cell_length_a 15.020040
_cell_length_b 11.754169
_cell_length_c 9.709715
_cell_angle_alpha 51.993609
_cell_angle_beta 35.867748
_cell_angle_gamma 37.944581
_cell_volume 616.307718
_symmetry_space_group_name_H-M "P -1"
_symmetry_group_IT_number 2
_symmetry_cell_setting 'triclinic'
loop_
_space_group_symop_operation_xyz
x,y,z
-x,-y,-z
loop_
_atom_site_type_symbol
_atom_site_label
_atom_site_fract_x
_atom_site_fract_y
_atom_site_fract_z
Si Si1 0.328620 0.992170 0.181222
Si Si2 0.447900 0.205103 0.210910
Si Si3 0.835038 0.038860 0.009917
Si Si4 0.676676 0.051084 0.473816
Si Si5 0.309454 0.577729 0.090116
Si Si6 0.461886 0.462712 0.423475
Si Si7 0.969938 0.176892 0.338149
O O1 0.374683 0.085434 0.385134
O O2 0.137969 0.167639 0.213046
O O3 0.500000 0.000000 0.000000
O O4 0.432261 0.834261 0.051787
O O5 0.613460 0.124565 0.178878
O O6 0.279696 0.426171 0.266717
O O7 0.835773 0.000111 0.198523
O O8 0.841748 0.206531 0.846724
O O9 0.975501 0.870603 0.856077
O O10 0.497119 0.269511 0.518124
O O11 0.729348 0.040944 0.575890
O O12 0.375033 0.569072 0.858435
O O13 0.500000 0.500000 0.000000
O O14 0.500000 0.500000 0.500000
O O15 0.246200 0.634341 0.516892
O O16 0.000000 0.000000 0.500000
#
# Coordination Sequence:
#
# PCOD9083837 Si02
#       7
#     2   2   2   2   2   2   2
#     4   9  19  36  58  84 117 156 191 232 293 356
#     4   9  16  31  56  82 112 155 192 225 286 360
#     4   9  19  33  53  86 116 145 190 247 290 332
#     4  10  19  34  58  86 115 151 192 241 293 342
#     4   9  17  33  56  83 112 150 193 235 287 346
#     4  11  22  37  58  87 117 149 193 246 292 339
#     4  11  21  38  61  86 116 156 199 238 287 355
#
# _framework density 22.715924999999999
#
# number of rings (size 3 to 8) (size 9 to 14) (size 15 to 20)
#    0.000    2.286    0.000    4.714    0.000    0.000 
#    0.000   14.286    0.000    1.714    0.000   68.000 
#    0.000    0.000    0.000    0.000    0.000    0.000 
#
# Total GULP energy -78161.373300 kJ/mol
# GULP energy per Si atom -5582.955236 kJ/mol
# Density = 2.266422 g / cm^3
# Si number density = 22.715925 Si / 1000 Ang^3
#
#
#
# Elastic Constant Matrix: (Units=GPa)
#
#
# Indices 1 2 3 4 5 6 
#
# 1 100.4829 30.3294 32.6037 3.5286 10.9868 -8.5571
# 2 30.3294 132.7012 34.1113 -9.6361 -18.3969 17.4286
# 3 32.6037 34.1113 82.9236 3.2665 5.5338 -2.7264
# 4 3.5286 -9.6361 3.2665 29.0403 -2.7868 -4.9785
# 5 10.9868 -18.3969 5.5338 -2.7868 49.2628 -3.1281
# 6 -8.5571 17.4286 -2.7264 -4.9785 -3.1281 28.8819
#
#
#
# Elastic Compliance Matrix: (Units=1/GPa)
#
#
# Indices 1 2 3 4 5 6 
#
# 1 0.012882 -0.003388 -0.003200 -0.001840 -0.003575 0.004855
# 2 -0.003388 0.011262 -0.004029 0.003910 0.005194 -0.006944
# 3 -0.003200 -0.004029 0.015316 -0.002531 -0.002514 0.002220
# 4 -0.001840 0.003910 -0.002531 0.037321 0.004506 0.003777
# 5 -0.003575 0.005194 -0.002514 0.004506 0.023503 -0.001109
# 6 0.004855 -0.006944 0.002220 0.003777 -0.001109 0.040993
#
#
# Mechanical properties :
#
#
# Convention : Reuss Voigt Hill
#
# Bulk Modulus (GPa) = 54.87521 56.68850 55.78186
# Shear Modulus (GPa) = 29.65826 36.04124 32.84975
#
# Velocity S-wave (km/s) = 3.61725 3.98754 3.80690
# Velocity P-wave (km/s) = 6.45411 6.79781 6.62819
#
# Compressibility (1/GPa) = 0.01822316
#
# Stress axis : x y z
#
# Youngs Moduli (GPa) = 77.62745 88.79481 65.29286
#
# Poissons Ratio (x) = 0.30087 0.20896
# Poissons Ratio (y) = 0.26303 0.26309
# Poissons Ratio (z) = 0.24844 0.35779
#
# Static dielectric constant tensor:
#      x y z
#    x 1.891410 0.001420 0.003810 
#    y 0.001420 1.872620 -0.024930 
#    z 0.003810 -0.024930 1.881440 
# 
# From -- ./inp_files/247543.got.cif
#   From: 2010.05.17/outbox.cif.g08.bks.cpg/sg2_124_cif.got.tgz:247543.got - 2010.06.03 11:33:40.
