data_PCOD9083177
_publ_section_title
;
Structure prediction by ZEFSAII (Michael W. Deem and Ramdas Pophale) SiO2 
 PCOD9083177
Probable space group: P -1
;
_chemical_formula_sum "Si O2"
_cell_formula_units_Z 14
_cell_length_a 5.467772
_cell_length_b 12.116915
_cell_length_c 14.634478
_cell_angle_alpha 141.899126
_cell_angle_beta 105.123221
_cell_angle_gamma 69.450614
_cell_volume 560.006657
_symmetry_space_group_name_H-M "P -1"
_symmetry_group_IT_number 2
_symmetry_cell_setting 'triclinic'
loop_
_space_group_symop_operation_xyz
x,y,z
-x,-y,-z
loop_
_atom_site_type_symbol
_atom_site_label
_atom_site_fract_x
_atom_site_fract_y
_atom_site_fract_z
Si Si1 0.026080 0.671006 0.425494
Si Si2 0.940412 0.662224 0.675452
Si Si3 0.393813 0.649558 0.008592
Si Si4 0.149578 0.276534 0.963582
Si Si5 0.015523 0.201302 0.700191
Si Si6 0.613853 0.023386 0.648317
Si Si7 0.323274 0.836555 0.717742
O O1 0.028600 0.462126 0.312351
O O2 0.236028 0.741572 0.555886
O O3 0.053613 0.707861 0.345439
O O4 0.754116 0.809250 0.523583
O O5 0.636606 0.773187 0.715831
O O6 0.000000 0.500000 0.500000
O O7 0.152712 0.777025 0.744716
O O8 0.608688 0.633199 0.941606
O O9 0.361009 0.856195 0.180855
O O10 0.107597 0.637559 0.949413
O O11 0.500000 0.500000 0.000000
O O12 0.064034 0.304648 0.865846
O O13 0.234676 0.057265 0.844294
O O14 0.307406 0.070869 0.631645
O O15 0.787215 0.108672 0.650067
#
# Coordination Sequence:
#
# PCOD9083177 Si02
#       7
#     2   2   2   2   2   2   2
#     4  11  20  34  50  70 108 141 171 195 240 291
#     4  10  23  32  47  70  97 147 174 206 230 278
#     4  10  19  34  52  73 101 130 161 208 261 305
#     4  10  20  34  53  76 104 130 163 209 249 304
#     4  10  21  31  49  73 100 138 169 194 241 301
#     4  10  21  32  48  75 102 132 165 206 245 299
#     4  11  21  35  49  69 106 139 172 203 241 284
#
# _framework density 24.999701000000002
#
# number of rings (size 3 to 8) (size 9 to 14) (size 15 to 20)
#    0.000    1.714    2.857    3.857    6.000    4.571 
#    0.000    0.000    0.000    0.000    0.000    0.000 
#    0.000   91.429    0.000    0.000    0.000    0.000 
#
# Total GULP energy -78273.376431 kJ/mol
# GULP energy per Si atom -5590.955459 kJ/mol
# Density = 2.494280 g / cm^3
# Si number density = 24.999701 Si / 1000 Ang^3
#
#
#
# Elastic Constant Matrix: (Units=GPa)
#
#
# Indices 1 2 3 4 5 6 
#
# 1 -36.4712 -81.9633 -21.8052 10.7500 -143.5635 124.9707
# 2 -81.9633 59.4244 6.1263 17.4610 -78.3291 77.6035
# 3 -21.8052 6.1263 53.7418 14.2915 -28.9400 7.0397
# 4 10.7500 17.4610 14.2915 38.4861 -8.4618 13.1528
# 5 -143.5635 -78.3291 -28.9400 -8.4618 -39.9313 80.0292
# 6 124.9707 77.6035 7.0397 13.1528 80.0292 -22.0547
#
#
#
# Elastic Compliance Matrix: (Units=1/GPa)
#
#
# Indices 1 2 3 4 5 6 
#
# 1 0.004712 -0.002627 0.000546 -0.002478 -0.003302 0.004169
# 2 -0.002627 0.008878 -0.003236 -0.003113 -0.003510 0.000726
# 3 0.000546 -0.003236 0.022528 -0.008598 0.003604 0.006848
# 4 -0.002478 -0.003113 -0.008598 0.033695 0.000193 -0.006941
# 5 -0.003302 -0.003510 0.003604 0.000193 0.010946 0.009921
# 6 0.004169 0.000726 0.006848 -0.006941 0.009921 0.014882
#
#
# Mechanical properties :
#
#
# Convention : Reuss Voigt Hill
#
# Bulk Modulus (GPa) = 39.24046 -13.17661 13.03193
# Shear Modulus (GPa) = 43.56620 6.92249 25.24434
#
# Velocity S-wave (km/s) = 4.17906 1.66585 3.18116
# Velocity P-wave (km/s) = 6.24632 1.25781 4.32634
#
# Compressibility (1/GPa) = 0.02548390
#
# Stress axis : x y z
#
# Youngs Moduli (GPa) = 212.24123 112.64356 44.38946
#
# Poissons Ratio (x) = 0.29588 -0.02422
# Poissons Ratio (y) = 0.55748 0.14362
# Poissons Ratio (z) = -0.11580 0.36446
#
# Static dielectric constant tensor:
#      x y z
#    x 2.068710 0.022850 0.005010 
#    y 0.022850 2.043910 0.033640 
#    z 0.005010 0.033640 1.993990 
# 
# From -- ./inp_files/92087.got.cif
#   From: 2010.05.17/outbox.cif.g08.bks.cpg/sg2_47_cif.got.tgz:92087.got - 2010.06.03 11:33:40.
