data_PCOD9083615
_publ_section_title
;
Structure prediction by ZEFSAII (Michael W. Deem and Ramdas Pophale) SiO2 
 PCOD9083615
Probable space group: P -1
;
_chemical_formula_sum "Si O2"
_cell_formula_units_Z 10
_cell_length_a 10.016892
_cell_length_b 8.909448
_cell_length_c 5.713104
_cell_angle_alpha 69.949545
_cell_angle_beta 66.168207
_cell_angle_gamma 47.733450
_cell_volume 343.233026
_symmetry_space_group_name_H-M "P -1"
_symmetry_group_IT_number 2
_symmetry_cell_setting 'triclinic'
loop_
_space_group_symop_operation_xyz
x,y,z
-x,-y,-z
loop_
_atom_site_type_symbol
_atom_site_label
_atom_site_fract_x
_atom_site_fract_y
_atom_site_fract_z
Si Si1 0.348282 0.989033 0.949675
Si Si2 0.490825 0.644928 0.736873
Si Si3 0.829865 0.626562 0.868632
Si Si4 0.012162 0.237868 0.698728
Si Si5 0.759273 0.236021 0.545292
O O1 0.155246 0.109047 0.873967
O O2 0.497246 0.818526 0.747295
O O3 0.335933 0.173575 0.976175
O O4 0.330193 0.859533 0.220084
O O5 0.647500 0.481728 0.530933
O O6 0.289937 0.763166 0.688873
O O7 0.500000 0.500000 0.000000
O O8 0.839421 0.448332 0.832086
O O9 0.887482 0.710031 0.579775
O O10 0.000000 0.500000 0.000000
O O11 0.939632 0.150078 0.622439
#
# Coordination Sequence:
#
# PCOD9083615 Si02
#       5
#     2   2   2   2   2
#     4  10  19  34  57  82 108 138 173 218 265 314
#     4   9  20  35  52  77 111 142 173 216 264 312
#     4   9  20  35  52  77 111 142 173 216 264 312
#     4  10  20  35  56  81 108 139 176 218 264 314
#     4  10  20  35  56  81 108 139 176 218 264 314
#
# _framework density 29.134729
#
# number of rings (size 3 to 8) (size 9 to 14) (size 15 to 20)
#    0.000    2.400    0.000    1.800    0.000    9.600 
#    0.000    1.000    0.000   31.200    0.000    0.000 
#    0.000    0.000    0.000    0.000    0.000    0.000 
#
# Total GULP energy -55939.825332 kJ/mol
# GULP energy per Si atom -5593.982533 kJ/mol
# Density = 2.906842 g / cm^3
# Si number density = 29.134729 Si / 1000 Ang^3
#
#
#
# Elastic Constant Matrix: (Units=GPa)
#
#
# Indices 1 2 3 4 5 6 
#
# 1 106.7495 0.7969 45.8624 0.0900 8.0947 36.2020
# 2 0.7969 182.0589 45.5077 27.4153 21.6144 16.6834
# 3 45.8624 45.5077 128.8029 -21.3679 28.9124 20.0436
# 4 0.0900 27.4153 -21.3679 63.1954 16.4913 29.2235
# 5 8.0947 21.6144 28.9124 16.4913 50.8453 12.3338
# 6 36.2020 16.6834 20.0436 29.2235 12.3338 69.8299
#
#
#
# Elastic Compliance Matrix: (Units=1/GPa)
#
#
# Indices 1 2 3 4 5 6 
#
# 1 0.013347 0.001418 -0.004433 0.000525 0.001178 -0.006414
# 2 0.001418 0.007116 -0.004046 -0.004901 0.000471 0.000694
# 3 -0.004433 -0.004046 0.015282 0.011207 -0.008869 -0.004245
# 4 0.000525 -0.004901 0.011207 0.030761 -0.011142 -0.013224
# 5 0.001178 0.000471 -0.008869 -0.011142 0.027544 0.001620
# 6 -0.006414 0.000694 -0.004245 -0.013224 0.001620 0.023946
#
#
# Mechanical properties :
#
#
# Convention : Reuss Voigt Hill
#
# Bulk Modulus (GPa) = 46.24346 66.88280 56.56313
# Shear Modulus (GPa) = 35.88700 58.47042 47.17871
#
# Velocity S-wave (km/s) = 3.51345 4.48470 4.02845
# Velocity P-wave (km/s) = 5.68910 7.05854 6.41049
#
# Compressibility (1/GPa) = 0.02162468
#
# Stress axis : x y z
#
# Youngs Moduli (GPa) = 74.92352 140.52009 65.43506
#
# Poissons Ratio (x) = -0.19931 0.29006
# Poissons Ratio (y) = -0.10627 0.26476
# Poissons Ratio (z) = 0.33212 0.56856
#
# Static dielectric constant tensor:
#      x y z
#    x 2.411910 -0.198130 0.062480 
#    y -0.198130 2.433620 0.134180 
#    z 0.062480 0.134180 2.174730 
# 
# From -- ./inp_files/15343.got.cif
#   From: 2010.05.17/outbox.cif.g08.bks.cpg/sg2_8_cif.got.tgz:15343.got - 2010.06.03 11:33:40.
