data_PCOD9083438
_publ_section_title
;
Structure prediction by ZEFSAII (Michael W. Deem and Ramdas Pophale) SiO2 
 PCOD9083438
Probable space group: P -1
;
_chemical_formula_sum "Si O2"
_cell_formula_units_Z 14
_cell_length_a 11.448407
_cell_length_b 7.362623
_cell_length_c 12.543626
_cell_angle_alpha 73.587513
_cell_angle_beta 53.481063
_cell_angle_gamma 112.597885
_cell_volume 568.548495
_symmetry_space_group_name_H-M "P -1"
_symmetry_group_IT_number 2
_symmetry_cell_setting 'triclinic'
loop_
_space_group_symop_operation_xyz
x,y,z
-x,-y,-z
loop_
_atom_site_type_symbol
_atom_site_label
_atom_site_fract_x
_atom_site_fract_y
_atom_site_fract_z
Si Si1 0.054483 0.767048 0.039164
Si Si2 0.968466 0.151772 0.726302
Si Si3 0.281639 0.399439 0.156617
Si Si4 0.296460 0.756349 0.224483
Si Si5 0.248268 0.154651 0.697308
Si Si6 0.590315 0.193147 0.157044
Si Si7 0.407702 0.640898 0.650935
O O1 0.232096 0.786793 0.911462
O O2 0.052202 0.889934 0.912191
O O3 0.125451 0.918392 0.090056
O O4 0.817474 0.478219 0.232964
O O5 0.899063 0.290791 0.692551
O O6 0.183962 0.251504 0.627923
O O7 0.878449 0.913621 0.732951
O O8 0.257001 0.498821 0.261581
O O9 0.500000 0.500000 0.000000
O O10 0.288424 0.565759 0.034819
O O11 0.389768 0.901363 0.264048
O O12 0.500000 0.000000 0.000000
O O13 0.363895 0.380228 0.689642
O O14 0.398244 0.138699 0.567779
O O15 0.530058 0.260544 0.279579
#
# Coordination Sequence:
#
# PCOD9083438 Si02
#       7
#     2   2   2   2   2   2   2
#     4  11  20  38  64  94 128 161 213 255 310 381
#     4  11  19  37  61  91 126 162 206 258 309 375
#     4  11  18  32  59  91 123 159 206 251 312 369
#     4  10  19  34  55  97 121 156 213 257 305 377
#     4  10  23  40  60  93 125 165 213 256 308 374
#     4  11  20  35  59  94 126 161 207 261 311 372
#     4  10  22  39  61  91 125 169 207 256 314 366
#
# _framework density 24.624108
#
# number of rings (size 3 to 8) (size 9 to 14) (size 15 to 20)
#    0.000    1.429    5.714    3.857    0.000    0.571 
#    0.000    0.714    0.000    0.857    0.000    1.000 
#    0.000    0.000    0.000    0.000    0.000    0.000 
#
# Total GULP energy -78025.427040 kJ/mol
# GULP energy per Si atom -5573.244789 kJ/mol
# Density = 2.456806 g / cm^3
# Si number density = 24.624108 Si / 1000 Ang^3
#
#
#
# Elastic Constant Matrix: (Units=GPa)
#
#
# Indices 1 2 3 4 5 6 
#
# 1 113.2078 18.6497 26.5614 3.9446 -28.5651 1.3404
# 2 18.6497 163.5524 19.3289 32.3835 -12.8236 10.6804
# 3 26.5614 19.3289 71.1805 7.7360 -22.8180 4.1497
# 4 3.9446 32.3835 7.7360 26.0536 -0.5254 5.7594
# 5 -28.5651 -12.8236 -22.8180 -0.5254 26.6142 -2.5414
# 6 1.3404 10.6804 4.1497 5.7594 -2.5414 28.1539
#
#
#
# Elastic Compliance Matrix: (Units=1/GPa)
#
#
# Indices 1 2 3 4 5 6 
#
# 1 0.012209 -0.000096 -0.000286 -0.001603 0.012876 0.000987
# 2 -0.000096 0.008511 0.000120 -0.010351 0.003822 -0.000779
# 3 -0.000286 0.000120 0.020180 -0.005687 0.016911 -0.000316
# 4 -0.001603 -0.010351 -0.005687 0.054575 -0.011207 -0.007335
# 5 0.012876 0.003822 0.016911 -0.011207 0.067881 0.003865
# 6 0.000987 -0.000779 -0.000316 -0.007335 0.003865 0.037664
#
#
# Mechanical properties :
#
#
# Convention : Reuss Voigt Hill
#
# Bulk Modulus (GPa) = 24.76625 53.00229 38.88427
# Shear Modulus (GPa) = 23.25560 35.05773 29.15667
#
# Velocity S-wave (km/s) = 3.07648 3.77731 3.44476
# Velocity P-wave (km/s) = 4.76437 6.37145 5.62559
#
# Compressibility (1/GPa) = 0.04037753
#
# Stress axis : x y z
#
# Youngs Moduli (GPa) = 81.90583 117.49517 49.55346
#
# Poissons Ratio (x) = 0.01128 0.01416
# Poissons Ratio (y) = 0.00786 -0.00596
# Poissons Ratio (z) = 0.02340 -0.01414
#
# Static dielectric constant tensor:
#      x y z
#    x 1.890670 0.109610 -0.093510 
#    y 0.109610 1.907260 0.036290 
#    z -0.093510 0.036290 1.960770 
# 
# From -- ./inp_files/414641.got.cif
#   From: 2010.05.17/outbox.cif.g08.bks.cpg/sg2_208_cif.got.tgz:414641.got - 2010.06.03 11:33:40.
