data_PCOD9083605
_publ_section_title
;
Structure prediction by ZEFSAII (Michael W. Deem and Ramdas Pophale) SiO2 
 PCOD9083605
Probable space group: P -1
;
_chemical_formula_sum "Si O2"
_cell_formula_units_Z 15
_cell_length_a 13.255595
_cell_length_b 6.936383
_cell_length_c 12.848830
_cell_angle_alpha 99.759984
_cell_angle_beta 144.779566
_cell_angle_gamma 96.255413
_cell_volume 604.502155
_symmetry_space_group_name_H-M "P -1"
_symmetry_group_IT_number 2
_symmetry_cell_setting 'triclinic'
loop_
_space_group_symop_operation_xyz
x,y,z
-x,-y,-z
loop_
_atom_site_type_symbol
_atom_site_label
_atom_site_fract_x
_atom_site_fract_y
_atom_site_fract_z
Si Si1 0.070556 0.759308 0.331758
Si Si2 0.195597 0.649551 0.816408
Si Si3 0.443946 0.199936 0.353934
Si Si4 0.522492 0.863704 0.284224
Si Si5 0.299054 0.351344 0.451747
Si Si6 0.832843 0.946033 0.269959
Si Si7 0.042666 0.063294 0.919726
Si Si8 0.500000 0.500000 0.000000
O O1 0.055378 0.786811 0.196038
O O2 0.995080 0.531233 0.304678
O O3 0.906441 0.842745 0.228999
O O4 0.277537 0.935106 0.563218
O O5 0.169209 0.830789 0.745518
O O6 0.350777 0.767271 0.049713
O O7 0.293284 0.521751 0.822088
O O8 0.387082 0.266180 0.421883
O O9 0.643352 0.400742 0.503772
O O10 0.455399 0.972975 0.331963
O O11 0.275218 0.179997 0.128536
O O12 0.587025 0.678235 0.355651
O O13 0.077260 0.174440 0.254565
O O14 0.624326 0.765024 0.112202
O O15 0.000000 0.000000 0.500000
O O16 0.000000 0.000000 0.000000
#
# Coordination Sequence:
#
# PCOD9083605 Si02
#       8
#     2   2   2   2   2   2   2   1
#     4  10  23  39  59  93 127 164 211 259 316 375
#     4  11  24  42  66  94 127 163 209 263 319 382
#     4  10  19  34  57  81 114 162 206 252 307 359
#     4  11  22  36  58  87 119 157 204 254 306 367
#     4   9  20  36  54  82 118 156 204 256 306 363
#     4  11  24  43  66  92 126 164 208 262 321 385
#     4   9  18  36  59  85 124 167 206 252 306 368
#     4  10  24  44  68  96 122 158 204 256 324 386
#
# _framework density 24.813807000000001
#
# number of rings (size 3 to 8) (size 9 to 14) (size 15 to 20)
#    0.000    1.867    0.000    3.200    0.000    7.467 
#    0.000    0.000    0.000   14.400    0.000    0.000 
#    0.000    0.000    0.000    0.000    0.000    0.000 
#
# Total GULP energy -83569.951130 kJ/mol
# GULP energy per Si atom -5571.330075 kJ/mol
# Density = 2.475733 g / cm^3
# Si number density = 24.813807 Si / 1000 Ang^3
#
#
#
# Elastic Constant Matrix: (Units=GPa)
#
#
# Indices 1 2 3 4 5 6 
#
# 1 38.9771 1.8354 -3.3083 12.2142 11.5344 10.2568
# 2 1.8354 135.5742 3.6578 0.4945 -9.7501 27.4892
# 3 -3.3083 3.6578 111.7237 6.1752 5.8724 40.9352
# 4 12.2142 0.4945 6.1752 34.8487 22.2471 11.5909
# 5 11.5344 -9.7501 5.8724 22.2471 32.2763 9.3589
# 6 10.2568 27.4892 40.9352 11.5909 9.3589 46.0626
#
#
#
# Elastic Compliance Matrix: (Units=1/GPa)
#
#
# Indices 1 2 3 4 5 6 
#
# 1 0.031911 0.001037 0.005077 -0.005334 -0.005503 -0.009776
# 2 0.001037 0.009599 0.002917 -0.001638 0.005831 -0.009324
# 3 0.005077 0.002917 0.014966 0.000515 0.000760 -0.016456
# 4 -0.005334 -0.001638 0.000515 0.054250 -0.034653 -0.004903
# 5 -0.005503 0.005831 0.000760 -0.034653 0.060333 -0.006469
# 6 -0.009776 -0.009324 -0.016456 -0.004903 -0.006469 0.046623
#
#
# Mechanical properties :
#
#
# Convention : Reuss Voigt Hill
#
# Bulk Modulus (GPa) = 13.41606 32.29387 22.85497
# Shear Modulus (GPa) = 22.27497 41.57688 31.92592
#
# Velocity S-wave (km/s) = 2.99939 4.09779 3.59084
# Velocity P-wave (km/s) = 4.17295 5.95247 5.14031
#
# Compressibility (1/GPa) = 0.07453751
#
# Stress axis : x y z
#
# Youngs Moduli (GPa) = 31.33745 104.17495 66.81648
#
# Poissons Ratio (x) = -0.10802 -0.33922
# Poissons Ratio (y) = -0.03249 -0.19489
# Poissons Ratio (z) = -0.15910 -0.30386
#
# Static dielectric constant tensor:
#      x y z
#    x 2.205680 -0.013850 -0.026860 
#    y -0.013850 1.964930 -0.016470 
#    z -0.026860 -0.016470 1.918180 
# 
# From -- ./inp_files/525901.got.cif
#   From: 2010.05.17/outbox.cif.g08.bks.cpg/sg2_263_cif.got.tgz:525901.got - 2010.06.03 11:33:40.
