data_PCOD9083650
_publ_section_title
;
Structure prediction by ZEFSAII (Michael W. Deem and Ramdas Pophale) SiO2 
 PCOD9083650
Probable space group: P -1
;
_chemical_formula_sum "Si O2"
_cell_formula_units_Z 16
_cell_length_a 13.681158
_cell_length_b 8.106855
_cell_length_c 8.778765
_cell_angle_alpha 78.281354
_cell_angle_beta 127.681956
_cell_angle_gamma 98.320165
_cell_volume 754.246007
_symmetry_space_group_name_H-M "P -1"
_symmetry_group_IT_number 2
_symmetry_cell_setting 'triclinic'
loop_
_space_group_symop_operation_xyz
x,y,z
-x,-y,-z
loop_
_atom_site_type_symbol
_atom_site_label
_atom_site_fract_x
_atom_site_fract_y
_atom_site_fract_z
Si Si1 0.221717 0.057839 0.540932
Si Si2 0.080891 0.740422 0.501752
Si Si3 0.496412 0.191085 0.410727
Si Si4 0.160539 0.429299 0.821808
Si Si5 0.365687 0.360064 0.802916
Si Si6 0.735955 0.383315 0.561917
Si Si7 0.544027 0.145802 0.129046
Si Si8 0.237560 0.316583 0.245906
O O1 0.283644 0.207093 0.674541
O O2 0.200387 0.148753 0.340775
O O3 0.106044 0.940662 0.504835
O O4 0.324934 0.912791 0.675637
O O5 0.125024 0.622763 0.707548
O O6 0.155851 0.683896 0.430127
O O7 0.940765 0.684159 0.344585
O O8 0.635461 0.259373 0.566722
O O9 0.470490 0.171781 0.209498
O O10 0.384836 0.291642 0.361369
O O11 0.500000 0.000000 0.500000
O O12 0.292045 0.403910 0.875022
O O13 0.170329 0.360447 0.015646
O O14 0.354973 0.517689 0.654893
O O15 0.506481 0.308529 0.967845
O O16 0.785578 0.522451 0.700285
O O17 0.500000 0.000000 0.000000
#
# Coordination Sequence:
#
# PCOD9083650 Si02
#       8
#     2   2   2   2   2   2   2   2
#     4  10  20  38  59  80 117 148 180 222 284 333
#     4  10  21  41  58  79 109 151 185 231 281 324
#     4  12  21  37  56  82 118 146 176 226 276 329
#     4  10  22  38  59  82 110 141 193 236 271 321
#     4   9  20  37  57  84 111 145 183 228 274 331
#     4  10  22  38  56  79 115 150 181 223 281 329
#     4  10  19  34  57  84 110 144 178 223 273 334
#     4  11  22  38  56  86 112 146 186 229 271 329
#
# _framework density 21.213235999999998
#
# number of rings (size 3 to 8) (size 9 to 14) (size 15 to 20)
#    0.000    1.750    3.750    0.375    0.000    3.000 
#    4.500    0.000    0.000    0.000    0.000    0.000 
#    0.000    0.000    0.000    0.000    0.000    0.000 
#
# Total GULP energy -89083.002106 kJ/mol
# GULP energy per Si atom -5567.687632 kJ/mol
# Density = 2.116495 g / cm^3
# Si number density = 21.213236 Si / 1000 Ang^3
#
#
#
# Elastic Constant Matrix: (Units=GPa)
#
#
# Indices 1 2 3 4 5 6 
#
# 1 53.0241 25.6459 13.6156 -3.9017 5.8791 0.0204
# 2 25.6459 91.0194 22.9930 -3.5406 3.5588 27.2154
# 3 13.6156 22.9930 106.5935 -17.4189 -6.4695 6.1534
# 4 -3.9017 -3.5406 -17.4189 24.7265 -0.6600 -6.6960
# 5 5.8791 3.5588 -6.4695 -0.6600 22.8976 1.4755
# 6 0.0204 27.2154 6.1534 -6.6960 1.4755 31.1891
#
#
#
# Elastic Compliance Matrix: (Units=1/GPa)
#
#
# Indices 1 2 3 4 5 6 
#
# 1 0.024446 -0.008870 -0.001453 0.003878 -0.005784 0.009117
# 2 -0.008870 0.019218 -0.002933 -0.005420 -0.000578 -0.017321
# 3 -0.001453 -0.002933 0.011692 0.008191 0.004252 0.001811
# 4 0.003878 -0.005420 0.008191 0.049826 0.002716 0.013680
# 5 -0.005784 -0.000578 0.004252 0.002716 0.046653 -0.001954
# 6 0.009117 -0.017321 0.001811 0.013680 -0.001954 0.049843
#
#
# Mechanical properties :
#
#
# Convention : Reuss Voigt Hill
#
# Bulk Modulus (GPa) = 34.67027 41.68287 38.17657
# Shear Modulus (GPa) = 21.02579 28.32148 24.67364
#
# Velocity S-wave (km/s) = 3.15169 3.65785 3.41416
# Velocity P-wave (km/s) = 5.44274 6.12633 5.79462
#
# Compressibility (1/GPa) = 0.02884316
#
# Stress axis : x y z
#
# Youngs Moduli (GPa) = 40.90720 52.03523 85.53002
#
# Poissons Ratio (x) = 0.46154 0.12426
# Poissons Ratio (y) = 0.36284 0.25089
# Poissons Ratio (z) = 0.05943 0.15264
#
# Static dielectric constant tensor:
#      x y z
#    x 1.818330 0.021980 -0.028210 
#    y 0.021980 1.816300 -0.019170 
#    z -0.028210 -0.019170 1.844090 
# 
# From -- ./inp_files/178706.got.cif
#   From: 2010.05.17/outbox.cif.g08.bks.cpg/sg2_90_cif.got.tgz:178706.got - 2010.06.03 11:33:40.
