data_PCOD9083985
_publ_section_title
;
Structure prediction by ZEFSAII (Michael W. Deem and Ramdas Pophale) SiO2 
 PCOD9083985
Probable space group: P -1
;
_chemical_formula_sum "Si O2"
_cell_formula_units_Z 12
_cell_length_a 9.090376
_cell_length_b 14.176764
_cell_length_c 8.752407
_cell_angle_alpha 63.812103
_cell_angle_beta 65.873315
_cell_angle_gamma 29.723089
_cell_volume 501.012542
_symmetry_space_group_name_H-M "P -1"
_symmetry_group_IT_number 2
_symmetry_cell_setting 'triclinic'
loop_
_space_group_symop_operation_xyz
x,y,z
-x,-y,-z
loop_
_atom_site_type_symbol
_atom_site_label
_atom_site_fract_x
_atom_site_fract_y
_atom_site_fract_z
Si Si1 0.627098 0.736228 0.906230
Si Si2 0.797249 0.097174 0.265791
Si Si3 0.687718 0.632177 0.463858
Si Si4 0.584538 0.317941 0.713249
Si Si5 0.163183 0.295699 0.879337
Si Si6 0.209540 0.692451 0.077053
O O1 0.367005 0.895958 0.781851
O O2 0.898447 0.527833 0.854701
O O3 0.523455 0.707304 0.096113
O O4 0.717815 0.783019 0.942249
O O5 0.552388 0.256480 0.382717
O O6 0.873906 0.152499 0.081344
O O7 0.105773 0.886438 0.348737
O O8 0.661672 0.550879 0.409240
O O9 0.612659 0.772924 0.285333
O O10 0.000000 0.500000 0.500000
O O11 0.685844 0.354107 0.759259
O O12 0.030081 0.265076 0.884751
O O13 0.500000 0.500000 0.000000
#
# Coordination Sequence:
#
# PCOD9083985 Si02
#       6
#     2   2   2   2   2   2
#     4   9  17  34  59  80 114 146 193 224 289 331
#     4  11  21  38  60  86 118 155 188 238 292 343
#     4  11  21  39  60  83 115 161 193 228 290 358
#     4  10  22  37  59  86 120 151 191 237 294 342
#     4  10  19  34  59  88 110 146 196 243 269 334
#     4  11  19  36  61  90 114 146 201 242 275 336
#
# _framework density 23.951495000000001
#
# number of rings (size 3 to 8) (size 9 to 14) (size 15 to 20)
#    0.000    1.667    5.000    2.500    0.000    0.000 
#    0.000   13.333    0.000    0.000    0.000    0.000 
#    0.000    0.000    0.000    0.000    0.000    0.000 
#
# Total GULP energy -66925.730353 kJ/mol
# GULP energy per Si atom -5577.144196 kJ/mol
# Density = 2.389698 g / cm^3
# Si number density = 23.951495 Si / 1000 Ang^3
#
#
#
# Elastic Constant Matrix: (Units=GPa)
#
#
# Indices 1 2 3 4 5 6 
#
# 1 192.8951 11.0593 57.8561 -2.7462 49.0338 -12.5296
# 2 11.0593 62.3920 15.4784 8.1833 2.7562 -12.5577
# 3 57.8561 15.4784 109.4549 18.8451 20.9419 -2.2114
# 4 -2.7462 8.1833 18.8451 28.9801 -8.4307 6.3615
# 5 49.0338 2.7562 20.9419 -8.4307 51.2159 -1.2969
# 6 -12.5296 -12.5577 -2.2114 6.3615 -1.2969 26.2098
#
#
#
# Elastic Compliance Matrix: (Units=1/GPa)
#
#
# Indices 1 2 3 4 5 6 
#
# 1 0.007851 0.000277 -0.002932 0.000026 -0.006244 0.003323
# 2 0.000277 0.019612 -0.000952 -0.007936 -0.001952 0.011278
# 3 -0.002932 -0.000952 0.013462 -0.010365 -0.004313 0.001580
# 4 0.000026 -0.007936 -0.010365 0.050740 0.012578 -0.016357
# 5 -0.006244 -0.001952 -0.004313 0.012578 0.029293 -0.005888
# 6 0.003323 0.011278 0.001580 -0.016357 -0.005888 0.048958
#
#
# Mechanical properties :
#
#
# Convention : Reuss Voigt Hill
#
# Bulk Modulus (GPa) = 29.66356 59.28107 44.47232
# Shear Modulus (GPa) = 26.54387 39.97102 33.25745
#
# Velocity S-wave (km/s) = 3.33263 4.08957 3.73035
# Velocity P-wave (km/s) = 5.21731 6.86321 6.09606
#
# Compressibility (1/GPa) = 0.03371139
#
# Stress axis : x y z
#
# Youngs Moduli (GPa) = 127.36932 50.98940 74.28281
#
# Poissons Ratio (x) = -0.01412 0.21778
# Poissons Ratio (y) = -0.03528 0.07072
# Poissons Ratio (z) = 0.37343 0.04854
#
# Static dielectric constant tensor:
#      x y z
#    x 2.168750 -0.017490 0.055130 
#    y -0.017490 1.995370 -0.043400 
#    z 0.055130 -0.043400 1.936500 
# 
# From -- ./inp_files/145531.got.cif
#   From: 2010.05.17/outbox.cif.g08.bks.cpg/sg2_73_cif.got.tgz:145531.got - 2010.06.03 11:33:40.
