data_PCOD9083625
_publ_section_title
;
Structure prediction by ZEFSAII (Michael W. Deem and Ramdas Pophale) SiO2 
 PCOD9083625
Probable space group: P -1
;
_chemical_formula_sum "Si O2"
_cell_formula_units_Z 16
_cell_length_a 17.833376
_cell_length_b 13.813888
_cell_length_c 7.300217
_cell_angle_alpha 132.818924
_cell_angle_beta 43.790328
_cell_angle_gamma 149.187791
_cell_volume 628.373715
_symmetry_space_group_name_H-M "P -1"
_symmetry_group_IT_number 2
_symmetry_cell_setting 'triclinic'
loop_
_space_group_symop_operation_xyz
x,y,z
-x,-y,-z
loop_
_atom_site_type_symbol
_atom_site_label
_atom_site_fract_x
_atom_site_fract_y
_atom_site_fract_z
Si Si1 0.304955 0.566868 0.061725
Si Si2 0.586515 0.290630 0.302358
Si Si3 0.789220 0.785908 0.178992
Si Si4 0.015560 0.631880 0.787884
Si Si5 0.366294 0.369357 0.225614
Si Si6 0.028685 0.152695 0.387225
Si Si7 0.852976 0.465955 0.329518
Si Si8 0.692238 0.924110 0.237561
O O1 0.260582 0.590128 0.366458
O O2 0.145098 0.430436 0.042569
O O3 0.423440 0.745095 0.943334
O O4 0.341516 0.442474 0.858588
O O5 0.598631 0.463245 0.511489
O O6 0.737846 0.361682 0.225850
O O7 0.445911 0.125309 0.472752
O O8 0.740362 0.858862 0.223569
O O9 0.920409 0.819702 0.879511
O O10 0.871371 0.926874 0.389531
O O11 0.060427 0.589280 0.833802
O O12 0.000000 0.500000 0.500000
O O13 0.161257 0.855091 0.778352
O O14 0.181918 0.235993 0.328974
O O15 0.500000 0.500000 0.000000
O O16 0.360019 0.202187 0.016511
O O17 0.025987 0.305267 0.613580
#
# Coordination Sequence:
#
# PCOD9083625 Si02
#       8
#     2   2   2   2   2   2   2   2
#     4  10  20  35  58  85 110 144 189 234 281 335
#     4  10  21  36  57  84 115 148 183 230 286 336
#     4   9  15  27  49  76 106 135 175 227 273 322
#     4  10  20  36  59  82 109 151 195 231 278 332
#     4   8  15  29  49  74 107 143 175 215 276 337
#     4   8  13  26  49  72  99 139 176 218 270 315
#     4   9  19  36  55  77 113 151 187 231 277 329
#     4  10  19  34  57  82 112 151 186 226 284 340
#
# _framework density 25.462554999999998
#
# number of rings (size 3 to 8) (size 9 to 14) (size 15 to 20)
#    0.000    2.750    0.000    4.500    0.000    1.500 
#    0.000    8.125    0.000    6.000    0.000    0.000 
#    0.000    0.000    0.000    0.000    0.000    0.000 
#
# Total GULP energy -89138.278686 kJ/mol
# GULP energy per Si atom -5571.142418 kJ/mol
# Density = 2.540460 g / cm^3
# Si number density = 25.462555 Si / 1000 Ang^3
#
#
#
# Elastic Constant Matrix: (Units=GPa)
#
#
# Indices 1 2 3 4 5 6 
#
# 1 93.6541 7.7695 9.6835 -6.8828 -5.8438 -24.2102
# 2 7.7695 58.6943 7.4263 14.1138 4.7403 1.9692
# 3 9.6835 7.4263 83.0057 -2.1927 -0.5095 -9.4008
# 4 -6.8828 14.1138 -2.1927 22.2525 -5.6555 0.6667
# 5 -5.8438 4.7403 -0.5095 -5.6555 39.4436 -0.2004
# 6 -24.2102 1.9692 -9.4008 0.6667 -0.2004 29.2092
#
#
#
# Elastic Compliance Matrix: (Units=1/GPa)
#
#
# Indices 1 2 3 4 5 6 
#
# 1 0.015276 -0.004889 0.000372 0.008528 0.004144 0.012945
# 2 -0.004889 0.022981 -0.002682 -0.017718 -0.006092 -0.006102
# 3 0.000372 -0.002682 0.012851 0.003207 0.001026 0.004559
# 4 0.008528 -0.017718 0.003207 0.062036 0.012369 0.007964
# 5 0.004144 -0.006092 0.001026 0.012369 0.028506 0.004089
# 6 0.012945 -0.006102 0.004559 0.007964 0.004089 0.046690
#
#
# Mechanical properties :
#
#
# Convention : Reuss Voigt Hill
#
# Bulk Modulus (GPa) = 27.24000 31.67917 29.45958
# Shear Modulus (GPa) = 23.25836 32.21270 27.73553
#
# Velocity S-wave (km/s) = 3.02559 3.56068 3.30399
# Velocity P-wave (km/s) = 4.78820 5.41970 5.11371
#
# Compressibility (1/GPa) = 0.03671072
#
# Stress axis : x y z
#
# Youngs Moduli (GPa) = 65.46036 43.51371 77.81312
#
# Poissons Ratio (x) = 0.21273 -0.02895
# Poissons Ratio (y) = 0.32003 0.20872
# Poissons Ratio (z) = -0.02435 0.11672
#
# Static dielectric constant tensor:
#      x y z
#    x 2.144430 0.027780 0.060820 
#    y 0.027780 2.100040 -0.034100 
#    z 0.060820 -0.034100 2.096260 
# 
# From -- ./inp_files/347698.got.cif
#   From: 2010.05.17/outbox.cif.g08.bks.cpg/sg2_174_cif.got.tgz:347698.got - 2010.06.03 11:33:40.
