data_PCOD9083485
_publ_section_title
;
Structure prediction by ZEFSAII (Michael W. Deem and Ramdas Pophale) SiO2 
 PCOD9083485
Probable space group: P -1
;
_chemical_formula_sum "Si O2"
_cell_formula_units_Z 16
_cell_length_a 16.914602
_cell_length_b 8.392403
_cell_length_c 8.091953
_cell_angle_alpha 55.071112
_cell_angle_beta 54.017934
_cell_angle_gamma 61.916314
_cell_volume 746.284873
_symmetry_space_group_name_H-M "P -1"
_symmetry_group_IT_number 2
_symmetry_cell_setting 'triclinic'
loop_
_space_group_symop_operation_xyz
x,y,z
-x,-y,-z
loop_
_atom_site_type_symbol
_atom_site_label
_atom_site_fract_x
_atom_site_fract_y
_atom_site_fract_z
Si Si1 0.757475 0.957999 0.726012
Si Si2 0.546298 0.688405 0.590854
Si Si3 0.569601 0.864844 0.124057
Si Si4 0.120208 0.394899 0.784421
Si Si5 0.724841 0.382173 0.390635
Si Si6 0.350268 0.554604 0.902362
Si Si7 0.285973 0.279151 0.386230
Si Si8 0.965057 0.794270 0.708103
O O1 0.715711 0.884860 0.651701
O O2 0.861993 0.818084 0.720866
O O3 0.765734 0.183248 0.558951
O O4 0.673030 0.939484 0.973789
O O5 0.526136 0.836485 0.372705
O O6 0.620643 0.493534 0.536130
O O7 0.440628 0.648059 0.802115
O O8 0.613350 0.755525 0.610007
O O9 0.597353 0.650493 0.130276
O O10 0.500000 0.000000 0.000000
O O11 0.195719 0.477061 0.768189
O O12 0.191755 0.294725 0.611174
O O13 0.043874 0.590694 0.696475
O O14 0.064562 0.246041 0.040982
O O15 0.708849 0.334397 0.246792
O O16 0.284682 0.486610 0.167355
O O17 0.000000 0.000000 0.500000
#
# Coordination Sequence:
#
# PCOD9083485 Si02
#       8
#     2   2   2   2   2   2   2   2
#     4  11  21  37  59  90 123 155 201 249 301 358
#     4  10  19  35  57  83 117 163 207 242 294 351
#     4  10  19  34  59  86 115 158 208 249 284 348
#     4  10  22  42  65  89 120 150 200 253 301 359
#     4  10  19  37  60  85 115 163 204 245 289 354
#     4  10  19  34  56  82 119 161 201 241 304 350
#     4  10  22  38  55  87 124 158 187 250 314 354
#     4  11  22  42  70  92 111 155 210 248 296 363
#
# _framework density 21.439533000000001
#
# number of rings (size 3 to 8) (size 9 to 14) (size 15 to 20)
#    0.000    1.750    1.250    6.375    0.000    0.500 
#    2.250    8.750    0.000    0.000    0.000    0.000 
#    0.000    0.000    0.000    0.000    0.000    0.000 
#
# Total GULP energy -89352.688549 kJ/mol
# GULP energy per Si atom -5584.543034 kJ/mol
# Density = 2.139074 g / cm^3
# Si number density = 21.439533 Si / 1000 Ang^3
#
#
#
# Elastic Constant Matrix: (Units=GPa)
#
#
# Indices 1 2 3 4 5 6 
#
# 1 55.6340 0.4100 0.3659 -7.6442 8.9909 -13.5374
# 2 0.4100 34.2470 29.4604 -7.6476 7.1157 -10.8011
# 3 0.3659 29.4604 106.5077 -17.3604 -10.6006 4.3404
# 4 -7.6442 -7.6476 -17.3604 28.5227 -4.7213 6.1654
# 5 8.9909 7.1157 -10.6006 -4.7213 29.6364 -1.9084
# 6 -13.5374 -10.8011 4.3404 6.1654 -1.9084 26.5584
#
#
#
# Elastic Compliance Matrix: (Units=1/GPa)
#
#
# Indices 1 2 3 4 5 6 
#
# 1 0.023799 0.011465 -0.004757 0.001261 -0.010409 0.016531
# 2 0.011465 0.063246 -0.022304 -0.005203 -0.025242 0.034605
# 3 -0.004757 -0.022304 0.019343 0.010356 0.014335 -0.016031
# 4 0.001261 -0.005203 0.010356 0.044876 0.010896 -0.012801
# 5 -0.010409 -0.025242 0.014335 0.010896 0.048733 -0.016942
# 6 0.016531 0.034605 -0.016031 -0.012801 -0.016942 0.064527
#
#
# Mechanical properties :
#
#
# Convention : Reuss Voigt Hill
#
# Bulk Modulus (GPa) = 13.29858 28.54013 20.91935
# Shear Modulus (GPa) = 15.58694 28.02031 21.80363
#
# Velocity S-wave (km/s) = 2.69925 3.61909 3.19248
# Velocity P-wave (km/s) = 3.99136 5.55019 4.83402
#
# Compressibility (1/GPa) = 0.07519602
#
# Stress axis : x y z
#
# Youngs Moduli (GPa) = 42.01805 15.81125 51.69919
#
# Poissons Ratio (x) = -0.18128 0.24595
# Poissons Ratio (y) = -0.48176 1.15311
# Poissons Ratio (z) = 0.19990 0.35266
#
# Static dielectric constant tensor:
#      x y z
#    x 1.799190 -0.002290 0.000850 
#    y -0.002290 1.764090 -0.016230 
#    z 0.000850 -0.016230 1.833750 
# 
# From -- ./inp_files/206177.got.cif
#   From: 2010.05.17/outbox.cif.g08.bks.cpg/sg2_104_cif.got.tgz:206177.got - 2010.06.03 11:33:40.
