data_PCOD9083587
_publ_section_title
;
Structure prediction by ZEFSAII (Michael W. Deem and Ramdas Pophale) SiO2 
 PCOD9083587
Probable space group: P -1
;
_chemical_formula_sum "Si O2"
_cell_formula_units_Z 12
_cell_length_a 7.381284
_cell_length_b 8.471850
_cell_length_c 11.150572
_cell_angle_alpha 101.118653
_cell_angle_beta 49.591132
_cell_angle_gamma 120.931637
_cell_volume 444.785857
_symmetry_space_group_name_H-M "P -1"
_symmetry_group_IT_number 2
_symmetry_cell_setting 'triclinic'
loop_
_space_group_symop_operation_xyz
x,y,z
-x,-y,-z
loop_
_atom_site_type_symbol
_atom_site_label
_atom_site_fract_x
_atom_site_fract_y
_atom_site_fract_z
Si Si1 0.287461 0.161517 0.127261
Si Si2 0.857503 0.264749 0.300739
Si Si3 0.032691 0.824532 0.427362
Si Si4 0.378802 0.311739 0.606397
Si Si5 0.651834 0.509391 0.741684
Si Si6 0.612290 0.040757 0.149226
O O1 0.460375 0.387933 0.110242
O O2 0.980303 0.134613 0.270996
O O3 0.451500 0.103632 0.137789
O O4 0.280429 0.070881 0.989868
O O5 0.568912 0.229259 0.470532
O O6 0.098809 0.471677 0.277767
O O7 0.813287 0.216303 0.172133
O O8 0.933028 0.789422 0.325934
O O9 0.836024 0.654064 0.575052
O O10 0.350526 0.886301 0.317506
O O11 0.000000 0.000000 0.500000
O O12 0.500000 0.500000 0.500000
O O13 0.415055 0.346634 0.738051
#
# Coordination Sequence:
#
# PCOD9083587 Si02
#       6
#     2   2   2   2   2   2
#     4   9  21  34  56  82 108 146 181 214 275 322
#     4  10  19  34  59  77 108 141 190 217 262 325
#     4  11  18  34  55  85 109 138 180 227 270 307
#     4  10  19  34  57  79 109 144 178 224 269 319
#     4   9  20  34  52  84 104 144 181 213 271 319
#     4  11  19  36  54  84 114 139 176 230 268 317
#
# _framework density 26.979274
#
# number of rings (size 3 to 8) (size 9 to 14) (size 15 to 20)
#    1.000    1.000    3.333    2.000    0.000    0.667 
#    3.000    0.833    0.000    4.000    0.000    0.000 
#    0.000    0.000    0.000    0.000    0.000    0.000 
#
# Total GULP energy -66888.809729 kJ/mol
# GULP energy per Si atom -5574.067477 kJ/mol
# Density = 2.691787 g / cm^3
# Si number density = 26.979274 Si / 1000 Ang^3
#
#
#
# Elastic Constant Matrix: (Units=GPa)
#
#
# Indices 1 2 3 4 5 6 
#
# 1 171.0882 58.4005 43.7760 22.2346 4.1486 31.8139
# 2 58.4005 67.3636 39.6018 36.3599 11.6738 47.0794
# 3 43.7760 39.6018 96.8312 37.5619 -8.3810 1.8877
# 4 22.2346 36.3599 37.5619 44.2172 0.2544 15.1940
# 5 4.1486 11.6738 -8.3810 0.2544 40.5210 17.2997
# 6 31.8139 47.0794 1.8877 15.1940 17.2997 70.4849
#
#
#
# Elastic Compliance Matrix: (Units=1/GPa)
#
#
# Indices 1 2 3 4 5 6 
#
# 1 0.009082 -0.012145 -0.001262 0.005610 0.001186 0.002546
# 2 -0.012145 0.081171 -0.013902 -0.035492 -0.008280 -0.038680
# 3 -0.001262 -0.013902 0.020005 -0.008443 0.003987 0.010161
# 4 0.005610 -0.035492 -0.008443 0.053016 0.003702 0.009063
# 5 0.001186 -0.008280 0.003987 0.003702 0.029041 -0.003037
# 6 0.002546 -0.038680 0.010161 0.009063 -0.003037 0.037394
#
#
# Mechanical properties :
#
#
# Convention : Reuss Voigt Hill
#
# Bulk Modulus (GPa) = 17.97224 68.75995 43.36610
# Shear Modulus (GPa) = 16.50860 43.94495 30.22677
#
# Velocity S-wave (km/s) = 2.47634 4.04027 3.35082
# Velocity P-wave (km/s) = 3.85387 6.87798 5.57489
#
# Compressibility (1/GPa) = 0.05564136
#
# Stress axis : x y z
#
# Youngs Moduli (GPa) = 110.10565 12.31969 49.98673
#
# Poissons Ratio (x) = 0.14962 0.06310
# Poissons Ratio (y) = 1.33719 0.69489
# Poissons Ratio (z) = 0.13899 0.17126
#
# Static dielectric constant tensor:
#      x y z
#    x 2.143250 -0.004510 0.047010 
#    y -0.004510 2.343570 -0.026340 
#    z 0.047010 -0.026340 2.113810 
# 
# From -- ./inp_files/163420.got.cif
#   From: 2010.05.17/outbox.cif.g08.bks.cpg/sg2_82_cif.got.tgz:163420.got - 2010.06.03 11:33:40.
