data_PCOD9083368
_publ_section_title
;
Structure prediction by ZEFSAII (Michael W. Deem and Ramdas Pophale) SiO2 
 PCOD9083368
Probable space group: P -1
;
_chemical_formula_sum "Si O2"
_cell_formula_units_Z 16
_cell_length_a 17.387427
_cell_length_b 7.869655
_cell_length_c 22.588490
_cell_angle_alpha 153.323255
_cell_angle_beta 26.739762
_cell_angle_gamma 136.809105
_cell_volume 586.898518
_symmetry_space_group_name_H-M "P -1"
_symmetry_group_IT_number 2
_symmetry_cell_setting 'triclinic'
loop_
_space_group_symop_operation_xyz
x,y,z
-x,-y,-z
loop_
_atom_site_type_symbol
_atom_site_label
_atom_site_fract_x
_atom_site_fract_y
_atom_site_fract_z
Si Si1 0.110730 0.420013 0.492147
Si Si2 0.806343 0.655504 0.428573
Si Si3 0.235380 0.292123 0.036653
Si Si4 0.277847 0.926779 0.603968
Si Si5 0.686516 0.606768 0.173988
Si Si6 0.687902 0.071340 0.901699
Si Si7 0.735933 0.329285 0.758351
Si Si8 0.288627 0.739989 0.727634
O O1 0.141809 0.821968 0.619265
O O2 0.914629 0.404550 0.635500
O O3 0.171922 0.300801 0.346036
O O4 0.231253 0.042193 0.333119
O O5 0.710931 0.394153 0.450507
O O6 0.812059 0.536108 0.318994
O O7 0.016296 0.523795 0.265150
O O8 0.692130 0.120019 0.664908
O O9 0.305168 0.551636 0.023834
O O10 0.340917 0.298908 0.027655
O O11 0.254114 0.883350 0.862920
O O12 0.470315 0.815142 0.402806
O O13 0.228176 0.339915 0.804481
O O14 0.756874 0.870421 0.161761
O O15 0.710305 0.203070 0.994536
O O16 0.500000 0.000000 0.000000
O O17 0.500000 0.500000 0.500000
#
# Coordination Sequence:
#
# PCOD9083368 Si02
#       8
#     2   2   2   2   2   2   2   2
#     4   9  13  23  39  63 102 112 138 184 251 277
#     4  10  16  30  52  74  96 120 157 208 240 274
#     4  10  17  30  49  74  95 120 165 199 238 284
#     4   9  15  26  43  69  93 116 148 203 240 271
#     4   9  18  27  42  65  95 126 156 186 240 288
#     4  10  16  23  39  69 102 120 139 189 250 286
#     4   9  14  26  45  74  95 112 152 200 244 282
#     4  10  22  34  45  66 102 138 161 186 232 288
#
# _framework density 27.261952000000001
#
# number of rings (size 3 to 8) (size 9 to 14) (size 15 to 20)
#    0.000    2.500    6.250    0.375    0.000    0.000 
#    0.000    0.625    0.000    0.750    0.000    7.875 
#    0.000    0.000    0.000    0.000    0.000    0.000 
#
# Total GULP energy -89290.588358 kJ/mol
# GULP energy per Si atom -5580.661772 kJ/mol
# Density = 2.719990 g / cm^3
# Si number density = 27.261952 Si / 1000 Ang^3
#
#
#
# Elastic Constant Matrix: (Units=GPa)
#
#
# Indices 1 2 3 4 5 6 
#
# 1 60.0024 80.6195 68.8764 51.9269 25.1812 -14.5446
# 2 80.6195 100.3826 39.2600 -5.3944 38.6294 26.3300
# 3 68.8764 39.2600 160.4830 19.5020 61.6673 33.4330
# 4 51.9269 -5.3944 19.5020 39.7585 40.1606 38.0556
# 5 25.1812 38.6294 61.6673 40.1606 61.2186 8.5408
# 6 -14.5446 26.3300 33.4330 38.0556 8.5408 37.8182
#
#
#
# Elastic Compliance Matrix: (Units=1/GPa)
#
#
# Indices 1 2 3 4 5 6 
#
# 1 0.006036 0.001482 0.001726 0.010633 -0.010951 -0.008462
# 2 0.001482 0.007213 -0.003790 -0.007595 0.002815 0.005906
# 3 0.001726 -0.003790 0.008042 -0.004555 -0.003654 0.001602
# 4 0.010633 -0.007595 -0.004555 0.007603 -0.000808 0.005936
# 5 -0.010951 0.002815 -0.003654 -0.000808 0.024338 -0.007625
# 6 -0.008462 0.005906 0.001602 0.005936 -0.007625 0.013408
#
#
# Mechanical properties :
#
#
# Convention : Reuss Voigt Hill
#
# Bulk Modulus (GPa) = 49.68457 77.59776 63.64116
# Shear Modulus (GPa) = 67.10356 36.56652 51.83504
#
# Velocity S-wave (km/s) = 4.96667 3.66635 4.36520
# Velocity P-wave (km/s) = 7.15226 6.81531 6.98582
#
# Compressibility (1/GPa) = 0.02012697
#
# Stress axis : x y z
#
# Youngs Moduli (GPa) = 165.66125 138.64056 124.35422
#
# Poissons Ratio (x) = -0.20553 -0.21459
# Poissons Ratio (y) = -0.24558 0.47130
# Poissons Ratio (z) = -0.28587 0.52545
#
# Static dielectric constant tensor:
#      x y z
#    x 2.262000 0.061990 0.009620 
#    y 0.061990 2.106170 0.070590 
#    z 0.009620 0.070590 2.188500 
# 
# From -- ./inp_files/624159.got.cif
#   From: 2010.05.17/outbox.cif.g08.bks.cpg/sg2_313_cif.got.tgz:624159.got - 2010.06.03 11:33:40.
