data_PCOD9083567
_publ_section_title
;
Structure prediction by ZEFSAII (Michael W. Deem and Ramdas Pophale) SiO2 
 PCOD9083567
Probable space group: P -1
;
_chemical_formula_sum "Si O2"
_cell_formula_units_Z 14
_cell_length_a 14.192350
_cell_length_b 10.854784
_cell_length_c 8.393633
_cell_angle_alpha 126.303636
_cell_angle_beta 120.167904
_cell_angle_gamma 31.754360
_cell_volume 548.423903
_symmetry_space_group_name_H-M "P -1"
_symmetry_group_IT_number 2
_symmetry_cell_setting 'triclinic'
loop_
_space_group_symop_operation_xyz
x,y,z
-x,-y,-z
loop_
_atom_site_type_symbol
_atom_site_label
_atom_site_fract_x
_atom_site_fract_y
_atom_site_fract_z
Si Si1 0.972926 0.791104 0.263961
Si Si2 0.770885 0.316523 0.445946
Si Si3 0.613622 0.949809 0.864545
Si Si4 0.736286 0.801738 0.220217
Si Si5 0.081704 0.003377 0.216217
Si Si6 0.067370 0.281428 0.189810
Si Si7 0.472424 0.466085 0.130780
O O1 0.878237 0.778930 0.292938
O O2 0.179741 0.603064 0.329154
O O3 0.852387 0.073338 0.404699
O O4 0.942627 0.782821 0.046612
O O5 0.585102 0.461132 0.331245
O O6 0.913397 0.199145 0.339355
O O7 0.461010 0.998676 0.724331
O O8 0.779438 0.764831 0.743652
O O9 0.537670 0.213980 0.005168
O O10 0.687663 0.829956 0.012704
O O11 0.861335 0.553553 0.241571
O O12 0.265928 0.714174 0.195011
O O13 0.129813 0.110194 0.257930
O O14 0.000000 0.000000 0.000000
O O15 0.500000 0.500000 0.000000
#
# Coordination Sequence:
#
# PCOD9083567 Si02
#       7
#     2   2   2   2   2   2   2
#     4  10  20  41  59  86 125 154 191 244 302 344
#     4  11  23  39  60  88 126 152 189 251 300 346
#     4  10  19  34  56  92 113 145 200 251 281 330
#     4  10  21  36  61  86 115 157 201 237 286 350
#     4  12  21  36  61  91 115 154 200 240 292 351
#     4  11  20  38  63  89 112 155 203 240 285 348
#     4  12  20  36  62  89 119 150 199 248 291 345
#
# _framework density 25.527698000000001
#
# number of rings (size 3 to 8) (size 9 to 14) (size 15 to 20)
#    0.000    1.143    7.143    2.571    0.000    0.000 
#    0.000    9.286    0.000    1.714    0.000    0.000 
#    0.000    0.000    0.000    0.000    0.000    0.000 
#
# Total GULP energy -78079.548239 kJ/mol
# GULP energy per Si atom -5577.110589 kJ/mol
# Density = 2.546960 g / cm^3
# Si number density = 25.527698 Si / 1000 Ang^3
#
#
#
# Elastic Constant Matrix: (Units=GPa)
#
#
# Indices 1 2 3 4 5 6 
#
# 1 89.2926 35.9162 19.1622 -3.9350 7.9433 -20.3601
# 2 35.9162 132.5638 15.5448 -21.4229 15.3788 -19.4920
# 3 19.1622 15.5448 54.8267 -12.4474 7.6029 -4.3458
# 4 -3.9350 -21.4229 -12.4474 26.9693 -14.4552 12.0925
# 5 7.9433 15.3788 7.6029 -14.4552 41.9822 -11.7545
# 6 -20.3601 -19.4920 -4.3458 12.0925 -11.7545 49.6018
#
#
#
# Elastic Compliance Matrix: (Units=1/GPa)
#
#
# Indices 1 2 3 4 5 6 
#
# 1 0.014715 -0.003432 -0.004920 -0.005898 -0.001147 0.005426
# 2 -0.003432 0.009696 0.000086 0.006716 -0.000417 0.000673
# 3 -0.004920 0.000086 0.022174 0.010691 -0.000190 -0.002694
# 4 -0.005898 0.006716 0.010691 0.058417 0.014105 -0.009744
# 5 -0.001147 -0.000417 -0.000190 0.014105 0.029921 0.003000
# 6 0.005426 0.000673 -0.002694 -0.009744 0.003000 0.025503
#
#
# Mechanical properties :
#
#
# Convention : Reuss Voigt Hill
#
# Bulk Modulus (GPa) = 33.27300 46.43659 39.85479
# Shear Modulus (GPa) = 26.74172 37.44799 32.09485
#
# Velocity S-wave (km/s) = 3.24011 3.83424 3.54963
# Velocity P-wave (km/s) = 5.20193 6.15077 5.69615
#
# Compressibility (1/GPa) = 0.03005440
#
# Stress axis : x y z
#
# Youngs Moduli (GPa) = 67.95904 103.13650 45.09729
#
# Poissons Ratio (x) = 0.35396 0.22186
# Poissons Ratio (y) = 0.23323 -0.00389
# Poissons Ratio (z) = 0.33433 -0.00890
#
# Static dielectric constant tensor:
#      x y z
#    x 2.487100 0.228630 0.077910 
#    y 0.228630 2.106450 0.049110 
#    z 0.077910 0.049110 2.198570 
# 
# From -- ./inp_files/305687.got.cif
#   From: 2010.05.17/outbox.cif.g08.bks.cpg/sg2_153_cif.got.tgz:305687.got - 2010.06.03 11:33:40.
