data_PCOD9083896
_publ_section_title
;
Structure prediction by ZEFSAII (Michael W. Deem and Ramdas Pophale) SiO2 
 PCOD9083896
Probable space group: P -1
;
_chemical_formula_sum "Si O2"
_cell_formula_units_Z 16
_cell_length_a 8.286946
_cell_length_b 10.107376
_cell_length_c 12.792670
_cell_angle_alpha 125.010439
_cell_angle_beta 54.183362
_cell_angle_gamma 132.053937
_cell_volume 615.060155
_symmetry_space_group_name_H-M "P -1"
_symmetry_group_IT_number 2
_symmetry_cell_setting 'triclinic'
loop_
_space_group_symop_operation_xyz
x,y,z
-x,-y,-z
loop_
_atom_site_type_symbol
_atom_site_label
_atom_site_fract_x
_atom_site_fract_y
_atom_site_fract_z
Si Si1 0.670339 0.288354 0.593214
Si Si2 0.388856 0.484452 0.868024
Si Si3 0.829054 0.857170 0.086185
Si Si4 0.107288 0.416273 0.742125
Si Si5 0.609947 0.091156 0.719488
Si Si6 0.878723 0.362656 0.340315
Si Si7 0.778105 0.822589 0.557394
Si Si8 0.160611 0.173391 0.220413
O O1 0.508191 0.366401 0.728823
O O2 0.628282 0.110302 0.594556
O O3 0.678078 0.294722 0.469784
O O4 0.926108 0.434015 0.602067
O O5 0.269651 0.366740 0.966075
O O6 0.200086 0.455202 0.841081
O O7 0.595940 0.700258 0.875161
O O8 0.609090 0.885286 0.168901
O O9 0.000122 0.950632 0.164493
O O10 0.000000 0.000000 0.000000
O O11 0.152180 0.603157 0.751532
O O12 0.248147 0.342802 0.583315
O O13 0.837387 0.261190 0.763729
O O14 0.606863 0.905140 0.670124
O O15 0.995067 0.240623 0.264213
O O16 0.808892 0.782088 0.647769
O O17 0.000000 0.000000 0.500000
#
# Coordination Sequence:
#
# PCOD9083896 Si02
#       8
#     2   2   2   2   2   2   2   2
#     4   8  15  29  50  80 121 164 196 231 282 351
#     4  10  22  39  60  90 124 157 199 251 303 363
#     4  11  25  46  68  85 111 157 213 272 318 350
#     4  10  19  34  58  92 135 166 189 231 293 371
#     4   9  19  36  58  85 121 162 205 252 299 355
#     4   9  16  30  52  84 123 163 200 228 280 360
#     4  10  19  34  58  95 135 166 196 233 291 371
#     4  11  23  39  62  91 125 163 206 252 300 360
#
# _framework density 26.013717
#
# number of rings (size 3 to 8) (size 9 to 14) (size 15 to 20)
#    0.000    2.250    0.000    6.000    0.000    4.500 
#    0.000    8.750    0.000    2.250    0.000    0.000 
#    0.000    0.000    0.000    0.000    0.000    0.000 
#
# Total GULP energy -89342.180076 kJ/mol
# GULP energy per Si atom -5583.886255 kJ/mol
# Density = 2.595451 g / cm^3
# Si number density = 26.013717 Si / 1000 Ang^3
#
#
#
# Elastic Constant Matrix: (Units=GPa)
#
#
# Indices 1 2 3 4 5 6 
#
# 1 119.7075 40.7383 25.6592 -11.7640 3.1504 -10.0941
# 2 40.7383 117.1913 17.2550 -23.1427 -3.6470 12.6908
# 3 25.6592 17.2550 66.9647 -23.3392 -2.8827 -1.7147
# 4 -11.7640 -23.1427 -23.3392 34.0014 3.1641 5.4111
# 5 3.1504 -3.6470 -2.8827 3.1641 23.2096 -11.5973
# 6 -10.0941 12.6908 -1.7147 5.4111 -11.5973 51.5930
#
#
#
# Elastic Compliance Matrix: (Units=1/GPa)
#
#
# Indices 1 2 3 4 5 6 
#
# 1 0.010520 -0.003824 -0.003653 -0.001859 -0.000782 0.002897
# 2 -0.003824 0.011823 0.001174 0.008370 -0.000974 -0.004714
# 3 -0.003653 0.001174 0.020932 0.014120 0.000520 -0.001672
# 4 -0.001859 0.008370 0.014120 0.046163 -0.007173 -0.008407
# 5 -0.000782 -0.000974 0.000520 -0.007173 0.050141 0.012127
# 6 0.002897 -0.004714 -0.001672 -0.008407 0.012127 0.024661
#
#
# Mechanical properties :
#
#
# Convention : Reuss Voigt Hill
#
# Bulk Modulus (GPa) = 32.60809 52.35204 42.48006
# Shear Modulus (GPa) = 26.72809 36.44152 31.58481
#
# Velocity S-wave (km/s) = 3.20888 3.74686 3.48826
# Velocity P-wave (km/s) = 5.12751 6.23595 5.70870
#
# Compressibility (1/GPa) = 0.03066724
#
# Stress axis : x y z
#
# Youngs Moduli (GPa) = 95.05362 84.58184 47.77481
#
# Poissons Ratio (x) = 0.32347 0.17453
# Poissons Ratio (y) = 0.36352 -0.05607
# Poissons Ratio (z) = 0.34724 -0.09927
#
# Static dielectric constant tensor:
#      x y z
#    x 2.073110 0.032630 -0.020600 
#    y 0.032630 2.161590 0.028200 
#    z -0.020600 0.028200 2.164120 
# 
# From -- ./inp_files/390664.got.cif
#   From: 2010.05.17/outbox.cif.g08.bks.cpg/sg2_196_cif.got.tgz:390664.got - 2010.06.03 11:33:40.
