data_PCOD9083977
_publ_section_title
;
Structure prediction by ZEFSAII (Michael W. Deem and Ramdas Pophale) SiO2 
 PCOD9083977
Probable space group: P -1
;
_chemical_formula_sum "Si O2"
_cell_formula_units_Z 16
_cell_length_a 11.804718
_cell_length_b 18.983527
_cell_length_c 7.096269
_cell_angle_alpha 57.846309
_cell_angle_beta 87.026105
_cell_angle_gamma 40.212038
_cell_volume 661.572125
_symmetry_space_group_name_H-M "P -1"
_symmetry_group_IT_number 2
_symmetry_cell_setting 'triclinic'
loop_
_space_group_symop_operation_xyz
x,y,z
-x,-y,-z
loop_
_atom_site_type_symbol
_atom_site_label
_atom_site_fract_x
_atom_site_fract_y
_atom_site_fract_z
Si Si1 0.767452 0.215920 0.893668
Si Si2 0.634033 0.127811 0.065299
Si Si3 0.147122 0.190826 0.548739
Si Si4 0.973463 0.721916 0.000064
Si Si5 0.308184 0.262421 0.454602
Si Si6 0.840402 0.624922 0.130398
Si Si7 0.278900 0.571017 0.506574
Si Si8 0.243986 0.963333 0.377141
O O1 0.535012 0.378390 0.808289
O O2 0.747827 0.312056 0.632386
O O3 0.734970 0.143216 0.928387
O O4 0.013663 0.064937 0.186743
O O5 0.734209 0.974864 0.211099
O O6 0.708099 0.089877 0.333926
O O7 0.357646 0.298544 0.854138
O O8 0.324341 0.152382 0.627138
O O9 0.038134 0.269721 0.236911
O O10 0.927599 0.338129 0.492032
O O11 0.817152 0.899423 0.818759
O O12 0.216581 0.586283 0.273378
O O13 0.869167 0.700075 0.095802
O O14 0.093090 0.425999 0.367612
O O15 0.528304 0.182005 0.565416
O O16 0.245182 0.314056 0.165585
#
# Coordination Sequence:
#
# PCOD9083977 Si02
#       8
#     2   2   2   2   2   2   2   2
#     4  10  21  39  56  80 121 158 193 239 283 335
#     4  10  19  34  59  87 117 154 193 235 288 345
#     4  10  20  37  63  89 115 150 190 239 294 343
#     4   9  19  38  60  88 116 148 191 237 294 342
#     4   9  17  32  58  90 117 148 190 236 292 346
#     4   9  17  32  58  89 119 147 186 241 290 344
#     4  10  22  41  61  83 117 154 194 242 285 337
#     4   9  18  35  58  85 120 155 190 237 288 342
#
# _framework density 24.184816000000001
#
# number of rings (size 3 to 8) (size 9 to 14) (size 15 to 20)
#    0.000    2.500    0.000    1.875    0.000    4.500 
#    0.000   24.375    0.000    0.000    0.000    0.000 
#    0.000    0.000    0.000    0.000    0.000    0.000 
#
# Total GULP energy -89420.029886 kJ/mol
# GULP energy per Si atom -5588.751868 kJ/mol
# Density = 2.412977 g / cm^3
# Si number density = 24.184816 Si / 1000 Ang^3
#
#
#
# Elastic Constant Matrix: (Units=GPa)
#
#
# Indices 1 2 3 4 5 6 
#
# 1 175.8857 28.6043 56.7223 -5.5323 15.4075 -1.3933
# 2 28.6043 63.4773 28.4219 -6.3822 23.5461 -9.2739
# 3 56.7223 28.4219 90.0891 -1.7675 15.2004 1.7436
# 4 -5.5323 -6.3822 -1.7675 27.2605 -4.7886 5.2538
# 5 15.4075 23.5461 15.2004 -4.7886 38.0133 -11.3612
# 6 -1.3933 -9.2739 1.7436 5.2538 -11.3612 28.3003
#
#
#
# Elastic Compliance Matrix: (Units=1/GPa)
#
#
# Indices 1 2 3 4 5 6 
#
# 1 0.007271 -0.001187 -0.004098 0.000871 -0.000506 -0.000143
# 2 -0.001187 0.023063 -0.004736 0.002384 -0.010698 0.003054
# 3 -0.004098 -0.004736 0.015723 -0.000707 -0.002905 -0.003757
# 4 0.000871 0.002384 -0.000707 0.038753 0.001641 -0.005668
# 5 -0.000506 -0.010698 -0.002905 0.001641 0.037969 0.011587
# 6 -0.000143 0.003054 -0.003757 -0.005668 0.011587 0.042264
#
#
# Mechanical properties :
#
#
# Convention : Reuss Voigt Hill
#
# Bulk Modulus (GPa) = 38.43937 61.88325 50.16131
# Shear Modulus (GPa) = 25.80541 33.09505 29.45023
#
# Velocity S-wave (km/s) = 3.27005 3.70323 3.49336
# Velocity P-wave (km/s) = 5.49420 6.62785 6.08747
#
# Compressibility (1/GPa) = 0.02601500
#
# Stress axis : x y z
#
# Youngs Moduli (GPa) = 137.53697 43.35909 63.59911
#
# Poissons Ratio (x) = 0.05147 0.26063
# Poissons Ratio (y) = 0.16328 0.30121
# Poissons Ratio (z) = 0.56364 0.20535
#
# Static dielectric constant tensor:
#      x y z
#    x 1.902240 0.015090 0.009940 
#    y 0.015090 1.923550 0.012270 
#    z 0.009940 0.012270 1.984210 
# 
# From -- ./inp_files/226477.got.cif
#   From: 2010.05.17/outbox.cif.g08.bks.cpg/sg2_114_cif.got.tgz:226477.got - 2010.06.03 11:33:40.
