data_PCOD9083220
_publ_section_title
;
Structure prediction by ZEFSAII (Michael W. Deem and Ramdas Pophale) SiO2 
 PCOD9083220
Probable space group: P -1
;
_chemical_formula_sum "Si O2"
_cell_formula_units_Z 16
_cell_length_a 9.698407
_cell_length_b 13.680939
_cell_length_c 7.221139
_cell_angle_alpha 130.448873
_cell_angle_beta 73.729141
_cell_angle_gamma 83.059437
_cell_volume 637.038277
_symmetry_space_group_name_H-M "P -1"
_symmetry_group_IT_number 2
_symmetry_cell_setting 'triclinic'
loop_
_space_group_symop_operation_xyz
x,y,z
-x,-y,-z
loop_
_atom_site_type_symbol
_atom_site_label
_atom_site_fract_x
_atom_site_fract_y
_atom_site_fract_z
Si Si1 0.280266 0.204231 0.540243
Si Si2 0.575091 0.613074 0.401089
Si Si3 0.345521 0.673153 0.888190
Si Si4 0.135277 0.634509 0.588931
Si Si5 0.242114 0.843148 0.685942
Si Si6 0.848435 0.024344 0.709788
Si Si7 0.783425 0.681309 0.877025
Si Si8 0.594006 0.978486 0.248055
O O1 0.281816 0.339873 0.602516
O O2 0.457242 0.082164 0.294592
O O3 0.174084 0.119567 0.446635
O O4 0.248588 0.259764 0.830302
O O5 0.502082 0.632706 0.657796
O O6 0.623972 0.450639 0.129502
O O7 0.422135 0.720629 0.479843
O O8 0.216358 0.659419 0.777222
O O9 0.286334 0.835814 0.164208
O O10 0.146352 0.746788 0.573730
O O11 0.224458 0.469443 0.304212
O O12 0.957002 0.660611 0.725398
O O13 0.267580 0.966280 0.718027
O O14 0.167995 0.922431 0.005736
O O15 0.000000 0.000000 0.500000
O O16 0.665396 0.815279 0.969536
O O17 0.500000 0.000000 0.500000
#
# Coordination Sequence:
#
# PCOD9083220 Si02
#       8
#     2   2   2   2   2   2   2   2
#     4  10  19  34  53  77 106 131 168 215 258 306
#     4   8  17  33  54  79 100 128 168 213 260 305
#     4   9  18  34  54  76 101 133 171 209 259 305
#     4   9  19  35  53  71 102 139 172 210 248 303
#     4   9  19  35  55  79 103 133 174 214 259 305
#     4  10  20  34  53  77 109 139 165 208 261 311
#     4  10  20  35  52  73 103 140 175 209 254 301
#     4   9  20  36  54  78 103 135 176 216 258 300
#
# _framework density 25.116229000000001
#
# number of rings (size 3 to 8) (size 9 to 14) (size 15 to 20)
#    0.000    3.000    0.000    1.500    0.000   10.000 
#    0.000   17.500    0.000    0.000    0.000    0.000 
#    0.000    0.000    0.000    0.000    0.000    0.000 
#
# Total GULP energy -89265.589608 kJ/mol
# GULP energy per Si atom -5579.099350 kJ/mol
# Density = 2.505906 g / cm^3
# Si number density = 25.116229 Si / 1000 Ang^3
#
#
#
# Elastic Constant Matrix: (Units=GPa)
#
#
# Indices 1 2 3 4 5 6 
#
# 1 57.7530 27.2070 16.8740 3.2129 3.0435 28.7604
# 2 27.2070 148.8771 43.8740 29.4632 2.7326 57.8912
# 3 16.8740 43.8740 104.1354 12.5973 4.1211 8.9501
# 4 3.2129 29.4632 12.5973 25.0752 6.6634 0.8696
# 5 3.0435 2.7326 4.1211 6.6634 32.2793 6.6423
# 6 28.7604 57.8912 8.9501 0.8696 6.6423 47.4866
#
#
#
# Elastic Compliance Matrix: (Units=1/GPa)
#
#
# Indices 1 2 3 4 5 6 
#
# 1 0.029501 0.010843 -0.005202 -0.014512 0.006281 -0.030719
# 2 0.010843 0.031039 -0.007169 -0.036416 0.013906 -0.044334
# 3 -0.005202 -0.007169 0.012326 0.003411 -0.003229 0.009956
# 4 -0.014512 -0.036416 0.003411 0.087645 -0.025286 0.054473
# 5 0.006281 0.013906 -0.003229 -0.025286 0.040046 -0.025287
# 6 -0.030719 -0.044334 0.009956 0.054473 -0.025287 0.094375
#
#
# Mechanical properties :
#
#
# Convention : Reuss Voigt Hill
#
# Bulk Modulus (GPa) = 14.32441 54.07507 34.19974
# Shear Modulus (GPa) = 15.56393 35.82226 25.69310
#
# Velocity S-wave (km/s) = 2.49203 3.78068 3.20186
# Velocity P-wave (km/s) = 3.74111 6.37454 5.22641
#
# Compressibility (1/GPa) = 0.06981092
#
# Stress axis : x y z
#
# Youngs Moduli (GPa) = 33.89763 32.21736 81.13156
#
# Poissons Ratio (x) = -0.34935 0.42202
# Poissons Ratio (y) = -0.36757 0.58163
# Poissons Ratio (z) = 0.17632 0.23097
#
# Static dielectric constant tensor:
#      x y z
#    x 2.089950 -0.083940 0.029200 
#    y -0.083940 2.126480 0.035890 
#    z 0.029200 0.035890 1.949530 
# 
# From -- ./inp_files/271167.got.cif
#   From: 2010.05.17/outbox.cif.g08.bks.cpg/sg2_136_cif.got.tgz:271167.got - 2010.06.03 11:33:40.
