data_PCOD9083373
_publ_section_title
;
Structure prediction by ZEFSAII (Michael W. Deem and Ramdas Pophale) SiO2 
 PCOD9083373
Probable space group: P -1
;
_chemical_formula_sum "Si O2"
_cell_formula_units_Z 16
_cell_length_a 29.468380
_cell_length_b 17.290404
_cell_length_c 14.750566
_cell_angle_alpha 157.081176
_cell_angle_beta 158.597276
_cell_angle_gamma 18.873106
_cell_volume 834.481717
_symmetry_space_group_name_H-M "P -1"
_symmetry_group_IT_number 2
_symmetry_cell_setting 'triclinic'
loop_
_space_group_symop_operation_xyz
x,y,z
-x,-y,-z
loop_
_atom_site_type_symbol
_atom_site_label
_atom_site_fract_x
_atom_site_fract_y
_atom_site_fract_z
Si Si1 0.098292 0.540043 0.341090
Si Si2 0.156468 0.600340 0.848896
Si Si3 0.838814 0.999165 0.796696
Si Si4 0.795715 0.937824 0.101438
Si Si5 0.535657 0.933102 0.701389
Si Si6 0.162871 0.292243 0.378778
Si Si7 0.583248 0.936869 0.183242
Si Si8 0.651818 0.445606 0.272330
O O1 0.078216 0.465677 0.322117
O O2 0.241433 0.550136 0.599976
O O3 0.940509 0.806669 0.299830
O O4 0.144923 0.298544 0.108812
O O5 0.099558 0.477104 0.546760
O O6 0.310704 0.365981 0.933370
O O7 0.202136 0.733496 0.010937
O O8 0.014331 0.797871 0.864137
O O9 0.843479 0.926353 0.831739
O O10 0.709325 0.991807 0.494381
O O11 0.751488 0.177152 0.220891
O O12 0.641222 0.006918 0.939697
O O13 0.598037 0.668729 0.485146
O O14 0.351307 0.144772 0.559396
O O15 0.534163 0.928170 0.802730
O O16 0.500000 0.000000 0.000000
O O17 0.500000 0.500000 0.000000
#
# Coordination Sequence:
#
# PCOD9083373 Si02
#       8
#     2   2   2   2   2   2   2   2
#     4  10  22  36  54  81 106 141 180 216 271 324
#     4   9  19  36  56  79 107 140 182 223 265 318
#     4   9  19  36  56  78 105 139 181 224 264 317
#     4  10  21  38  54  75 114 142 172 224 267 318
#     4   9  21  36  54  81 106 141 184 217 263 322
#     4  10  19  34  55  79 107 138 180 223 266 317
#     4  10  21  36  56  80 112 145 176 221 272 317
#     4  11  21  36  59  81 108 143 180 221 267 318
#
# _framework density 19.173577999999999
#
# number of rings (size 3 to 8) (size 9 to 14) (size 15 to 20)
#    0.000    2.500    0.000    3.375    0.000   11.500 
#    0.000    2.500    0.000    0.000    0.000    0.000 
#    0.000    0.000    0.000    0.000    0.000    0.000 
#
# Total GULP energy -89174.340092 kJ/mol
# GULP energy per Si atom -5573.396256 kJ/mol
# Density = 1.912994 g / cm^3
# Si number density = 19.173578 Si / 1000 Ang^3
#
#
#
# Elastic Constant Matrix: (Units=GPa)
#
#
# Indices 1 2 3 4 5 6 
#
# 1 96.1107 24.8416 15.4883 -7.9114 4.8138 30.8800
# 2 24.8416 63.7093 4.0446 4.5368 3.5276 24.0265
# 3 15.4883 4.0446 36.5238 3.9654 13.1069 18.2614
# 4 -7.9114 4.5368 3.9654 22.2267 5.2755 0.7864
# 5 4.8138 3.5276 13.1069 5.2755 28.2728 1.7206
# 6 30.8800 24.0265 18.2614 0.7864 1.7206 42.2770
#
#
#
# Elastic Compliance Matrix: (Units=1/GPa)
#
#
# Indices 1 2 3 4 5 6 
#
# 1 0.014836 -0.002834 -0.001686 0.006978 -0.002173 -0.008539
# 2 -0.002834 0.021973 0.007435 -0.005426 -0.003879 -0.013370
# 3 -0.001686 0.007435 0.045781 -0.004853 -0.019627 -0.021880
# 4 0.006978 -0.005426 -0.004853 0.051320 -0.007804 -0.000554
# 5 -0.002173 -0.003879 -0.019627 -0.007804 0.046137 0.010537
# 6 -0.008539 -0.013370 -0.021880 -0.000554 0.010537 0.046521
#
#
# Mechanical properties :
#
#
# Convention : Reuss Voigt Hill
#
# Bulk Modulus (GPa) = 11.30986 31.67697 21.49341
# Shear Modulus (GPa) = 19.98321 28.68658 24.33490
#
# Velocity S-wave (km/s) = 3.23186 3.87221 3.56643
# Velocity P-wave (km/s) = 4.45399 6.04558 5.30976
#
# Compressibility (1/GPa) = 0.08841844
#
# Stress axis : x y z
#
# Youngs Moduli (GPa) = 67.40573 45.51101 21.84330
#
# Poissons Ratio (x) = 0.12898 0.03682
# Poissons Ratio (y) = 0.19103 -0.16240
# Poissons Ratio (z) = 0.11363 -0.33836
#
# Static dielectric constant tensor:
#      x y z
#    x 1.692420 0.006900 0.001320 
#    y 0.006900 1.662660 0.006700 
#    z 0.001320 0.006700 1.685530 
# 
# From -- ./inp_files/545110.got.cif
#   From: 2010.05.17/outbox.cif.g08.bks.cpg/sg2_273_cif.got.tgz:545110.got - 2010.06.03 11:33:40.
