data_PCOD9083356
_publ_section_title
;
Structure prediction by ZEFSAII (Michael W. Deem and Ramdas Pophale) SiO2 
 PCOD9083356
Probable space group: P -1
;
_chemical_formula_sum "Si O2"
_cell_formula_units_Z 16
_cell_length_a 6.361578
_cell_length_b 18.395410
_cell_length_c 5.121282
_cell_angle_alpha 90.307381
_cell_angle_beta 89.816909
_cell_angle_gamma 87.827847
_cell_volume 598.869348
_symmetry_space_group_name_H-M "P -1"
_symmetry_group_IT_number 2
_symmetry_cell_setting 'triclinic'
loop_
_space_group_symop_operation_xyz
x,y,z
-x,-y,-z
loop_
_atom_site_type_symbol
_atom_site_label
_atom_site_fract_x
_atom_site_fract_y
_atom_site_fract_z
Si Si1 0.224875 0.222664 0.728965
Si Si2 0.479456 0.350571 0.709332
Si Si3 0.260126 0.961254 0.803798
Si Si4 0.742762 0.473351 0.810539
Si Si5 0.984547 0.412900 0.308578
Si Si6 0.494822 0.091761 0.699571
Si Si7 0.006966 0.835329 0.771460
Si Si8 0.718012 0.291130 0.207731
O O1 0.263326 0.308882 0.740498
O O2 0.444788 0.176319 0.748387
O O3 0.131593 0.193171 0.462052
O O4 0.084229 0.194374 0.961279
O O5 0.520752 0.436210 0.759287
O O6 0.564214 0.326014 0.426225
O O7 0.631947 0.313998 0.927779
O O8 0.424391 0.927581 0.588533
O O9 0.044195 0.921022 0.760340
O O10 0.285572 0.046671 0.761101
O O11 0.337403 0.939211 0.091648
O O12 0.899600 0.434330 0.595390
O O13 0.785105 0.557392 0.747592
O O14 0.832255 0.453498 0.094998
O O15 0.938964 0.329971 0.256387
O O16 0.234474 0.793232 0.750607
#
# Coordination Sequence:
#
# PCOD9083356 Si02
#       8
#     2   2   2   2   2   2   2   2
#     4  12  24  36  53  79 111 140 170 212 258 306
#     4  10  19  34  55  75 101 138 177 214 254 306
#     4  10  21  39  61  81 103 135 175 214 254 306
#     4   8  14  25  45  73  97 121 164 218 258 290
#     4   8  14  25  45  73  97 121 164 218 258 290
#     4  10  21  39  61  81 103 135 175 214 254 306
#     4  12  24  36  53  79 111 140 170 212 258 306
#     4  10  19  34  55  75 101 138 177 214 254 306
#
# _framework density 26.717015
#
# number of rings (size 3 to 8) (size 9 to 14) (size 15 to 20)
#    0.000    2.000    0.000    4.500    0.000    1.000 
#    0.000    0.000    0.000    1.500    0.000    0.000 
#    0.000    0.000    0.000    0.000    0.000    0.000 
#
# Total GULP energy -89584.762786 kJ/mol
# GULP energy per Si atom -5599.047674 kJ/mol
# Density = 2.665621 g / cm^3
# Si number density = 26.717015 Si / 1000 Ang^3
#
#
#
# Elastic Constant Matrix: (Units=GPa)
#
#
# Indices 1 2 3 4 5 6 
#
# 1 66.4353 49.2510 44.9545 1.3633 -0.5646 25.3977
# 2 49.2510 146.4175 36.4512 -0.0094 1.2211 55.2089
# 3 44.9545 36.4512 176.0018 8.2821 6.1562 16.7132
# 4 1.3633 -0.0094 8.2821 28.9542 9.6228 1.4266
# 5 -0.5646 1.2211 6.1562 9.6228 42.5430 1.5989
# 6 25.3977 55.2089 16.7132 1.4266 1.5989 71.3249
#
#
#
# Elastic Compliance Matrix: (Units=1/GPa)
#
#
# Indices 1 2 3 4 5 6 
#
# 1 0.023489 -0.005664 -0.004589 -0.000071 0.001265 -0.002932
# 2 -0.005664 0.011336 -0.000292 0.000778 -0.000282 -0.006698
# 3 -0.004589 -0.000292 0.006987 -0.001556 -0.000722 0.000270
# 4 -0.000071 0.000778 -0.001556 0.037788 -0.008316 -0.000781
# 5 0.001265 -0.000282 -0.000722 -0.008316 0.025534 -0.000469
# 6 -0.002932 -0.006698 0.000270 -0.000781 -0.000469 0.020212
#
#
# Mechanical properties :
#
#
# Convention : Reuss Voigt Hill
#
# Bulk Modulus (GPa) = 48.25565 72.24088 60.24826
# Shear Modulus (GPa) = 32.60661 45.77761 39.19211
#
# Velocity S-wave (km/s) = 3.49727 4.14384 3.83421
# Velocity P-wave (km/s) = 5.86591 7.07059 6.49623
#
# Compressibility (1/GPa) = 0.02072296
#
# Stress axis : x y z
#
# Youngs Moduli (GPa) = 42.57251 88.21673 143.11955
#
# Poissons Ratio (x) = 0.49964 0.65680
# Poissons Ratio (y) = 0.24112 0.04175
# Poissons Ratio (z) = 0.19537 0.02573
#
# Static dielectric constant tensor:
#      x y z
#    x 2.091240 0.089670 -0.003890 
#    y 0.089670 2.083690 0.002900 
#    z -0.003890 0.002900 1.981090 
# 
# From -- ./inp_files/11112.got.cif
#   From: 2010.05.17/outbox.cif.g08.bks.cpg/sg2_6_cif.got.tgz:11112.got - 2010.06.03 11:33:40.
