data_PCOD9083297
_publ_section_title
;
Structure prediction by ZEFSAII (Michael W. Deem and Ramdas Pophale) SiO2 
 PCOD9083297
Probable space group: P -1
;
_chemical_formula_sum "Si O2"
_cell_formula_units_Z 14
_cell_length_a 17.244962
_cell_length_b 5.190304
_cell_length_c 22.815188
_cell_angle_alpha 81.970658
_cell_angle_beta 29.529749
_cell_angle_gamma 66.664827
_cell_volume 823.949982
_symmetry_space_group_name_H-M "P -1"
_symmetry_group_IT_number 2
_symmetry_cell_setting 'triclinic'
loop_
_space_group_symop_operation_xyz
x,y,z
-x,-y,-z
loop_
_atom_site_type_symbol
_atom_site_label
_atom_site_fract_x
_atom_site_fract_y
_atom_site_fract_z
Si Si1 0.551115 0.223849 0.174819
Si Si2 0.778841 0.153717 0.132841
Si Si3 0.247484 0.512503 0.145104
Si Si4 0.405138 0.905010 0.986463
Si Si5 0.148232 0.799767 0.459840
Si Si6 0.862110 0.736883 0.451554
Si Si7 0.440909 0.142069 0.713357
O O1 0.719093 0.207287 0.101537
O O2 0.356796 0.562951 0.302272
O O3 0.528015 0.980414 0.235557
O O4 0.587648 0.132845 0.086555
O O5 0.654084 0.490297 0.235489
O O6 0.705152 0.941751 0.210455
O O7 0.000000 0.000000 0.000000
O O8 0.283272 0.778954 0.096886
O O9 0.032661 0.647345 0.298870
O O10 0.321480 0.255512 0.052861
O O11 0.384579 0.320828 0.116444
O O12 0.101638 0.574833 0.531625
O O13 0.145300 0.033599 0.501251
O O14 0.000000 0.000000 0.500000
O O15 0.651633 0.928828 0.555194
#
# Coordination Sequence:
#
# PCOD9083297 Si02
#       7
#     2   2   2   2   2   2   2
#     4   9  21  32  54  76 110 130 172 214 262 305
#     4  10  19  34  54  81 107 128 161 210 280 329
#     4  10  22  34  50  70 101 149 184 207 245 284
#     4  10  21  35  48  72 104 140 183 217 238 297
#     4  11  21  31  51  76 106 139 169 211 266 306
#     4  11  19  36  49  73 106 135 180 210 252 308
#     4   9  19  33  52  80 103 129 165 214 268 318
#
# _framework density 16.991323000000001
#
# number of rings (size 3 to 8) (size 9 to 14) (size 15 to 20)
#    0.857    1.143    1.429    2.571    2.000    3.429 
#    0.000    0.000    0.000    0.000    0.000    6.000 
#    0.000    0.000    0.000    0.000    0.000    0.000 
#
# Total GULP energy -78021.946732 kJ/mol
# GULP energy per Si atom -5572.996195 kJ/mol
# Density = 1.695265 g / cm^3
# Si number density = 16.991323 Si / 1000 Ang^3
#
#
#
# Elastic Constant Matrix: (Units=GPa)
#
#
# Indices 1 2 3 4 5 6 
#
# 1 59.8257 8.3272 34.2532 0.8696 -10.3185 8.9796
# 2 8.3272 52.1260 -7.9604 2.6771 -0.4602 23.1380
# 3 34.2532 -7.9604 85.0989 -11.0961 -20.0720 -2.2742
# 4 0.8696 2.6771 -11.0961 17.9699 5.0427 -3.1293
# 5 -10.3185 -0.4602 -20.0720 5.0427 18.3298 1.0041
# 6 8.9796 23.1380 -2.2742 -3.1293 1.0041 23.9288
#
#
#
# Elastic Compliance Matrix: (Units=1/GPa)
#
#
# Indices 1 2 3 4 5 6 
#
# 1 0.026224 0.000964 -0.010764 -0.012464 0.007181 -0.013727
# 2 0.000964 0.037225 0.002741 -0.013451 0.010277 -0.038286
# 3 -0.010764 0.002741 0.021072 0.009866 0.014147 0.004088
# 4 -0.012464 -0.013451 0.009866 0.074673 -0.018691 0.029171
# 5 0.007181 0.010277 0.014147 -0.018691 0.080427 -0.017106
# 6 -0.013727 -0.038286 0.004088 0.029171 -0.017106 0.088884
#
#
# Mechanical properties :
#
#
# Convention : Reuss Voigt Hill
#
# Bulk Modulus (GPa) = 14.20375 29.58784 21.89579
# Shear Modulus (GPa) = 13.65782 22.87440 18.26611
#
# Velocity S-wave (km/s) = 2.83823 3.67309 3.28232
# Velocity P-wave (km/s) = 4.37245 5.95316 5.22295
#
# Compressibility (1/GPa) = 0.07040395
#
# Stress axis : x y z
#
# Youngs Moduli (GPa) = 38.13329 26.86353 47.45561
#
# Poissons Ratio (x) = -0.02589 0.51079
# Poissons Ratio (y) = -0.03675 -0.13008
# Poissons Ratio (z) = 0.41045 -0.07364
#
# Static dielectric constant tensor:
#      x y z
#    x 1.560930 0.018330 -0.021600 
#    y 0.018330 1.585150 -0.006560 
#    z -0.021600 -0.006560 1.573110 
# 
# From -- ./inp_files/82359.got.cif
#   From: 2010.05.17/outbox.cif.g08.bks.cpg/sg2_42_cif.got.tgz:82359.got - 2010.06.03 11:33:40.
