data_PCOD9083367
_publ_section_title
;
Structure prediction by ZEFSAII (Michael W. Deem and Ramdas Pophale) SiO2 
 PCOD9083367
Probable space group: P -1
;
_chemical_formula_sum "Si O2"
_cell_formula_units_Z 16
_cell_length_a 22.548824
_cell_length_b 8.013314
_cell_length_c 9.717672
_cell_angle_alpha 43.944092
_cell_angle_beta 45.185514
_cell_angle_gamma 75.575497
_cell_volume 735.779791
_symmetry_space_group_name_H-M "P -1"
_symmetry_group_IT_number 2
_symmetry_cell_setting 'triclinic'
loop_
_space_group_symop_operation_xyz
x,y,z
-x,-y,-z
loop_
_atom_site_type_symbol
_atom_site_label
_atom_site_fract_x
_atom_site_fract_y
_atom_site_fract_z
Si Si1 0.514703 0.218355 0.726677
Si Si2 0.220995 0.540421 0.027408
Si Si3 0.220317 0.863622 0.199318
Si Si4 0.272305 0.439807 0.717365
Si Si5 0.628047 0.273298 0.900880
Si Si6 0.276291 0.135294 0.512968
Si Si7 0.677306 0.781551 0.913849
Si Si8 0.892731 0.737820 0.356301
O O1 0.624596 0.468177 0.428307
O O2 0.433080 0.302325 0.823982
O O3 0.500000 0.000000 0.000000
O O4 0.478144 0.003404 0.785263
O O5 0.303136 0.472622 0.981635
O O6 0.132165 0.347330 0.391138
O O7 0.209593 0.472789 0.921549
O O8 0.253489 0.863873 0.797046
O O9 0.311632 0.821183 0.047242
O O10 0.129056 0.549054 0.513907
O O11 0.244306 0.001962 0.231071
O O12 0.220976 0.108589 0.964861
O O13 0.308399 0.622412 0.410116
O O14 0.634811 0.557529 0.768233
O O15 0.300589 0.078849 0.354388
O O16 0.184068 0.177982 0.624705
O O17 0.000000 0.000000 0.000000
#
# Coordination Sequence:
#
# PCOD9083367 Si02
#       8
#     2   2   2   2   2   2   2   2
#     4   9  17  32  53  78 109 145 184 220 250 293
#     4  10  20  34  55  78 105 140 174 214 268 316
#     4   9  18  34  56  75 101 139 175 212 267 318
#     4  10  19  34  55  78 107 143 182 216 253 306
#     4   9  18  31  52  78 107 145 179 212 257 303
#     4  10  19  36  57  78 110 142 173 217 264 316
#     4   9  19  34  54  80 109 144 181 215 255 305
#     4  10  22  39  58  81 104 130 172 224 274 325
#
# _framework density 21.745636999999999
#
# number of rings (size 3 to 8) (size 9 to 14) (size 15 to 20)
#    0.000    2.500    0.000    3.000    0.000    5.000 
#    0.000   12.500    0.000   21.750    0.000    0.000 
#    0.000    0.000    0.000    0.000    0.000    0.000 
#
# Total GULP energy -89131.030982 kJ/mol
# GULP energy per Si atom -5570.689436 kJ/mol
# Density = 2.169614 g / cm^3
# Si number density = 21.745637 Si / 1000 Ang^3
#
#
#
# Elastic Constant Matrix: (Units=GPa)
#
#
# Indices 1 2 3 4 5 6 
#
# 1 31.8503 14.7190 19.8118 -1.3440 10.4193 2.5824
# 2 14.7190 112.3649 56.6743 -21.5939 2.5642 11.4589
# 3 19.8118 56.6743 130.6329 -21.5884 -3.9237 4.4827
# 4 -1.3440 -21.5939 -21.5884 39.3816 4.2712 10.0940
# 5 10.4193 2.5642 -3.9237 4.2712 37.2179 -7.6593
# 6 2.5824 11.4589 4.4827 10.0940 -7.6593 30.8582
#
#
#
# Elastic Compliance Matrix: (Units=1/GPa)
#
#
# Indices 1 2 3 4 5 6 
#
# 1 0.040239 -0.001598 -0.005590 0.000156 -0.012832 -0.005198
# 2 -0.001598 0.013487 -0.004249 0.007281 -0.003300 -0.007458
# 3 -0.005590 -0.004249 0.010948 0.003172 0.002664 0.000079
# 4 0.000156 0.007281 0.003172 0.036348 -0.007886 -0.017025
# 5 -0.012832 -0.003300 0.002664 -0.007886 0.034564 0.013071
# 6 -0.005198 -0.007458 0.000079 -0.017025 0.013071 0.044413
#
#
# Mechanical properties :
#
#
# Convention : Reuss Voigt Hill
#
# Bulk Modulus (GPa) = 23.92445 50.80649 37.36547
# Shear Modulus (GPa) = 23.06207 33.73441 28.39824
#
# Velocity S-wave (km/s) = 3.26012 3.94295 3.61768
# Velocity P-wave (km/s) = 5.01967 6.64408 5.88816
#
# Compressibility (1/GPa) = 0.04179824
#
# Stress axis : x y z
#
# Youngs Moduli (GPa) = 24.85174 74.14477 91.34383
#
# Poissons Ratio (x) = 0.11851 0.51065
# Poissons Ratio (y) = 0.03972 0.38810
# Poissons Ratio (z) = 0.13893 0.31503
#
# Static dielectric constant tensor:
#      x y z
#    x 1.846810 0.050840 0.067240 
#    y 0.050840 1.878520 -0.039930 
#    z 0.067240 -0.039930 1.871430 
# 
# From -- ./inp_files/304386.got.cif
#   From: 2010.05.17/outbox.cif.g08.bks.cpg/sg2_153_cif.got.tgz:304386.got - 2010.06.03 11:33:40.
