data_PCOD9083347
_publ_section_title
;
Structure prediction by ZEFSAII (Michael W. Deem and Ramdas Pophale) SiO2 
 PCOD9083347
Probable space group: P -1
;
_chemical_formula_sum "Si O2"
_cell_formula_units_Z 12
_cell_length_a 11.959918
_cell_length_b 5.351327
_cell_length_c 18.617242
_cell_angle_alpha 80.095079
_cell_angle_beta 24.037354
_cell_angle_gamma 81.046227
_cell_volume 478.111033
_symmetry_space_group_name_H-M "P -1"
_symmetry_group_IT_number 2
_symmetry_cell_setting 'triclinic'
loop_
_space_group_symop_operation_xyz
x,y,z
-x,-y,-z
loop_
_atom_site_type_symbol
_atom_site_label
_atom_site_fract_x
_atom_site_fract_y
_atom_site_fract_z
Si Si1 0.084039 0.278096 0.406970
Si Si2 0.363375 0.624787 0.003982
Si Si3 0.325713 0.617110 0.486346
Si Si4 0.499454 0.896231 0.596235
Si Si5 0.117316 0.147341 0.096606
Si Si6 0.300973 0.099599 0.835701
O O1 0.912929 0.322479 0.431844
O O2 0.000000 0.500000 0.500000
O O3 0.811690 0.111700 0.246721
O O4 0.000000 0.000000 0.500000
O O5 0.164559 0.408952 0.098147
O O6 0.219267 0.894529 0.090072
O O7 0.500000 0.500000 0.000000
O O8 0.601796 0.684465 0.803033
O O9 0.325508 0.331971 0.524631
O O10 0.357540 0.834143 0.515611
O O11 0.612965 0.648806 0.271123
O O12 0.495044 0.903825 0.686959
O O13 0.310279 0.153470 0.911175
O O14 0.000000 0.000000 0.000000
#
# Coordination Sequence:
#
# PCOD9083347 Si02
#       6
#     2   2   2   2   2   2
#     4  12  25  42  66  96 130 175 219 268 321 381
#     4  12  27  45  65  92 132 181 222 261 315 389
#     4  10  19  34  54  88 133 151 205 257 338 368
#     4   9  20  33  58  94 128 156 198 277 333 369
#     4  11  22  38  65  89 128 168 224 260 321 386
#     4   8  18  29  53  91 122 151 191 259 321 368
#
# _framework density 25.098775
#
# number of rings (size 3 to 8) (size 9 to 14) (size 15 to 20)
#    1.000    0.667    0.000    5.500    4.667    1.333 
#    0.000    0.000    0.000    6.000    0.000    0.000 
#    0.000    0.000    0.000    0.000    0.000    0.000 
#
# Total GULP energy -67081.650943 kJ/mol
# GULP energy per Si atom -5590.137579 kJ/mol
# Density = 2.504165 g / cm^3
# Si number density = 25.098775 Si / 1000 Ang^3
#
#
#
# Elastic Constant Matrix: (Units=GPa)
#
#
# Indices 1 2 3 4 5 6 
#
# 1 91.2021 38.8501 8.9319 -7.9475 -2.8761 5.0368
# 2 38.8501 200.8401 29.2965 -11.4103 -9.4717 6.0308
# 3 8.9319 29.2965 104.4940 -14.4685 -2.6869 8.3792
# 4 -7.9475 -11.4103 -14.4685 23.9956 4.5848 -7.1284
# 5 -2.8761 -9.4717 -2.6869 4.5848 48.6247 -8.8997
# 6 5.0368 6.0308 8.3792 -7.1284 -8.8997 43.5757
#
#
#
# Elastic Compliance Matrix: (Units=1/GPa)
#
#
# Indices 1 2 3 4 5 6 
#
# 1 0.012172 -0.002180 0.000013 0.002822 -0.000092 -0.000665
# 2 -0.002180 0.005680 -0.001238 0.001091 0.000815 0.000049
# 3 0.000013 -0.001238 0.010776 0.005672 -0.000372 -0.001050
# 4 0.002822 0.001091 0.005672 0.048826 -0.002842 0.005839
# 5 -0.000092 0.000815 -0.000372 -0.002842 0.021686 0.003934
# 6 -0.000665 0.000049 -0.001050 0.005839 0.003934 0.024979
#
#
# Mechanical properties :
#
#
# Convention : Reuss Voigt Hill
#
# Bulk Modulus (GPa) = 45.83662 61.18813 53.51237
# Shear Modulus (GPa) = 36.17853 44.53637 40.35745
#
# Velocity S-wave (km/s) = 3.80076 4.21698 4.01427
# Velocity P-wave (km/s) = 6.12888 6.93848 6.54621
#
# Compressibility (1/GPa) = 0.02181662
#
# Stress axis : x y z
#
# Youngs Moduli (GPa) = 82.15594 176.04311 92.79886
#
# Poissons Ratio (x) = 0.38384 -0.00117
# Poissons Ratio (y) = 0.17913 0.11489
# Poissons Ratio (z) = -0.00103 0.21796
#
# Static dielectric constant tensor:
#      x y z
#    x 1.968090 0.023490 0.023110 
#    y 0.023490 2.056460 -0.023110 
#    z 0.023110 -0.023110 2.034820 
# 
# From -- ./inp_files/481752.got.cif
#   From: 2010.05.17/outbox.cif.g08.bks.cpg/sg2_241_cif.got.tgz:481752.got - 2010.06.03 11:33:40.
