data_PCOD9083326
_publ_section_title
;
Structure prediction by ZEFSAII (Michael W. Deem and Ramdas Pophale) SiO2 
 PCOD9083326
Probable space group: P -1
;
_chemical_formula_sum "Si O2"
_cell_formula_units_Z 16
_cell_length_a 11.072726
_cell_length_b 5.155096
_cell_length_c 14.917138
_cell_angle_alpha 92.381471
_cell_angle_beta 63.586891
_cell_angle_gamma 100.088604
_cell_volume 750.167934
_symmetry_space_group_name_H-M "P -1"
_symmetry_group_IT_number 2
_symmetry_cell_setting 'triclinic'
loop_
_space_group_symop_operation_xyz
x,y,z
-x,-y,-z
loop_
_atom_site_type_symbol
_atom_site_label
_atom_site_fract_x
_atom_site_fract_y
_atom_site_fract_z
Si Si1 0.157201 0.496754 0.325244
Si Si2 0.602602 0.056459 0.549300
Si Si3 0.094507 0.837380 0.522026
Si Si4 0.864511 0.317596 0.865327
Si Si5 0.603302 0.730071 0.127719
Si Si6 0.569937 0.563641 0.674838
Si Si7 0.088765 0.155844 0.051566
Si Si8 0.430833 0.790285 0.948773
O O1 0.139079 0.662667 0.423405
O O2 0.163878 0.640839 0.229422
O O3 0.297875 0.391118 0.300246
O O4 0.011917 0.300301 0.371083
O O5 0.556673 0.837083 0.637472
O O6 0.500000 0.000000 0.500000
O O7 0.762027 0.031356 0.479985
O O8 0.600064 0.352763 0.587748
O O9 0.000000 0.000000 0.500000
O O10 0.948767 0.576623 0.890527
O O11 0.916477 0.048787 0.867207
O O12 0.721853 0.280316 0.965072
O O13 0.564604 0.593396 0.233295
O O14 0.524438 0.488677 0.088259
O O15 0.559720 0.015294 0.137685
O O16 0.759042 0.777477 0.042049
O O17 0.000000 0.000000 0.000000
O O18 0.500000 0.000000 0.000000
#
# Coordination Sequence:
#
# PCOD9083326 Si02
#       8
#     2   2   2   2   2   2   2   2
#     4  10  22  38  63  95 122 159 214 257 321 376
#     4  11  24  43  63  90 126 164 209 260 320 379
#     4  10  21  42  64  87 130 167 199 271 324 369
#     4  10  22  36  61  90 115 158 212 253 300 378
#     4  10  21  36  57  84 115 156 200 235 306 360
#     4  11  22  40  65  90 124 163 202 262 314 378
#     4  10  22  42  58  81 129 167 204 257 309 360
#     4  10  19  34  54  84 121 148 181 243 298 356
#
# _framework density 21.328555999999999
#
# number of rings (size 3 to 8) (size 9 to 14) (size 15 to 20)
#    0.000    1.750    1.250    2.625    1.750    3.000 
#    4.500    0.000    0.000    0.000    0.000    0.000 
#    0.000    0.000    0.000    0.000    0.000    0.000 
#
# Total GULP energy -89092.766521 kJ/mol
# GULP energy per Si atom -5568.297908 kJ/mol
# Density = 2.128001 g / cm^3
# Si number density = 21.328556 Si / 1000 Ang^3
#
#
#
# Elastic Constant Matrix: (Units=GPa)
#
#
# Indices 1 2 3 4 5 6 
#
# 1 93.6400 30.9185 36.4897 -14.9000 9.8674 18.8684
# 2 30.9185 78.2649 32.9494 -17.2573 -9.7302 14.7017
# 3 36.4897 32.9494 80.8054 -26.1991 8.7794 -2.8929
# 4 -14.9000 -17.2573 -26.1991 32.6925 -6.2790 7.5339
# 5 9.8674 -9.7302 8.7794 -6.2790 12.6285 4.9066
# 6 18.8684 14.7017 -2.8929 7.5339 4.9066 30.6229
#
#
#
# Elastic Compliance Matrix: (Units=1/GPa)
#
#
# Indices 1 2 3 4 5 6 
#
# 1 0.016540 -0.003474 -0.004745 0.002275 -0.007963 -0.008256
# 2 -0.003474 0.052754 -0.018836 0.041421 0.096732 -0.050655
# 3 -0.004745 -0.018836 0.026005 -0.003770 -0.039161 0.021626
# 4 0.002275 0.041421 -0.003770 0.082034 0.095759 -0.057169
# 5 -0.007963 0.096732 -0.039161 0.095759 0.278864 -0.113474
# 6 -0.008256 -0.050655 0.021626 -0.057169 -0.113474 0.096351
#
#
# Mechanical properties :
#
#
# Convention : Reuss Voigt Hill
#
# Bulk Modulus (GPa) = 24.27822 50.38060 37.32941
# Shear Modulus (GPa) = 8.05947 25.34561 16.70254
#
# Velocity S-wave (km/s) = 1.94600 3.45097 2.80144
# Velocity P-wave (km/s) = 4.05671 6.28899 5.29190
#
# Compressibility (1/GPa) = 0.04118918
#
# Stress axis : x y z
#
# Youngs Moduli (GPa) = 60.45977 18.95591 38.45352
#
# Poissons Ratio (x) = 0.06585 0.18248
# Poissons Ratio (y) = 0.21003 0.72430
# Poissons Ratio (z) = 0.28690 0.35705
#
# Static dielectric constant tensor:
#      x y z
#    x 1.960340 -0.035550 0.081860 
#    y -0.035550 1.855410 -0.007510 
#    z 0.081860 -0.007510 1.861780 
# 
# From -- ./inp_files/510370.got.cif
#   From: 2010.05.17/outbox.cif.g08.bks.cpg/sg2_256_cif.got.tgz:510370.got - 2010.06.03 11:33:40.
