data_PCOD9083821
_publ_section_title
;
Structure prediction by ZEFSAII (Michael W. Deem and Ramdas Pophale) SiO2 
 PCOD9083821
Probable space group: P -1
;
_chemical_formula_sum "Si O2"
_cell_formula_units_Z 16
_cell_length_a 11.975338
_cell_length_b 15.332382
_cell_length_c 7.841508
_cell_angle_alpha 144.203876
_cell_angle_beta 70.940407
_cell_angle_gamma 120.745881
_cell_volume 712.561008
_symmetry_space_group_name_H-M "P -1"
_symmetry_group_IT_number 2
_symmetry_cell_setting 'triclinic'
loop_
_space_group_symop_operation_xyz
x,y,z
-x,-y,-z
loop_
_atom_site_type_symbol
_atom_site_label
_atom_site_fract_x
_atom_site_fract_y
_atom_site_fract_z
Si Si1 0.738969 0.026104 0.380239
Si Si2 0.304202 0.423759 0.596732
Si Si3 0.126912 0.611002 0.230409
Si Si4 0.199481 0.382217 0.046294
Si Si5 0.112751 0.512854 0.635645
Si Si6 0.914210 0.143357 0.805919
Si Si7 0.583023 0.666753 0.950728
Si Si8 0.867279 0.948617 0.872401
O O1 0.770111 0.215968 0.626141
O O2 0.837322 0.048025 0.524023
O O3 0.608586 0.859681 0.234201
O O4 0.776134 0.978466 0.103649
O O5 0.219590 0.517037 0.725729
O O6 0.431074 0.536777 0.822679
O O7 0.359848 0.375536 0.319339
O O8 0.201969 0.247610 0.444039
O O9 0.201114 0.508303 0.100435
O O10 0.035080 0.623031 0.451845
O O11 0.000000 0.500000 0.000000
O O12 0.159687 0.454858 0.350921
O O13 0.328161 0.358696 0.986638
O O14 0.069967 0.211021 0.807319
O O15 0.110889 0.690866 0.907162
O O16 0.879620 0.046287 0.846931
O O17 0.000000 0.000000 0.000000
#
# Coordination Sequence:
#
# PCOD9083821 Si02
#       8
#     2   2   2   2   2   2   2   2
#     4  11  21  37  58  85 117 153 190 241 293 337
#     4   9  19  39  60  82 115 153 193 236 286 346
#     4  11  19  34  53  85 116 144 184 238 292 335
#     4  10  19  34  58  85 115 150 190 237 293 346
#     4  10  19  35  59  81 114 151 189 237 297 342
#     4  11  21  36  56  89 118 145 193 245 292 345
#     4   9  20  37  59  83 113 156 195 231 287 351
#     4  11  22  37  60  89 117 148 192 243 294 345
#
# _framework density 22.454218999999998
#
# number of rings (size 3 to 8) (size 9 to 14) (size 15 to 20)
#    0.000    1.750    2.500    6.000    0.000    2.000 
#    2.250    2.500    0.000    6.000    0.000    0.000 
#    0.000    0.000    0.000    0.000    0.000    0.000 
#
# Total GULP energy -89363.193259 kJ/mol
# GULP energy per Si atom -5585.199579 kJ/mol
# Density = 2.240311 g / cm^3
# Si number density = 22.454219 Si / 1000 Ang^3
#
#
#
# Elastic Constant Matrix: (Units=GPa)
#
#
# Indices 1 2 3 4 5 6 
#
# 1 94.6462 63.7996 41.6453 28.3000 25.6515 -9.9933
# 2 63.7996 157.3253 61.1822 21.1309 13.7845 -34.6050
# 3 41.6453 61.1822 121.3023 27.1278 15.0211 -8.4011
# 4 28.3000 21.1309 27.1278 50.8363 6.4395 -5.3206
# 5 25.6515 13.7845 15.0211 6.4395 41.6846 -4.6450
# 6 -9.9933 -34.6050 -8.4011 -5.3206 -4.6450 33.1739
#
#
#
# Elastic Compliance Matrix: (Units=1/GPa)
#
#
# Indices 1 2 3 4 5 6 
#
# 1 0.019530 -0.006644 -0.000982 -0.006850 -0.008814 -0.003629
# 2 -0.006644 0.012507 -0.003891 0.001393 0.002322 0.010608
# 3 -0.000982 -0.003891 0.011507 -0.003981 -0.001902 -0.002346
# 4 -0.006850 0.001393 -0.003981 0.025102 0.001605 0.002632
# 5 -0.008814 0.002322 -0.001902 0.001605 0.029492 0.003672
# 6 -0.003629 0.010608 -0.002346 0.002632 0.003672 0.040459
#
#
# Mechanical properties :
#
#
# Convention : Reuss Voigt Hill
#
# Bulk Modulus (GPa) = 48.75904 78.50310 63.63107
# Shear Modulus (GPa) = 29.67929 38.91542 34.29735
#
# Velocity S-wave (km/s) = 3.63956 4.16757 3.91248
# Velocity P-wave (km/s) = 6.27884 7.62860 6.98639
#
# Compressibility (1/GPa) = 0.02050902
#
# Stress axis : x y z
#
# Youngs Moduli (GPa) = 51.20302 79.95724 86.90300
#
# Poissons Ratio (x) = 0.53124 0.08534
# Poissons Ratio (y) = 0.34019 0.33818
# Poissons Ratio (z) = 0.05028 0.31115
#
# Static dielectric constant tensor:
#      x y z
#    x 1.801560 0.004480 -0.040240 
#    y 0.004480 1.926870 -0.054560 
#    z -0.040240 -0.054560 1.932800 
# 
# From -- ./inp_files/274668.got.cif
#   From: 2010.05.17/outbox.cif.g08.bks.cpg/sg2_138_cif.got.tgz:274668.got - 2010.06.03 11:33:40.
