data_PCOD9083432
_publ_section_title
;
Structure prediction by ZEFSAII (Michael W. Deem and Ramdas Pophale) SiO2 
 PCOD9083432
Probable space group: P -1
;
_chemical_formula_sum "Si O2"
_cell_formula_units_Z 16
_cell_length_a 15.018220
_cell_length_b 19.665847
_cell_length_c 8.977900
_cell_angle_alpha 57.669686
_cell_angle_beta 64.010433
_cell_angle_gamma 16.825826
_cell_volume 618.412655
_symmetry_space_group_name_H-M "P -1"
_symmetry_group_IT_number 2
_symmetry_cell_setting 'triclinic'
loop_
_space_group_symop_operation_xyz
x,y,z
-x,-y,-z
loop_
_atom_site_type_symbol
_atom_site_label
_atom_site_fract_x
_atom_site_fract_y
_atom_site_fract_z
Si Si1 0.313373 0.015963 0.273848
Si Si2 0.178513 0.743616 0.083315
Si Si3 0.193518 0.577941 0.429491
Si Si4 0.306341 0.810368 0.831772
Si Si5 0.863778 0.251698 0.484928
Si Si6 0.832792 0.523204 0.671495
Si Si7 0.972070 0.441708 0.991445
Si Si8 0.582695 0.163576 0.849677
O O1 0.997394 0.200879 0.308522
O O2 0.598932 0.765316 0.469111
O O3 0.415834 0.921395 0.139172
O O4 0.217394 0.182324 0.166447
O O5 0.330814 0.544044 0.266789
O O6 0.024264 0.765945 0.454863
O O7 0.936372 0.968637 0.122275
O O8 0.395068 0.651371 0.991932
O O9 0.012684 0.653335 0.366012
O O10 0.434658 0.340249 0.632206
O O11 0.937277 0.912358 0.930171
O O12 0.080840 0.004344 0.627041
O O13 0.611090 0.629335 0.793090
O O14 0.500000 0.500000 0.500000
O O15 0.993276 0.437252 0.801730
O O16 0.628441 0.675283 0.034712
O O17 0.000000 0.500000 0.000000
#
# Coordination Sequence:
#
# PCOD9083432 Si02
#       8
#     2   2   2   2   2   2   2   2
#     4  10  24  43  65  97 130 166 213 263 323 382
#     4  10  19  34  55  90 125 168 207 250 308 370
#     4  10  21  36  62  89 126 174 207 255 322 368
#     4   9  19  32  55  87 127 169 209 248 309 370
#     4  10  19  35  62  95 134 175 215 254 307 380
#     4  10  22  43  61  92 130 165 213 269 313 388
#     4  12  26  44  71  96 120 168 218 269 339 384
#     4  11  22  41  67  90 132 166 209 270 318 382
#
# _framework density 25.872691
#
# number of rings (size 3 to 8) (size 9 to 14) (size 15 to 20)
#    0.000    1.750    2.500    1.500    0.000    3.500 
#    0.000    6.250    0.000    0.000    0.000    0.000 
#    0.000    0.000    0.000    0.000    0.000    0.000 
#
# Total GULP energy -89230.165945 kJ/mol
# GULP energy per Si atom -5576.885372 kJ/mol
# Density = 2.581380 g / cm^3
# Si number density = 25.872691 Si / 1000 Ang^3
#
#
#
# Elastic Constant Matrix: (Units=GPa)
#
#
# Indices 1 2 3 4 5 6 
#
# 1 114.6003 24.3129 74.4656 -22.5915 -9.6511 28.8102
# 2 24.3129 56.4133 15.2350 8.5587 0.3044 15.9385
# 3 74.4656 15.2350 112.5035 1.7968 6.3812 9.2022
# 4 -22.5915 8.5587 1.7968 35.1409 13.7167 -0.2351
# 5 -9.6511 0.3044 6.3812 13.7167 44.8174 -0.3262
# 6 28.8102 15.9385 9.2022 -0.2351 -0.3262 44.3581
#
#
#
# Elastic Compliance Matrix: (Units=1/GPa)
#
#
# Indices 1 2 3 4 5 6 
#
# 1 0.029260 -0.007374 -0.017814 0.020442 0.002540 -0.012532
# 2 -0.007374 0.023113 0.002182 -0.011010 0.001285 -0.004017
# 3 -0.017814 0.002182 0.020214 -0.011772 -0.003079 0.006507
# 4 0.020442 -0.011010 -0.011772 0.048215 -0.008652 -0.006687
# 5 0.002540 0.001285 -0.003079 -0.008652 0.025928 -0.001328
# 6 -0.012532 -0.004017 0.006507 -0.006687 -0.001328 0.030731
#
#
# Mechanical properties :
#
#
# Convention : Reuss Voigt Hill
#
# Bulk Modulus (GPa) = 37.62698 56.83825 47.23262
# Shear Modulus (GPa) = 21.52100 36.16354 28.84227
#
# Velocity S-wave (km/s) = 2.88723 3.74270 3.34245
# Velocity P-wave (km/s) = 5.06848 6.37913 5.76119
#
# Compressibility (1/GPa) = 0.02657667
#
# Stress axis : x y z
#
# Youngs Moduli (GPa) = 34.17657 43.26501 49.46967
#
# Poissons Ratio (x) = 0.31903 0.88125
# Poissons Ratio (y) = 0.25202 -0.10796
# Poissons Ratio (z) = 0.60882 -0.09442
#
# Static dielectric constant tensor:
#      x y z
#    x 2.183430 0.002900 0.089600 
#    y 0.002900 2.127920 0.074980 
#    z 0.089600 0.074980 2.124210 
# 
# From -- ./inp_files/338426.got.cif
#   From: 2010.05.17/outbox.cif.g08.bks.cpg/sg2_170_cif.got.tgz:338426.got - 2010.06.03 11:33:40.
