data_PCOD9083522
_publ_section_title
;
Structure prediction by ZEFSAII (Michael W. Deem and Ramdas Pophale) SiO2 
 PCOD9083522
Probable space group: P -1
;
_chemical_formula_sum "Si O2"
_cell_formula_units_Z 12
_cell_length_a 8.760979
_cell_length_b 12.207598
_cell_length_c 5.618002
_cell_angle_alpha 100.004076
_cell_angle_beta 94.104564
_cell_angle_gamma 101.778461
_cell_volume 575.672170
_symmetry_space_group_name_H-M "P -1"
_symmetry_group_IT_number 2
_symmetry_cell_setting 'triclinic'
loop_
_space_group_symop_operation_xyz
x,y,z
-x,-y,-z
loop_
_atom_site_type_symbol
_atom_site_label
_atom_site_fract_x
_atom_site_fract_y
_atom_site_fract_z
Si Si1 0.181368 0.862150 0.026425
Si Si2 0.500899 0.401051 0.774660
Si Si3 0.758186 0.063676 0.445292
Si Si4 0.756489 0.519194 0.501926
Si Si5 0.515939 0.150821 0.735500
Si Si6 0.059557 0.600431 0.856703
O O1 0.147645 0.925776 0.288849
O O2 0.371952 0.881533 0.060110
O O3 0.146105 0.899284 0.771374
O O4 0.109185 0.728093 0.005632
O O5 0.662144 0.440513 0.665466
O O6 0.356900 0.404369 0.583073
O O7 0.488579 0.275513 0.822448
O O8 0.500000 0.500000 0.000000
O O9 0.632569 0.143822 0.520880
O O10 0.645471 0.939731 0.352405
O O11 0.797474 0.435830 0.274822
O O12 0.918270 0.592236 0.649640
O O13 0.000000 0.500000 0.000000
#
# Coordination Sequence:
#
# PCOD9083522 Si02
#       6
#     2   2   2   2   2   2
#     4  10  19  34  56  85 117 145 201 248 296 346
#     4  11  21  39  56  91 121 159 188 249 306 363
#     4   9  20  34  55  91 110 159 197 253 292 344
#     4  10  23  36  57  86 121 154 202 235 313 356
#     4   9  19  32  58  81 122 149 203 243 297 353
#     4  11  22  37  60  86 118 160 200 250 300 359
#
# _framework density 20.845196000000001
#
# number of rings (size 3 to 8) (size 9 to 14) (size 15 to 20)
#    1.000    1.000    0.000    4.500    4.667    1.333 
#    0.000    0.000    0.000    2.000    0.000    0.000 
#    0.000    0.000    0.000    0.000    0.000    0.000 
#
# Total GULP energy -66889.271504 kJ/mol
# GULP energy per Si atom -5574.105959 kJ/mol
# Density = 2.079775 g / cm^3
# Si number density = 20.845196 Si / 1000 Ang^3
#
#
#
# Elastic Constant Matrix: (Units=GPa)
#
#
# Indices 1 2 3 4 5 6 
#
# 1 37.1821 7.6123 5.9624 4.1806 -1.5143 5.3323
# 2 7.6123 69.8150 35.6438 18.4476 -6.8744 3.0558
# 3 5.9624 35.6438 112.3770 -2.8626 -14.0340 11.3231
# 4 4.1806 18.4476 -2.8626 30.7326 8.5473 1.0891
# 5 -1.5143 -6.8744 -14.0340 8.5473 30.1606 -2.1298
# 6 5.3323 3.0558 11.3231 1.0891 -2.1298 15.8038
#
#
#
# Elastic Compliance Matrix: (Units=1/GPa)
#
#
# Indices 1 2 3 4 5 6 
#
# 1 0.028945 -0.001949 0.000076 -0.002769 0.001187 -0.009093
# 2 -0.001949 0.022916 -0.007080 -0.016111 0.006630 0.003303
# 3 0.000076 -0.007080 0.012296 0.005054 0.002147 -0.007525
# 4 -0.002769 -0.016111 0.005054 0.047475 -0.015259 -0.004900
# 5 0.001187 0.006630 0.002147 -0.015259 0.040280 0.003259
# 6 -0.009093 0.003303 -0.007525 -0.004900 0.003259 0.071874
#
#
# Mechanical properties :
#
#
# Convention : Reuss Voigt Hill
#
# Bulk Modulus (GPa) = 21.62096 35.31235 28.46665
# Shear Modulus (GPa) = 19.44709 26.68312 23.06510
#
# Velocity S-wave (km/s) = 3.05770 3.58168 3.33001
# Velocity P-wave (km/s) = 4.78129 5.83794 5.33584
#
# Compressibility (1/GPa) = 0.04625142
#
# Stress axis : x y z
#
# Youngs Moduli (GPa) = 34.54822 43.63708 81.33044
#
# Poissons Ratio (x) = 0.08503 -0.00620
# Poissons Ratio (y) = 0.06732 0.57586
# Poissons Ratio (z) = -0.00263 0.30897
#
# Static dielectric constant tensor:
#      x y z
#    x 1.745560 -0.006640 0.041100 
#    y -0.006640 1.720190 -0.017960 
#    z 0.041100 -0.017960 1.878000 
# 
# From -- ./inp_files/19579.got.cif
#   From: 2010.05.17/outbox.cif.g08.bks.cpg/sg2_10_cif.got.tgz:19579.got - 2010.06.03 11:33:40.
