data_PCOD9083562
_publ_section_title
;
Structure prediction by ZEFSAII (Michael W. Deem and Ramdas Pophale) SiO2 
 PCOD9083562
Probable space group: P -1
;
_chemical_formula_sum "Si O2"
_cell_formula_units_Z 16
_cell_length_a 16.056150
_cell_length_b 15.862091
_cell_length_c 25.323360
_cell_angle_alpha 160.935198
_cell_angle_beta 26.071502
_cell_angle_gamma 153.840435
_cell_volume 871.195110
_symmetry_space_group_name_H-M "P -1"
_symmetry_group_IT_number 2
_symmetry_cell_setting 'triclinic'
loop_
_space_group_symop_operation_xyz
x,y,z
-x,-y,-z
loop_
_atom_site_type_symbol
_atom_site_label
_atom_site_fract_x
_atom_site_fract_y
_atom_site_fract_z
Si Si1 0.863802 0.217855 0.064416
Si Si2 0.158274 0.746293 0.022676
Si Si3 0.388831 0.227521 0.242488
Si Si4 0.786652 0.592783 0.407838
Si Si5 0.397930 0.794678 0.624052
Si Si6 0.766428 0.235186 0.727464
Si Si7 0.411764 0.988906 0.198556
Si Si8 0.140806 0.153584 0.962858
O O1 0.919059 0.247922 0.989587
O O2 0.822114 0.492447 0.270616
O O3 0.640079 0.998578 0.069685
O O4 0.016294 0.158864 0.983633
O O5 0.380715 0.715244 0.873524
O O6 0.000000 0.500000 0.000000
O O7 0.220724 0.051275 0.193094
O O8 0.382526 0.521852 0.438665
O O9 0.349561 0.021054 0.193188
O O10 0.719793 0.329537 0.328240
O O11 0.629026 0.748078 0.596193
O O12 0.008592 0.775397 0.409174
O O13 0.616202 0.988950 0.634144
O O14 0.295734 0.991609 0.771002
O O15 0.705103 0.230042 0.821398
O O16 0.765430 0.531027 0.885093
O O17 0.000000 0.000000 0.000000
#
# Coordination Sequence:
#
# PCOD9083562 Si02
#       8
#     2   2   2   2   2   2   2   2
#     4  10  20  35  60  84 115 161 187 239 297 339
#     4  10  22  41  62  83 116 152 201 243 299 344
#     4   9  23  38  60  88 115 152 193 252 293 338
#     4  10  20  33  54  91 124 143 186 240 299 363
#     4  11  21  39  58  85 126 155 192 242 287 351
#     4  11  21  31  57  87 121 162 186 222 300 357
#     4  10  19  34  56  89 123 145 186 241 304 358
#     4  11  21  39  55  88 127 155 199 232 283 360
#
# _framework density 18.365576000000001
#
# number of rings (size 3 to 8) (size 9 to 14) (size 15 to 20)
#    0.000    1.750    3.750    1.125    7.000    2.000 
#    0.000    0.625    0.000    0.750    0.000    0.000 
#    0.000    0.000    0.000    0.000    0.000    0.000 
#
# Total GULP energy -89135.779817 kJ/mol
# GULP energy per Si atom -5570.986239 kJ/mol
# Density = 1.832378 g / cm^3
# Si number density = 18.365576 Si / 1000 Ang^3
#
#
#
# Elastic Constant Matrix: (Units=GPa)
#
#
# Indices 1 2 3 4 5 6 
#
# 1 110.0342 38.5346 37.5509 4.7704 10.8171 2.4519
# 2 38.5346 101.1856 23.4674 10.9129 5.5913 -5.6377
# 3 37.5509 23.4674 78.3252 15.9182 5.5925 2.1628
# 4 4.7704 10.9129 15.9182 25.0374 1.3753 -0.6799
# 5 10.8171 5.5913 5.5925 1.3753 32.7899 0.3934
# 6 2.4519 -5.6377 2.1628 -0.6799 0.3934 28.8173
#
#
#
# Elastic Compliance Matrix: (Units=1/GPa)
#
#
# Indices 1 2 3 4 5 6 
#
# 1 0.012302 -0.003712 -0.005094 0.002623 -0.002651 -0.001293
# 2 -0.003712 0.012144 -0.001130 -0.003765 -0.000528 0.002695
# 3 -0.005094 -0.001130 0.017613 -0.009732 -0.000707 -0.001330
# 4 0.002623 -0.003765 -0.009732 0.047324 -0.000559 0.000895
# 5 -0.002651 -0.000528 -0.000707 -0.000559 0.031609 -0.000269
# 6 -0.001293 0.002695 -0.001330 0.000895 -0.000269 0.035463
#
#
# Mechanical properties :
#
#
# Convention : Reuss Voigt Hill
#
# Bulk Modulus (GPa) = 45.07224 54.29452 49.68338
# Shear Modulus (GPa) = 27.21478 29.99505 28.60491
#
# Velocity S-wave (km/s) = 3.85364 4.04570 3.95084
# Velocity P-wave (km/s) = 6.66301 7.17293 6.92267
#
# Compressibility (1/GPa) = 0.02218660
#
# Stress axis : x y z
#
# Youngs Moduli (GPa) = 81.28673 82.34482 56.77584
#
# Poissons Ratio (x) = 0.30567 0.28921
# Poissons Ratio (y) = 0.30174 0.06418
# Poissons Ratio (z) = 0.41406 0.09309
#
# Static dielectric constant tensor:
#      x y z
#    x 1.676690 0.019860 0.010990 
#    y 0.019860 1.692080 0.016350 
#    z 0.010990 0.016350 1.656780 
# 
# From -- ./inp_files/612149.got.cif
#   From: 2010.05.17/outbox.cif.g08.bks.cpg/sg2_307_cif.got.tgz:612149.got - 2010.06.03 11:33:40.
