data_PCOD9083418
_publ_section_title
;
Structure prediction by ZEFSAII (Michael W. Deem and Ramdas Pophale) SiO2 
 PCOD9083418
Probable space group: P -1
;
_chemical_formula_sum "Si O2"
_cell_formula_units_Z 16
_cell_length_a 20.370959
_cell_length_b 11.785683
_cell_length_c 6.644737
_cell_angle_alpha 67.933913
_cell_angle_beta 110.227886
_cell_angle_gamma 152.258618
_cell_volume 687.866603
_symmetry_space_group_name_H-M "P -1"
_symmetry_group_IT_number 2
_symmetry_cell_setting 'triclinic'
loop_
_space_group_symop_operation_xyz
x,y,z
-x,-y,-z
loop_
_atom_site_type_symbol
_atom_site_label
_atom_site_fract_x
_atom_site_fract_y
_atom_site_fract_z
Si Si1 0.532061 0.034168 0.780551
Si Si2 0.210413 0.975853 0.800144
Si Si3 0.944948 0.548602 0.573983
Si Si4 0.627472 0.008594 0.601062
Si Si5 0.941370 0.171571 0.882440
Si Si6 0.149612 0.386306 0.296949
Si Si7 0.206787 0.209571 0.353629
Si Si8 0.521334 0.675692 0.368021
O O1 0.546653 0.920659 0.778952
O O2 0.686563 0.327623 0.718079
O O3 0.412321 0.930198 0.610569
O O4 0.500000 0.000000 0.000000
O O5 0.073138 0.698944 0.749424
O O6 0.216506 0.112772 0.588551
O O7 0.352259 0.121241 0.793590
O O8 0.178403 0.958368 0.008128
O O9 0.795190 0.256604 0.636835
O O10 0.914817 0.642084 0.560124
O O11 0.998456 0.640926 0.341487
O O12 0.570037 0.811394 0.537853
O O13 0.874324 0.962991 0.812991
O O14 0.066441 0.315615 0.064192
O O15 0.140549 0.227257 0.375958
O O16 0.366676 0.488576 0.274027
O O17 0.500000 0.500000 0.500000
#
# Coordination Sequence:
#
# PCOD9083418 Si02
#       8
#     2   2   2   2   2   2   2   2
#     4  10  20  36  58  90 118 147 190 237 294 352
#     4   9  21  38  56  79 115 150 200 237 274 338
#     4   9  20  36  58  82 114 146 189 240 291 342
#     4  10  20  38  61  84 117 155 186 239 296 337
#     4  10  20  35  55  82 114 154 189 237 287 336
#     4  10  19  34  55  85 116 144 187 240 292 348
#     4  10  20  36  55  82 116 151 192 235 287 341
#     4  10  21  41  60  82 118 159 197 236 280 342
#
# _framework density 23.260321999999999
#
# number of rings (size 3 to 8) (size 9 to 14) (size 15 to 20)
#    0.000    2.250    1.250    1.125    0.000    6.500 
#    4.500    4.375    0.000    0.000    0.000    0.000 
#    0.000    0.000    0.000    0.000    0.000    0.000 
#
# Total GULP energy -89453.451263 kJ/mol
# GULP energy per Si atom -5590.840704 kJ/mol
# Density = 2.320738 g / cm^3
# Si number density = 23.260322 Si / 1000 Ang^3
#
#
#
# Elastic Constant Matrix: (Units=GPa)
#
#
# Indices 1 2 3 4 5 6 
#
# 1 99.5193 36.0146 40.0087 4.0943 -22.9580 -9.0838
# 2 36.0146 111.6191 18.1600 20.0548 -17.4271 6.8214
# 3 40.0087 18.1600 112.1802 4.6386 -24.5289 -3.1106
# 4 4.0943 20.0548 4.6386 26.5995 1.1084 -17.4216
# 5 -22.9580 -17.4271 -24.5289 1.1084 46.1417 7.9957
# 6 -9.0838 6.8214 -3.1106 -17.4216 7.9957 47.5450
#
#
#
# Elastic Compliance Matrix: (Units=1/GPa)
#
#
# Indices 1 2 3 4 5 6 
#
# 1 0.014023 -0.004714 -0.003822 0.004938 0.002260 0.004535
# 2 -0.004714 0.015220 0.001041 -0.018233 0.006257 -0.010749
# 3 -0.003822 0.001041 0.011303 -0.003976 0.005019 -0.002441
# 4 0.004938 -0.018233 -0.003976 0.073089 -0.013916 0.032421
# 5 0.002260 0.006257 0.005019 -0.013916 0.029943 -0.010272
# 6 0.004535 -0.010749 -0.002441 0.032421 -0.010272 0.036889
#
#
# Mechanical properties :
#
#
# Convention : Reuss Voigt Hill
#
# Bulk Modulus (GPa) = 39.12956 56.85389 47.99172
# Shear Modulus (GPa) = 24.51266 39.33293 31.92280
#
# Velocity S-wave (km/s) = 3.24981 4.11662 3.70863
# Velocity P-wave (km/s) = 5.56243 6.86228 6.24626
#
# Compressibility (1/GPa) = 0.02555613
#
# Stress axis : x y z
#
# Youngs Moduli (GPa) = 71.31031 65.70098 88.47251
#
# Poissons Ratio (x) = 0.30974 0.33818
# Poissons Ratio (y) = 0.33618 -0.09214
# Poissons Ratio (z) = 0.27258 -0.06842
#
# Static dielectric constant tensor:
#      x y z
#    x 1.917880 -0.000840 -0.017310 
#    y -0.000840 1.891080 -0.022710 
#    z -0.017310 -0.022710 1.861590 
# 
# From -- ./inp_files/83304.got.cif
#   From: 2010.05.17/outbox.cif.g08.bks.cpg/sg2_42_cif.got.tgz:83304.got - 2010.06.03 11:33:40.
