data_PCOD9083471
_publ_section_title
;
Structure prediction by ZEFSAII (Michael W. Deem and Ramdas Pophale) SiO2 
 PCOD9083471
Probable space group: P -1
;
_chemical_formula_sum "Si O2"
_cell_formula_units_Z 16
_cell_length_a 17.617718
_cell_length_b 11.818819
_cell_length_c 19.495189
_cell_angle_alpha 157.113845
_cell_angle_beta 151.129356
_cell_angle_gamma 32.218315
_cell_volume 745.398363
_symmetry_space_group_name_H-M "P -1"
_symmetry_group_IT_number 2
_symmetry_cell_setting 'triclinic'
loop_
_space_group_symop_operation_xyz
x,y,z
-x,-y,-z
loop_
_atom_site_type_symbol
_atom_site_label
_atom_site_fract_x
_atom_site_fract_y
_atom_site_fract_z
Si Si1 0.185538 0.390842 0.213014
Si Si2 0.244002 0.906139 0.096815
Si Si3 0.401184 0.774877 0.623136
Si Si4 0.182306 0.827211 0.753454
Si Si5 0.321947 0.346196 0.140761
Si Si6 0.506817 0.390467 0.024023
Si Si7 0.095899 0.864954 0.191190
Si Si8 0.067789 0.315321 0.304081
O O1 0.226960 0.696454 0.442171
O O2 0.239613 0.363869 0.161461
O O3 0.279267 0.104748 0.170829
O O4 0.003770 0.349839 0.046941
O O5 0.389613 0.686050 0.126169
O O6 0.151486 0.155373 0.214000
O O7 0.120139 0.700835 0.859892
O O8 0.500000 0.500000 0.500000
O O9 0.489510 0.722182 0.736464
O O10 0.427096 0.098211 0.802078
O O11 0.324515 0.681623 0.839915
O O12 0.118999 0.616481 0.532138
O O13 0.024878 0.977349 0.757177
O O14 0.256933 0.069445 0.906139
O O15 0.255650 0.659394 0.230118
O O16 0.500000 0.500000 0.000000
O O17 0.128130 0.108758 0.301433
#
# Coordination Sequence:
#
# PCOD9083471 Si02
#       8
#     2   2   2   2   2   2   2   2
#     4   9  17  33  53  76 105 138 176 216 265 315
#     4  10  22  39  55  76 111 147 181 225 267 320
#     4   9  18  31  50  79 108 135 172 215 264 317
#     4  10  20  34  54  83 109 137 181 226 269 320
#     4   9  18  32  53  81 109 134 172 226 272 317
#     4  11  21  35  57  84 112 140 179 226 270 320
#     4  10  19  34  56  81 109 137 177 227 268 317
#     4  10  22  38  55  78 109 146 185 221 269 321
#
# _framework density 21.465032000000001
#
# number of rings (size 3 to 8) (size 9 to 14) (size 15 to 20)
#    0.000    2.250    0.000    6.375    0.000    6.500 
#    0.000    1.250    0.000    9.750    0.000    0.000 
#    0.000    0.000    0.000    0.000    0.000    0.000 
#
# Total GULP energy -89122.195406 kJ/mol
# GULP energy per Si atom -5570.137213 kJ/mol
# Density = 2.141618 g / cm^3
# Si number density = 21.465032 Si / 1000 Ang^3
#
#
#
# Elastic Constant Matrix: (Units=GPa)
#
#
# Indices 1 2 3 4 5 6 
#
# 1 -7.0574 -23.2947 0.5061 0.8993 -12.9140 -26.2351
# 2 -23.2947 55.2525 -2.1583 16.8076 -15.7225 -25.3421
# 3 0.5061 -2.1583 128.5829 -12.6944 -5.1727 -8.3444
# 4 0.8993 16.8076 -12.6944 6.2369 4.3522 7.3289
# 5 -12.9140 -15.7225 -5.1727 4.3522 7.5822 -14.9850
# 6 -26.2351 -25.3421 -8.3444 7.3289 -14.9850 -29.2762
#
#
#
# Elastic Compliance Matrix: (Units=1/GPa)
#
#
# Indices 1 2 3 4 5 6 
#
# 1 0.088010 -0.011620 0.004757 0.086192 -0.008178 -0.044402
# 2 -0.011620 0.019037 -0.004718 -0.041868 0.005196 -0.017862
# 3 0.004757 -0.004718 0.010839 0.029424 -0.001530 0.004881
# 4 0.086192 -0.041868 0.029424 0.294098 -0.020305 0.034634
# 5 -0.008178 0.005196 -0.001530 -0.020305 0.067487 -0.036359
# 6 -0.044402 -0.017862 0.004881 0.034634 -0.036359 0.046983
#
#
# Mechanical properties :
#
#
# Convention : Reuss Voigt Hill
#
# Bulk Modulus (GPa) = 10.55696 14.09825 12.32761
# Shear Modulus (GPa) = 8.60301 10.35690 9.47995
#
# Velocity S-wave (km/s) = 2.00415 2.19897 2.10382
# Velocity P-wave (km/s) = 3.20693 3.60965 3.41423
#
# Compressibility (1/GPa) = 0.09472425
#
# Stress axis : x y z
#
# Youngs Moduli (GPa) = 11.36231 52.52825 92.25755
#
# Poissons Ratio (x) = 0.61040 -0.43890
# Poissons Ratio (y) = 0.13203 0.43530
# Poissons Ratio (z) = -0.05405 0.24784
#
# Static dielectric constant tensor:
#      x y z
#    x 1.870130 -0.056490 -0.032360 
#    y -0.056490 1.841290 -0.006040 
#    z -0.032360 -0.006040 1.868030 
# 
# From -- ./inp_files/601466.got.cif
#   From: 2010.05.17/outbox.cif.g08.bks.cpg/sg2_301_cif.got.tgz:601466.got - 2010.06.03 11:33:40.
