data_PCOD9083884
_publ_section_title
;
Structure prediction by ZEFSAII (Michael W. Deem and Ramdas Pophale) SiO2 
 PCOD9083884
Probable space group: P -1
;
_chemical_formula_sum "Si O2"
_cell_formula_units_Z 16
_cell_length_a 18.811005
_cell_length_b 5.433325
_cell_length_c 12.076665
_cell_angle_alpha 63.262718
_cell_angle_beta 125.635386
_cell_angle_gamma 106.788408
_cell_volume 895.307772
_symmetry_space_group_name_H-M "P -1"
_symmetry_group_IT_number 2
_symmetry_cell_setting 'triclinic'
loop_
_space_group_symop_operation_xyz
x,y,z
-x,-y,-z
loop_
_atom_site_type_symbol
_atom_site_label
_atom_site_fract_x
_atom_site_fract_y
_atom_site_fract_z
Si Si1 0.987318 0.825107 0.412210
Si Si2 0.785644 0.809461 0.226203
Si Si3 0.710365 0.245779 0.214605
Si Si4 0.014137 0.092461 0.171680
Si Si5 0.907921 0.640566 0.017357
Si Si6 0.293724 0.456306 0.087406
Si Si7 0.645998 0.020514 0.875496
Si Si8 0.517307 0.174470 0.092838
O O1 0.886327 0.857821 0.278507
O O2 0.000000 0.500000 0.500000
O O3 0.045832 0.955032 0.340802
O O4 0.000000 0.000000 0.500000
O O5 0.763706 0.484323 0.279649
O O6 0.763714 0.983847 0.279651
O O7 0.721461 0.921148 0.050333
O O8 0.620502 0.160070 0.210434
O O9 0.686711 0.392034 0.044698
O O10 0.957848 0.355636 0.103139
O O11 0.957847 0.853789 0.103138
O O12 0.086301 0.209134 0.127169
O O13 0.810233 0.575992 0.984243
O O14 0.335789 0.654913 0.177878
O O15 0.335782 0.160876 0.177874
O O16 0.551742 0.944975 0.856767
O O17 0.500000 0.500000 0.000000
O O18 0.500000 0.000000 0.000000
#
# Coordination Sequence:
#
# PCOD9083884 Si02
#       8
#     2   2   2   2   2   2   2   2
#     4  12  24  37  52  71  99 136 175 223 253 291
#     4  10  18  30  43  61  83 122 166 192 235 280
#     4  10  17  26  44  62  93 127 152 193 228 301
#     4  10  20  35  51  73  95 123 169 210 272 298
#     4  10  19  32  54  73  95 126 162 219 249 313
#     4  10  16  25  38  62  87 118 155 179 228 275
#     4  10  18  26  42  63  93 129 152 191 228 301
#     4  12  16  27  38  65  95 129 161 179 239 291
#
# _framework density 17.870949
#
# number of rings (size 3 to 8) (size 9 to 14) (size 15 to 20)
#    0.000    1.500    5.000    5.250    0.000    0.000 
#    0.000    0.000    0.000    0.000    0.000    0.000 
#    0.000    0.000    0.000   38.250    0.000    0.000 
#
# Total GULP energy -89176.618406 kJ/mol
# GULP energy per Si atom -5573.538650 kJ/mol
# Density = 1.783027 g / cm^3
# Si number density = 17.870949 Si / 1000 Ang^3
#
#
#
# Elastic Constant Matrix: (Units=GPa)
#
#
# Indices 1 2 3 4 5 6 
#
# 1 79.9795 19.9011 10.0284 -1.7246 3.3995 -2.2649
# 2 19.9011 151.0862 8.2013 -11.2951 -2.1512 -27.5594
# 3 10.0284 8.2013 35.8285 -6.0862 -17.3350 -1.8782
# 4 -1.7246 -11.2951 -6.0862 12.5354 -0.0168 5.7515
# 5 3.3995 -2.1512 -17.3350 -0.0168 16.5935 -0.4228
# 6 -2.2649 -27.5594 -1.8782 5.7515 -0.4228 43.8333
#
#
#
# Elastic Compliance Matrix: (Units=1/GPa)
#
#
# Indices 1 2 3 4 5 6 
#
# 1 0.015245 -0.002068 -0.013094 -0.005935 -0.017088 -0.000460
# 2 -0.002068 0.008070 0.001399 0.005693 0.003047 0.004310
# 3 -0.013094 0.001399 0.079101 0.038255 0.085522 -0.000603
# 4 -0.005935 0.005693 0.038255 0.106702 0.041805 -0.008686
# 5 -0.017088 0.003047 0.085522 0.041805 0.153564 0.000693
# 6 -0.000460 0.004310 -0.000603 -0.008686 0.000693 0.026620
#
#
# Mechanical properties :
#
#
# Convention : Reuss Voigt Hill
#
# Bulk Modulus (GPa) = 13.35295 38.12841 25.74068
# Shear Modulus (GPa) = 11.31755 29.84336 20.58046
#
# Velocity S-wave (km/s) = 2.51926 4.09092 3.39723
# Velocity P-wave (km/s) = 3.99379 6.61029 5.46105
#
# Compressibility (1/GPa) = 0.07488979
#
# Stress axis : x y z
#
# Youngs Moduli (GPa) = 65.59576 123.91074 12.64211
#
# Poissons Ratio (x) = 0.25627 0.16553
# Poissons Ratio (y) = 0.13566 -0.01768
# Poissons Ratio (z) = 0.85888 -0.17331
#
# Static dielectric constant tensor:
#      x y z
#    x 1.624110 -0.026360 -0.004400 
#    y -0.026360 1.684740 -0.009040 
#    z -0.004400 -0.009040 1.617340 
# 
# From -- ./inp_files/76179.got.cif
#   From: 2010.05.17/outbox.cif.g08.bks.cpg/sg2_39_cif.got.tgz:76179.got - 2010.06.03 11:33:40.
