data_PCOD9083225
_publ_section_title
;
Structure prediction by ZEFSAII (Michael W. Deem and Ramdas Pophale) SiO2 
 PCOD9083225
Probable space group: P -1
;
_chemical_formula_sum "Si O2"
_cell_formula_units_Z 14
_cell_length_a 11.599818
_cell_length_b 10.394735
_cell_length_c 11.492196
_cell_angle_alpha 111.387280
_cell_angle_beta 62.411508
_cell_angle_gamma 154.531605
_cell_volume 522.896808
_symmetry_space_group_name_H-M "P -1"
_symmetry_group_IT_number 2
_symmetry_cell_setting 'triclinic'
loop_
_space_group_symop_operation_xyz
x,y,z
-x,-y,-z
loop_
_atom_site_type_symbol
_atom_site_label
_atom_site_fract_x
_atom_site_fract_y
_atom_site_fract_z
Si Si1 0.533677 0.786876 0.990367
Si Si2 0.664895 0.024370 0.535143
Si Si3 0.120365 0.803983 0.261625
Si Si4 0.953964 0.372266 0.099934
Si Si5 0.304510 0.333802 0.218532
Si Si6 0.287046 0.333101 0.648715
Si Si7 0.695701 0.368226 0.637116
O O1 0.659683 0.751193 0.922904
O O2 0.648947 0.958337 0.869531
O O3 0.197949 0.489228 0.044415
O O4 0.668800 0.018443 0.096784
O O5 0.739011 0.029268 0.626155
O O6 0.586045 0.109795 0.625008
O O7 0.963470 0.315606 0.423170
O O8 0.436801 0.733536 0.464317
O O9 0.998735 0.533719 0.227271
O O10 0.868195 0.668883 0.302684
O O11 0.000000 0.500000 0.000000
O O12 0.529420 0.498677 0.265002
O O13 0.368820 0.554060 0.234837
O O14 0.987839 0.025355 0.320099
O O15 0.500000 0.500000 0.500000
#
# Coordination Sequence:
#
# PCOD9083225 Si02
#       7
#     2   2   2   2   2   2   2
#     4  10  21  34  52  82 110 140 179 226 277 333
#     4  10  22  38  57  80 108 144 192 229 268 326
#     4  10  21  36  58  82 111 146 182 227 279 327
#     4  10  19  34  53  78 111 140 179 225 275 329
#     4  11  21  36  56  77 112 152 183 219 282 337
#     4  11  23  35  52  84 116 146 182 226 276 337
#     4  10  22  39  56  78 109 149 187 229 270 322
#
# _framework density 26.773924000000001
#
# number of rings (size 3 to 8) (size 9 to 14) (size 15 to 20)
#    0.000    1.714    0.000    6.429    0.000   10.286 
#    0.000    0.000    0.000    1.714    0.000    0.000 
#    0.000    1.143    0.000    0.000    0.000    0.000 
#
# Total GULP energy -78509.679613 kJ/mol
# GULP energy per Si atom -5607.834258 kJ/mol
# Density = 2.671299 g / cm^3
# Si number density = 26.773924 Si / 1000 Ang^3
#
#
#
# Elastic Constant Matrix: (Units=GPa)
#
#
# Indices 1 2 3 4 5 6 
#
# 1 74.1790 40.3008 34.6740 2.8339 -21.1387 -10.1873
# 2 40.3008 116.1702 13.5587 15.8465 10.9291 11.3243
# 3 34.6740 13.5587 97.3770 12.1333 -32.0743 -1.1351
# 4 2.8339 15.8465 12.1333 36.2638 -9.3182 -4.0737
# 5 -21.1387 10.9291 -32.0743 -9.3182 44.1613 11.6365
# 6 -10.1873 11.3243 -1.1351 -4.0737 11.6365 52.6814
#
#
#
# Elastic Compliance Matrix: (Units=1/GPa)
#
#
# Indices 1 2 3 4 5 6 
#
# 1 0.025342 -0.010971 -0.004511 0.007957 0.011891 0.005150
# 2 -0.010971 0.014955 -0.000487 -0.008537 -0.010114 -0.003773
# 3 -0.004511 -0.000487 0.015259 -0.002469 0.009226 -0.002668
# 4 0.007957 -0.008537 -0.002469 0.034612 0.010460 0.003687
# 5 0.011891 -0.010114 0.009226 0.010460 0.040670 -0.003502
# 6 0.005150 -0.003773 -0.002668 0.003687 -0.003502 0.021790
#
#
# Mechanical properties :
#
#
# Convention : Reuss Voigt Hill
#
# Bulk Modulus (GPa) = 42.34208 51.64370 46.99289
# Shear Modulus (GPa) = 25.98240 39.90083 32.94162
#
# Velocity S-wave (km/s) = 3.11856 3.86461 3.51146
# Velocity P-wave (km/s) = 5.36808 6.26453 5.83355
#
# Compressibility (1/GPa) = 0.02361717
#
# Stress axis : x y z
#
# Youngs Moduli (GPa) = 39.46048 66.86876 65.53619
#
# Poissons Ratio (x) = 0.73362 0.29562
# Poissons Ratio (y) = 0.43292 0.03193
# Poissons Ratio (z) = 0.17800 0.03258
#
# Static dielectric constant tensor:
#      x y z
#    x 2.115860 -0.080200 0.012610 
#    y -0.080200 2.035930 -0.016580 
#    z 0.012610 -0.016580 2.111020 
# 
# From -- ./inp_files/519828.got.cif
#   From: 2010.05.17/outbox.cif.g08.bks.cpg/sg2_260_cif.got.tgz:519828.got - 2010.06.03 11:33:40.
