data_PCOD9083674
_publ_section_title
;
Structure prediction by ZEFSAII (Michael W. Deem and Ramdas Pophale) SiO2 
 PCOD9083674
Probable space group: P -1
;
_chemical_formula_sum "Si O2"
_cell_formula_units_Z 16
_cell_length_a 23.325285
_cell_length_b 8.822644
_cell_length_c 10.784954
_cell_angle_alpha 42.050182
_cell_angle_beta 33.026969
_cell_angle_gamma 28.269883
_cell_volume 572.857127
_symmetry_space_group_name_H-M "P -1"
_symmetry_group_IT_number 2
_symmetry_cell_setting 'triclinic'
loop_
_space_group_symop_operation_xyz
x,y,z
-x,-y,-z
loop_
_atom_site_type_symbol
_atom_site_label
_atom_site_fract_x
_atom_site_fract_y
_atom_site_fract_z
Si Si1 0.184037 0.534654 0.858162
Si Si2 0.392679 0.354378 0.145886
Si Si3 0.902391 0.295777 0.660609
Si Si4 0.294648 0.094000 0.227618
Si Si5 0.356140 0.914855 0.757632
Si Si6 0.087613 0.203904 0.927778
Si Si7 0.223236 0.789962 0.395922
Si Si8 0.616664 0.430473 0.428630
O O1 0.178048 0.730549 0.639235
O O2 0.251170 0.583410 0.820209
O O3 0.016312 0.682445 0.072773
O O4 0.284162 0.185021 0.826685
O O5 0.245093 0.452673 0.307449
O O6 0.354917 0.451805 0.298198
O O7 0.380070 0.627021 0.945736
O O8 0.549289 0.016971 0.020633
O O9 0.859296 0.542687 0.693087
O O10 0.893842 0.062548 0.876247
O O11 0.065201 0.061558 0.446795
O O12 0.278465 0.953897 0.225628
O O13 0.320505 0.883596 0.422987
O O14 0.516221 0.726676 0.527569
O O15 0.251101 0.058787 0.737241
O O16 0.000000 0.500000 0.000000
O O17 0.500000 0.500000 0.500000
#
# Coordination Sequence:
#
# PCOD9083674 Si02
#       8
#     2   2   2   2   2   2   2   2
#     4   9  18  35  58  80 106 145 190 235 280 331
#     4  10  20  35  55  84 116 149 189 234 283 340
#     4  10  19  34  57  85 115 150 186 232 287 341
#     4  10  21  37  55  81 119 152 186 236 293 339
#     4   9  18  35  55  78 110 145 185 235 281 330
#     4   8  16  33  58  82 109 144 184 231 283 338
#     4  10  20  35  58  86 113 148 193 235 278 342
#     4  10  21  36  53  78 111 149 191 234 281 337
#
# _framework density 27.930174999999998
#
# number of rings (size 3 to 8) (size 9 to 14) (size 15 to 20)
#    0.000    2.500    0.000    1.875    0.000    1.000 
#    0.000    9.375    0.000    0.000    0.000    0.000 
#    0.000    0.000    0.000    0.000    0.000    0.000 
#
# Total GULP energy -89375.515551 kJ/mol
# GULP energy per Si atom -5585.969722 kJ/mol
# Density = 2.786661 g / cm^3
# Si number density = 27.930175 Si / 1000 Ang^3
#
#
#
# Elastic Constant Matrix: (Units=GPa)
#
#
# Indices 1 2 3 4 5 6 
#
# 1 133.8120 19.7072 33.1301 -14.2839 -29.0434 -5.6983
# 2 19.7072 154.6943 31.1880 12.9482 -5.3112 5.3918
# 3 33.1301 31.1880 60.8399 13.8140 -0.8788 -8.0100
# 4 -14.2839 12.9482 13.8140 38.1851 -3.2907 0.8592
# 5 -29.0434 -5.3112 -0.8788 -3.2907 35.2552 3.7701
# 6 -5.6983 5.3918 -8.0100 0.8592 3.7701 31.9144
#
#
#
# Elastic Compliance Matrix: (Units=1/GPa)
#
#
# Indices 1 2 3 4 5 6 
#
# 1 0.013307 -0.000140 -0.009363 0.009462 0.011761 -0.001594
# 2 -0.000140 0.007454 -0.003795 -0.001063 0.001063 -0.002334
# 3 -0.009363 -0.003795 0.027271 -0.013073 -0.009606 0.007301
# 4 0.009462 -0.001063 -0.013073 0.035852 0.011049 -0.003683
# 5 0.011761 0.001063 -0.009606 0.011049 0.039590 -0.005465
# 6 -0.001594 -0.002334 0.007301 -0.003683 -0.005465 0.034021
#
#
# Mechanical properties :
#
#
# Convention : Reuss Voigt Hill
#
# Bulk Modulus (GPa) = 46.65086 57.48853 52.06970
# Shear Modulus (GPa) = 26.14553 38.75899 32.45226
#
# Velocity S-wave (km/s) = 3.06290 3.72924 3.41237
# Velocity P-wave (km/s) = 5.40809 6.25864 5.84885
#
# Compressibility (1/GPa) = 0.02143583
#
# Stress axis : x y z
#
# Youngs Moduli (GPa) = 75.15005 134.15152 36.66845
#
# Poissons Ratio (x) = 0.01881 0.34331
# Poissons Ratio (y) = 0.01053 0.13917
# Poissons Ratio (z) = 0.70360 0.50917
#
# Static dielectric constant tensor:
#      x y z
#    x 2.400550 -0.031440 0.009130 
#    y -0.031440 2.217970 0.028010 
#    z 0.009130 0.028010 2.161930 
# 
# From -- ./inp_files/474124.got.cif
#   From: 2010.05.17/outbox.cif.g08.bks.cpg/sg2_238_cif.got.tgz:474124.got - 2010.06.03 11:33:40.
