data_PCOD9083750
_publ_section_title
;
Structure prediction by ZEFSAII (Michael W. Deem and Ramdas Pophale) SiO2 
 PCOD9083750
Probable space group: P -1
;
_chemical_formula_sum "Si O2"
_cell_formula_units_Z 14
_cell_length_a 14.517482
_cell_length_b 16.817182
_cell_length_c 5.263063
_cell_angle_alpha 67.267905
_cell_angle_beta 99.006694
_cell_angle_gamma 144.966110
_cell_volume 648.586687
_symmetry_space_group_name_H-M "P -1"
_symmetry_group_IT_number 2
_symmetry_cell_setting 'triclinic'
loop_
_space_group_symop_operation_xyz
x,y,z
-x,-y,-z
loop_
_atom_site_type_symbol
_atom_site_label
_atom_site_fract_x
_atom_site_fract_y
_atom_site_fract_z
Si Si1 0.064712 0.359699 0.063242
Si Si2 0.188721 0.631540 0.815650
Si Si3 0.068798 0.172546 0.369314
Si Si4 0.498680 0.940227 0.823784
Si Si5 0.255421 0.163453 0.248284
Si Si6 0.638293 0.679156 0.398753
Si Si7 0.148076 0.775354 0.355745
O O1 0.981889 0.302599 0.379039
O O2 0.124561 0.308429 0.130137
O O3 0.926355 0.269871 0.897915
O O4 0.196641 0.538082 0.856761
O O5 0.330646 0.756684 0.934507
O O6 0.196693 0.712089 0.505921
O O7 0.000000 0.500000 0.000000
O O8 0.121433 0.140446 0.228471
O O9 0.184706 0.234574 0.580778
O O10 0.869841 0.012546 0.537365
O O11 0.500000 0.000000 0.500000
O O12 0.681891 0.037775 0.779114
O O13 0.500000 0.000000 0.000000
O O14 0.377859 0.280781 0.391996
O O15 0.345907 0.242139 0.923005
O O16 0.500000 0.500000 0.500000
#
# Coordination Sequence:
#
# PCOD9083750 Si02
#       7
#     2   2   2   2   2   2   2
#     4  11  22  35  56  81 113 143 186 236 267 330
#     4   9  19  36  56  80 107 145 187 222 276 322
#     4   9  22  35  59  82 113 148 191 224 285 325
#     4  10  19  34  58  76 104 140 186 225 266 330
#     4   9  20  36  59  80 110 146 189 220 280 341
#     4  10  19  35  61  84 110 142 188 227 284 332
#     4  10  21  36  54  80 110 148 185 225 280 324
#
# _framework density 21.585395999999999
#
# number of rings (size 3 to 8) (size 9 to 14) (size 15 to 20)
#    0.857    1.429    0.000    3.857    2.000    3.429 
#    0.000    2.857    0.000    0.000    0.000    0.000 
#    0.000    0.000    0.000    0.000    0.000    0.000 
#
# Total GULP energy -77952.591639 kJ/mol
# GULP energy per Si atom -5568.042260 kJ/mol
# Density = 2.153627 g / cm^3
# Si number density = 21.585396 Si / 1000 Ang^3
#
#
#
# Elastic Constant Matrix: (Units=GPa)
#
#
# Indices 1 2 3 4 5 6 
#
# 1 16.3616 -1.3641 -0.3903 -6.3904 7.1424 -16.5860
# 2 -1.3641 144.7943 24.0663 7.5111 4.1642 11.5344
# 3 -0.3903 24.0663 76.7598 15.9445 -0.6566 -6.5150
# 4 -6.3904 7.5111 15.9445 27.6298 0.3722 -0.6816
# 5 7.1424 4.1642 -0.6566 0.3722 16.5335 -12.5142
# 6 -16.5860 11.5344 -6.5150 -0.6816 -12.5142 16.8806
#
#
#
# Elastic Compliance Matrix: (Units=1/GPa)
#
#
# Indices 1 2 3 4 5 6 
#
# 1 -0.078730 0.020764 -0.019886 -0.015360 -0.107619 -0.179622
# 2 0.020764 0.005175 -0.000576 0.004168 0.005320 0.020756
# 3 -0.019886 -0.000576 0.014470 -0.013153 -0.002415 -0.015882
# 4 -0.015360 0.004168 -0.013153 0.038435 -0.027453 -0.041816
# 5 -0.107619 0.005320 -0.002415 -0.027453 0.049727 -0.074552
# 6 -0.179622 0.020756 -0.015882 -0.041816 -0.074552 -0.194517
#
#
# Mechanical properties :
#
#
# Convention : Reuss Voigt Hill
#
# Bulk Modulus (GPa) = -17.10005 31.39328 7.14661
# Shear Modulus (GPa) = -26.94863 26.58235 -0.18314
#
# Velocity S-wave (km/s) = -3.53720 3.51308 -0.29160
# Velocity P-wave (km/s) = 4.96202 5.57054 1.79016
#
# Compressibility (1/GPa) = -0.05847936
#
# Stress axis : x y z
#
# Youngs Moduli (GPa) = -12.70160 193.24000 69.10685
#
# Poissons Ratio (x) = -4.01249 1.37426
# Poissons Ratio (y) = 0.26374 0.03977
# Poissons Ratio (z) = -0.25258 0.11121
#
# Static dielectric constant tensor:
#      x y z
#    x 1.851520 -0.002780 -0.014340 
#    y -0.002780 1.875890 -0.062040 
#    z -0.014340 -0.062040 1.790040 
# 
# From -- ./inp_files/111211.got.cif
#   From: 2010.05.17/outbox.cif.g08.bks.cpg/sg2_56_cif.got.tgz:111211.got - 2010.06.03 11:33:40.
