data_PCOD9083409
_publ_section_title
;
Structure prediction by ZEFSAII (Michael W. Deem and Ramdas Pophale) SiO2 
 PCOD9083409
Probable space group: P -1
;
_chemical_formula_sum "Si O2"
_cell_formula_units_Z 16
_cell_length_a 14.712988
_cell_length_b 10.396757
_cell_length_c 13.594109
_cell_angle_alpha 133.831645
_cell_angle_beta 38.290775
_cell_angle_gamma 111.681690
_cell_volume 856.114777
_symmetry_space_group_name_H-M "P -1"
_symmetry_group_IT_number 2
_symmetry_cell_setting 'triclinic'
loop_
_space_group_symop_operation_xyz
x,y,z
-x,-y,-z
loop_
_atom_site_type_symbol
_atom_site_label
_atom_site_fract_x
_atom_site_fract_y
_atom_site_fract_z
Si Si1 0.984163 0.228591 0.035023
Si Si2 0.053188 0.802982 0.721076
Si Si3 0.597531 0.570634 0.073239
Si Si4 0.225722 0.397426 0.860710
Si Si5 0.674515 0.350396 0.239301
Si Si6 0.474119 0.991437 0.401139
Si Si7 0.335225 0.429758 0.205824
Si Si8 0.286662 0.063809 0.006780
O O1 0.995324 0.217418 0.136720
O O2 0.801343 0.291766 0.190286
O O3 0.059739 0.374847 0.007298
O O4 0.078196 0.005703 0.801708
O O5 0.198762 0.606610 0.467988
O O6 0.901369 0.837503 0.800114
O O7 0.701895 0.583513 0.083738
O O8 0.460379 0.786846 0.288690
O O9 0.504864 0.431410 0.093216
O O10 0.686596 0.527255 0.870519
O O11 0.245283 0.560598 0.862960
O O12 0.333456 0.194989 0.608839
O O13 0.500000 0.500000 0.500000
O O14 0.667112 0.149898 0.102846
O O15 0.622564 0.972072 0.195279
O O16 0.500000 0.000000 0.500000
O O17 0.332458 0.218836 0.109382
#
# Coordination Sequence:
#
# PCOD9083409 Si02
#       8
#     2   2   2   2   2   2   2   2
#     4  10  22  36  59  92 110 140 192 233 287 340
#     4  10  20  35  61  85 119 137 181 241 297 326
#     4   9  20  32  55  85 112 142 191 226 280 340
#     4  11  20  36  58  78 116 152 184 236 279 321
#     4  11  23  38  57  80 115 155 189 230 275 332
#     4   9  16  29  54  80 108 136 182 228 288 317
#     4  10  19  34  55  84 113 148 180 234 285 334
#     4  10  20  35  52  84 111 149 190 225 273 342
#
# _framework density 18.689083
#
# number of rings (size 3 to 8) (size 9 to 14) (size 15 to 20)
#    0.000    2.000    1.250    3.750    1.750    2.000 
#    0.000    0.625    0.000    3.750    0.000    0.000 
#    0.000    0.000    0.000    0.000    0.000    0.000 
#
# Total GULP energy -89166.711967 kJ/mol
# GULP energy per Si atom -5572.919498 kJ/mol
# Density = 1.864655 g / cm^3
# Si number density = 18.689083 Si / 1000 Ang^3
#
#
#
# Elastic Constant Matrix: (Units=GPa)
#
#
# Indices 1 2 3 4 5 6 
#
# 1 40.7632 19.9597 11.6933 9.6334 0.8117 18.6487
# 2 19.9597 135.4963 24.8314 17.1295 1.3673 28.9801
# 3 11.6933 24.8314 70.4868 12.7262 2.5076 13.6442
# 4 9.6334 17.1295 12.7262 25.4382 1.3049 2.2914
# 5 0.8117 1.3673 2.5076 1.3049 21.7300 3.7702
# 6 18.6487 28.9801 13.6442 2.2914 3.7702 28.7001
#
#
#
# Elastic Compliance Matrix: (Units=1/GPa)
#
#
# Indices 1 2 3 4 5 6 
#
# 1 0.038957 0.001555 0.000486 -0.013851 0.003822 -0.026511
# 2 0.001555 0.010393 -0.000732 -0.006326 0.001638 -0.010867
# 3 0.000486 -0.000732 0.017115 -0.007603 -0.000264 -0.007072
# 4 -0.013851 -0.006326 -0.007603 0.051435 -0.003971 0.015418
# 5 0.003822 0.001638 -0.000264 -0.003971 0.047772 -0.009971
# 6 -0.026511 -0.010867 -0.007072 0.015418 -0.009971 0.066483
#
#
# Mechanical properties :
#
#
# Convention : Reuss Voigt Hill
#
# Bulk Modulus (GPa) = 14.47529 39.96835 27.22182
# Shear Modulus (GPa) = 19.79695 27.85778 23.82737
#
# Velocity S-wave (km/s) = 3.25819 3.86501 3.57450
# Velocity P-wave (km/s) = 4.68151 6.43040 5.62435
#
# Compressibility (1/GPa) = 0.06908326
#
# Stress axis : x y z
#
# Youngs Moduli (GPa) = 25.66942 96.22121 58.42738
#
# Poissons Ratio (x) = -0.14961 -0.02840
# Poissons Ratio (y) = -0.03991 0.04276
# Poissons Ratio (z) = -0.01248 0.07041
#
# Static dielectric constant tensor:
#      x y z
#    x 1.644630 0.020080 -0.004520 
#    y 0.020080 1.700680 0.002390 
#    z -0.004520 0.002390 1.657770 
# 
# From -- ./inp_files/200834.got.cif
#   From: 2010.05.17/outbox.cif.g08.bks.cpg/sg2_101_cif.got.tgz:200834.got - 2010.06.03 11:33:40.
