data_PCOD9083088
_publ_section_title
;
Structure prediction by ZEFSAII (Michael W. Deem and Ramdas Pophale) SiO2 
 PCOD9083088
Probable space group: P -1
;
_chemical_formula_sum "Si O2"
_cell_formula_units_Z 14
_cell_length_a 13.317486
_cell_length_b 9.447522
_cell_length_c 8.589271
_cell_angle_alpha 60.892731
_cell_angle_beta 115.901240
_cell_angle_gamma 65.348545
_cell_volume 508.412039
_symmetry_space_group_name_H-M "P -1"
_symmetry_group_IT_number 2
_symmetry_cell_setting 'triclinic'
loop_
_space_group_symop_operation_xyz
x,y,z
-x,-y,-z
loop_
_atom_site_type_symbol
_atom_site_label
_atom_site_fract_x
_atom_site_fract_y
_atom_site_fract_z
Si Si1 0.273289 0.298401 0.574145
Si Si2 0.908982 0.949984 0.282295
Si Si3 0.153699 0.627539 0.898907
Si Si4 0.147470 0.114758 0.017255
Si Si5 0.660647 0.586988 0.173196
Si Si6 0.322963 0.122937 0.391633
Si Si7 0.636058 0.441252 0.511819
O O1 0.341934 0.236565 0.833395
O O2 0.342565 0.081865 0.614305
O O3 0.049143 0.564569 0.279522
O O4 0.335761 0.405385 0.497993
O O5 0.807609 0.937118 0.111583
O O6 0.960445 0.850609 0.549315
O O7 0.118362 0.713247 0.480983
O O8 0.832469 0.220166 0.084322
O O9 0.320556 0.438772 0.984481
O O10 0.167246 0.446319 0.097227
O O11 0.268376 0.048958 0.273205
O O12 0.180775 0.885231 0.193092
O O13 0.560560 0.564339 0.218269
O O14 0.500000 0.000000 0.500000
O O15 0.500000 0.500000 0.500000
#
# Coordination Sequence:
#
# PCOD9083088 Si02
#       7
#     2   2   2   2   2   2   2
#     4   9  20  38  58  84 114 157 212 242 294 348
#     4   8  17  35  63  94 106 160 200 256 297 332
#     4   9  18  38  63  88 124 154 200 251 299 362
#     4  11  21  35  60  91 121 157 207 248 296 358
#     4   7  17  34  62  87 112 152 198 245 297 337
#     4  12  25  37  57  89 128 165 195 244 311 368
#     4  10  19  33  62  88 121 152 199 253 300 356
#
# _framework density 27.536721
#
# number of rings (size 3 to 8) (size 9 to 14) (size 15 to 20)
#    1.714    0.857    0.000    2.571    2.000    0.571 
#    0.000    0.714    0.000    6.000    0.000    0.000 
#    0.000    0.000    0.000    0.000    0.000    0.000 
#
# Total GULP energy -78003.327414 kJ/mol
# GULP energy per Si atom -5571.666244 kJ/mol
# Density = 2.747405 g / cm^3
# Si number density = 27.536721 Si / 1000 Ang^3
#
#
#
# Elastic Constant Matrix: (Units=GPa)
#
#
# Indices 1 2 3 4 5 6 
#
# 1 70.9584 22.3945 0.8604 16.1006 5.0196 17.8357
# 2 22.3945 207.8095 13.6143 35.0132 22.5504 17.3535
# 3 0.8604 13.6143 58.4720 36.0559 0.5191 11.1714
# 4 16.1006 35.0132 36.0559 60.8551 3.8061 3.9621
# 5 5.0196 22.5504 0.5191 3.8061 35.1727 -0.8037
# 6 17.8357 17.3535 11.1714 3.9621 -0.8037 35.3189
#
#
#
# Elastic Compliance Matrix: (Units=1/GPa)
#
#
# Indices 1 2 3 4 5 6 
#
# 1 0.018715 0.000050 0.006846 -0.008200 -0.002163 -0.010770
# 2 0.000050 0.006029 0.001758 -0.004097 -0.003527 -0.003164
# 3 0.006846 0.001758 0.031720 -0.020795 -0.000597 -0.012035
# 4 -0.008200 -0.004097 -0.020795 0.032640 0.000779 0.009088
# 5 -0.002163 -0.003527 -0.000597 0.000779 0.031009 0.003632
# 6 -0.010770 -0.003164 -0.012035 0.009088 0.003632 0.038177
#
#
# Mechanical properties :
#
#
# Convention : Reuss Voigt Hill
#
# Bulk Modulus (GPa) = 13.55518 45.66424 29.60971
# Shear Modulus (GPa) = 30.19856 46.29406 38.24631
#
# Velocity S-wave (km/s) = 3.31519 4.10466 3.73087
# Velocity P-wave (km/s) = 4.42574 6.25167 5.41621
#
# Compressibility (1/GPa) = 0.07377252
#
# Stress axis : x y z
#
# Youngs Moduli (GPa) = 53.43395 165.87117 31.52582
#
# Poissons Ratio (x) = -0.00837 -0.21584
# Poissons Ratio (y) = -0.00270 -0.05541
# Poissons Ratio (z) = -0.36583 -0.29154
#
# Static dielectric constant tensor:
#      x y z
#    x 2.104170 -0.082360 0.006040 
#    y -0.082360 2.195600 0.016420 
#    z 0.006040 0.016420 2.396950 
# 
# From -- ./inp_files/306768.got.cif
#   From: 2010.05.17/outbox.cif.g08.bks.cpg/sg2_154_cif.got.tgz:306768.got - 2010.06.03 11:33:40.
