data_PCOD9083166
_publ_section_title
;
Structure prediction by ZEFSAII (Michael W. Deem and Ramdas Pophale) SiO2 
 PCOD9083166
Probable space group: P -1
;
_chemical_formula_sum "Si O2"
_cell_formula_units_Z 15
_cell_length_a 13.695226
_cell_length_b 14.378570
_cell_length_c 10.730386
_cell_angle_alpha 31.561340
_cell_angle_beta 32.085111
_cell_angle_gamma 32.505416
_cell_volume 528.496106
_symmetry_space_group_name_H-M "P -1"
_symmetry_group_IT_number 2
_symmetry_cell_setting 'triclinic'
loop_
_space_group_symop_operation_xyz
x,y,z
-x,-y,-z
loop_
_atom_site_type_symbol
_atom_site_label
_atom_site_fract_x
_atom_site_fract_y
_atom_site_fract_z
Si Si1 0.534025 0.847846 0.997146
Si Si2 0.330021 0.025208 0.550579
Si Si3 0.938596 0.736367 0.803538
Si Si4 0.000000 0.000000 0.000000
Si Si5 0.260073 0.580947 0.824327
Si Si6 0.186140 0.873820 0.201369
Si Si7 0.551040 0.518141 0.780042
Si Si8 0.013930 0.560014 0.554331
O O1 0.602897 0.608589 0.192497
O O2 0.294353 0.931449 0.131165
O O3 0.597710 0.932866 0.706661
O O4 0.691825 0.851088 0.928598
O O5 0.084253 0.199224 0.626497
O O6 0.500000 0.000000 0.500000
O O7 0.244935 0.866673 0.841667
O O8 0.082359 0.745923 0.748525
O O9 0.031299 0.795049 0.515672
O O10 0.000000 0.500000 0.000000
O O11 0.083325 0.023985 0.030695
O O12 0.387404 0.649047 0.703184
O O13 0.141020 0.488369 0.143800
O O14 0.368560 0.690952 0.141872
O O15 0.755430 0.551121 0.523450
O O16 0.500000 0.500000 0.000000
O O17 0.000000 0.500000 0.500000
#
# Coordination Sequence:
#
# PCOD9083166 Si02
#       8
#     2   2   2   1   2   2   2   2
#     4   9  18  31  49  75 112 144 182 232 283 340
#     4  11  21  34  55  84 116 149 191 239 291 346
#     4  10  19  34  51  76 117 150 186 235 290 348
#     4  12  20  32  56  80 116 148 186 236 294 348
#     4   9  20  32  51  78 109 148 186 231 286 342
#     4  11  21  33  53  84 114 149 188 232 294 345
#     4  11  20  33  52  80 115 146 188 231 284 343
#     4  11  21  36  56  82 116 152 188 237 292 344
#
# _framework density 28.382421999999998
#
# number of rings (size 3 to 8) (size 9 to 14) (size 15 to 20)
#    0.000    1.600    5.333    1.600    0.000    5.867 
#    0.000    0.000    0.000    0.000    0.000    4.667 
#    0.000    0.133    0.000    0.000    0.000    0.000 
#
# Total GULP energy -83622.211282 kJ/mol
# GULP energy per Si atom -5574.814085 kJ/mol
# Density = 2.831782 g / cm^3
# Si number density = 28.382422 Si / 1000 Ang^3
#
#
#
# Elastic Constant Matrix: (Units=GPa)
#
#
# Indices 1 2 3 4 5 6 
#
# 1 236.1945 57.6602 2.5509 -2.9836 -18.4773 -74.4476
# 2 57.6602 95.2145 15.6042 -11.5467 -7.1772 -48.1450
# 3 2.5509 15.6042 120.6264 -9.6966 -18.5928 -23.2415
# 4 -2.9836 -11.5467 -9.6966 21.1422 -27.3642 -9.9995
# 5 -18.4773 -7.1772 -18.5928 -27.3642 35.0056 11.0352
# 6 -74.4476 -48.1450 -23.2415 -9.9995 11.0352 74.4680
#
#
#
# Elastic Compliance Matrix: (Units=1/GPa)
#
#
# Indices 1 2 3 4 5 6 
#
# 1 0.005106 -0.003585 -0.001152 -0.010075 -0.007203 0.002141
# 2 -0.003585 0.010985 -0.005125 -0.018454 -0.017426 0.002023
# 3 -0.001152 -0.005125 0.004852 -0.018659 -0.012533 -0.003599
# 4 -0.010075 -0.018454 -0.018659 -0.071435 -0.066147 -0.027617
# 5 -0.007203 -0.017426 -0.012533 -0.066147 -0.028657 -0.027014
# 6 0.002141 0.002023 -0.003599 -0.027617 -0.027014 0.016049
#
#
# Mechanical properties :
#
#
# Convention : Reuss Voigt Hill
#
# Bulk Modulus (GPa) = 819.91039 67.07401 443.49220
# Shear Modulus (GPa) = -116.36004 51.20450 -32.57777
#
# Velocity S-wave (km/s) = -6.40985 4.25207 -3.39162
# Velocity P-wave (km/s) = 15.32074 6.91305 11.88519
#
# Compressibility (1/GPa) = 0.00121965
#
# Stress axis : x y z
#
# Youngs Moduli (GPa) = 195.85977 91.03527 206.08299
#
# Poissons Ratio (x) = 0.32637 0.23734
# Poissons Ratio (y) = 0.70217 1.05614
# Poissons Ratio (z) = 0.22557 0.46654
#
# Static dielectric constant tensor:
#      x y z
#    x 2.270190 0.058950 -0.010350 
#    y 0.058950 2.344660 0.013520 
#    z -0.010350 0.013520 2.379300 
# 
# From -- ./inp_files/457407.got.cif
#   From: 2010.05.17/outbox.cif.g08.bks.cpg/sg2_229_cif.got.tgz:457407.got - 2010.06.03 11:33:40.
