data_PCOD9083728
_publ_section_title
;
Structure prediction by ZEFSAII (Michael W. Deem and Ramdas Pophale) SiO2 
 PCOD9083728
Probable space group: P -1
;
_chemical_formula_sum "Si O2"
_cell_formula_units_Z 14
_cell_length_a 5.735832
_cell_length_b 6.549805
_cell_length_c 16.937497
_cell_angle_alpha 124.329439
_cell_angle_beta 78.219772
_cell_angle_gamma 101.829172
_cell_volume 511.221296
_symmetry_space_group_name_H-M "P -1"
_symmetry_group_IT_number 2
_symmetry_cell_setting 'triclinic'
loop_
_space_group_symop_operation_xyz
x,y,z
-x,-y,-z
loop_
_atom_site_type_symbol
_atom_site_label
_atom_site_fract_x
_atom_site_fract_y
_atom_site_fract_z
Si Si1 0.929878 0.548300 0.653607
Si Si2 0.542996 0.454408 0.395684
Si Si3 0.824856 0.120567 0.978056
Si Si4 0.023485 0.383545 0.867258
Si Si5 0.452793 0.920144 0.342564
Si Si6 0.944788 0.982282 0.362649
Si Si7 0.335384 0.395658 0.159799
O O1 0.184907 0.441170 0.620753
O O2 0.824225 0.060252 0.610441
O O3 0.874551 0.642467 0.765031
O O4 0.993455 0.749957 0.624057
O O5 0.500000 0.500000 0.500000
O O6 0.333904 0.558429 0.382703
O O7 0.667298 0.973648 0.401343
O O8 0.510205 0.150087 0.325038
O O9 0.973918 0.218788 0.911789
O O10 0.628556 0.896020 0.914887
O O11 0.772580 0.385561 0.078860
O O12 0.000000 0.000000 0.000000
O O13 0.047347 0.211676 0.752596
O O14 0.784782 0.515034 0.892456
O O15 0.467426 0.656372 0.240943
#
# Coordination Sequence:
#
# PCOD9083728 Si02
#       7
#     2   2   2   2   2   2   2
#     4  10  20  35  61  90 119 161 205 248 304 370
#     4  10  21  40  62  89 123 159 197 252 315 373
#     4   9  17  31  56  89 126 165 206 253 305 357
#     4   9  17  31  57  86 126 165 203 257 306 346
#     4   9  20  34  59  85 116 154 197 247 301 354
#     4   9  17  35  55  82 116 157 202 243 292 357
#     4  10  19  34  57  90 121 160 212 255 297 366
#
# _framework density 27.385397000000001
#
# number of rings (size 3 to 8) (size 9 to 14) (size 15 to 20)
#    0.000    2.571    1.429    0.429    0.000    2.286 
#    0.000    2.143    0.000   24.857    0.000    0.000 
#    0.000    0.000    0.000    0.000    0.000    0.000 
#
# Total GULP energy -78101.438223 kJ/mol
# GULP energy per Si atom -5578.674159 kJ/mol
# Density = 2.732307 g / cm^3
# Si number density = 27.385397 Si / 1000 Ang^3
#
#
#
# Elastic Constant Matrix: (Units=GPa)
#
#
# Indices 1 2 3 4 5 6 
#
# 1 206.4042 50.2005 7.9220 -10.4746 8.1415 -9.0833
# 2 50.2005 145.3002 35.4641 15.2370 16.0558 -6.1644
# 3 7.9220 35.4641 119.4486 14.1695 5.8167 -4.3646
# 4 -10.4746 15.2370 14.1695 43.9524 -6.4117 12.7634
# 5 8.1415 16.0558 5.8167 -6.4117 25.7667 -9.8493
# 6 -9.0833 -6.1644 -4.3646 12.7634 -9.8493 34.9389
#
#
#
# Elastic Compliance Matrix: (Units=1/GPa)
#
#
# Indices 1 2 3 4 5 6 
#
# 1 0.005463 -0.002106 0.000038 0.001932 0.000214 0.000408
# 2 -0.002106 0.009096 -0.001787 -0.004095 -0.005299 0.000837
# 3 0.000038 -0.001787 0.009377 -0.003041 -0.001139 0.001656
# 4 0.001932 -0.004095 -0.003041 0.029296 0.006274 -0.009534
# 5 0.000214 -0.005299 -0.001139 0.006274 0.047740 0.010145
# 6 0.000408 0.000837 0.001656 -0.009534 0.010145 0.035424
#
#
# Mechanical properties :
#
#
# Convention : Reuss Voigt Hill
#
# Bulk Modulus (GPa) = 61.62433 73.14736 67.38585
# Shear Modulus (GPa) = 33.44155 46.10269 39.77212
#
# Velocity S-wave (km/s) = 3.49828 4.10747 3.81505
# Velocity P-wave (km/s) = 6.23448 7.01879 6.63823
#
# Compressibility (1/GPa) = 0.01622736
#
# Stress axis : x y z
#
# Youngs Moduli (GPa) = 183.04515 109.93391 106.64957
#
# Poissons Ratio (x) = 0.23150 -0.00407
# Poissons Ratio (y) = 0.38546 0.19055
# Poissons Ratio (z) = -0.00698 0.19641
#
# Static dielectric constant tensor:
#      x y z
#    x 2.359350 0.031740 -0.079140 
#    y 0.031740 2.280080 0.071950 
#    z -0.079140 0.071950 2.079510 
# 
# From -- ./inp_files/11943.got.cif
#   From: 2010.05.17/outbox.cif.g08.bks.cpg/sg2_6_cif.got.tgz:11943.got - 2010.06.03 11:33:40.
