data_PCOD9083942
_publ_section_title
;
Structure prediction by ZEFSAII (Michael W. Deem and Ramdas Pophale) SiO2 
 PCOD9083942
Probable space group: P -1
;
_chemical_formula_sum "Si O2"
_cell_formula_units_Z 14
_cell_length_a 6.247352
_cell_length_b 22.468305
_cell_length_c 14.195378
_cell_angle_alpha 21.905600
_cell_angle_beta 100.918015
_cell_angle_gamma 108.395958
_cell_volume 674.641105
_symmetry_space_group_name_H-M "P -1"
_symmetry_group_IT_number 2
_symmetry_cell_setting 'triclinic'
loop_
_space_group_symop_operation_xyz
x,y,z
-x,-y,-z
loop_
_atom_site_type_symbol
_atom_site_label
_atom_site_fract_x
_atom_site_fract_y
_atom_site_fract_z
Si Si1 0.445964 0.253224 0.379930
Si Si2 0.868176 0.738449 0.812549
Si Si3 0.319129 0.070523 0.330335
Si Si4 0.955397 0.889253 0.288613
Si Si5 0.711410 0.142881 0.864967
Si Si6 0.524552 0.924447 0.858461
Si Si7 0.116151 0.609180 0.644336
O O1 0.352176 0.341273 0.160945
O O2 0.243554 0.191950 0.530837
O O3 0.690162 0.333377 0.339315
O O4 0.446458 0.077464 0.592242
O O5 0.764213 0.806541 0.792086
O O6 0.973817 0.596140 0.057928
O O7 0.077649 0.900589 0.544856
O O8 0.435641 0.160667 0.109354
O O9 0.500000 0.000000 0.500000
O O10 0.952003 0.717993 0.486272
O O11 0.218722 0.982118 0.212083
O O12 0.898985 0.050657 0.008280
O O13 0.770462 0.317032 0.555405
O O14 0.643428 0.161267 0.940653
O O15 0.500000 0.000000 0.000000
#
# Coordination Sequence:
#
# PCOD9083942 Si02
#       7
#     2   2   2   2   2   2   2
#     4  10  19  36  59  90 122 148 188 240 297 356
#     4  11  24  38  61  88 118 156 199 243 291 347
#     4  11  23  42  63  80 114 159 207 244 285 342
#     4  10  19  34  59  84 122 153 187 233 298 340
#     4  11  20  35  59  89 121 155 193 231 290 362
#     4  10  20  36  60  87 110 155 200 235 287 345
#     4  11  23  36  56  95 126 151 187 240 298 352
#
# _framework density 20.751773
#
# number of rings (size 3 to 8) (size 9 to 14) (size 15 to 20)
#    0.000    1.429    7.143    0.857    0.000    1.714 
#    0.000    0.714    0.000    1.714    0.000    0.000 
#    0.000    0.000    0.000    0.000    0.000    0.000 
#
# Total GULP energy -77958.704508 kJ/mol
# GULP energy per Si atom -5568.478893 kJ/mol
# Density = 2.070454 g / cm^3
# Si number density = 20.751773 Si / 1000 Ang^3
#
#
#
# Elastic Constant Matrix: (Units=GPa)
#
#
# Indices 1 2 3 4 5 6 
#
# 1 65.2577 21.3072 6.5367 -6.0186 19.6157 -11.3750
# 2 21.3072 74.4873 31.1882 9.0605 2.1271 -20.1793
# 3 6.5367 31.1882 93.0802 6.8734 17.1278 -8.9541
# 4 -6.0186 9.0605 6.8734 16.1979 1.8966 -0.2477
# 5 19.6157 2.1271 17.1278 1.8966 22.7878 6.2841
# 6 -11.3750 -20.1793 -8.9541 -0.2477 6.2841 26.4344
#
#
#
# Elastic Compliance Matrix: (Units=1/GPa)
#
#
# Indices 1 2 3 4 5 6 
#
# 1 0.038008 -0.009909 0.010152 0.021312 -0.047755 0.023782
# 2 -0.009909 0.022904 -0.007082 -0.014615 0.010685 0.008144
# 3 0.010152 -0.007082 0.017753 0.003258 -0.024692 0.010876
# 4 0.021312 -0.014615 0.003258 0.079809 -0.027862 0.006489
# 5 -0.047755 0.010685 -0.024692 -0.027862 0.118431 -0.049172
# 6 0.023782 0.008144 0.010876 0.006489 -0.049172 0.069714
#
#
# Mechanical properties :
#
#
# Convention : Reuss Voigt Hill
#
# Bulk Modulus (GPa) = 15.38760 38.98770 27.18765
# Shear Modulus (GPa) = 13.09044 24.67024 18.88034
#
# Velocity S-wave (km/s) = 2.51432 3.45168 3.01959
# Velocity P-wave (km/s) = 3.98249 5.89185 5.02862
#
# Compressibility (1/GPa) = 0.06498741
#
# Stress axis : x y z
#
# Youngs Moduli (GPa) = 26.31034 43.66096 56.32954
#
# Poissons Ratio (x) = 0.43264 -0.57189
# Poissons Ratio (y) = 0.26071 0.39892
# Poissons Ratio (z) = -0.26712 0.30921
#
# Static dielectric constant tensor:
#      x y z
#    x 1.783840 -0.005960 0.025650 
#    y -0.005960 1.793110 -0.003330 
#    z 0.025650 -0.003330 1.812470 
# 
# From -- ./inp_files/63901.got.cif
#   From: 2010.05.17/outbox.cif.g08.bks.cpg/sg2_32_cif.got.tgz:63901.got - 2010.06.03 11:33:40.
