data_PCOD9083106
_publ_section_title
;
Structure prediction by ZEFSAII (Michael W. Deem and Ramdas Pophale) SiO2 
 PCOD9083106
Probable space group: P -1
;
_chemical_formula_sum "Si O2"
_cell_formula_units_Z 15
_cell_length_a 13.177410
_cell_length_b 9.003267
_cell_length_c 10.300337
_cell_angle_alpha 77.484148
_cell_angle_beta 113.456682
_cell_angle_gamma 146.410231
_cell_volume 604.111579
_symmetry_space_group_name_H-M "P -1"
_symmetry_group_IT_number 2
_symmetry_cell_setting 'triclinic'
loop_
_space_group_symop_operation_xyz
x,y,z
-x,-y,-z
loop_
_atom_site_type_symbol
_atom_site_label
_atom_site_fract_x
_atom_site_fract_y
_atom_site_fract_z
Si Si1 0.234837 0.833814 0.351002
Si Si2 0.925291 0.750347 0.555331
Si Si3 0.040110 0.972258 0.845959
Si Si4 0.491527 0.583913 0.612722
Si Si5 0.888386 0.598193 0.299071
Si Si6 0.500000 0.500000 0.000000
Si Si7 0.530048 0.999176 0.302125
Si Si8 0.604112 0.436314 0.855720
O O1 0.324635 0.827559 0.290231
O O2 0.999964 0.591031 0.282134
O O3 0.315455 0.096767 0.322236
O O4 0.335791 0.902259 0.525834
O O5 0.686626 0.500767 0.476205
O O6 0.978552 0.701476 0.473895
O O7 0.000000 0.000000 0.500000
O O8 0.997156 0.820384 0.724587
O O9 0.065343 0.178395 0.771382
O O10 0.259727 0.179913 0.967633
O O11 0.838712 0.724944 0.878353
O O12 0.500000 0.500000 0.500000
O O13 0.477357 0.443909 0.745503
O O14 0.660252 0.284589 0.254792
O O15 0.550888 0.387844 0.987344
O O16 0.482478 0.806370 0.218537
#
# Coordination Sequence:
#
# PCOD9083106 Si02
#       8
#     2   2   2   2   2   1   2   2
#     4  11  22  38  61 101 150 178 202 263 353 423
#     4  10  19  33  63 103 135 166 219 267 332 415
#     4  11  24  44  70  96 133 183 241 285 331 398
#     4  12  18  38  69 101 135 177 214 268 349 417
#     4  11  22  40  67 105 142 180 213 270 354 429
#     4  12  30  46  72  98 128 184 254 296 322 374
#     4  11  25  38  64 108 150 172 211 276 352 422
#     4  12  25  46  72  99 137 180 235 286 334 407
#
# _framework density 24.82985
#
# number of rings (size 3 to 8) (size 9 to 14) (size 15 to 20)
#    0.000    0.800    5.333    3.200    3.733    1.067 
#    0.000    0.667    0.000    2.400    0.000    0.000 
#    0.000    0.000    0.000    0.000    0.000    0.000 
#
# Total GULP energy -83592.231485 kJ/mol
# GULP energy per Si atom -5572.815432 kJ/mol
# Density = 2.477334 g / cm^3
# Si number density = 24.829850 Si / 1000 Ang^3
#
#
#
# Elastic Constant Matrix: (Units=GPa)
#
#
# Indices 1 2 3 4 5 6 
#
# 1 122.1741 43.0274 36.0745 -1.7928 -28.9588 13.4418
# 2 43.0274 120.8899 28.1430 8.6973 -11.4403 -3.6387
# 3 36.0745 28.1430 55.0927 10.2841 0.6425 4.4277
# 4 -1.7928 8.6973 10.2841 26.0064 -6.0879 2.5717
# 5 -28.9588 -11.4403 0.6425 -6.0879 26.9483 6.2013
# 6 13.4418 -3.6387 4.4277 2.5717 6.2013 51.4507
#
#
#
# Elastic Compliance Matrix: (Units=1/GPa)
#
#
# Indices 1 2 3 4 5 6 
#
# 1 0.021396 -0.002870 -0.015113 0.015741 0.027673 -0.008615
# 2 -0.002870 0.010274 -0.003048 -0.002524 0.000360 0.001821
# 3 -0.015113 -0.003048 0.033072 -0.019119 -0.023724 0.004702
# 4 0.015741 -0.002524 -0.019119 0.056131 0.031097 -0.009199
# 5 0.027673 0.000360 -0.023724 0.031097 0.078307 -0.016155
# 6 -0.008615 0.001821 0.004702 -0.009199 -0.016155 0.023818
#
#
# Mechanical properties :
#
#
# Convention : Reuss Voigt Hill
#
# Bulk Modulus (GPa) = 44.09250 56.96071 50.52660
# Shear Modulus (GPa) = 18.34057 33.60856 25.97456
#
# Velocity S-wave (km/s) = 2.72076 3.68306 3.23786
# Velocity P-wave (km/s) = 5.25989 6.40912 5.86273
#
# Compressibility (1/GPa) = 0.02267959
#
# Stress axis : x y z
#
# Youngs Moduli (GPa) = 46.73717 97.33619 30.23726
#
# Poissons Ratio (x) = 0.27937 0.45697
# Poissons Ratio (y) = 0.13414 0.09217
# Poissons Ratio (z) = 0.70633 0.29670
#
# Static dielectric constant tensor:
#      x y z
#    x 2.041320 0.154920 0.102980 
#    y 0.154920 2.244250 0.344630 
#    z 0.102980 0.344630 1.721420 
# 
# From -- ./inp_files/417609.got.cif
#   From: 2010.05.17/outbox.cif.g08.bks.cpg/sg2_209_cif.got.tgz:417609.got - 2010.06.03 11:33:40.
