data_PCOD9083515
_publ_section_title
;
Structure prediction by ZEFSAII (Michael W. Deem and Ramdas Pophale) SiO2 
 PCOD9083515
Probable space group: P -1
;
_chemical_formula_sum "Si O2"
_cell_formula_units_Z 14
_cell_length_a 16.780464
_cell_length_b 15.680262
_cell_length_c 6.348057
_cell_angle_alpha 86.897295
_cell_angle_beta 89.287819
_cell_angle_gamma 17.257721
_cell_volume 490.441497
_symmetry_space_group_name_H-M "P -1"
_symmetry_group_IT_number 2
_symmetry_cell_setting 'triclinic'
loop_
_space_group_symop_operation_xyz
x,y,z
-x,-y,-z
loop_
_atom_site_type_symbol
_atom_site_label
_atom_site_fract_x
_atom_site_fract_y
_atom_site_fract_z
Si Si1 0.291012 0.127897 0.452656
Si Si2 0.052862 0.091365 0.299541
Si Si3 0.775694 0.535888 0.360348
Si Si4 0.985364 0.446620 0.822110
Si Si5 0.443264 0.524685 0.733934
Si Si6 0.247485 0.498908 0.150891
Si Si7 0.262115 0.889501 0.802652
O O1 0.511481 0.864971 0.316270
O O2 0.770390 0.711687 0.633045
O O3 0.035297 0.329524 0.382736
O O4 0.256749 0.159359 0.707198
O O5 0.320915 0.787624 0.206588
O O6 0.177393 0.982837 0.543567
O O7 0.856264 0.375021 0.227724
O O8 0.848565 0.221122 0.287991
O O9 0.721711 0.549181 0.588305
O O10 0.873306 0.471082 0.902897
O O11 0.000000 0.500000 0.000000
O O12 0.500000 0.500000 0.500000
O O13 0.420660 0.637439 0.842694
O O14 0.543547 0.231443 0.124312
O O15 0.026808 0.801721 0.117542
#
# Coordination Sequence:
#
# PCOD9083515 Si02
#       7
#     2   2   2   2   2   2   2
#     4  10  22  39  61  85 116 155 189 235 295 343
#     4  10  17  26  46  72 107 152 189 229 280 334
#     4  10  18  34  53  79 114 150 192 232 283 347
#     4  10  23  42  62  87 116 150 198 245 289 346
#     4  10  16  24  40  70 107 148 191 229 277 335
#     4  10  19  31  50  72 105 152 188 230 291 339
#     4  10  17  28  43  70 110 149 189 231 283 342
#
# _framework density 28.545708000000001
#
# number of rings (size 3 to 8) (size 9 to 14) (size 15 to 20)
#    0.000    2.000    0.000    9.429    0.000    6.286 
#    0.000   11.429    0.000    0.000    0.000    0.000 
#    0.000   22.857    0.000   16.000    0.000   43.000 
#
# Total GULP energy -78365.436292 kJ/mol
# GULP energy per Si atom -5597.531164 kJ/mol
# Density = 2.848074 g / cm^3
# Si number density = 28.545708 Si / 1000 Ang^3
#
#
#
# Elastic Constant Matrix: (Units=GPa)
#
#
# Indices 1 2 3 4 5 6 
#
# 1 166.6774 34.3172 4.6313 3.5485 23.7722 -8.7085
# 2 34.3172 151.8347 44.7708 23.2482 31.5008 -21.5296
# 3 4.6313 44.7708 159.9831 49.5287 49.3012 -13.9548
# 4 3.5485 23.2482 49.5287 59.1181 9.6490 4.4243
# 5 23.7722 31.5008 49.3012 9.6490 43.8818 -1.0954
# 6 -8.7085 -21.5296 -13.9548 4.4243 -1.0954 66.0408
#
#
#
# Elastic Compliance Matrix: (Units=1/GPa)
#
#
# Indices 1 2 3 4 5 6 
#
# 1 0.006928 -0.000767 0.002055 -0.001060 -0.005251 0.001082
# 2 -0.000767 0.008672 0.000585 -0.003146 -0.005701 0.002966
# 3 0.002055 0.000585 0.014112 -0.010002 -0.015092 0.003863
# 4 -0.001060 -0.003146 -0.010002 0.025601 0.008319 -0.004856
# 5 -0.005251 -0.005701 -0.015092 0.008319 0.044714 -0.005556
# 6 0.001082 0.002966 0.003863 -0.004856 -0.005556 0.017301
#
#
# Mechanical properties :
#
#
# Convention : Reuss Voigt Hill
#
# Bulk Modulus (GPa) = 29.88846 71.77043 50.82944
# Shear Modulus (GPa) = 40.08507 60.12653 50.10580
#
# Velocity S-wave (km/s) = 3.75139 4.59445 4.19416
# Velocity P-wave (km/s) = 5.40897 7.30357 6.42647
#
# Compressibility (1/GPa) = 0.03345773
#
# Stress axis : x y z
#
# Youngs Moduli (GPa) = 144.33287 115.31451 70.86337
#
# Poissons Ratio (x) = 0.08841 -0.14560
# Poissons Ratio (y) = 0.11065 -0.04144
# Poissons Ratio (z) = -0.29656 -0.06744
#
# Static dielectric constant tensor:
#      x y z
#    x 2.351590 0.212770 -0.307020 
#    y 0.212770 2.280460 -0.173640 
#    z -0.307020 -0.173640 2.534960 
# 
# From -- ./inp_files/543265.got.cif
#   From: 2010.05.17/outbox.cif.g08.bks.cpg/sg2_272_cif.got.tgz:543265.got - 2010.06.03 11:33:40.
