data_PCOD9083170
_publ_section_title
;
Structure prediction by ZEFSAII (Michael W. Deem and Ramdas Pophale) SiO2 
 PCOD9083170
Probable space group: P -1
;
_chemical_formula_sum "Si O2"
_cell_formula_units_Z 16
_cell_length_a 8.420398
_cell_length_b 7.815567
_cell_length_c 13.127700
_cell_angle_alpha 83.793993
_cell_angle_beta 107.924926
_cell_angle_gamma 69.614716
_cell_volume 747.730539
_symmetry_space_group_name_H-M "P -1"
_symmetry_group_IT_number 2
_symmetry_cell_setting 'triclinic'
loop_
_space_group_symop_operation_xyz
x,y,z
-x,-y,-z
loop_
_atom_site_type_symbol
_atom_site_label
_atom_site_fract_x
_atom_site_fract_y
_atom_site_fract_z
Si Si1 0.731661 0.980139 0.263736
Si Si2 0.682448 0.570992 0.145812
Si Si3 0.677665 0.357088 0.352188
Si Si4 0.254215 0.475426 0.265866
Si Si5 0.066771 0.619198 0.429732
Si Si6 0.050512 0.325277 0.942145
Si Si7 0.613449 0.236427 0.059948
Si Si8 0.341481 0.153155 0.153931
O O1 0.722875 0.158604 0.317193
O O2 0.748895 0.037781 0.145397
O O3 0.529319 0.977786 0.230884
O O4 0.895062 0.800709 0.347080
O O5 0.718402 0.493236 0.271387
O O6 0.828961 0.640361 0.126210
O O7 0.687785 0.392523 0.091394
O O8 0.480013 0.728301 0.070273
O O9 0.461227 0.449587 0.319157
O O10 0.790992 0.328822 0.478954
O O11 0.164313 0.507443 0.356004
O O12 0.260619 0.283197 0.227391
O O13 0.136536 0.643355 0.153951
O O14 0.000000 0.500000 0.500000
O O15 0.180880 0.151377 0.049388
O O16 0.000000 0.500000 0.000000
O O17 0.437919 0.265762 0.097058
#
# Coordination Sequence:
#
# PCOD9083170 Si02
#       8
#     2   2   2   2   2   2   2   2
#     4   8  17  36  57  81 107 139 189 220 271 322
#     4   9  13  26  52  83 101 129 184 219 254 313
#     4  10  20  37  59  78 105 153 188 220 259 325
#     4  10  19  34  51  79 109 143 181 223 275 318
#     4  12  24  36  54  81 111 144 185 232 274 320
#     4   9  16  26  50  85 113 137 172 221 269 322
#     4   7  13  25  54  80  99 129 175 222 258 305
#     4   7  14  32  53  79 102 139 179 215 269 316
#
# _framework density 21.398083
#
# number of rings (size 3 to 8) (size 9 to 14) (size 15 to 20)
#    0.750    2.250    1.250    1.500    1.750    0.000 
#    0.000    3.125    0.000   12.750    0.000    0.000 
#    0.000    0.000    0.000    0.000    0.000    0.000 
#
# Total GULP energy -89135.232485 kJ/mol
# GULP energy per Si atom -5570.952030 kJ/mol
# Density = 2.134938 g / cm^3
# Si number density = 21.398083 Si / 1000 Ang^3
#
#
#
# Elastic Constant Matrix: (Units=GPa)
#
#
# Indices 1 2 3 4 5 6 
#
# 1 69.9141 42.6159 44.8135 -8.5498 12.4387 -21.3497
# 2 42.6159 73.7602 62.7689 -14.7512 9.4114 -10.5262
# 3 44.8135 62.7689 160.0034 -9.8938 21.1245 -23.2724
# 4 -8.5498 -14.7512 -9.8938 42.6215 -9.1892 10.8969
# 5 12.4387 9.4114 21.1245 -9.1892 41.4620 -5.5196
# 6 -21.3497 -10.5262 -23.2724 10.8969 -5.5196 17.4227
#
#
#
# Elastic Compliance Matrix: (Units=1/GPa)
#
#
# Indices 1 2 3 4 5 6 
#
# 1 0.036695 -0.019726 0.003743 -0.010722 -0.005070 0.043147
# 2 -0.019726 0.032244 -0.010463 0.011880 0.003224 -0.025076
# 3 0.003743 -0.010463 0.011819 -0.005029 -0.003753 0.016009
# 4 -0.010722 0.011880 -0.005029 0.033746 0.006331 -0.031779
# 5 -0.005070 0.003224 -0.003753 0.006331 0.027626 -0.004486
# 6 0.043147 -0.025076 0.016009 -0.031779 -0.004486 0.134958
#
#
# Mechanical properties :
#
#
# Convention : Reuss Voigt Hill
#
# Bulk Modulus (GPa) = 35.88523 67.11936 51.50229
# Shear Modulus (GPa) = 14.73764 30.53320 22.63542
#
# Velocity S-wave (km/s) = 2.62723 3.78155 3.25595
# Velocity P-wave (km/s) = 5.09998 7.10647 6.18513
#
# Compressibility (1/GPa) = 0.02786662
#
# Stress axis : x y z
#
# Youngs Moduli (GPa) = 27.25183 31.01340 84.60914
#
# Poissons Ratio (x) = 0.61178 -0.31672
# Poissons Ratio (y) = 0.53757 0.88525
# Poissons Ratio (z) = -0.10201 0.32449
#
# Static dielectric constant tensor:
#      x y z
#    x 1.767710 -0.030520 0.041380 
#    y -0.030520 1.847990 -0.009210 
#    z 0.041380 -0.009210 1.814150 
# 
# From -- ./inp_files/379267.got.cif
#   From: 2010.05.17/outbox.cif.g08.bks.cpg/sg2_190_cif.got.tgz:379267.got - 2010.06.03 11:33:40.
