data_PCOD9083444
_publ_section_title
;
Structure prediction by ZEFSAII (Michael W. Deem and Ramdas Pophale) SiO2 
 PCOD9083444
Probable space group: P -1
;
_chemical_formula_sum "Si O2"
_cell_formula_units_Z 14
_cell_length_a 7.417948
_cell_length_b 26.231022
_cell_length_c 4.759521
_cell_angle_alpha 75.964000
_cell_angle_beta 97.964068
_cell_angle_gamma 41.119335
_cell_volume 510.477747
_symmetry_space_group_name_H-M "P -1"
_symmetry_group_IT_number 2
_symmetry_cell_setting 'triclinic'
loop_
_space_group_symop_operation_xyz
x,y,z
-x,-y,-z
loop_
_atom_site_type_symbol
_atom_site_label
_atom_site_fract_x
_atom_site_fract_y
_atom_site_fract_z
Si Si1 0.094411 0.045558 0.278602
Si Si2 0.021145 0.444819 0.874201
Si Si3 0.265067 0.292797 0.513777
Si Si4 0.300862 0.696378 0.900089
Si Si5 0.915714 0.190937 0.831433
Si Si6 0.372217 0.578085 0.681101
Si Si7 0.328705 0.886617 0.403150
O O1 0.925860 0.083748 0.493776
O O2 0.165692 0.086295 0.110585
O O3 0.829639 0.078618 0.984599
O O4 0.367372 0.936720 0.455958
O O5 0.136119 0.369282 0.188071
O O6 0.326147 0.382123 0.830875
O O7 0.000000 0.500000 0.000000
O O8 0.657995 0.521015 0.602162
O O9 0.595123 0.234683 0.787871
O O10 0.356646 0.221272 0.436416
O O11 0.982541 0.349509 0.595534
O O12 0.148734 0.775314 0.544492
O O13 0.321791 0.638648 0.801528
O O14 0.096921 0.753703 0.058226
O O15 0.500000 0.500000 0.000000
#
# Coordination Sequence:
#
# PCOD9083444 Si02
#       7
#     2   2   2   2   2   2   2
#     4   9  16  29  49  78 104 132 170 211 254 302
#     4   8  15  30  51  74 100 133 172 211 252 303
#     4   9  17  31  52  78 106 136 172 216 263 304
#     4  10  20  36  55  77 105 140 176 212 258 311
#     4  10  19  34  56  78 104 136 174 216 258 309
#     4   9  18  36  55  78 107 139 175 218 263 309
#     4   9  17  28  49  77 106 132 167 214 257 302
#
# _framework density 27.425287000000001
#
# number of rings (size 3 to 8) (size 9 to 14) (size 15 to 20)
#    0.000    2.857    0.000    2.571    0.000    0.000 
#    0.000   34.286    0.000    1.714    0.000    0.000 
#    0.000    0.000    0.000    0.000    0.000    0.000 
#
# Total GULP energy -78202.266735 kJ/mol
# GULP energy per Si atom -5585.876195 kJ/mol
# Density = 2.736287 g / cm^3
# Si number density = 27.425287 Si / 1000 Ang^3
#
#
#
# Elastic Constant Matrix: (Units=GPa)
#
#
# Indices 1 2 3 4 5 6 
#
# 1 48.2927 20.1428 26.5359 -19.2774 -10.1099 15.2272
# 2 20.1428 172.1860 28.2278 -27.2055 -18.3670 32.1079
# 3 26.5359 28.2278 86.2288 1.0531 -23.4436 0.6181
# 4 -19.2774 -27.2055 1.0531 42.2449 8.9275 -6.2529
# 5 -10.1099 -18.3670 -23.4436 8.9275 38.4461 -13.2532
# 6 15.2272 32.1079 0.6181 -6.2529 -13.2532 39.6542
#
#
#
# Elastic Compliance Matrix: (Units=1/GPa)
#
#
# Indices 1 2 3 4 5 6 
#
# 1 0.039471 0.003412 -0.015557 0.019736 -0.008003 -0.017240
# 2 0.003412 0.008330 -0.004295 0.006288 -0.001825 -0.007606
# 3 -0.015557 -0.004295 0.021604 -0.011562 0.013822 0.011912
# 4 0.019736 0.006288 -0.011562 0.037861 -0.011184 -0.010258
# 5 -0.008003 -0.001825 0.013822 -0.011184 0.039496 0.015772
# 6 -0.017240 -0.007606 0.011912 -0.010258 0.015772 0.041465
#
#
# Mechanical properties :
#
#
# Convention : Reuss Voigt Hill
#
# Bulk Modulus (GPa) = 27.37833 50.72452 39.05142
# Shear Modulus (GPa) = 21.43324 39.52245 30.47785
#
# Velocity S-wave (km/s) = 2.79859 3.80029 3.33724
# Velocity P-wave (km/s) = 4.52188 6.14752 5.39627
#
# Compressibility (1/GPa) = 0.03652524
#
# Stress axis : x y z
#
# Youngs Moduli (GPa) = 25.33513 120.04829 46.28707
#
# Poissons Ratio (x) = -0.40966 0.72009
# Poissons Ratio (y) = -0.08645 0.19882
# Poissons Ratio (z) = 0.39414 0.51566
#
# Static dielectric constant tensor:
#      x y z
#    x 2.293210 0.020770 0.053160 
#    y 0.020770 2.226800 -0.123320 
#    z 0.053160 -0.123320 2.126750 
# 
# From -- ./inp_files/55966.got.cif
#   From: 2010.05.17/outbox.cif.g08.bks.cpg/sg2_28_cif.got.tgz:55966.got - 2010.06.03 11:33:40.
