data_PCOD9083020
_publ_section_title
;
Structure prediction by ZEFSAII (Michael W. Deem and Ramdas Pophale) SiO2 
 PCOD9083020
Probable space group: P -1
;
_chemical_formula_sum "Si O2"
_cell_formula_units_Z 16
_cell_length_a 8.415895
_cell_length_b 12.055754
_cell_length_c 9.732412
_cell_angle_alpha 130.314607
_cell_angle_beta 76.961427
_cell_angle_gamma 109.001760
_cell_volume 711.752551
_symmetry_space_group_name_H-M "P -1"
_symmetry_group_IT_number 2
_symmetry_cell_setting 'triclinic'
loop_
_space_group_symop_operation_xyz
x,y,z
-x,-y,-z
loop_
_atom_site_type_symbol
_atom_site_label
_atom_site_fract_x
_atom_site_fract_y
_atom_site_fract_z
Si Si1 0.586772 0.798390 0.425489
Si Si2 0.304845 0.061275 0.997074
Si Si3 0.425196 0.860510 0.236666
Si Si4 0.900728 0.915218 0.323778
Si Si5 0.883427 0.156637 0.343303
Si Si6 0.818603 0.190765 0.979435
Si Si7 0.278168 0.307834 0.412649
Si Si8 0.823897 0.406193 0.399349
O O1 0.457098 0.780330 0.307795
O O2 0.755930 0.781842 0.300220
O O3 0.607734 0.717734 0.501614
O O4 0.600948 0.971978 0.602537
O O5 0.309764 0.213009 0.199186
O O6 0.316643 0.943509 0.023357
O O7 0.425729 0.111945 0.884055
O O8 0.138257 0.954376 0.872604
O O9 0.264692 0.768584 0.110662
O O10 0.023119 0.869612 0.151804
O O11 0.813766 0.041576 0.383198
O O12 0.000000 0.000000 0.500000
O O13 0.774675 0.273069 0.414577
O O14 0.074586 0.235770 0.412535
O O15 0.856344 0.325708 0.187983
O O16 0.292114 0.481253 0.515225
O O17 0.000000 0.500000 0.500000
#
# Coordination Sequence:
#
# PCOD9083020 Si02
#       8
#     2   2   2   2   2   2   2   2
#     4  11  23  36  59  92 125 154 194 250 306 356
#     4  11  20  33  64  88 117 154 203 254 293 350
#     4  11  22  37  58  93 122 155 198 251 301 352
#     4  12  19  36  63  93 119 153 198 258 297 349
#     4  10  19  33  60  93 115 150 201 252 299 344
#     4  11  22  38  62  91 121 154 205 250 298 349
#     4  11  20  39  58  87 124 157 200 249 299 353
#     4   9  23  37  59  86 127 154 197 252 301 352
#
# _framework density 22.479724000000001
#
# number of rings (size 3 to 8) (size 9 to 14) (size 15 to 20)
#    0.000    1.250    6.250    0.750    3.500    0.000 
#    0.000    1.875    2.750    0.000    0.000    0.000 
#    0.000    0.000    0.000    0.000    0.000    0.000 
#
# Total GULP energy -89106.107863 kJ/mol
# GULP energy per Si atom -5569.131741 kJ/mol
# Density = 2.242856 g / cm^3
# Si number density = 22.479724 Si / 1000 Ang^3
#
#
#
# Elastic Constant Matrix: (Units=GPa)
#
#
# Indices 1 2 3 4 5 6 
#
# 1 83.2145 45.9834 38.6332 -2.9163 5.3601 -35.8845
# 2 45.9834 111.0595 71.8874 -6.1110 -6.3029 -41.9029
# 3 38.6332 71.8874 136.4664 2.7998 3.4662 -26.6867
# 4 -2.9163 -6.1110 2.7998 24.4252 -3.3319 3.2134
# 5 5.3601 -6.3029 3.4662 -3.3319 35.0166 -17.6837
# 6 -35.8845 -41.9029 -26.6867 3.2134 -17.6837 46.8942
#
#
#
# Elastic Compliance Matrix: (Units=1/GPa)
#
#
# Indices 1 2 3 4 5 6 
#
# 1 0.019598 -0.000632 -0.002483 0.001169 0.004666 0.014698
# 2 -0.000632 0.025457 -0.009266 0.006745 0.018016 0.023321
# 3 -0.002483 -0.009266 0.012150 -0.004085 -0.005419 -0.005030
# 4 0.001169 0.006745 -0.004085 0.043713 0.007915 0.004586
# 5 0.004666 0.018016 -0.005419 0.007915 0.049999 0.034897
# 6 0.014698 0.023321 -0.005030 0.004586 0.034897 0.063394
#
#
# Mechanical properties :
#
#
# Convention : Reuss Voigt Hill
#
# Bulk Modulus (GPa) = 30.82529 71.52762 51.17645
# Shear Modulus (GPa) = 20.00891 32.88295 26.44593
#
# Velocity S-wave (km/s) = 2.98667 3.82878 3.43364
# Velocity P-wave (km/s) = 5.06319 7.17174 6.20765
#
# Compressibility (1/GPa) = 0.03244090
#
# Stress axis : x y z
#
# Youngs Moduli (GPa) = 51.02537 39.28227 82.30415
#
# Poissons Ratio (x) = 0.02484 0.20439
# Poissons Ratio (y) = 0.03226 0.76266
# Poissons Ratio (z) = 0.12671 0.36401
#
# Static dielectric constant tensor:
#      x y z
#    x 2.008650 0.006570 0.010710 
#    y 0.006570 1.883730 -0.031850 
#    z 0.010710 -0.031850 1.812300 
# 
# From -- ./inp_files/190703.got.cif
#   From: 2010.05.17/outbox.cif.g08.bks.cpg/sg2_96_cif.got.tgz:190703.got - 2010.06.03 11:33:40.
