data_PCOD9083054
_publ_section_title
;
Structure prediction by ZEFSAII (Michael W. Deem and Ramdas Pophale) SiO2 
 PCOD9083054
Probable space group: P -1
;
_chemical_formula_sum "Si O2"
_cell_formula_units_Z 14
_cell_length_a 14.148878
_cell_length_b 21.255666
_cell_length_c 8.751742
_cell_angle_alpha 42.038032
_cell_angle_beta 139.229958
_cell_angle_gamma 158.056858
_cell_volume 633.497465
_symmetry_space_group_name_H-M "P -1"
_symmetry_group_IT_number 2
_symmetry_cell_setting 'triclinic'
loop_
_space_group_symop_operation_xyz
x,y,z
-x,-y,-z
loop_
_atom_site_type_symbol
_atom_site_label
_atom_site_fract_x
_atom_site_fract_y
_atom_site_fract_z
Si Si1 0.576125 0.822459 0.215143
Si Si2 0.273708 0.482688 0.593681
Si Si3 0.325455 0.813777 0.660536
Si Si4 0.050535 0.093594 0.114813
Si Si5 0.305931 0.063458 0.326303
Si Si6 0.758533 0.630376 0.933987
Si Si7 0.241905 0.921325 0.798866
O O1 0.404123 0.647947 0.392157
O O2 0.700246 0.952165 0.265804
O O3 0.821071 0.915282 0.249598
O O4 0.418338 0.807568 0.935815
O O5 0.472539 0.506063 0.746809
O O6 0.976746 0.322341 0.461120
O O7 0.257405 0.461208 0.796552
O O8 0.405805 0.791475 0.654981
O O9 0.500000 0.000000 0.500000
O O10 0.261956 0.137096 0.227873
O O11 0.151410 0.230870 0.100688
O O12 0.895215 0.049065 0.858699
O O13 0.233456 0.942533 0.573522
O O14 0.978374 0.735756 0.884456
O O15 0.500000 0.000000 0.000000
#
# Coordination Sequence:
#
# PCOD9083054 Si02
#       7
#     2   2   2   2   2   2   2
#     4  10  21  37  62  86 115 152 193 239 287 342
#     4  11  21  37  59  86 115 152 197 239 288 341
#     4  11  22  40  62  84 114 155 196 238 291 349
#     4   9  19  38  60  85 110 150 193 234 288 344
#     4  10  19  33  61  86 110 144 195 241 276 337
#     4  10  22  38  59  83 118 156 191 235 287 345
#     4  11  21  37  60  88 116 154 195 232 283 346
#
# _framework density 22.099537000000002
#
# number of rings (size 3 to 8) (size 9 to 14) (size 15 to 20)
#    0.000    1.714    0.000    6.429    0.000    2.286 
#    0.000    7.857    0.000   46.286    0.000    0.000 
#    0.000    0.000    0.000    0.000    0.000    0.000 
#
# Total GULP energy -78250.401759 kJ/mol
# GULP energy per Si atom -5589.314411 kJ/mol
# Density = 2.204924 g / cm^3
# Si number density = 22.099537 Si / 1000 Ang^3
#
#
#
# Elastic Constant Matrix: (Units=GPa)
#
#
# Indices 1 2 3 4 5 6 
#
# 1 77.2162 29.6350 28.0590 8.6873 -7.8257 17.8647
# 2 29.6350 124.8764 60.4398 -5.7752 -6.1766 30.2886
# 3 28.0590 60.4398 163.7484 -7.6102 -15.7065 20.8888
# 4 8.6873 -5.7752 -7.6102 45.6638 8.0442 4.3896
# 5 -7.8257 -6.1766 -15.7065 8.0442 32.6442 -4.8612
# 6 17.8647 30.2886 20.8888 4.3896 -4.8612 29.8189
#
#
#
# Elastic Compliance Matrix: (Units=1/GPa)
#
#
# Indices 1 2 3 4 5 6 
#
# 1 0.016157 -0.001800 -0.001218 -0.003436 0.002897 -0.006020
# 2 -0.001800 0.012370 -0.003015 0.002669 -0.001695 -0.010043
# 3 -0.001218 -0.003015 0.007895 0.000865 0.002506 -0.001458
# 4 -0.003436 0.002669 0.000865 0.024835 -0.006922 -0.006042
# 5 0.002897 -0.001695 0.002506 -0.006922 0.034648 0.004898
# 6 -0.006020 -0.010043 -0.001458 -0.006042 0.004898 0.050053
#
#
# Mechanical properties :
#
#
# Convention : Reuss Voigt Hill
#
# Bulk Modulus (GPa) = 41.05772 66.90094 53.97933
# Shear Modulus (GPa) = 30.09477 38.13920 34.11699
#
# Velocity S-wave (km/s) = 3.69424 4.15877 3.93337
# Velocity P-wave (km/s) = 6.06757 7.30745 6.71618
#
# Compressibility (1/GPa) = 0.02435596
#
# Stress axis : x y z
#
# Youngs Moduli (GPa) = 61.89224 80.84192 126.66556
#
# Poissons Ratio (x) = 0.14554 0.15428
# Poissons Ratio (y) = 0.11143 0.38184
# Poissons Ratio (z) = 0.07538 0.24370
#
# Static dielectric constant tensor:
#      x y z
#    x 1.855470 0.013580 0.035690 
#    y 0.013580 1.817390 0.001490 
#    z 0.035690 0.001490 1.845550 
# 
# From -- ./inp_files/210212.got.cif
#   From: 2010.05.17/outbox.cif.g08.bks.cpg/sg2_106_cif.got.tgz:210212.got - 2010.06.03 11:33:40.
