data_PCOD9083583
_publ_section_title
;
Structure prediction by ZEFSAII (Michael W. Deem and Ramdas Pophale) SiO2 
 PCOD9083583
Probable space group: P -1
;
_chemical_formula_sum "Si O2"
_cell_formula_units_Z 10
_cell_length_a 7.091117
_cell_length_b 6.732904
_cell_length_c 11.982051
_cell_angle_alpha 126.407181
_cell_angle_beta 130.728438
_cell_angle_gamma 76.325102
_cell_volume 338.065481
_symmetry_space_group_name_H-M "P -1"
_symmetry_group_IT_number 2
_symmetry_cell_setting 'triclinic'
loop_
_space_group_symop_operation_xyz
x,y,z
-x,-y,-z
loop_
_atom_site_type_symbol
_atom_site_label
_atom_site_fract_x
_atom_site_fract_y
_atom_site_fract_z
Si Si1 0.079258 0.266523 0.550437
Si Si2 0.407025 0.662822 0.368343
Si Si3 0.768368 0.975655 0.142101
Si Si4 0.855666 0.449622 0.103462
Si Si5 0.277460 0.006828 0.246062
O O1 0.344970 0.342372 0.608961
O O2 0.119099 0.471905 0.732176
O O3 0.000000 0.000000 0.500000
O O4 0.865363 0.189923 0.346346
O O5 0.151267 0.439176 0.186213
O O6 0.292198 0.868846 0.325626
O O7 0.491337 0.749535 0.556747
O O8 0.763965 0.686981 0.088426
O O9 0.991583 0.038409 0.154829
O O10 0.500000 0.000000 0.000000
O O11 0.685169 0.189305 0.898730
#
# Coordination Sequence:
#
# PCOD9083583 Si02
#       5
#     2   2   2   2   2
#     4   9  18  31  52  76  99 132 169 205 247 295
#     4   9  17  32  53  76 104 128 167 215 245 285
#     4   9  17  31  51  74 104 135 159 202 262 296
#     4  10  19  34  57  78  96 132 177 207 241 296
#     4   9  17  31  54  75  97 135 172 203 245 297
#
# _framework density 29.580068000000001
#
# number of rings (size 3 to 8) (size 9 to 14) (size 15 to 20)
#    0.000    2.800    0.000    6.000    0.000    0.800 
#    0.000    5.000    0.000   86.400    0.000    0.000 
#    0.000    0.000    0.000    0.000    0.000    0.000 
#
# Total GULP energy -55978.969863 kJ/mol
# GULP energy per Si atom -5597.896986 kJ/mol
# Density = 2.951274 g / cm^3
# Si number density = 29.580068 Si / 1000 Ang^3
#
#
#
# Elastic Constant Matrix: (Units=GPa)
#
#
# Indices 1 2 3 4 5 6 
#
# 1 156.3618 60.0831 94.8852 -1.9767 -11.4535 -20.7102
# 2 60.0831 150.1840 92.8459 1.4602 -8.2604 -6.2904
# 3 94.8852 92.8459 273.3086 -3.6068 -19.7757 -34.4041
# 4 -1.9767 1.4602 -3.6068 54.4362 -22.0357 2.8518
# 5 -11.4535 -8.2604 -19.7757 -22.0357 70.3605 -1.5074
# 6 -20.7102 -6.2904 -34.4041 2.8518 -1.5074 42.6141
#
#
#
# Elastic Compliance Matrix: (Units=1/GPa)
#
#
# Indices 1 2 3 4 5 6 
#
# 1 0.008795 -0.002172 -0.001951 0.000457 0.000822 0.002377
# 2 -0.002172 0.009027 -0.002555 -0.000479 -0.000200 -0.001761
# 3 -0.001951 -0.002555 0.005721 0.000726 0.001288 0.003291
# 4 0.000457 -0.000479 0.000726 0.021251 0.006868 -0.000442
# 5 0.000822 -0.000200 0.001288 0.006868 0.016869 0.001547
# 6 0.002377 -0.001761 0.003291 -0.000442 0.001547 0.027103
#
#
# Mechanical properties :
#
#
# Convention : Reuss Voigt Hill
#
# Bulk Modulus (GPa) = 98.16086 119.49809 108.82947
# Shear Modulus (GPa) = 47.38598 55.61818 51.50208
#
# Velocity S-wave (km/s) = 4.00679 4.34090 4.17718
# Velocity P-wave (km/s) = 7.39342 8.10003 7.75477
#
# Compressibility (1/GPa) = 0.01018736
#
# Stress axis : x y z
#
# Youngs Moduli (GPa) = 113.70556 110.78050 174.79542
#
# Poissons Ratio (x) = 0.24064 0.34095
# Poissons Ratio (y) = 0.24699 0.44657
# Poissons Ratio (z) = 0.22179 0.28302
#
# Static dielectric constant tensor:
#      x y z
#    x 2.326520 0.075980 0.098030 
#    y 0.075980 2.529200 0.083430 
#    z 0.098030 0.083430 2.291280 
# 
# From -- ./inp_files/494007.got.cif
#   From: 2010.05.17/outbox.cif.g08.bks.cpg/sg2_248_cif.got.tgz:494007.got - 2010.06.03 11:33:40.
