data_PCOD9083500
_publ_section_title
;
Structure prediction by ZEFSAII (Michael W. Deem and Ramdas Pophale) SiO2 
 PCOD9083500
Probable space group: P -1
;
_chemical_formula_sum "Si O2"
_cell_formula_units_Z 14
_cell_length_a 12.657135
_cell_length_b 8.539389
_cell_length_c 11.288194
_cell_angle_alpha 97.683939
_cell_angle_beta 32.843153
_cell_angle_gamma 80.729847
_cell_volume 564.558384
_symmetry_space_group_name_H-M "P -1"
_symmetry_group_IT_number 2
_symmetry_cell_setting 'triclinic'
loop_
_space_group_symop_operation_xyz
x,y,z
-x,-y,-z
loop_
_atom_site_type_symbol
_atom_site_label
_atom_site_fract_x
_atom_site_fract_y
_atom_site_fract_z
Si Si1 0.590864 0.016411 0.789036
Si Si2 0.928976 0.624461 0.196329
Si Si3 0.113465 0.702587 0.235367
Si Si4 0.261300 0.688976 0.351224
Si Si5 0.599146 0.500415 0.566611
Si Si6 0.153358 0.784671 0.884861
Si Si7 0.812803 0.995376 0.933812
O O1 0.618967 0.192249 0.768551
O O2 0.843957 0.846372 0.519589
O O3 0.798898 0.166553 0.889485
O O4 0.409753 0.018201 0.869566
O O5 0.098765 0.563440 0.142549
O O6 0.710606 0.623312 0.446643
O O7 0.000000 0.500000 0.000000
O O8 0.930356 0.799198 0.156580
O O9 0.216628 0.631481 0.259779
O O10 0.157434 0.958719 0.952604
O O11 0.402726 0.529958 0.295560
O O12 0.019559 0.821286 0.656667
O O13 0.357834 0.606279 0.742632
O O14 0.761374 0.299698 0.333849
O O15 0.500000 0.000000 0.000000
#
# Coordination Sequence:
#
# PCOD9083500 Si02
#       7
#     2   2   2   2   2   2   2
#     4  11  18  34  57  81 113 153 180 219 282 336
#     4   9  19  37  59  77 104 151 189 219 273 335
#     4  10  19  34  56  84 110 143 190 227 273 333
#     4  11  22  33  54  89 116 137 185 241 275 323
#     4  10  21  38  55  82 115 143 187 236 274 326
#     4   9  20  39  60  76 107 156 189 220 278 340
#     4  10  19  36  58  81 108 150 188 224 273 333
#
# _framework density 24.798141999999999
#
# number of rings (size 3 to 8) (size 9 to 14) (size 15 to 20)
#    0.000    2.000    2.857    1.714    0.000    2.286 
#    0.000    3.571    0.000    0.000    0.000    0.000 
#    0.000    0.000    0.000    0.000    0.000    0.000 
#
# Total GULP energy -78193.015949 kJ/mol
# GULP energy per Si atom -5585.215425 kJ/mol
# Density = 2.474170 g / cm^3
# Si number density = 24.798142 Si / 1000 Ang^3
#
#
#
# Elastic Constant Matrix: (Units=GPa)
#
#
# Indices 1 2 3 4 5 6 
#
# 1 157.6649 17.6819 21.5633 -18.9256 16.9276 17.6155
# 2 17.6819 49.5179 33.4170 -2.0632 -1.8552 -7.0348
# 3 21.5633 33.4170 95.5993 -16.6602 3.4516 11.4309
# 4 -18.9256 -2.0632 -16.6602 45.6873 8.9958 2.2726
# 5 16.9276 -1.8552 3.4516 8.9958 43.6763 -13.0132
# 6 17.6155 -7.0348 11.4309 2.2726 -13.0132 33.7442
#
#
#
# Elastic Compliance Matrix: (Units=1/GPa)
#
#
# Indices 1 2 3 4 5 6 
#
# 1 0.010114 -0.007927 0.003692 0.007744 -0.009871 -0.012511
# 2 -0.007927 0.038372 -0.017338 -0.012281 0.016060 0.025031
# 3 0.003692 -0.017338 0.020129 0.011171 -0.011259 -0.017455
# 4 0.007744 -0.012281 0.011171 0.032888 -0.016873 -0.019109
# 5 -0.009871 0.016060 -0.011259 -0.016873 0.040421 0.029039
# 6 -0.012511 0.025031 -0.017455 -0.019109 0.029039 0.059783
#
#
# Mechanical properties :
#
#
# Convention : Reuss Voigt Hill
#
# Bulk Modulus (GPa) = 39.26638 49.78961 44.52800
# Shear Modulus (GPa) = 19.73618 39.96289 29.84954
#
# Velocity S-wave (km/s) = 2.82418 4.01874 3.47320
# Velocity P-wave (km/s) = 5.14815 6.45409 5.83775
#
# Compressibility (1/GPa) = 0.02546708
#
# Stress axis : x y z
#
# Youngs Moduli (GPa) = 98.87462 26.06065 49.68038
#
# Poissons Ratio (x) = 0.20659 -0.18340
# Poissons Ratio (y) = 0.78380 0.86136
# Poissons Ratio (z) = -0.36500 0.45184
#
# Static dielectric constant tensor:
#      x y z
#    x 2.092500 -0.019630 0.032440 
#    y -0.019630 1.961470 0.042450 
#    z 0.032440 0.042450 2.053250 
# 
# From -- ./inp_files/423641.got.cif
#   From: 2010.05.17/outbox.cif.g08.bks.cpg/sg2_212_cif.got.tgz:423641.got - 2010.06.03 11:33:40.
