data_PCOD9083553
_publ_section_title
;
Structure prediction by ZEFSAII (Michael W. Deem and Ramdas Pophale) SiO2 
 PCOD9083553
Probable space group: P -1
;
_chemical_formula_sum "Si O2"
_cell_formula_units_Z 16
_cell_length_a 16.280746
_cell_length_b 12.371105
_cell_length_c 22.244269
_cell_angle_alpha 24.203874
_cell_angle_beta 157.056323
_cell_angle_gamma 153.689765
_cell_volume 669.855004
_symmetry_space_group_name_H-M "P -1"
_symmetry_group_IT_number 2
_symmetry_cell_setting 'triclinic'
loop_
_space_group_symop_operation_xyz
x,y,z
-x,-y,-z
loop_
_atom_site_type_symbol
_atom_site_label
_atom_site_fract_x
_atom_site_fract_y
_atom_site_fract_z
Si Si1 0.500094 0.191344 0.845726
Si Si2 0.462468 0.878865 0.320883
Si Si3 0.486704 0.074499 0.370799
Si Si4 0.981568 0.118971 0.671192
Si Si5 0.057698 0.628995 0.893318
Si Si6 0.269463 0.551826 0.561457
Si Si7 0.873727 0.772902 0.582711
Si Si8 0.697824 0.009315 0.963916
O O1 0.321384 0.339852 0.658051
O O2 0.511098 0.032796 0.872690
O O3 0.743854 0.422938 0.909126
O O4 0.500000 0.000000 0.000000
O O5 0.699495 0.866066 0.460676
O O6 0.291984 0.550334 0.383086
O O7 0.384199 0.042868 0.132464
O O8 0.466641 0.045387 0.300918
O O9 0.534591 0.352039 0.303061
O O10 0.727854 0.037227 0.562513
O O11 0.291909 0.821759 0.399801
O O12 0.050955 0.382917 0.538175
O O13 0.010891 0.869668 0.777969
O O14 0.161991 0.162427 0.824200
O O15 0.063516 0.733508 0.775311
O O16 0.861346 0.332968 0.908287
O O17 0.000000 0.000000 0.500000
#
# Coordination Sequence:
#
# PCOD9083553 Si02
#       8
#     2   2   2   2   2   2   2   2
#     4  11  20  33  60  89 116 145 200 252 296 345
#     4  10  23  38  58  87 122 159 193 245 304 354
#     4  11  24  42  60  88 124 162 206 240 289 364
#     4  11  20  39  62  85 119 155 203 244 297 350
#     4  10  19  34  56  88 116 152 189 254 302 348
#     4  11  24  38  63  89 120 164 202 248 291 352
#     4  10  22  34  56  87 122 156 194 244 303 359
#     4  10  21  37  58  90 119 150 191 254 309 351
#
# _framework density 23.885767000000001
#
# number of rings (size 3 to 8) (size 9 to 14) (size 15 to 20)
#    0.000    1.500    3.750    3.375    7.000    0.000 
#    0.000    0.625    0.000   12.000    0.000    0.000 
#    0.000    0.000    0.000    0.000    0.000    0.000 
#
# Total GULP energy -89238.035340 kJ/mol
# GULP energy per Si atom -5577.377209 kJ/mol
# Density = 2.383140 g / cm^3
# Si number density = 23.885767 Si / 1000 Ang^3
#
#
#
# Elastic Constant Matrix: (Units=GPa)
#
#
# Indices 1 2 3 4 5 6 
#
# 1 164.2225 27.8185 41.5264 7.3265 -34.5372 0.6941
# 2 27.8185 49.4341 7.4229 -7.8984 -12.9108 11.6367
# 3 41.5264 7.4229 65.7238 4.8969 -19.1534 4.6710
# 4 7.3265 -7.8984 4.8969 30.4845 -2.3461 -11.2092
# 5 -34.5372 -12.9108 -19.1534 -2.3461 48.3813 0.5330
# 6 0.6941 11.6367 4.6710 -11.2092 0.5330 50.9261
#
#
#
# Elastic Compliance Matrix: (Units=1/GPa)
#
#
# Indices 1 2 3 4 5 6 
#
# 1 0.008507 -0.003764 -0.003850 -0.001900 0.003445 0.000643
# 2 -0.003764 0.025526 0.000756 0.006087 0.004769 -0.004561
# 3 -0.003850 0.000756 0.019397 -0.002530 0.005037 -0.002509
# 4 -0.001900 0.006087 -0.002530 0.037976 0.001029 0.007215
# 5 0.003445 0.004769 0.005037 0.001029 0.026463 -0.001649
# 6 0.000643 -0.004561 -0.002509 0.007215 -0.001649 0.022505
#
#
# Mechanical properties :
#
#
# Convention : Reuss Voigt Hill
#
# Bulk Modulus (GPa) = 25.18082 48.10180 36.64131
# Shear Modulus (GPa) = 29.88136 39.46586 34.67361
#
# Velocity S-wave (km/s) = 3.54080 4.06923 3.81418
# Velocity P-wave (km/s) = 5.22316 6.50078 5.89668
#
# Compressibility (1/GPa) = 0.03971277
#
# Stress axis : x y z
#
# Youngs Moduli (GPa) = 117.54946 39.17649 51.55386
#
# Poissons Ratio (x) = 0.14748 0.19849
# Poissons Ratio (y) = 0.44250 -0.03898
# Poissons Ratio (z) = 0.45258 -0.02962
#
# Static dielectric constant tensor:
#      x y z
#    x 2.033600 0.087680 0.031930 
#    y 0.087680 2.214310 0.054960 
#    z 0.031930 0.054960 1.956440 
# 
# From -- ./inp_files/457651.got.cif
#   From: 2010.05.17/outbox.cif.g08.bks.cpg/sg2_229_cif.got.tgz:457651.got - 2010.06.03 11:33:40.
