data_PCOD9083919
_publ_section_title
;
Structure prediction by ZEFSAII (Michael W. Deem and Ramdas Pophale) SiO2 
 PCOD9083919
Probable space group: P -1
;
_chemical_formula_sum "Si O2"
_cell_formula_units_Z 14
_cell_length_a 17.992793
_cell_length_b 5.183910
_cell_length_c 15.229298
_cell_angle_alpha 71.110423
_cell_angle_beta 31.101790
_cell_angle_gamma 59.507980
_cell_volume 612.407557
_symmetry_space_group_name_H-M "P -1"
_symmetry_group_IT_number 2
_symmetry_cell_setting 'triclinic'
loop_
_space_group_symop_operation_xyz
x,y,z
-x,-y,-z
loop_
_atom_site_type_symbol
_atom_site_label
_atom_site_fract_x
_atom_site_fract_y
_atom_site_fract_z
Si Si1 0.378143 0.951974 0.059845
Si Si2 0.623797 0.340414 0.588147
Si Si3 0.344921 0.496736 0.274060
Si Si4 0.056899 0.645095 0.003671
Si Si5 0.009174 0.307254 0.426007
Si Si6 0.636922 0.318764 0.310436
Si Si7 0.229118 0.218435 0.631751
O O1 0.344422 0.686275 0.167253
O O2 0.188087 0.217598 0.212695
O O3 0.490747 0.826018 0.872879
O O4 0.500000 0.000000 0.000000
O O5 0.635119 0.322646 0.682888
O O6 0.449061 0.611913 0.703862
O O7 0.738779 0.491618 0.428803
O O8 0.678759 0.028434 0.511233
O O9 0.169235 0.503960 0.460822
O O10 0.247404 0.521947 0.828418
O O11 0.000000 0.500000 0.000000
O O12 0.965171 0.649532 0.185198
O O13 0.000000 0.000000 0.000000
O O14 0.000000 0.500000 0.500000
O O15 0.000000 0.000000 0.500000
O O16 0.500000 0.500000 0.500000
O O17 0.713471 0.978780 0.313392
#
# Coordination Sequence:
#
# PCOD9083919 Si02
#       7
#     2   2   2   2   2   2   2
#     4  10  20  39  67  86 121 160 209 248 310 377
#     4  11  23  38  58  86 123 152 198 250 298 350
#     4  10  23  39  60  94 122 161 203 259 307 366
#     4  10  19  34  59  82 109 147 202 241 278 348
#     4  10  20  37  62  88 115 156 198 243 304 368
#     4   9  19  37  60  84 114 159 197 235 293 353
#     4  10  21  38  58  83 117 162 197 239 297 356
#
# _framework density 22.860593999999999
#
# number of rings (size 3 to 8) (size 9 to 14) (size 15 to 20)
#    0.000    2.000    1.429    3.000    2.000    3.429 
#    2.571    1.429    0.000    0.000    0.000    0.000 
#    0.000    0.000    0.000    0.000    0.000    0.000 
#
# Total GULP energy -77958.403025 kJ/mol
# GULP energy per Si atom -5568.457359 kJ/mol
# Density = 2.280856 g / cm^3
# Si number density = 22.860594 Si / 1000 Ang^3
#
#
#
# Elastic Constant Matrix: (Units=GPa)
#
#
# Indices 1 2 3 4 5 6 
#
# 1 86.6824 5.2261 34.7715 12.8792 -6.8772 7.1336
# 2 5.2261 59.8779 6.9217 3.7926 -3.1748 7.7542
# 3 34.7715 6.9217 158.9987 22.0238 -34.9644 -3.4856
# 4 12.8792 3.7926 22.0238 38.0737 8.5317 -0.0087
# 5 -6.8772 -3.1748 -34.9644 8.5317 32.3313 -1.8998
# 6 7.1336 7.7542 -3.4856 -0.0087 -1.8998 28.1187
#
#
#
# Elastic Compliance Matrix: (Units=1/GPa)
#
#
# Indices 1 2 3 4 5 6 
#
# 1 0.013346 -0.000169 -0.002289 -0.003406 0.001036 -0.003554
# 2 -0.000169 0.017563 -0.000170 -0.001988 0.001753 -0.004704
# 3 -0.002289 -0.000170 0.011188 -0.008840 0.014102 0.002965
# 4 -0.003406 -0.001988 -0.008840 0.037296 -0.020383 -0.001049
# 5 0.001036 0.001753 0.014102 -0.020383 0.052218 0.004523
# 6 -0.003554 -0.004704 0.002965 -0.001049 0.004523 0.038435
#
#
# Mechanical properties :
#
#
# Convention : Reuss Voigt Hill
#
# Bulk Modulus (GPa) = 27.14435 44.37750 35.76092
# Shear Modulus (GPa) = 26.65498 36.94739 31.80118
#
# Velocity S-wave (km/s) = 3.41835 4.02457 3.73378
# Velocity P-wave (km/s) = 5.24212 6.40707 5.85364
#
# Compressibility (1/GPa) = 0.03684008
#
# Stress axis : x y z
#
# Youngs Moduli (GPa) = 74.93025 56.93777 89.38110
#
# Poissons Ratio (x) = 0.00963 0.20463
# Poissons Ratio (y) = 0.01268 0.01517
# Poissons Ratio (z) = 0.17155 0.00967
#
# Static dielectric constant tensor:
#      x y z
#    x 1.927640 -0.065500 -0.097970 
#    y -0.065500 1.904430 0.039840 
#    z -0.097970 0.039840 2.015430 
# 
# From -- ./inp_files/35236.got.cif
#   From: 2010.05.17/outbox.cif.g08.bks.cpg/sg2_18_cif.got.tgz:35236.got - 2010.06.03 11:33:40.
