data_PCOD9083008
_publ_section_title
;
Structure prediction by ZEFSAII (Michael W. Deem and Ramdas Pophale) SiO2 
 PCOD9083008
Probable space group: P -1
;
_chemical_formula_sum "Si O2"
_cell_formula_units_Z 16
_cell_length_a 11.501763
_cell_length_b 12.100183
_cell_length_c 11.410127
_cell_angle_alpha 120.371012
_cell_angle_beta 134.507618
_cell_angle_gamma 97.042186
_cell_volume 617.129563
_symmetry_space_group_name_H-M "P -1"
_symmetry_group_IT_number 2
_symmetry_cell_setting 'triclinic'
loop_
_space_group_symop_operation_xyz
x,y,z
-x,-y,-z
loop_
_atom_site_type_symbol
_atom_site_label
_atom_site_fract_x
_atom_site_fract_y
_atom_site_fract_z
Si Si1 0.657466 0.872354 0.199515
Si Si2 0.896283 0.255734 0.844559
Si Si3 0.564782 0.327643 0.447425
Si Si4 0.676593 0.700686 0.312486
Si Si5 0.300627 0.477229 0.572042
Si Si6 0.411304 0.150223 0.479437
Si Si7 0.831089 0.237461 0.516503
Si Si8 0.130487 0.604784 0.774095
O O1 0.806658 0.873784 0.399697
O O2 0.777561 0.068440 0.328186
O O3 0.494987 0.683524 0.897342
O O4 0.431150 0.804733 0.079976
O O5 0.661727 0.210997 0.681295
O O6 0.904664 0.246125 0.705237
O O7 0.822302 0.079249 0.762014
O O8 0.166196 0.478452 0.193196
O O9 0.536199 0.422069 0.380421
O O10 0.369012 0.186770 0.340778
O O11 0.613078 0.217191 0.359635
O O12 0.800283 0.685798 0.491009
O O13 0.541371 0.713413 0.316781
O O14 0.500000 0.500000 0.000000
O O15 0.032992 0.376759 0.285341
O O16 0.056072 0.439934 0.711419
O O17 0.000000 0.500000 0.500000
#
# Coordination Sequence:
#
# PCOD9083008 Si02
#       8
#     2   2   2   2   2   2   2   2
#     4  10  20  37  64  85 112 162 202 246 292 349
#     4  10  21  35  58  98 115 147 204 256 290 341
#     4  10  22  35  57  90 123 149 196 255 296 349
#     4  10  21  38  62  87 121 162 200 240 296 364
#     4   9  21  38  54  87 127 155 193 244 302 354
#     4  10  20  36  63  86 117 160 201 239 302 346
#     4  10  19  33  60  90 119 142 201 258 292 334
#     4   9  20  34  57  87 113 152 194 244 298 341
#
# _framework density 25.926483999999999
#
# number of rings (size 3 to 8) (size 9 to 14) (size 15 to 20)
#    0.000    2.250    1.250    1.500    5.250    5.000 
#    0.000    1.875    0.000   27.750    0.000    0.000 
#    0.000    0.000    0.000    0.000    0.000    0.000 
#
# Total GULP energy -89326.022103 kJ/mol
# GULP energy per Si atom -5582.876381 kJ/mol
# Density = 2.586747 g / cm^3
# Si number density = 25.926484 Si / 1000 Ang^3
#
#
#
# Elastic Constant Matrix: (Units=GPa)
#
#
# Indices 1 2 3 4 5 6 
#
# 1 60.7361 11.8007 7.9872 -0.1199 -20.1314 12.2063
# 2 11.8007 189.2103 32.1226 10.1824 8.6600 27.5348
# 3 7.9872 32.1226 44.3295 7.7418 -6.5330 -7.0265
# 4 -0.1199 10.1824 7.7418 28.7299 6.8578 -8.9250
# 5 -20.1314 8.6600 -6.5330 6.8578 22.7598 -1.0830
# 6 12.2063 27.5348 -7.0265 -8.9250 -1.0830 35.7280
#
#
#
# Elastic Compliance Matrix: (Units=1/GPa)
#
#
# Indices 1 2 3 4 5 6 
#
# 1 0.027680 -0.000905 -0.000402 -0.009088 0.026961 -0.010291
# 2 -0.000905 0.008198 -0.007592 -0.001999 -0.005886 -0.008180
# 3 -0.000402 -0.007592 0.033142 -0.006144 0.014440 0.011409
# 4 -0.009088 -0.001999 -0.006144 0.047012 -0.022517 0.014499
# 5 0.026961 -0.005886 0.014440 -0.022517 0.080716 -0.005013
# 6 -0.010291 -0.008180 0.011409 0.014499 -0.005013 0.043523
#
#
# Mechanical properties :
#
#
# Convention : Reuss Voigt Hill
#
# Bulk Modulus (GPa) = 19.52328 44.23300 31.87814
# Shear Modulus (GPa) = 18.17239 33.60123 25.88681
#
# Velocity S-wave (km/s) = 2.65036 3.60393 3.16329
# Velocity P-wave (km/s) = 4.11248 5.86649 5.06598
#
# Compressibility (1/GPa) = 0.05122091
#
# Stress axis : x y z
#
# Youngs Moduli (GPa) = 36.12682 121.98329 30.17340
#
# Poissons Ratio (x) = 0.11045 0.01213
# Poissons Ratio (y) = 0.03271 0.22908
# Poissons Ratio (z) = 0.01452 0.92610
#
# Static dielectric constant tensor:
#      x y z
#    x 2.243070 0.018230 0.032380 
#    y 0.018230 2.178300 0.057370 
#    z 0.032380 0.057370 2.002940 
# 
# From -- ./inp_files/450457.got.cif
#   From: 2010.05.17/outbox.cif.g08.bks.cpg/sg2_226_cif.got.tgz:450457.got - 2010.06.03 11:33:40.
