data_PCOD9083345
_publ_section_title
;
Structure prediction by ZEFSAII (Michael W. Deem and Ramdas Pophale) SiO2 
 PCOD9083345
Probable space group: P -1
;
_chemical_formula_sum "Si O2"
_cell_formula_units_Z 14
_cell_length_a 14.670265
_cell_length_b 12.751485
_cell_length_c 5.473347
_cell_angle_alpha 86.984017
_cell_angle_beta 111.153722
_cell_angle_gamma 131.271609
_cell_volume 692.121015
_symmetry_space_group_name_H-M "P -1"
_symmetry_group_IT_number 2
_symmetry_cell_setting 'triclinic'
loop_
_space_group_symop_operation_xyz
x,y,z
-x,-y,-z
loop_
_atom_site_type_symbol
_atom_site_label
_atom_site_fract_x
_atom_site_fract_y
_atom_site_fract_z
Si Si1 0.501384 0.677101 0.024373
Si Si2 0.231001 0.084517 0.582999
Si Si3 0.658770 0.150171 0.671760
Si Si4 0.603632 0.175227 0.114982
Si Si5 0.093007 0.155001 0.210285
Si Si6 0.622931 0.596598 0.798807
Si Si7 0.839350 0.084469 0.966148
O O1 0.611677 0.779320 0.327554
O O2 0.385942 0.515785 0.033376
O O3 0.459708 0.760158 0.880211
O O4 0.584092 0.667618 0.915901
O O5 0.147019 0.130898 0.500805
O O6 0.185500 0.985800 0.314965
O O7 0.216689 0.014836 0.833961
O O8 0.697838 0.214360 0.428648
O O9 0.757971 0.132091 0.859657
O O10 0.500000 0.000000 0.500000
O O11 0.660940 0.232375 0.890142
O O12 0.500000 0.000000 0.000000
O O13 0.230096 0.281818 0.186113
O O14 0.999874 0.187936 0.150424
O O15 0.000000 0.000000 0.000000
O O16 0.500000 0.500000 0.500000
#
# Coordination Sequence:
#
# PCOD9083345 Si02
#       7
#     2   2   2   2   2   2   2
#     4  11  23  38  66  92 133 168 212 269 316 383
#     4  11  20  36  60  91 126 168 204 259 320 379
#     4  10  19  34  54  88 121 157 207 259 313 363
#     4  10  21  35  60  91 123 159 211 266 315 358
#     4  10  22  39  62  91 128 168 213 262 319 384
#     4  11  24  43  62  95 132 172 212 254 329 390
#     4  11  22  36  60  91 132 163 206 266 321 371
#
# _framework density 20.227678000000001
#
# number of rings (size 3 to 8) (size 9 to 14) (size 15 to 20)
#    0.000    1.429    1.429    6.429    2.000    1.143 
#    0.000    0.000    0.000    1.714    0.000    0.000 
#    0.000    0.000    0.000    0.000    0.000    0.000 
#
# Total GULP energy -77986.039776 kJ/mol
# GULP energy per Si atom -5570.431413 kJ/mol
# Density = 2.018164 g / cm^3
# Si number density = 20.227678 Si / 1000 Ang^3
#
#
#
# Elastic Constant Matrix: (Units=GPa)
#
#
# Indices 1 2 3 4 5 6 
#
# 1 88.9890 43.5334 26.1922 -10.3993 23.4633 -1.0341
# 2 43.5334 83.0033 24.7496 -13.4113 8.3558 3.7261
# 3 26.1922 24.7496 109.1469 -27.6118 5.7610 -3.1624
# 4 -10.3993 -13.4113 -27.6118 22.9028 -2.0054 5.8746
# 5 23.4633 8.3558 5.7610 -2.0054 44.6277 -10.7142
# 6 -1.0341 3.7261 -3.1624 5.8746 -10.7142 33.3270
#
#
#
# Elastic Compliance Matrix: (Units=1/GPa)
#
#
# Indices 1 2 3 4 5 6 
#
# 1 0.017772 -0.007735 -0.001896 0.000939 -0.007966 -0.001490
# 2 -0.007735 0.017498 -0.000428 0.007115 0.000355 -0.003377
# 3 -0.001896 -0.000428 0.013671 0.015751 -0.000366 -0.001608
# 4 0.000939 0.007115 0.015751 0.070214 -0.003793 -0.012868
# 5 -0.007966 0.000355 -0.000366 -0.003793 0.028705 0.009575
# 6 -0.001490 -0.003377 -0.001608 -0.012868 0.009575 0.035531
#
#
# Mechanical properties :
#
#
# Convention : Reuss Voigt Hill
#
# Bulk Modulus (GPa) = 34.69440 52.23218 43.46329
# Shear Modulus (GPa) = 23.46108 32.61575 28.03842
#
# Velocity S-wave (km/s) = 3.40935 4.01987 3.72713
# Velocity P-wave (km/s) = 5.71729 6.88651 6.32896
#
# Compressibility (1/GPa) = 0.02882309
#
# Stress axis : x y z
#
# Youngs Moduli (GPa) = 56.26699 57.14973 73.14505
#
# Poissons Ratio (x) = 0.44207 0.13868
# Poissons Ratio (y) = 0.43524 0.03131
# Poissons Ratio (z) = 0.10668 0.02446
#
# Static dielectric constant tensor:
#      x y z
#    x 1.806660 0.012650 -0.031910 
#    y 0.012650 1.882580 -0.032320 
#    z -0.031910 -0.032320 1.823700 
# 
# From -- ./inp_files/93546.got.cif
#   From: 2010.05.17/outbox.cif.g08.bks.cpg/sg2_47_cif.got.tgz:93546.got - 2010.06.03 11:33:40.
