data_PCOD9083652
_publ_section_title
;
Structure prediction by ZEFSAII (Michael W. Deem and Ramdas Pophale) SiO2 
 PCOD9083652
Probable space group: P -1
;
_chemical_formula_sum "Si O2"
_cell_formula_units_Z 10
_cell_length_a 6.176325
_cell_length_b 10.453356
_cell_length_c 9.440420
_cell_angle_alpha 120.138586
_cell_angle_beta 101.943601
_cell_angle_gamma 120.413690
_cell_volume 357.271521
_symmetry_space_group_name_H-M "P -1"
_symmetry_group_IT_number 2
_symmetry_cell_setting 'triclinic'
loop_
_space_group_symop_operation_xyz
x,y,z
-x,-y,-z
loop_
_atom_site_type_symbol
_atom_site_label
_atom_site_fract_x
_atom_site_fract_y
_atom_site_fract_z
Si Si1 0.323573 0.069195 0.182797
Si Si2 0.276013 0.209747 0.547080
Si Si3 0.807447 0.569978 0.155944
Si Si4 0.323766 0.372480 0.261280
Si Si5 0.438485 0.845016 0.212023
O O1 0.192052 0.088026 0.320870
O O2 0.454559 0.263675 0.211777
O O3 0.542042 0.041614 0.253295
O O4 0.041390 0.848532 0.940071
O O5 0.161393 0.320697 0.635368
O O6 0.641054 0.449300 0.710821
O O7 0.297769 0.107090 0.625332
O O8 0.139222 0.745849 0.215739
O O9 0.500000 0.500000 0.000000
O O10 0.696861 0.348768 0.012474
O O11 0.500000 0.500000 0.500000
#
# Coordination Sequence:
#
# PCOD9083652 Si02
#       5
#     2   2   2   2   2
#     4  10  19  34  58  83 109 145 186 226 271 324
#     4  10  20  36  58  83 112 145 181 225 275 325
#     4   9  18  32  54  82 115 147 177 221 277 325
#     4   9  19  35  56  80 110 148 183 222 276 327
#     4  10  19  34  57  84 112 143 182 227 272 323
#
# _framework density 27.989915
#
# number of rings (size 3 to 8) (size 9 to 14) (size 15 to 20)
#    0.000    2.400    0.000    4.200    0.000    0.800 
#    0.000    3.000    0.000   45.600    0.000    0.000 
#    0.000    0.000    0.000    0.000    0.000    0.000 
#
# Total GULP energy -55693.650239 kJ/mol
# GULP energy per Si atom -5569.365024 kJ/mol
# Density = 2.792621 g / cm^3
# Si number density = 27.989915 Si / 1000 Ang^3
#
#
#
# Elastic Constant Matrix: (Units=GPa)
#
#
# Indices 1 2 3 4 5 6 
#
# 1 111.1547 -18.9260 47.4211 -30.6740 -17.8508 -22.0866
# 2 -18.9260 23.1077 -4.1804 -19.0411 -33.6892 -66.0963
# 3 47.4211 -4.1804 173.6582 -1.7041 -20.2542 -11.6381
# 4 -30.6740 -19.0411 -1.7041 43.9433 -20.3545 -18.8504
# 5 -17.8508 -33.6892 -20.2542 -20.3545 49.0538 -17.0031
# 6 -22.0866 -66.0963 -11.6381 -18.8504 -17.0031 51.0452
#
#
#
# Elastic Compliance Matrix: (Units=1/GPa)
#
#
# Indices 1 2 3 4 5 6 
#
# 1 0.008808 -0.004976 -0.002980 0.001452 -0.002037 -0.003453
# 2 -0.004976 0.000983 -0.000037 -0.009433 -0.007439 -0.006850
# 3 -0.002980 -0.000037 0.006710 -0.001212 0.001210 0.000148
# 4 0.001452 -0.009433 -0.001212 0.015569 -0.002384 -0.006907
# 5 -0.002037 -0.007439 0.001210 -0.002384 0.011522 -0.007280
# 6 -0.003453 -0.006850 0.000148 -0.006907 -0.007280 0.004285
#
#
# Mechanical properties :
#
#
# Convention : Reuss Voigt Hill
#
# Bulk Modulus (GPa) = 1934.54453 39.61667 987.08060
# Shear Modulus (GPa) = 78.08312 47.71553 62.89933
#
# Velocity S-wave (km/s) = 5.28748 4.13333 4.74562
# Velocity P-wave (km/s) = 27.01730 6.07979 19.58186
#
# Compressibility (1/GPa) = 0.00051692
#
# Stress axis : x y z
#
# Youngs Moduli (GPa) = 113.53421 1017.26392 149.02320
#
# Poissons Ratio (x) = 5.06152 0.44404
# Poissons Ratio (y) = 0.56490 0.00550
# Poissons Ratio (z) = 0.33830 0.03752
#
# Static dielectric constant tensor:
#      x y z
#    x 2.463290 0.291740 0.089170 
#    y 0.291740 2.597760 -0.015620 
#    z 0.089170 -0.015620 2.116130 
# 
# From -- ./inp_files/92122.got.cif
#   From: 2010.05.17/outbox.cif.g08.bks.cpg/sg2_47_cif.got.tgz:92122.got - 2010.06.03 11:33:40.
