data_PCOD9083931
_publ_section_title
;
Structure prediction by ZEFSAII (Michael W. Deem and Ramdas Pophale) SiO2 
 PCOD9083931
Probable space group: P -1
;
_chemical_formula_sum "Si O2"
_cell_formula_units_Z 16
_cell_length_a 13.283536
_cell_length_b 22.316035
_cell_length_c 7.113543
_cell_angle_alpha 130.539686
_cell_angle_beta 68.683170
_cell_angle_gamma 149.311670
_cell_volume 706.471746
_symmetry_space_group_name_H-M "P -1"
_symmetry_group_IT_number 2
_symmetry_cell_setting 'triclinic'
loop_
_space_group_symop_operation_xyz
x,y,z
-x,-y,-z
loop_
_atom_site_type_symbol
_atom_site_label
_atom_site_fract_x
_atom_site_fract_y
_atom_site_fract_z
Si Si1 0.614083 0.391267 0.402959
Si Si2 0.030339 0.670572 0.935643
Si Si3 0.502392 0.081574 0.041858
Si Si4 0.498636 0.505974 0.287796
Si Si5 0.891533 0.747854 0.230313
Si Si6 0.648151 0.243641 0.619276
Si Si7 0.080278 0.427388 0.772111
Si Si8 0.322682 0.053046 0.782617
O O1 0.807590 0.489253 0.620495
O O2 0.498991 0.398052 0.562525
O O3 0.760781 0.511051 0.362879
O O4 0.445389 0.211557 0.098072
O O5 0.258582 0.771893 0.933536
O O6 0.016144 0.753261 0.057968
O O7 0.007261 0.662705 0.158097
O O8 0.509064 0.154365 0.340683
O O9 0.311862 0.983659 0.820114
O O10 0.500000 0.000000 0.000000
O O11 0.500000 0.500000 0.500000
O O12 0.711105 0.608683 0.234529
O O13 0.271132 0.324155 0.972187
O O14 0.089131 0.920612 0.560319
O O15 0.488310 0.120565 0.651614
O O16 0.855489 0.316307 0.597426
O O17 0.767233 0.401014 0.913262
#
# Coordination Sequence:
#
# PCOD9083931 Si02
#       8
#     2   2   2   2   2   2   2   2
#     4  10  22  39  65  92 118 164 206 247 308 359
#     4  11  21  37  61  86 123 165 208 243 293 357
#     4  12  25  35  56  88 128 172 208 240 297 355
#     4  10  22  45  69  90 113 153 207 257 310 375
#     4  10  24  40  63  91 119 156 200 256 315 356
#     4  10  21  35  53  86 121 161 205 237 294 347
#     4  10  19  34  59  83 117 161 203 248 282 351
#     4  11  24  41  58  91 134 158 200 257 299 361
#
# _framework density 22.647756999999999
#
# number of rings (size 3 to 8) (size 9 to 14) (size 15 to 20)
#    0.000    1.500    2.500    2.250    1.750    5.500 
#    0.000    0.625    0.000    0.000    0.000    0.000 
#    0.000    0.000    0.000    0.000    0.000    0.000 
#
# Total GULP energy -89276.101905 kJ/mol
# GULP energy per Si atom -5579.756369 kJ/mol
# Density = 2.259621 g / cm^3
# Si number density = 22.647757 Si / 1000 Ang^3
#
#
#
# Elastic Constant Matrix: (Units=GPa)
#
#
# Indices 1 2 3 4 5 6 
#
# 1 36.0734 10.9516 17.9631 -5.0128 1.7429 7.6709
# 2 10.9516 38.5563 33.0199 -13.6248 8.3916 -1.2527
# 3 17.9631 33.0199 178.8085 4.3376 19.4467 -0.0393
# 4 -5.0128 -13.6248 4.3376 39.3967 -3.5759 2.8060
# 5 1.7429 8.3916 19.4467 -3.5759 29.9432 -7.4525
# 6 7.6709 -1.2527 -0.0393 2.8060 -7.4525 25.6079
#
#
#
# Elastic Compliance Matrix: (Units=1/GPa)
#
#
# Indices 1 2 3 4 5 6 
#
# 1 0.033636 -0.006930 -0.002050 0.002796 -0.001099 -0.011044
# 2 -0.006930 0.038820 -0.006285 0.012733 -0.004565 0.001242
# 3 -0.002050 -0.006285 0.007418 -0.003542 -0.003433 -0.000293
# 4 0.002796 0.012733 -0.003542 0.030891 0.001467 -0.003178
# 5 -0.001099 -0.004565 -0.003433 0.001467 0.040029 0.011589
# 6 -0.011044 0.001242 -0.000293 -0.003178 0.011589 0.046140
#
#
# Mechanical properties :
#
#
# Convention : Reuss Voigt Hill
#
# Bulk Modulus (GPa) = 20.26552 41.92301 31.09427
# Shear Modulus (GPa) = 20.49910 31.75647 26.12779
#
# Velocity S-wave (km/s) = 3.01180 3.74865 3.40024
# Velocity P-wave (km/s) = 4.58935 6.10635 5.40137
#
# Compressibility (1/GPa) = 0.04934490
#
# Stress axis : x y z
#
# Youngs Moduli (GPa) = 29.72990 25.75989 134.80125
#
# Poissons Ratio (x) = 0.17852 0.27635
# Poissons Ratio (y) = 0.20603 0.84719
# Poissons Ratio (z) = 0.06095 0.16189
#
# Static dielectric constant tensor:
#      x y z
#    x 1.856220 -0.051310 0.028860 
#    y -0.051310 1.855790 0.031140 
#    z 0.028860 0.031140 1.878870 
# 
# From -- ./inp_files/101295.got.cif
#   From: 2010.05.17/outbox.cif.g08.bks.cpg/sg2_51_cif.got.tgz:101295.got - 2010.06.03 11:33:40.
