data_PCOD9083160
_publ_section_title
;
Structure prediction by ZEFSAII (Michael W. Deem and Ramdas Pophale) SiO2 
 PCOD9083160
Probable space group: P -1
;
_chemical_formula_sum "Si O2"
_cell_formula_units_Z 14
_cell_length_a 7.666409
_cell_length_b 10.526366
_cell_length_c 9.742805
_cell_angle_alpha 93.871746
_cell_angle_beta 132.142660
_cell_angle_gamma 94.724091
_cell_volume 572.920760
_symmetry_space_group_name_H-M "P -1"
_symmetry_group_IT_number 2
_symmetry_cell_setting 'triclinic'
loop_
_space_group_symop_operation_xyz
x,y,z
-x,-y,-z
loop_
_atom_site_type_symbol
_atom_site_label
_atom_site_fract_x
_atom_site_fract_y
_atom_site_fract_z
Si Si1 0.561282 0.281391 0.077506
Si Si2 0.063453 0.532704 0.804739
Si Si3 0.797839 0.325311 0.834648
Si Si4 0.680110 0.055744 0.974090
Si Si5 0.416457 0.843935 0.632142
Si Si6 0.624122 0.646634 0.535466
Si Si7 0.017979 0.138392 0.799814
O O1 0.688611 0.430958 0.143006
O O2 0.644335 0.233753 0.264229
O O3 0.668062 0.204486 0.005046
O O4 0.274558 0.233619 0.916037
O O5 0.912679 0.392697 0.754396
O O6 0.890480 0.623007 0.654125
O O7 0.123305 0.583841 0.992343
O O8 0.516206 0.313084 0.665984
O O9 0.908311 0.196131 0.880402
O O10 0.916151 0.000235 0.137534
O O11 0.564677 0.980286 0.773074
O O12 0.500000 0.000000 0.000000
O O13 0.576573 0.754648 0.628056
O O14 0.185706 0.866866 0.424559
O O15 0.500000 0.500000 0.500000
#
# Coordination Sequence:
#
# PCOD9083160 Si02
#       7
#     2   2   2   2   2   2   2
#     4  10  21  31  49  80 102 127 163 205 251 286
#     4  10  19  34  51  71 104 129 161 209 246 289
#     4   9  19  34  53  70  92 138 170 195 246 296
#     4   8  17  31  49  74 100 132 164 194 245 296
#     4   9  17  33  54  72  98 133 164 203 244 285
#     4   9  18  34  53  71  94 132 171 196 239 301
#     4   9  17  33  52  73  98 127 170 201 238 300
#
# _framework density 24.436191000000001
#
# number of rings (size 3 to 8) (size 9 to 14) (size 15 to 20)
#    0.000    3.143    0.000    1.714    0.000    6.857 
#    0.000    9.286    0.000    3.429    0.000    0.000 
#    0.000    0.000    0.000    0.000    0.000    0.000 
#
# Total GULP energy -77982.140518 kJ/mol
# GULP energy per Si atom -5570.152894 kJ/mol
# Density = 2.438057 g / cm^3
# Si number density = 24.436191 Si / 1000 Ang^3
#
#
#
# Elastic Constant Matrix: (Units=GPa)
#
#
# Indices 1 2 3 4 5 6 
#
# 1 34.7714 3.2400 20.1739 -2.8269 19.9725 4.0739
# 2 3.2400 72.8605 25.8301 -17.6429 31.9787 -3.4899
# 3 20.1739 25.8301 142.1369 -16.5135 14.2302 -20.1818
# 4 -2.8269 -17.6429 -16.5135 43.4985 -11.7979 12.5910
# 5 19.9725 31.9787 14.2302 -11.7979 38.8954 3.2664
# 6 4.0739 -3.4899 -20.1818 12.5910 3.2664 54.4618
#
#
#
# Elastic Compliance Matrix: (Units=1/GPa)
#
#
# Indices 1 2 3 4 5 6 
#
# 1 0.054408 0.016897 -0.007512 -0.002367 -0.039561 -0.002851
# 2 0.016897 0.028038 -0.004213 0.002904 -0.029311 0.000058
# 3 -0.007512 -0.004213 0.009053 0.001499 0.004208 0.003048
# 4 -0.002367 0.002904 0.001499 0.028345 0.007388 -0.006078
# 5 -0.039561 -0.029311 0.004208 0.007388 0.071104 -0.003332
# 6 -0.002851 0.000058 0.003048 -0.006078 -0.003332 0.021313
#
#
# Mechanical properties :
#
#
# Convention : Reuss Voigt Hill
#
# Bulk Modulus (GPa) = 9.81902 38.69518 24.25710
# Shear Modulus (GPa) = 21.19850 40.73948 30.96899
#
# Velocity S-wave (km/s) = 2.94854 4.08754 3.56384
# Velocity P-wave (km/s) = 3.95206 6.17632 5.18487
#
# Compressibility (1/GPa) = 0.10184319
#
# Stress axis : x y z
#
# Youngs Moduli (GPa) = 18.37949 35.66593 110.46111
#
# Poissons Ratio (x) = -0.60266 0.82980
# Poissons Ratio (y) = -0.31057 0.46542
# Poissons Ratio (z) = 0.13807 0.15028
#
# Static dielectric constant tensor:
#      x y z
#    x 2.020550 0.024910 -0.073000 
#    y 0.024910 1.971790 -0.163390 
#    z -0.073000 -0.163390 1.849570 
# 
# From -- ./inp_files/303265.got.cif
#   From: 2010.05.17/outbox.cif.g08.bks.cpg/sg2_152_cif.got.tgz:303265.got - 2010.06.03 11:33:40.
