data_PCOD9083566
_publ_section_title
;
Structure prediction by ZEFSAII (Michael W. Deem and Ramdas Pophale) SiO2 
 PCOD9083566
Probable space group: P -1
;
_chemical_formula_sum "Si O2"
_cell_formula_units_Z 12
_cell_length_a 7.674764
_cell_length_b 11.123202
_cell_length_c 7.891457
_cell_angle_alpha 123.234910
_cell_angle_beta 67.330106
_cell_angle_gamma 88.279514
_cell_volume 493.893726
_symmetry_space_group_name_H-M "P -1"
_symmetry_group_IT_number 2
_symmetry_cell_setting 'triclinic'
loop_
_space_group_symop_operation_xyz
x,y,z
-x,-y,-z
loop_
_atom_site_type_symbol
_atom_site_label
_atom_site_fract_x
_atom_site_fract_y
_atom_site_fract_z
Si Si1 0.767499 0.062946 0.097960
Si Si2 0.275695 0.317543 0.309024
Si Si3 0.066769 0.318805 0.861061
Si Si4 0.568007 0.840537 0.191640
Si Si5 0.857303 0.341195 0.307211
Si Si6 0.761750 0.923332 0.629891
O O1 0.722711 0.235296 0.308848
O O2 0.669154 0.957727 0.159006
O O3 0.764343 0.027552 0.871350
O O4 0.000000 0.000000 0.000000
O O5 0.257418 0.482028 0.507505
O O6 0.346587 0.187343 0.322032
O O7 0.051973 0.318227 0.336807
O O8 0.408197 0.279505 0.061813
O O9 0.299663 0.250842 0.776569
O O10 0.055305 0.205906 0.625504
O O11 0.000000 0.500000 0.000000
O O12 0.944863 0.298904 0.054324
O O13 0.346541 0.954578 0.379145
#
# Coordination Sequence:
#
# PCOD9083566 Si02
#       6
#     2   2   2   2   2   2
#     4  11  19  36  60  88 115 141 198 242 274 332
#     4   9  17  33  59  79 113 142 192 228 277 330
#     4  11  21  36  61  83 113 153 197 227 274 356
#     4  10  22  38  58  87 116 148 190 236 288 334
#     4  10  19  34  56  92 105 145 193 241 268 322
#     4  11  21  36  59  87 117 152 182 237 293 335
#
# _framework density 24.296726
#
# number of rings (size 3 to 8) (size 9 to 14) (size 15 to 20)
#    0.000    1.667    6.667    2.500    0.000    0.667 
#    0.000    3.333    0.000    1.000    0.000    0.000 
#    0.000    0.000    0.000    0.000    0.000    0.000 
#
# Total GULP energy -66936.663220 kJ/mol
# GULP energy per Si atom -5578.055268 kJ/mol
# Density = 2.424143 g / cm^3
# Si number density = 24.296726 Si / 1000 Ang^3
#
#
#
# Elastic Constant Matrix: (Units=GPa)
#
#
# Indices 1 2 3 4 5 6 
#
# 1 41.0203 20.4967 17.1507 18.2606 15.2071 -5.4607
# 2 20.4967 100.3422 32.7026 27.5589 11.4462 -28.3363
# 3 17.1507 32.7026 165.0013 26.1903 17.9738 -3.3593
# 4 18.2606 27.5589 26.1903 58.4336 4.6224 -3.1119
# 5 15.2071 11.4462 17.9738 4.6224 21.9205 11.1266
# 6 -5.4607 -28.3363 -3.3593 -3.1119 11.1266 36.6189
#
#
#
# Elastic Compliance Matrix: (Units=1/GPa)
#
#
# Indices 1 2 3 4 5 6 
#
# 1 0.047536 0.005856 0.001670 -0.013291 -0.047299 0.025015
# 2 0.005856 0.020646 -0.000186 -0.008243 -0.024996 0.023727
# 3 0.001670 -0.000186 0.007312 -0.002928 -0.007930 0.002936
# 4 -0.013291 -0.008243 -0.002928 0.024533 0.016640 -0.011600
# 5 -0.047299 -0.024996 -0.007930 0.016640 0.127135 -0.064338
# 6 0.025015 0.023727 0.002936 -0.011600 -0.064338 0.068231
#
#
# Mechanical properties :
#
#
# Convention : Reuss Voigt Hill
#
# Bulk Modulus (GPa) = 11.08985 49.67376 30.38181
# Shear Modulus (GPa) = 16.08899 39.12887 27.60893
#
# Velocity S-wave (km/s) = 2.57609 4.01741 3.37460
# Velocity P-wave (km/s) = 3.66368 6.48139 5.26455
#
# Compressibility (1/GPa) = 0.09017252
#
# Stress axis : x y z
#
# Youngs Moduli (GPa) = 21.03688 48.43554 136.75747
#
# Poissons Ratio (x) = -0.28364 -0.22835
# Poissons Ratio (y) = -0.12319 0.02549
# Poissons Ratio (z) = -0.03513 0.00903
#
# Static dielectric constant tensor:
#      x y z
#    x 2.097690 -0.058690 -0.038080 
#    y -0.058690 1.987490 0.009190 
#    z -0.038080 0.009190 2.006660 
# 
# From -- ./inp_files/151945.got.cif
#   From: 2010.05.17/outbox.cif.g08.bks.cpg/sg2_76_cif.got.tgz:151945.got - 2010.06.03 11:33:40.
