data_PCOD9083644
_publ_section_title
;
Structure prediction by ZEFSAII (Michael W. Deem and Ramdas Pophale) SiO2 
 PCOD9083644
Probable space group: P -1
;
_chemical_formula_sum "Si O2"
_cell_formula_units_Z 16
_cell_length_a 7.155358
_cell_length_b 8.628233
_cell_length_c 13.804087
_cell_angle_alpha 56.628564
_cell_angle_beta 89.359997
_cell_angle_gamma 79.698426
_cell_volume 696.295661
_symmetry_space_group_name_H-M "P -1"
_symmetry_group_IT_number 2
_symmetry_cell_setting 'triclinic'
loop_
_space_group_symop_operation_xyz
x,y,z
-x,-y,-z
loop_
_atom_site_type_symbol
_atom_site_label
_atom_site_fract_x
_atom_site_fract_y
_atom_site_fract_z
Si Si1 0.929959 0.115709 0.810208
Si Si2 0.565065 0.593786 0.372539
Si Si3 0.409207 0.999052 0.266733
Si Si4 0.074613 0.722398 0.897957
Si Si5 0.322818 0.341804 0.005975
Si Si6 0.815776 0.706767 0.718333
Si Si7 0.979686 0.490055 0.388372
Si Si8 0.640590 0.347306 0.847308
O O1 0.805242 0.158163 0.895079
O O2 0.998311 0.307960 0.723391
O O3 0.776087 0.077732 0.743979
O O4 0.093941 0.930216 0.859252
O O5 0.500000 0.500000 0.500000
O O6 0.764795 0.472647 0.379179
O O7 0.429123 0.600683 0.279603
O O8 0.572343 0.811846 0.324710
O O9 0.346240 0.104617 0.331085
O O10 0.420731 0.173530 0.135233
O O11 0.269833 0.566206 0.955254
O O12 0.985445 0.717715 0.791239
O O13 0.899773 0.686590 0.981459
O O14 0.457921 0.321307 0.918713
O O15 0.731895 0.524783 0.815253
O O16 0.885364 0.667622 0.622068
O O17 0.000000 0.500000 0.500000
#
# Coordination Sequence:
#
# PCOD9083644 Si02
#       8
#     2   2   2   2   2   2   2   2
#     4   8  18  34  52  78 109 143 179 226 272 320
#     4  11  23  40  59  81 110 146 185 230 281 329
#     4   9  20  38  58  81 116 146 183 229 272 331
#     4   9  18  34  55  80 116 148 181 223 274 332
#     4   9  18  33  56  83 114 150 183 225 276 321
#     4   9  19  36  56  84 115 147 183 225 274 328
#     4  11  21  38  60  80 107 144 190 235 277 326
#     4  10  19  34  57  83 116 147 185 228 272 327
#
# _framework density 22.978745
#
# number of rings (size 3 to 8) (size 9 to 14) (size 15 to 20)
#    0.000    2.750    0.000    3.000    0.000    7.500 
#    0.000   11.875    0.000   35.250    0.000    0.000 
#    0.000    0.000    0.000    0.000    0.000    0.000 
#
# Total GULP energy -89194.410365 kJ/mol
# GULP energy per Si atom -5574.650648 kJ/mol
# Density = 2.292644 g / cm^3
# Si number density = 22.978745 Si / 1000 Ang^3
#
#
#
# Elastic Constant Matrix: (Units=GPa)
#
#
# Indices 1 2 3 4 5 6 
#
# 1 43.4594 12.4186 23.9545 12.8715 -9.9260 -8.6270
# 2 12.4186 127.3772 30.9980 15.7910 -11.1931 -23.0863
# 3 23.9545 30.9980 100.1446 26.0937 -10.2047 -14.2746
# 4 12.8715 15.7910 26.0937 34.5179 -1.8592 -1.2392
# 5 -9.9260 -11.1931 -10.2047 -1.8592 35.1635 8.6981
# 6 -8.6270 -23.0863 -14.2746 -1.2392 8.6981 37.5223
#
#
#
# Elastic Compliance Matrix: (Units=1/GPa)
#
#
# Indices 1 2 3 4 5 6 
#
# 1 0.029509 0.000251 -0.004003 -0.007638 0.005905 0.003795
# 2 0.000251 0.009577 -0.001336 -0.003213 0.001317 0.005030
# 3 -0.004003 -0.001336 0.014110 -0.008381 0.001345 0.003037
# 4 -0.007638 -0.003213 -0.008381 0.039319 -0.002272 -0.005097
# 5 0.005905 0.001317 0.001345 -0.002272 0.031985 -0.004809
# 6 0.003795 0.005030 0.003037 -0.005097 -0.004809 0.032720
#
#
# Mechanical properties :
#
#
# Convention : Reuss Voigt Hill
#
# Bulk Modulus (GPa) = 23.24501 45.08037 34.16269
# Shear Modulus (GPa) = 27.51211 35.01475 31.26343
#
# Velocity S-wave (km/s) = 3.46393 3.90781 3.69255
# Velocity P-wave (km/s) = 5.11237 6.32631 5.75145
#
# Compressibility (1/GPa) = 0.04301998
#
# Stress axis : x y z
#
# Youngs Moduli (GPa) = 33.88774 104.41444 70.86932
#
# Poissons Ratio (x) = -0.02619 0.28372
# Poissons Ratio (y) = -0.00850 0.09467
# Poissons Ratio (z) = 0.13567 0.13948
#
# Static dielectric constant tensor:
#      x y z
#    x 2.006230 -0.029300 0.122810 
#    y -0.029300 1.971920 -0.053180 
#    z 0.122810 -0.053180 1.982960 
# 
# From -- ./inp_files/492275.got.cif
#   From: 2010.05.17/outbox.cif.g08.bks.cpg/sg2_247_cif.got.tgz:492275.got - 2010.06.03 11:33:40.
