data_PCOD9083321
_publ_section_title
;
Structure prediction by ZEFSAII (Michael W. Deem and Ramdas Pophale) SiO2 
 PCOD9083321
Probable space group: P -1
;
_chemical_formula_sum "Si O2"
_cell_formula_units_Z 16
_cell_length_a 12.357461
_cell_length_b 11.918607
_cell_length_c 9.394172
_cell_angle_alpha 104.093090
_cell_angle_beta 118.118504
_cell_angle_gamma 45.918928
_cell_volume 868.808012
_symmetry_space_group_name_H-M "P -1"
_symmetry_group_IT_number 2
_symmetry_cell_setting 'triclinic'
loop_
_space_group_symop_operation_xyz
x,y,z
-x,-y,-z
loop_
_atom_site_type_symbol
_atom_site_label
_atom_site_fract_x
_atom_site_fract_y
_atom_site_fract_z
Si Si1 0.612273 0.593101 0.680736
Si Si2 0.071212 0.724298 0.564768
Si Si3 0.629270 0.651953 0.397227
Si Si4 0.024521 0.799768 0.888766
Si Si5 0.754529 0.153769 0.815897
Si Si6 0.145771 0.345582 0.636472
Si Si7 0.250590 0.740863 0.453422
Si Si8 0.879297 0.509156 0.035155
O O1 0.630688 0.661140 0.572336
O O2 0.417662 0.687993 0.610047
O O3 0.696344 0.416450 0.633859
O O4 0.709585 0.585355 0.870094
O O5 0.236492 0.535434 0.610190
O O6 0.039738 0.779963 0.723046
O O7 0.114539 0.797902 0.504664
O O8 0.914830 0.747332 0.422690
O O9 0.443848 0.732860 0.264153
O O10 0.689738 0.725984 0.372353
O O11 0.036062 0.665701 0.920750
O O12 0.175427 0.781929 0.034953
O O13 0.855303 0.976938 0.874629
O O14 0.799244 0.148349 0.676115
O O15 0.150627 0.398767 0.811565
O O16 0.000000 0.500000 0.500000
O O17 0.000000 0.500000 0.000000
#
# Coordination Sequence:
#
# PCOD9083321 Si02
#       8
#     2   2   2   2   2   2   2   2
#     4   9  18  30  54  85 108 139 187 231 277 314
#     4  10  20  34  58  84 112 142 193 232 271 321
#     4   9  18  36  58  80 112 146 184 237 270 327
#     4  11  23  36  54  88 113 149 183 225 285 335
#     4  10  22  38  56  82 120 147 181 222 284 342
#     4  10  19  34  54  84 110 139 189 234 272 319
#     4   9  17  34  55  79 111 146 181 229 272 327
#     4  12  21  33  58  84 113 146 187 236 273 326
#
# _framework density 18.416036999999999
#
# number of rings (size 3 to 8) (size 9 to 14) (size 15 to 20)
#    0.000    2.000    3.750    3.000    0.000    2.000 
#    0.000    0.625    0.000    0.750    0.000    0.000 
#    0.000    0.000    0.000    0.000    0.000    0.000 
#
# Total GULP energy -89250.123355 kJ/mol
# GULP energy per Si atom -5578.132710 kJ/mol
# Density = 1.837412 g / cm^3
# Si number density = 18.416037 Si / 1000 Ang^3
#
#
#
# Elastic Constant Matrix: (Units=GPa)
#
#
# Indices 1 2 3 4 5 6 
#
# 1 143.9672 39.2311 58.6735 3.1923 -2.1173 11.9862
# 2 39.2311 34.8651 26.1506 -3.5241 3.5809 7.5071
# 3 58.6735 26.1506 141.8214 11.3568 16.5957 8.9167
# 4 3.1923 -3.5241 11.3568 11.4005 -3.9898 -2.5702
# 5 -2.1173 3.5809 16.5957 -3.9898 21.2598 -4.0177
# 6 11.9862 7.5071 8.9167 -2.5702 -4.0177 9.8050
#
#
#
# Elastic Compliance Matrix: (Units=1/GPa)
#
#
# Indices 1 2 3 4 5 6 
#
# 1 0.011381 -0.010978 -0.002893 -0.002533 0.004440 -0.001722
# 2 -0.010978 0.050768 -0.003720 0.014829 -0.008014 -0.021464
# 3 -0.002893 -0.003720 0.015137 -0.028113 -0.021181 -0.023430
# 4 -0.002533 0.014829 -0.028113 0.164040 0.066530 0.087570
# 5 0.004440 -0.008014 -0.021181 0.066530 0.092047 0.075127
# 6 -0.001722 -0.021464 -0.023430 0.087570 0.075127 0.195572
#
#
# Mechanical properties :
#
#
# Convention : Reuss Voigt Hill
#
# Bulk Modulus (GPa) = 23.74992 63.19601 43.47297
# Shear Modulus (GPa) = 8.64811 21.59964 15.12387
#
# Velocity S-wave (km/s) = 2.16937 3.42844 2.86883
# Velocity P-wave (km/s) = 4.38169 7.07548 5.88480
#
# Compressibility (1/GPa) = 0.04210540
#
# Stress axis : x y z
#
# Youngs Moduli (GPa) = 87.86287 19.69731 66.06442
#
# Poissons Ratio (x) = 0.21624 0.19111
# Poissons Ratio (y) = 0.96457 0.24573
# Poissons Ratio (z) = 0.25417 0.07326
#
# Static dielectric constant tensor:
#      x y z
#    x 1.661870 0.022900 -0.005040 
#    y 0.022900 1.630450 -0.006150 
#    z -0.005040 -0.006150 1.622860 
# 
# From -- ./inp_files/262729.got.cif
#   From: 2010.05.17/outbox.cif.g08.bks.cpg/sg2_132_cif.got.tgz:262729.got - 2010.06.03 11:33:40.
