data_PCOD9083133
_publ_section_title
;
Structure prediction by ZEFSAII (Michael W. Deem and Ramdas Pophale) SiO2 
 PCOD9083133
Probable space group: P -1
;
_chemical_formula_sum "Si O2"
_cell_formula_units_Z 12
_cell_length_a 7.117144
_cell_length_b 11.407849
_cell_length_c 8.902877
_cell_angle_alpha 83.833436
_cell_angle_beta 115.890710
_cell_angle_gamma 55.564032
_cell_volume 471.215579
_symmetry_space_group_name_H-M "P -1"
_symmetry_group_IT_number 2
_symmetry_cell_setting 'triclinic'
loop_
_space_group_symop_operation_xyz
x,y,z
-x,-y,-z
loop_
_atom_site_type_symbol
_atom_site_label
_atom_site_fract_x
_atom_site_fract_y
_atom_site_fract_z
Si Si1 0.701748 0.500945 0.170300
Si Si2 0.092592 0.592360 0.442888
Si Si3 0.227801 0.872755 0.724779
Si Si4 0.327500 0.348854 0.330475
Si Si5 0.488317 0.850017 0.097661
Si Si6 0.689012 0.016032 0.664625
O O1 0.771846 0.404899 0.363257
O O2 0.538056 0.687309 0.128979
O O3 0.008402 0.414531 0.210828
O O4 0.500000 0.500000 0.000000
O O5 0.279894 0.490055 0.378338
O O6 0.000000 0.500000 0.500000
O O7 0.812184 0.762939 0.259802
O O8 0.513897 0.718665 0.762924
O O9 0.342268 0.926241 0.875536
O O10 0.000000 0.000000 0.500000
O O11 0.014420 0.874971 0.747112
O O12 0.538574 0.196232 0.536921
O O13 0.317419 0.972256 0.159552
O O14 0.500000 0.000000 0.500000
#
# Coordination Sequence:
#
# PCOD9083133 Si02
#       6
#     2   2   2   2   2   2
#     4  10  19  33  66  91 110 145 196 256 286 338
#     4   8  15  33  60  80 109 150 187 248 285 329
#     4  10  23  37  57  87 122 163 186 234 295 346
#     4   9  18  40  55  84 123 146 192 244 293 335
#     4  10  19  38  61  83 117 157 197 234 292 345
#     4  11  21  37  62  84 115 159 201 234 274 358
#
# _framework density 25.466049999999999
#
# number of rings (size 3 to 8) (size 9 to 14) (size 15 to 20)
#    0.000    2.667    5.000    0.500    2.333    2.667 
#    0.000    5.000    0.000    6.000    0.000    0.000 
#    0.000    0.000    0.000    0.000    0.000    0.000 
#
# Total GULP energy -66956.422418 kJ/mol
# GULP energy per Si atom -5579.701868 kJ/mol
# Density = 2.540809 g / cm^3
# Si number density = 25.466050 Si / 1000 Ang^3
#
#
#
# Elastic Constant Matrix: (Units=GPa)
#
#
# Indices 1 2 3 4 5 6 
#
# 1 89.8773 84.3553 50.9093 15.3269 19.1370 -35.9150
# 2 84.3553 173.6073 80.7616 42.4536 7.5114 -59.2722
# 3 50.9093 80.7616 234.6119 32.7268 30.4098 -20.4609
# 4 15.3269 42.4536 32.7268 54.4007 -5.1707 -12.7437
# 5 19.1370 7.5114 30.4098 -5.1707 27.3750 -5.2035
# 6 -35.9150 -59.2722 -20.4609 -12.7437 -5.2035 56.3068
#
#
#
# Elastic Compliance Matrix: (Units=1/GPa)
#
#
# Indices 1 2 3 4 5 6 
#
# 1 0.025577 -0.010732 0.000274 0.000553 -0.014391 0.003911
# 2 -0.010732 0.016142 -0.002576 -0.005387 0.006551 0.008597
# 3 0.000274 -0.002576 0.006314 -0.002936 -0.007355 -0.001587
# 4 0.000553 -0.005387 -0.002936 0.025096 0.009120 0.000137
# 5 -0.014391 0.006551 -0.007355 0.009120 0.055104 0.002200
# 6 0.003911 0.008597 -0.001587 0.000137 0.002200 0.028962
#
#
# Mechanical properties :
#
#
# Convention : Reuss Voigt Hill
#
# Bulk Modulus (GPa) = 45.52744 103.34987 74.43866
# Shear Modulus (GPa) = 26.23487 46.42119 36.32803
#
# Velocity S-wave (km/s) = 3.21314 4.27413 3.78104
# Velocity P-wave (km/s) = 5.62869 8.06406 6.95382
#
# Compressibility (1/GPa) = 0.02196477
#
# Stress axis : x y z
#
# Youngs Moduli (GPa) = 39.09743 61.94899 158.37359
#
# Poissons Ratio (x) = 0.66486 -0.04335
# Poissons Ratio (y) = 0.41961 0.40794
# Poissons Ratio (z) = -0.01070 0.15957
#
# Static dielectric constant tensor:
#      x y z
#    x 2.163700 0.008340 -0.036850 
#    y 0.008340 2.163310 0.068710 
#    z -0.036850 0.068710 2.123850 
# 
# From -- ./inp_files/207949.got.cif
#   From: 2010.05.17/outbox.cif.g08.bks.cpg/sg2_104_cif.got.tgz:207949.got - 2010.06.03 11:33:40.
