data_PCOD9083226
_publ_section_title
;
Structure prediction by ZEFSAII (Michael W. Deem and Ramdas Pophale) SiO2 
 PCOD9083226
Probable space group: P -1
;
_chemical_formula_sum "Si O2"
_cell_formula_units_Z 14
_cell_length_a 10.506551
_cell_length_b 7.289997
_cell_length_c 7.512162
_cell_angle_alpha 98.084557
_cell_angle_beta 86.819278
_cell_angle_gamma 113.987480
_cell_volume 520.458769
_symmetry_space_group_name_H-M "P -1"
_symmetry_group_IT_number 2
_symmetry_cell_setting 'triclinic'
loop_
_space_group_symop_operation_xyz
x,y,z
-x,-y,-z
loop_
_atom_site_type_symbol
_atom_site_label
_atom_site_fract_x
_atom_site_fract_y
_atom_site_fract_z
Si Si1 0.196632 0.493496 0.441971
Si Si2 0.515014 0.916653 0.795458
Si Si3 0.891880 0.338176 0.854261
Si Si4 0.502757 0.275402 0.666443
Si Si5 0.648943 0.448296 0.033588
Si Si6 0.251404 0.139840 0.422000
Si Si7 0.119407 0.224088 0.743165
O O1 0.353165 0.657173 0.439425
O O2 0.200899 0.286321 0.333304
O O3 0.150334 0.416244 0.633312
O O4 0.112099 0.577691 0.332452
O O5 0.436152 0.679325 0.808426
O O6 0.671791 0.966862 0.718296
O O7 0.453455 0.040414 0.692167
O O8 0.500000 0.000000 0.000000
O O9 0.961382 0.172330 0.810972
O O10 0.749231 0.334582 0.948826
O O11 0.000000 0.500000 0.000000
O O12 0.385585 0.285785 0.549268
O O13 0.545876 0.402564 0.863992
O O14 0.758665 0.676811 0.105869
O O15 0.143131 0.061462 0.587157
#
# Coordination Sequence:
#
# PCOD9083226 Si02
#       7
#     2   2   2   2   2   2   2
#     4   9  19  32  55  83 105 136 172 228 260 310
#     4  10  21  37  51  75 110 148 174 213 265 325
#     4   9  17  35  52  81 106 137 179 215 270 307
#     4  10  19  34  53  78 112 144 171 210 266 327
#     4   9  19  33  54  78 106 145 173 214 257 315
#     4  10  21  33  53  83 111 133 179 219 270 308
#     4   9  19  32  55  81 109 133 174 227 260 304
#
# _framework density 26.899342999999998
#
# number of rings (size 3 to 8) (size 9 to 14) (size 15 to 20)
#    0.857    1.714    0.000    2.143    2.000    0.571 
#   12.857    0.000    0.000    8.571   11.143    0.000 
#    0.000    0.000    0.000    0.000    0.000    0.000 
#
# Total GULP energy -78012.671958 kJ/mol
# GULP energy per Si atom -5572.333711 kJ/mol
# Density = 2.683812 g / cm^3
# Si number density = 26.899343 Si / 1000 Ang^3
#
#
#
# Elastic Constant Matrix: (Units=GPa)
#
#
# Indices 1 2 3 4 5 6 
#
# 1 115.3769 3.5265 6.5697 -6.6611 -0.1049 -8.6317
# 2 3.5265 70.6147 7.2411 4.4805 -0.7097 -9.9579
# 3 6.5697 7.2411 137.8785 24.6454 -3.3035 -0.2447
# 4 -6.6611 4.4805 24.6454 44.7725 -12.3516 -12.1080
# 5 -0.1049 -0.7097 -3.3035 -12.3516 49.3326 3.5205
# 6 -8.6317 -9.9579 -0.2447 -12.1080 3.5205 24.3957
#
#
#
# Elastic Compliance Matrix: (Units=1/GPa)
#
#
# Indices 1 2 3 4 5 6 
#
# 1 0.009290 0.000130 -0.001039 0.003405 0.000451 0.004954
# 2 0.000130 0.015133 -0.000930 0.000772 -0.000123 0.006614
# 3 -0.001039 -0.000930 0.008361 -0.005774 -0.000656 -0.003434
# 4 0.003405 0.000772 -0.005774 0.032204 0.006517 0.016505
# 5 0.000451 -0.000123 -0.000656 0.006517 0.021844 0.000185
# 6 0.004954 0.006614 -0.003434 0.016505 0.000185 0.053574
#
#
# Mechanical properties :
#
#
# Convention : Reuss Voigt Hill
#
# Bulk Modulus (GPa) = 34.35675 39.83834 37.09755
# Shear Modulus (GPa) = 32.51257 44.13567 38.32412
#
# Velocity S-wave (km/s) = 3.48037 4.05504 3.77865
# Velocity P-wave (km/s) = 5.38059 6.06356 5.73225
#
# Compressibility (1/GPa) = 0.02910636
#
# Stress axis : x y z
#
# Youngs Moduli (GPa) = 107.64169 66.08173 119.59847
#
# Poissons Ratio (x) = -0.00857 0.12421
# Poissons Ratio (y) = -0.01396 0.11123
# Poissons Ratio (z) = 0.11179 0.06146
#
# Static dielectric constant tensor:
#      x y z
#    x 2.127910 0.035280 -0.070220 
#    y 0.035280 2.103670 0.107770 
#    z -0.070220 0.107770 2.221350 
# 
# From -- ./inp_files/67053.got.cif
#   From: 2010.05.17/outbox.cif.g08.bks.cpg/sg2_34_cif.got.tgz:67053.got - 2010.06.03 11:33:40.
