data_PCOD9083154
_publ_section_title
;
Structure prediction by ZEFSAII (Michael W. Deem and Ramdas Pophale) SiO2 
 PCOD9083154
Probable space group: P -1
;
_chemical_formula_sum "Si O2"
_cell_formula_units_Z 14
_cell_length_a 9.421757
_cell_length_b 14.515955
_cell_length_c 13.803213
_cell_angle_alpha 37.387759
_cell_angle_beta 120.425887
_cell_angle_gamma 87.212929
_cell_volume 502.098927
_symmetry_space_group_name_H-M "P -1"
_symmetry_group_IT_number 2
_symmetry_cell_setting 'triclinic'
loop_
_space_group_symop_operation_xyz
x,y,z
-x,-y,-z
loop_
_atom_site_type_symbol
_atom_site_label
_atom_site_fract_x
_atom_site_fract_y
_atom_site_fract_z
Si Si1 0.360181 0.091861 0.076477
Si Si2 0.347884 0.844218 0.149827
Si Si3 0.040011 0.441847 0.947004
Si Si4 0.616205 0.178708 0.027040
Si Si5 0.243839 0.907464 0.276783
Si Si6 0.847548 0.317956 0.065421
Si Si7 0.218071 0.596820 0.817195
O O1 0.710198 0.758389 0.516742
O O2 0.131010 0.171328 0.999590
O O3 0.376738 0.257594 0.936558
O O4 0.313765 0.049567 0.991329
O O5 0.530176 0.688690 0.241369
O O6 0.410265 0.734806 0.372628
O O7 0.033730 0.993958 0.889891
O O8 0.064438 0.240120 0.129360
O O9 0.294774 0.356224 0.058453
O O10 0.000000 0.500000 0.000000
O O11 0.721688 0.254633 0.043245
O O12 0.969813 0.815474 0.460334
O O13 0.506997 0.679138 0.640816
O O14 0.971010 0.217755 0.301417
O O15 0.500000 0.500000 0.000000
#
# Coordination Sequence:
#
# PCOD9083154 Si02
#       7
#     2   2   2   2   2   2   2
#     4   8  16  31  49  71  95 134 165 190 232 297
#     4   9  17  32  53  71  96 133 172 187 234 294
#     4   8  16  32  52  69  92 131 165 191 234 300
#     4  11  20  30  51  77 101 123 158 212 245 276
#     4   8  17  33  53  66  97 132 170 190 229 294
#     4  10  19  34  50  76  99 124 161 206 246 279
#     4  10  20  35  54  70  95 131 166 196 241 296
#
# _framework density 27.882950000000001
#
# number of rings (size 3 to 8) (size 9 to 14) (size 15 to 20)
#    0.857    2.000    0.000    1.714    0.000    0.571 
#    0.000    2.857    0.000    0.000    0.000    0.000 
#    0.000    0.000    0.000    0.000    0.000    0.000 
#
# Total GULP energy -78012.565272 kJ/mol
# GULP energy per Si atom -5572.326091 kJ/mol
# Density = 2.781949 g / cm^3
# Si number density = 27.882950 Si / 1000 Ang^3
#
#
#
# Elastic Constant Matrix: (Units=GPa)
#
#
# Indices 1 2 3 4 5 6 
#
# 1 178.3644 72.8620 40.0478 -4.3103 -40.3263 50.8174
# 2 72.8620 94.2065 12.7008 5.3674 -13.4282 21.1465
# 3 40.0478 12.7008 102.6754 11.6658 0.1544 2.0329
# 4 -4.3103 5.3674 11.6658 36.4358 8.9468 -9.9663
# 5 -40.3263 -13.4282 0.1544 8.9468 38.8790 0.8771
# 6 50.8174 21.1465 2.0329 -9.9663 0.8771 66.2146
#
#
#
# Elastic Compliance Matrix: (Units=1/GPa)
#
#
# Indices 1 2 3 4 5 6 
#
# 1 0.015696 -0.007032 -0.004859 -0.001891 0.014534 -0.010128
# 2 -0.007032 0.016006 0.001154 -0.003385 -0.000985 -0.000247
# 3 -0.004859 0.001154 0.011762 -0.002781 -0.004107 0.002635
# 4 -0.001891 -0.003385 -0.002781 0.033442 -0.010991 0.007797
# 5 0.014534 -0.000985 -0.004107 -0.010991 0.043293 -0.012942
# 6 -0.010128 -0.000247 0.002635 0.007797 -0.012942 0.024219
#
#
# Mechanical properties :
#
#
# Convention : Reuss Voigt Hill
#
# Bulk Modulus (GPa) = 45.47498 69.60750 57.54124
# Shear Modulus (GPa) = 28.86484 44.94827 36.90655
#
# Velocity S-wave (km/s) = 3.22097 4.01937 3.64211
# Velocity P-wave (km/s) = 5.49340 6.82340 6.19420
#
# Compressibility (1/GPa) = 0.02199011
#
# Stress axis : x y z
#
# Youngs Moduli (GPa) = 63.71099 62.47781 85.02078
#
# Poissons Ratio (x) = 0.43932 0.41309
# Poissons Ratio (y) = 0.44799 -0.09809
# Poissons Ratio (z) = 0.30955 -0.07208
#
# Static dielectric constant tensor:
#      x y z
#    x 2.268810 0.093970 0.014440 
#    y 0.093970 2.279510 -0.128740 
#    z 0.014440 -0.128740 2.127490 
# 
# From -- ./inp_files/177530.got.cif
#   From: 2010.05.17/outbox.cif.g08.bks.cpg/sg2_89_cif.got.tgz:177530.got - 2010.06.03 11:33:40.
