data_PCOD9083382
_publ_section_title
;
Structure prediction by ZEFSAII (Michael W. Deem and Ramdas Pophale) SiO2 
 PCOD9083382
Probable space group: P -1
;
_chemical_formula_sum "Si O2"
_cell_formula_units_Z 16
_cell_length_a 20.578574
_cell_length_b 18.065369
_cell_length_c 9.472464
_cell_angle_alpha 26.865957
_cell_angle_beta 141.411093
_cell_angle_gamma 151.040284
_cell_volume 770.524096
_symmetry_space_group_name_H-M "P -1"
_symmetry_group_IT_number 2
_symmetry_cell_setting 'triclinic'
loop_
_space_group_symop_operation_xyz
x,y,z
-x,-y,-z
loop_
_atom_site_type_symbol
_atom_site_label
_atom_site_fract_x
_atom_site_fract_y
_atom_site_fract_z
Si Si1 0.852293 0.894086 0.765568
Si Si2 0.793401 0.702124 0.717792
Si Si3 0.268056 0.224482 0.780584
Si Si4 0.623956 0.496659 0.238420
Si Si5 0.103701 0.501798 0.581718
Si Si6 0.399886 0.842772 0.399183
Si Si7 0.916190 0.124625 0.739449
Si Si8 0.497017 0.745328 0.002162
O O1 0.811241 0.866669 0.580641
O O2 0.860833 0.059500 0.598785
O O3 0.739595 0.667392 0.033857
O O4 0.995288 0.947977 0.943064
O O5 0.833393 0.795663 0.470263
O O6 0.869074 0.630923 0.048537
O O7 0.642941 0.483349 0.821102
O O8 0.320539 0.406935 0.675108
O O9 0.385742 0.264561 0.817873
O O10 0.204481 0.011713 0.123245
O O11 0.594432 0.278428 0.517076
O O12 0.500000 0.500000 0.000000
O O13 0.246654 0.711149 0.418725
O O14 0.000000 0.500000 0.500000
O O15 0.018741 0.369836 0.524019
O O16 0.475417 0.821273 0.689575
O O17 0.465104 0.087835 0.094628
#
# Coordination Sequence:
#
# PCOD9083382 Si02
#       8
#     2   2   2   2   2   2   2   2
#     4   9  17  33  50  76 106 133 179 225 264 306
#     4  10  20  36  53  79 113 140 178 234 273 320
#     4  11  21  31  57  83 111 143 182 222 280 330
#     4  11  18  34  55  84 109 145 182 226 267 322
#     4  10  19  35  57  78 108 143 186 226 269 321
#     4  10  19  34  56  81 109 140 185 231 263 317
#     4   9  18  31  53  79 101 136 181 221 267 317
#     4  10  19  34  55  80 108 144 182 225 276 321
#
# _framework density 20.765086
#
# number of rings (size 3 to 8) (size 9 to 14) (size 15 to 20)
#    0.000    2.000    5.000    1.125    0.000    2.000 
#    0.000    0.625    2.750    0.750    0.000    0.000 
#    0.000    0.000    0.000    0.000    0.000    0.000 
#
# Total GULP energy -89117.372498 kJ/mol
# GULP energy per Si atom -5569.835781 kJ/mol
# Density = 2.071782 g / cm^3
# Si number density = 20.765086 Si / 1000 Ang^3
#
#
#
# Elastic Constant Matrix: (Units=GPa)
#
#
# Indices 1 2 3 4 5 6 
#
# 1 85.3426 44.7116 24.5581 5.2129 6.3375 -15.9400
# 2 44.7116 117.0042 25.0110 -0.9505 1.4227 -34.9514
# 3 24.5581 25.0110 21.4427 7.0920 -2.9089 -10.1801
# 4 5.2129 -0.9505 7.0920 8.8029 -5.8697 -4.8524
# 5 6.3375 1.4227 -2.9089 -5.8697 18.5083 9.8407
# 6 -15.9400 -34.9514 -10.1801 -4.8524 9.8407 42.3484
#
#
#
# Elastic Compliance Matrix: (Units=1/GPa)
#
#
# Indices 1 2 3 4 5 6 
#
# 1 0.020429 -0.002419 -0.019560 -0.003147 -0.012798 0.003605
# 2 -0.002419 0.017836 -0.020970 0.025483 -0.002250 0.012212
# 3 -0.019560 -0.020970 0.120395 -0.089791 0.002230 -0.006534
# 4 -0.003147 0.025483 -0.089791 0.232177 0.051821 0.012824
# 5 -0.012798 -0.002250 0.002230 0.051821 0.086117 -0.020212
# 6 0.003605 0.012212 -0.006534 0.012824 -0.020212 0.039645
#
#
# Mechanical properties :
#
#
# Convention : Reuss Voigt Hill
#
# Bulk Modulus (GPa) = 13.74323 45.81677 29.78000
# Shear Modulus (GPa) = 7.97768 22.56583 15.27176
#
# Velocity S-wave (km/s) = 1.96220 3.30012 2.71487
# Velocity P-wave (km/s) = 3.43022 6.05254 4.91933
#
# Compressibility (1/GPa) = 0.07276309
#
# Stress axis : x y z
#
# Youngs Moduli (GPa) = 48.94965 56.06719 8.30602
#
# Poissons Ratio (x) = 0.13561 0.16247
# Poissons Ratio (y) = 0.11840 0.17417
# Poissons Ratio (z) = 0.95745 1.17570
#
# Static dielectric constant tensor:
#      x y z
#    x 1.837870 -0.036310 0.024540 
#    y -0.036310 1.787170 -0.028470 
#    z 0.024540 -0.028470 1.760990 
# 
# From -- ./inp_files/269535.got.cif
#   From: 2010.05.17/outbox.cif.g08.bks.cpg/sg2_135_cif.got.tgz:269535.got - 2010.06.03 11:33:40.
