data_PCOD9083168
_publ_section_title
;
Structure prediction by ZEFSAII (Michael W. Deem and Ramdas Pophale) SiO2 
 PCOD9083168
Probable space group: P -1
;
_chemical_formula_sum "Si O2"
_cell_formula_units_Z 14
_cell_length_a 11.232083
_cell_length_b 5.170439
_cell_length_c 10.418617
_cell_angle_alpha 80.063749
_cell_angle_beta 81.494556
_cell_angle_gamma 81.561308
_cell_volume 584.846787
_symmetry_space_group_name_H-M "P -1"
_symmetry_group_IT_number 2
_symmetry_cell_setting 'triclinic'
loop_
_space_group_symop_operation_xyz
x,y,z
-x,-y,-z
loop_
_atom_site_type_symbol
_atom_site_label
_atom_site_fract_x
_atom_site_fract_y
_atom_site_fract_z
Si Si1 0.975137 0.237329 0.114511
Si Si2 0.221596 0.989833 0.987509
Si Si3 0.310825 0.443174 0.093027
Si Si4 0.097405 0.121060 0.557285
Si Si5 0.563085 0.682781 0.658594
Si Si6 0.652247 0.216877 0.493620
Si Si7 0.931104 0.507273 0.697474
O O1 0.981117 0.326473 0.250996
O O2 0.851481 0.113849 0.113935
O O3 0.097856 0.039761 0.087571
O O4 0.000000 0.500000 0.000000
O O5 0.319458 0.739949 0.022217
O O6 0.286479 0.246686 0.996181
O O7 0.411885 0.350390 0.191179
O O8 0.186192 0.483916 0.194287
O O9 0.022074 0.245303 0.678637
O O10 0.118291 0.370389 0.440172
O O11 0.217263 0.917227 0.560395
O O12 0.000000 0.000000 0.500000
O O13 0.639379 0.449734 0.581871
O O14 0.427540 0.679880 0.625802
O O15 0.597364 0.969958 0.589502
#
# Coordination Sequence:
#
# PCOD9083168 Si02
#       7
#     2   2   2   2   2   2   2
#     4  10  19  34  51  77 109 142 181 229 276 321
#     4  10  20  30  51  78 106 137 172 229 275 328
#     4  11  19  33  53  78 109 138 180 222 279 321
#     4  11  23  35  52  79 117 157 180 213 268 350
#     4  10  20  35  57  78 105 145 187 243 267 314
#     4  10  21  36  54  78 108 145 194 226 274 315
#     4  10  22  33  50  79 110 151 178 217 270 338
#
# _framework density 23.937897
#
# number of rings (size 3 to 8) (size 9 to 14) (size 15 to 20)
#    0.000    1.714    4.286    1.714    8.000    0.000 
#    0.000    0.000    0.000    0.000    0.000    2.000 
#    0.000    0.143    0.000    0.000    0.000    0.000 
#
# Total GULP energy -78023.507270 kJ/mol
# GULP energy per Si atom -5573.107662 kJ/mol
# Density = 2.388341 g / cm^3
# Si number density = 23.937897 Si / 1000 Ang^3
#
#
#
# Elastic Constant Matrix: (Units=GPa)
#
#
# Indices 1 2 3 4 5 6 
#
# 1 89.0533 37.6522 23.2246 9.5813 27.4367 -20.1104
# 2 37.6522 149.5376 31.0444 11.9453 21.6526 -4.5098
# 3 23.2246 31.0444 60.6743 4.3989 22.6122 -4.6861
# 4 9.5813 11.9453 4.3989 36.4326 4.5538 9.7291
# 5 27.4367 21.6526 22.6122 4.5538 35.7999 1.5701
# 6 -20.1104 -4.5098 -4.6861 9.7291 1.5701 35.6877
#
#
#
# Elastic Compliance Matrix: (Units=1/GPa)
#
#
# Indices 1 2 3 4 5 6 
#
# 1 0.020158 -0.002150 0.000105 -0.006460 -0.013984 0.013478
# 2 -0.002150 0.008112 -0.002718 -0.001585 -0.001338 -0.000053
# 3 0.000105 -0.002718 0.023050 -0.001273 -0.012994 0.003661
# 4 -0.006460 -0.001585 -0.001273 0.032937 0.003100 -0.013124
# 5 -0.013984 -0.001338 -0.012994 0.003100 0.047830 -0.012705
# 6 0.013478 -0.000053 0.003661 -0.013124 -0.012705 0.040226
#
#
# Mechanical properties :
#
#
# Convention : Reuss Voigt Hill
#
# Bulk Modulus (GPa) = 23.92729 53.67862 38.80296
# Shear Modulus (GPa) = 25.54020 35.40696 30.47358
#
# Velocity S-wave (km/s) = 3.26994 3.85010 3.57182
# Velocity P-wave (km/s) = 4.92686 6.49901 5.76676
#
# Compressibility (1/GPa) = 0.04179328
#
# Stress axis : x y z
#
# Youngs Moduli (GPa) = 49.60827 123.28018 43.38469
#
# Poissons Ratio (x) = 0.26505 -0.00456
# Poissons Ratio (y) = 0.10666 0.11792
# Poissons Ratio (z) = -0.00521 0.33508
#
# Static dielectric constant tensor:
#      x y z
#    x 1.862840 -0.112540 -0.025560 
#    y -0.112540 1.534240 -0.142780 
#    z -0.025560 -0.142780 1.993910 
# 
# From -- ./inp_files/127339.got.cif
#   From: 2010.05.17/outbox.cif.g08.bks.cpg/sg2_64_cif.got.tgz:127339.got - 2010.06.03 11:33:40.
