data_PCOD9083659
_publ_section_title
;
Structure prediction by ZEFSAII (Michael W. Deem and Ramdas Pophale) SiO2 
 PCOD9083659
Probable space group: P -1
;
_chemical_formula_sum "Si O2"
_cell_formula_units_Z 14
_cell_length_a 10.488276
_cell_length_b 9.586293
_cell_length_c 7.786516
_cell_angle_alpha 119.608967
_cell_angle_beta 99.810752
_cell_angle_gamma 107.193466
_cell_volume 601.193531
_symmetry_space_group_name_H-M "P -1"
_symmetry_group_IT_number 2
_symmetry_cell_setting 'triclinic'
loop_
_space_group_symop_operation_xyz
x,y,z
-x,-y,-z
loop_
_atom_site_type_symbol
_atom_site_label
_atom_site_fract_x
_atom_site_fract_y
_atom_site_fract_z
Si Si1 0.520578 0.240713 0.611163
Si Si2 0.883921 0.329500 0.189325
Si Si3 0.265136 0.901189 0.313877
Si Si4 0.597076 0.196354 0.210686
Si Si5 0.097012 0.200689 0.070797
Si Si6 0.022531 0.346401 0.804784
Si Si7 0.430352 0.397475 0.245328
O O1 0.613960 0.170148 0.700474
O O2 0.563313 0.214546 0.411176
O O3 0.566142 0.446480 0.780789
O O4 0.350683 0.110305 0.499221
O O5 0.765714 0.258401 0.265580
O O6 0.039011 0.327248 0.237738
O O7 0.896611 0.524019 0.254800
O O8 0.812254 0.173915 0.930882
O O9 0.137975 0.804040 0.362168
O O10 0.534882 0.313380 0.161342
O O11 0.500000 0.000000 0.000000
O O12 0.266471 0.257308 0.163428
O O13 0.084852 0.249831 0.895051
O O14 0.000000 0.000000 0.000000
O O15 0.000000 0.500000 0.000000
O O16 0.500000 0.500000 0.500000
#
# Coordination Sequence:
#
# PCOD9083659 Si02
#       7
#     2   2   2   2   2   2   2
#     4  10  19  34  57  84 116 150 195 234 294 344
#     4  10  19  36  60  84 113 149 199 243 282 343
#     4   9  17  33  59  81 109 155 196 234 279 355
#     4  11  21  36  57  87 120 149 192 243 298 342
#     4  10  19  34  59  84 113 154 200 233 280 352
#     4   8  17  31  54  79 110 146 200 229 280 343
#     4  10  22  35  55  87 119 147 192 241 287 340
#
# _framework density 23.287009999999999
#
# number of rings (size 3 to 8) (size 9 to 14) (size 15 to 20)
#    0.000    2.571    1.429    3.429    6.000    0.000 
#    0.000    9.286    3.143    0.857    0.000    0.000 
#    0.000    0.000    0.000    0.000    0.000    0.000 
#
# Total GULP energy -78001.936449 kJ/mol
# GULP energy per Si atom -5571.566889 kJ/mol
# Density = 2.323401 g / cm^3
# Si number density = 23.287010 Si / 1000 Ang^3
#
#
#
# Elastic Constant Matrix: (Units=GPa)
#
#
# Indices 1 2 3 4 5 6 
#
# 1 69.2318 8.2524 9.9122 1.1252 9.8869 11.9913
# 2 8.2524 97.6609 14.3461 20.7264 -2.4893 3.0763
# 3 9.9122 14.3461 38.9760 8.6554 8.1291 6.3936
# 4 1.1252 20.7264 8.6554 29.5429 0.5888 8.8939
# 5 9.8869 -2.4893 8.1291 0.5888 25.7910 13.3316
# 6 11.9913 3.0763 6.3936 8.8939 13.3316 40.3205
#
#
#
# Elastic Compliance Matrix: (Units=1/GPa)
#
#
# Indices 1 2 3 4 5 6 
#
# 1 0.016108 -0.001437 -0.002740 0.002339 -0.003669 -0.003549
# 2 -0.001437 0.012591 -0.003113 -0.008206 0.002436 0.000965
# 3 -0.002740 -0.003113 0.030798 -0.006759 -0.009159 0.000688
# 4 0.002339 -0.008206 -0.006759 0.044536 0.004806 -0.010411
# 5 -0.003669 0.002436 -0.009159 0.004806 0.051287 -0.015660
# 6 -0.003549 0.000965 0.000688 -0.010411 -0.015660 0.033148
#
#
# Mechanical properties :
#
#
# Convention : Reuss Voigt Hill
#
# Bulk Modulus (GPa) = 22.26267 30.09891 26.18079
# Shear Modulus (GPa) = 22.93359 30.68809 26.81084
#
# Velocity S-wave (km/s) = 3.14159 3.63412 3.39679
# Velocity P-wave (km/s) = 4.76869 5.52832 5.16249
#
# Compressibility (1/GPa) = 0.04491825
#
# Stress axis : x y z
#
# Youngs Moduli (GPa) = 62.07911 79.41869 32.46982
#
# Poissons Ratio (x) = 0.11411 0.08896
# Poissons Ratio (y) = 0.08920 0.10109
# Poissons Ratio (z) = 0.17008 0.24725
#
# Static dielectric constant tensor:
#      x y z
#    x 1.975230 -0.086320 0.002050 
#    y -0.086320 2.159250 -0.033330 
#    z 0.002050 -0.033330 1.834490 
# 
# From -- ./inp_files/377197.got.cif
#   From: 2010.05.17/outbox.cif.g08.bks.cpg/sg2_189_cif.got.tgz:377197.got - 2010.06.03 11:33:40.
