data_PCOD9083559
_publ_section_title
;
Structure prediction by ZEFSAII (Michael W. Deem and Ramdas Pophale) SiO2 
 PCOD9083559
Probable space group: P -1
;
_chemical_formula_sum "Si O2"
_cell_formula_units_Z 16
_cell_length_a 14.103100
_cell_length_b 14.136992
_cell_length_c 10.423454
_cell_angle_alpha 33.004988
_cell_angle_beta 127.150725
_cell_angle_gamma 136.980835
_cell_volume 772.067808
_symmetry_space_group_name_H-M "P -1"
_symmetry_group_IT_number 2
_symmetry_cell_setting 'triclinic'
loop_
_space_group_symop_operation_xyz
x,y,z
-x,-y,-z
loop_
_atom_site_type_symbol
_atom_site_label
_atom_site_fract_x
_atom_site_fract_y
_atom_site_fract_z
Si Si1 0.665502 0.641275 0.849679
Si Si2 0.358763 0.772867 0.646842
Si Si3 0.700882 0.493306 0.663262
Si Si4 0.079446 0.231418 0.256087
Si Si5 0.342938 0.934070 0.209561
Si Si6 0.642890 0.004952 0.377566
Si Si7 0.450686 0.366378 0.784767
Si Si8 0.796579 0.186874 0.033564
O O1 0.821857 0.731360 0.825845
O O2 0.657150 0.836681 0.661370
O O3 0.553701 0.556255 0.739050
O O4 0.629576 0.427625 0.129238
O O5 0.274363 0.778129 0.448288
O O6 0.500000 0.000000 0.500000
O O7 0.303608 0.793096 0.719041
O O8 0.814969 0.635940 0.696680
O O9 0.550731 0.365749 0.755549
O O10 0.672251 0.613952 0.395337
O O11 0.750355 0.350485 0.811517
O O12 0.960316 0.280377 0.073639
O O13 0.000000 0.000000 0.500000
O O14 0.482928 0.929309 0.298191
O O15 0.259515 0.916862 0.032256
O O16 0.392741 0.157858 0.048165
O O17 0.725626 0.052540 0.256729
#
# Coordination Sequence:
#
# PCOD9083559 Si02
#       8
#     2   2   2   2   2   2   2   2
#     4  11  21  39  64  89 122 167 204 251 307 365
#     4  10  22  42  58  90 129 162 201 250 309 369
#     4  10  21  33  56  88 123 159 194 250 316 361
#     4  11  22  38  58  88 126 160 204 256 306 358
#     4  11  22  38  60  90 130 156 196 261 309 359
#     4  11  21  37  65  90 122 159 208 250 310 367
#     4  10  19  34  56  88 126 154 192 256 311 355
#     4  12  22  38  60  94 122 158 209 255 305 367
#
# _framework density 20.723569000000001
#
# number of rings (size 3 to 8) (size 9 to 14) (size 15 to 20)
#    0.000    1.250    5.000    3.000    3.500    2.000 
#    2.250    0.625    0.000    0.750    0.000    0.000 
#    0.000    0.000    0.000    0.000    0.000    0.000 
#
# Total GULP energy -89200.118300 kJ/mol
# GULP energy per Si atom -5575.007394 kJ/mol
# Density = 2.067640 g / cm^3
# Si number density = 20.723569 Si / 1000 Ang^3
#
#
#
# Elastic Constant Matrix: (Units=GPa)
#
#
# Indices 1 2 3 4 5 6 
#
# 1 49.4912 24.1410 24.9108 13.5684 7.1904 13.2584
# 2 24.1410 60.8157 23.8283 13.1812 1.4325 10.1493
# 3 24.9108 23.8283 145.6357 7.3483 17.4440 8.7819
# 4 13.5684 13.1812 7.3483 29.3647 -4.6415 2.1767
# 5 7.1904 1.4325 17.4440 -4.6415 38.9617 5.6099
# 6 13.2584 10.1493 8.7819 2.1767 5.6099 26.6532
#
#
#
# Elastic Compliance Matrix: (Units=1/GPa)
#
#
# Indices 1 2 3 4 5 6 
#
# 1 0.031244 -0.007369 -0.002503 -0.010403 -0.004147 -0.010189
# 2 -0.007369 0.021941 -0.001983 -0.005447 0.001350 -0.003875
# 3 -0.002503 -0.001983 0.008012 -0.000455 -0.003114 0.000053
# 4 -0.010403 -0.005447 -0.000455 0.042346 0.007014 0.002464
# 5 -0.004147 0.001350 -0.003114 0.007014 0.029209 -0.004146
# 6 -0.010189 -0.003875 0.000053 0.002464 -0.004146 0.044717
#
#
# Mechanical properties :
#
#
# Convention : Reuss Voigt Hill
#
# Bulk Modulus (GPa) = 26.67536 44.63364 35.65450
# Shear Modulus (GPa) = 23.40038 31.20009 27.30023
#
# Velocity S-wave (km/s) = 3.36395 3.88433 3.63347
# Velocity P-wave (km/s) = 5.29039 6.45769 5.90296
#
# Compressibility (1/GPa) = 0.03748778
#
# Stress axis : x y z
#
# Youngs Moduli (GPa) = 32.00630 45.57768 124.81845
#
# Poissons Ratio (x) = 0.33587 0.31236
# Poissons Ratio (y) = 0.23586 0.24746
# Poissons Ratio (z) = 0.08010 0.09036
#
# Static dielectric constant tensor:
#      x y z
#    x 1.793620 -0.045380 -0.043820 
#    y -0.045380 1.779450 0.008190 
#    z -0.043820 0.008190 1.814590 
# 
# From -- ./inp_files/454390.got.cif
#   From: 2010.05.17/outbox.cif.g08.bks.cpg/sg2_228_cif.got.tgz:454390.got - 2010.06.03 11:33:40.
