data_PCOD9083792
_publ_section_title
;
Structure prediction by ZEFSAII (Michael W. Deem and Ramdas Pophale) SiO2 
 PCOD9083792
Probable space group: P -1
;
_chemical_formula_sum "Si O2"
_cell_formula_units_Z 14
_cell_length_a 14.687611
_cell_length_b 13.216400
_cell_length_c 9.066090
_cell_angle_alpha 128.725006
_cell_angle_beta 146.182762
_cell_angle_gamma 49.111446
_cell_volume 726.345975
_symmetry_space_group_name_H-M "P -1"
_symmetry_group_IT_number 2
_symmetry_cell_setting 'triclinic'
loop_
_space_group_symop_operation_xyz
x,y,z
-x,-y,-z
loop_
_atom_site_type_symbol
_atom_site_label
_atom_site_fract_x
_atom_site_fract_y
_atom_site_fract_z
Si Si1 0.760465 0.028960 0.053986
Si Si2 0.194785 0.678168 0.215180
Si Si3 0.144490 0.411808 0.003344
Si Si4 0.513861 0.788243 0.722217
Si Si5 0.996898 0.190726 0.619154
Si Si6 0.078921 0.116384 0.155219
Si Si7 0.398112 0.097707 0.748080
O O1 0.873645 0.131168 0.303677
O O2 0.836827 0.931733 0.211014
O O3 0.558442 0.099802 0.863546
O O4 0.807076 0.942638 0.890200
O O5 0.374194 0.709505 0.476901
O O6 0.945380 0.693728 0.279561
O O7 0.104477 0.747019 0.309898
O O8 0.075370 0.756149 0.992842
O O9 0.202681 0.520507 0.085643
O O10 0.316751 0.311488 0.218887
O O11 0.000000 0.500000 0.000000
O O12 0.430782 0.935888 0.672527
O O13 0.576096 0.825354 0.999173
O O14 0.208987 0.151047 0.475235
O O15 0.000000 0.000000 0.000000
#
# Coordination Sequence:
#
# PCOD9083792 Si02
#       7
#     2   2   2   2   2   2   2
#     4  10  19  34  58  83 120 148 186 238 292 334
#     4  10  20  38  57  84 116 154 190 234 289 341
#     4  10  21  36  59  86 116 150 195 237 282 342
#     4  11  21  36  62  88 115 147 196 241 285 339
#     4   9  18  33  59  88 108 146 194 238 284 333
#     4  11  23  36  57  87 120 153 189 240 291 342
#     4  11  22  36  59  91 117 147 189 244 296 334
#
# _framework density 19.274562
#
# number of rings (size 3 to 8) (size 9 to 14) (size 15 to 20)
#    0.000    1.714    4.286    0.857    2.000    0.000 
#    0.000    0.714    0.000    0.857    0.000    0.000 
#    0.000    0.000    0.000    0.000    0.000    0.000 
#
# Total GULP energy -78105.538645 kJ/mol
# GULP energy per Si atom -5578.967046 kJ/mol
# Density = 1.923069 g / cm^3
# Si number density = 19.274562 Si / 1000 Ang^3
#
#
#
# Elastic Constant Matrix: (Units=GPa)
#
#
# Indices 1 2 3 4 5 6 
#
# 1 45.7714 18.0312 28.3364 -2.1738 18.0359 -5.4499
# 2 18.0312 82.6810 46.2630 11.0285 16.3125 12.4778
# 3 28.3364 46.2630 131.8744 2.1301 24.6057 13.5636
# 4 -2.1738 11.0285 2.1301 27.9846 5.5938 13.7440
# 5 18.0359 16.3125 24.6057 5.5938 33.8370 2.4076
# 6 -5.4499 12.4778 13.5636 13.7440 2.4076 31.9276
#
#
#
# Elastic Compliance Matrix: (Units=1/GPa)
#
#
# Indices 1 2 3 4 5 6 
#
# 1 0.032308 -0.003794 -0.004001 0.002848 -0.013558 0.008494
# 2 -0.003794 0.016829 -0.004313 -0.004604 -0.001961 -0.003263
# 3 -0.004001 -0.004313 0.011205 0.003891 -0.004216 -0.005115
# 4 0.002848 -0.004604 0.003891 0.048946 -0.008812 -0.019773
# 5 -0.013558 -0.001961 -0.004216 -0.008812 0.042187 0.000855
# 6 0.008494 -0.003263 -0.005115 -0.019773 0.000855 0.044666
#
#
# Mechanical properties :
#
#
# Convention : Reuss Voigt Hill
#
# Bulk Modulus (GPa) = 27.68018 49.50979 38.59498
# Shear Modulus (GPa) = 21.51474 29.92958 25.72216
#
# Velocity S-wave (km/s) = 3.34462 3.94484 3.65706
# Velocity P-wave (km/s) = 5.41364 6.81846 6.15625
#
# Compressibility (1/GPa) = 0.03612694
#
# Stress axis : x y z
#
# Youngs Moduli (GPa) = 30.95179 59.42288 89.24209
#
# Poissons Ratio (x) = 0.22544 0.35708
# Poissons Ratio (y) = 0.11743 0.38486
# Poissons Ratio (z) = 0.12385 0.25626
#
# Static dielectric constant tensor:
#      x y z
#    x 1.699680 0.001490 0.018300 
#    y 0.001490 1.691870 0.002030 
#    z 0.018300 0.002030 1.654680 
# 
# From -- ./inp_files/315995.got.cif
#   From: 2010.05.17/outbox.cif.g08.bks.cpg/sg2_158_cif.got.tgz:315995.got - 2010.06.03 11:33:40.
