data_PCOD9083846
_publ_section_title
;
Structure prediction by ZEFSAII (Michael W. Deem and Ramdas Pophale) SiO2 
 PCOD9083846
Probable space group: P -1
;
_chemical_formula_sum "Si O2"
_cell_formula_units_Z 16
_cell_length_a 11.745880
_cell_length_b 10.387137
_cell_length_c 9.645041
_cell_angle_alpha 117.777648
_cell_angle_beta 69.717476
_cell_angle_gamma 75.471016
_cell_volume 847.463691
_symmetry_space_group_name_H-M "P -1"
_symmetry_group_IT_number 2
_symmetry_cell_setting 'triclinic'
loop_
_space_group_symop_operation_xyz
x,y,z
-x,-y,-z
loop_
_atom_site_type_symbol
_atom_site_label
_atom_site_fract_x
_atom_site_fract_y
_atom_site_fract_z
Si Si1 0.965486 0.882948 0.259675
Si Si2 0.617125 0.765400 0.475819
Si Si3 0.845386 0.984898 0.652625
Si Si4 0.328647 0.018563 0.653852
Si Si5 0.234771 0.551381 0.930641
Si Si6 0.667531 0.716320 0.002708
Si Si7 0.347371 0.142177 0.192412
Si Si8 0.595358 0.321030 0.939531
O O1 0.924909 0.870985 0.430602
O O2 0.822302 0.963619 0.276154
O O3 0.043712 0.990842 0.291314
O O4 0.077014 0.700807 0.064986
O O5 0.652690 0.899054 0.454054
O O6 0.717139 0.584848 0.278473
O O7 0.627553 0.777079 0.640643
O O8 0.458164 0.833277 0.526043
O O9 0.753126 0.929281 0.752725
O O10 0.733522 0.171394 0.734515
O O11 0.341912 0.132191 0.825388
O O12 0.257465 0.446813 0.012298
O O13 0.335512 0.633718 0.938055
O O14 0.727453 0.725072 0.833256
O O15 0.515085 0.743416 0.041587
O O16 0.500000 0.000000 0.000000
O O17 0.500000 0.500000 0.000000
#
# Coordination Sequence:
#
# PCOD9083846 Si02
#       8
#     2   2   2   2   2   2   2   2
#     4  10  21  37  61  82 119 150 195 236 283 336
#     4  10  20  33  58  88 113 144 198 241 282 329
#     4  10  20  36  57  87 111 156 191 230 287 347
#     4  10  19  34  58  87 108 148 197 244 274 329
#     4   9  21  37  57  86 114 150 191 242 284 330
#     4  10  20  34  59  85 110 148 191 236 285 329
#     4  12  20  36  61  87 119 151 188 240 286 343
#     4   9  17  32  55  85 113 136 185 243 279 322
#
# _framework density 18.879864999999999
#
# number of rings (size 3 to 8) (size 9 to 14) (size 15 to 20)
#    0.000    2.000    3.750    0.000    5.250    2.000 
#    0.000    1.875    0.000    0.000    0.000    0.000 
#    0.000    0.000    0.000    0.000    0.000    0.000 
#
# Total GULP energy -89117.086184 kJ/mol
# GULP energy per Si atom -5569.817886 kJ/mol
# Density = 1.883689 g / cm^3
# Si number density = 18.879865 Si / 1000 Ang^3
#
#
#
# Elastic Constant Matrix: (Units=GPa)
#
#
# Indices 1 2 3 4 5 6 
#
# 1 111.5411 35.9653 46.6110 3.8265 -20.0229 10.7445
# 2 35.9653 27.0010 32.9978 -2.8336 3.8723 -5.2609
# 3 46.6110 32.9978 121.3899 6.3574 7.0480 -3.3023
# 4 3.8265 -2.8336 6.3574 29.6612 -7.2839 -2.6452
# 5 -20.0229 3.8723 7.0480 -7.2839 27.8682 -0.5756
# 6 10.7445 -5.2609 -3.3023 -2.6452 -0.5756 15.6259
#
#
#
# Elastic Compliance Matrix: (Units=1/GPa)
#
#
# Indices 1 2 3 4 5 6 
#
# 1 0.057342 -0.100066 0.000859 -0.011265 0.050434 -0.072987
# 2 -0.100066 0.237740 -0.018648 0.030828 -0.089123 0.146843
# 3 0.000859 -0.018648 0.013231 -0.005601 -0.001707 -0.005084
# 4 -0.011265 0.030828 -0.005601 0.041549 0.000394 0.023990
# 5 0.050434 -0.089123 -0.001707 0.000394 0.083760 -0.061894
# 6 -0.072987 0.146843 -0.005084 0.023990 -0.061894 0.164328
#
#
# Mechanical properties :
#
#
# Convention : Reuss Voigt Hill
#
# Bulk Modulus (GPa) = 13.77320 54.56446 34.16883
# Shear Modulus (GPa) = 5.82846 24.25492 15.04169
#
# Velocity S-wave (km/s) = 1.75893 3.58816 2.82566
# Velocity P-wave (km/s) = 3.38173 6.79191 5.36499
#
# Compressibility (1/GPa) = 0.07260477
#
# Stress axis : x y z
#
# Youngs Moduli (GPa) = 17.43919 4.20628 75.57896
#
# Poissons Ratio (x) = 0.42090 -0.06494
# Poissons Ratio (y) = 1.74506 1.40938
# Poissons Ratio (z) = -0.01498 0.07844
#
# Static dielectric constant tensor:
#      x y z
#    x 1.702610 0.012800 0.002940 
#    y 0.012800 1.684530 0.004750 
#    z 0.002940 0.004750 1.662070 
# 
# From -- ./inp_files/259975.got.cif
#   From: 2010.05.17/outbox.cif.g08.bks.cpg/sg2_130_cif.got.tgz:259975.got - 2010.06.03 11:33:40.
