data_PCOD9083764
_publ_section_title
;
Structure prediction by ZEFSAII (Michael W. Deem and Ramdas Pophale) SiO2 
 PCOD9083764
Probable space group: P -1
;
_chemical_formula_sum "Si O2"
_cell_formula_units_Z 14
_cell_length_a 8.602536
_cell_length_b 19.024941
_cell_length_c 19.340899
_cell_angle_alpha 156.801001
_cell_angle_beta 151.677408
_cell_angle_gamma 30.646272
_cell_volume 568.936842
_symmetry_space_group_name_H-M "P -1"
_symmetry_group_IT_number 2
_symmetry_cell_setting 'triclinic'
loop_
_space_group_symop_operation_xyz
x,y,z
-x,-y,-z
loop_
_atom_site_type_symbol
_atom_site_label
_atom_site_fract_x
_atom_site_fract_y
_atom_site_fract_z
Si Si1 0.695948 0.844323 0.884837
Si Si2 0.190041 0.789134 0.862673
Si Si3 0.281972 0.692607 0.160641
Si Si4 0.805826 0.848246 0.236665
Si Si5 0.496530 0.767964 0.596318
Si Si6 0.365331 0.391237 0.240380
Si Si7 0.461861 0.739011 0.126486
O O1 0.486969 0.880150 0.765040
O O2 0.660006 0.650766 0.727138
O O3 0.093629 0.836974 0.036730
O O4 0.500000 0.000000 0.000000
O O5 0.298430 0.742072 0.783838
O O6 0.905659 0.685393 0.674046
O O7 0.542032 0.747979 0.005247
O O8 0.000000 0.000000 0.000000
O O9 0.495782 0.480746 0.064809
O O10 0.948097 0.670273 0.970169
O O11 0.458387 0.776838 0.242594
O O12 0.145590 0.788225 0.267361
O O13 0.755812 0.791602 0.244711
O O14 0.655037 0.071597 0.373382
O O15 0.343359 0.597846 0.394793
#
# Coordination Sequence:
#
# PCOD9083764 Si02
#       7
#     2   2   2   2   2   2   2
#     4  11  21  35  58  82 108 146 188 229 276 333
#     4   9  17  32  51  77 107 141 185 218 265 331
#     4   9  20  37  57  82 103 145 196 229 270 327
#     4  10  19  34  58  81 108 146 187 232 271 330
#     4  11  20  33  52  83 116 141 175 228 293 333
#     4  10  21  34  53  80 115 144 175 233 284 329
#     4  10  19  35  60  80 106 141 196 238 262 320
#
# _framework density 24.607301
#
# number of rings (size 3 to 8) (size 9 to 14) (size 15 to 20)
#    0.000    2.000    1.429    4.714    2.000    0.000 
#    0.000    0.714    0.000   15.429    0.000    0.000 
#    0.000    0.000    0.000    0.000    0.000    0.000 
#
# Total GULP energy -78106.719732 kJ/mol
# GULP energy per Si atom -5579.051409 kJ/mol
# Density = 2.455129 g / cm^3
# Si number density = 24.607301 Si / 1000 Ang^3
#
#
#
# Elastic Constant Matrix: (Units=GPa)
#
#
# Indices 1 2 3 4 5 6 
#
# 1 179.7390 23.9466 38.1759 10.8456 27.1431 -2.9857
# 2 23.9466 68.0672 5.1353 15.8196 0.1088 -1.4064
# 3 38.1759 5.1353 66.5724 11.4863 14.5405 10.9680
# 4 10.8456 15.8196 11.4863 26.8879 0.0838 5.9494
# 5 27.1431 0.1088 14.5405 0.0838 33.3471 15.7270
# 6 -2.9857 -1.4064 10.9680 5.9494 15.7270 35.6771
#
#
#
# Elastic Compliance Matrix: (Units=1/GPa)
#
#
# Indices 1 2 3 4 5 6 
#
# 1 0.007818 -0.001995 -0.003278 -0.001684 -0.007326 0.005093
# 2 -0.001995 0.017803 0.001261 -0.010616 0.000174 0.001841
# 3 -0.003278 0.001261 0.019480 -0.007036 -0.004337 -0.003128
# 4 -0.001684 -0.010616 -0.007036 0.049486 0.009448 -0.010813
# 5 -0.007326 0.000174 -0.004337 0.009448 0.048248 -0.022117
# 6 0.005093 0.001841 -0.003128 -0.010813 -0.022117 0.041042
#
#
# Mechanical properties :
#
#
# Convention : Reuss Voigt Hill
#
# Bulk Modulus (GPa) = 26.97022 49.87714 38.42368
# Shear Modulus (GPa) = 24.47854 35.65714 30.06784
#
# Velocity S-wave (km/s) = 3.15741 3.81077 3.49937
# Velocity P-wave (km/s) = 4.92711 6.29887 5.65474
#
# Compressibility (1/GPa) = 0.03707793
#
# Stress axis : x y z
#
# Youngs Moduli (GPa) = 127.90794 56.16972 51.33365
#
# Poissons Ratio (x) = 0.11205 0.16827
# Poissons Ratio (y) = 0.25517 -0.06473
# Poissons Ratio (z) = 0.41929 -0.07083
#
# Static dielectric constant tensor:
#      x y z
#    x 2.122830 0.045560 0.056040 
#    y 0.045560 2.011050 0.007890 
#    z 0.056040 0.007890 1.963920 
# 
# From -- ./inp_files/210495.got.cif
#   From: 2010.05.17/outbox.cif.g08.bks.cpg/sg2_106_cif.got.tgz:210495.got - 2010.06.03 11:33:40.
