data_PCOD9083854
_publ_section_title
;
Structure prediction by ZEFSAII (Michael W. Deem and Ramdas Pophale) SiO2 
 PCOD9083854
Probable space group: P -1
;
_chemical_formula_sum "Si O2"
_cell_formula_units_Z 16
_cell_length_a 4.897852
_cell_length_b 9.896573
_cell_length_c 17.978453
_cell_angle_alpha 70.447911
_cell_angle_beta 90.167965
_cell_angle_gamma 72.852009
_cell_volume 779.683948
_symmetry_space_group_name_H-M "P -1"
_symmetry_group_IT_number 2
_symmetry_cell_setting 'triclinic'
loop_
_space_group_symop_operation_xyz
x,y,z
-x,-y,-z
loop_
_atom_site_type_symbol
_atom_site_label
_atom_site_fract_x
_atom_site_fract_y
_atom_site_fract_z
Si Si1 0.123488 0.609671 0.028389
Si Si2 0.684675 0.609902 0.495270
Si Si3 0.678016 0.517218 0.666568
Si Si4 0.696839 0.692024 0.324963
Si Si5 0.645956 0.076946 0.837864
Si Si6 0.138863 0.768789 0.855607
Si Si7 0.103759 0.116404 0.928226
Si Si8 0.693110 0.631513 0.810897
O O1 0.321092 0.506712 0.110470
O O2 0.889838 0.741923 0.048195
O O3 0.245958 0.696732 0.950113
O O4 0.000000 0.500000 0.000000
O O5 0.500000 0.500000 0.500000
O O6 0.656056 0.639190 0.577794
O O7 0.628476 0.727998 0.405883
O O8 0.000000 0.500000 0.500000
O O9 0.418930 0.447229 0.671713
O O10 0.692477 0.585755 0.734330
O O11 0.963485 0.375267 0.676906
O O12 0.536489 0.830160 0.247087
O O13 0.408097 0.050725 0.899140
O O14 0.837139 0.169195 0.860524
O O15 0.891800 0.925301 0.841687
O O16 0.414765 0.769732 0.808726
O O17 0.979356 0.668652 0.828393
O O18 0.000000 0.000000 0.000000
#
# Coordination Sequence:
#
# PCOD9083854 Si02
#       8
#     2   2   2   2   2   2   2   2
#     4  10  23  40  60  83 113 149 196 243 291 341
#     4   8  16  30  53  83 115 143 174 230 294 348
#     4  10  19  35  57  87 116 142 186 238 295 346
#     4  10  19  34  58  87 114 145 185 234 294 350
#     4  12  24  40  60  84 117 154 198 239 288 352
#     4  11  24  38  54  77 111 153 192 235 285 334
#     4  12  25  41  63  85 117 155 197 243 297 344
#     4  11  22  37  56  79 109 148 194 236 283 340
#
# _framework density 20.521134
#
# number of rings (size 3 to 8) (size 9 to 14) (size 15 to 20)
#    0.000    1.500    1.250    4.500    0.000    4.000 
#    0.000    0.000    0.000    1.500    0.000    0.000 
#    0.000    0.000    0.000    0.000    0.000    0.000 
#
# Total GULP energy -89292.916634 kJ/mol
# GULP energy per Si atom -5580.807290 kJ/mol
# Density = 2.047443 g / cm^3
# Si number density = 20.521134 Si / 1000 Ang^3
#
#
#
# Elastic Constant Matrix: (Units=GPa)
#
#
# Indices 1 2 3 4 5 6 
#
# 1 92.4591 3.1987 12.5054 5.1094 -1.4269 -7.4241
# 2 3.1987 75.7708 41.6611 13.0307 -2.1453 -7.8166
# 3 12.5054 41.6611 158.7135 24.6189 3.5760 -10.8139
# 4 5.1094 13.0307 24.6189 27.3828 0.5880 1.4735
# 5 -1.4269 -2.1453 3.5760 0.5880 24.9267 6.3814
# 6 -7.4241 -7.8166 -10.8139 1.4735 6.3814 26.7867
#
#
#
# Elastic Compliance Matrix: (Units=1/GPa)
#
#
# Indices 1 2 3 4 5 6 
#
# 1 0.011232 0.000467 -0.000470 -0.002066 -0.000014 0.003176
# 2 0.000467 0.016264 -0.003302 -0.005074 0.001109 0.003558
# 3 -0.000470 -0.003302 0.008401 -0.006017 -0.002180 0.003148
# 4 -0.002066 -0.005074 -0.006017 0.045094 0.001094 -0.007223
# 5 -0.000014 0.001109 -0.002180 0.001094 0.043299 -0.010936
# 6 0.003176 0.003558 0.003148 -0.007223 -0.010936 0.043524
#
#
# Mechanical properties :
#
#
# Convention : Reuss Voigt Hill
#
# Bulk Modulus (GPa) = 34.14416 49.07487 41.60952
# Shear Modulus (GPa) = 27.14629 33.79111 30.46870
#
# Velocity S-wave (km/s) = 3.64104 4.06230 3.85742
# Velocity P-wave (km/s) = 5.86096 6.78006 6.33720
#
# Compressibility (1/GPa) = 0.02928758
#
# Stress axis : x y z
#
# Youngs Moduli (GPa) = 89.03095 61.48439 119.02861
#
# Poissons Ratio (x) = -0.02871 0.05600
# Poissons Ratio (y) = -0.04158 0.39299
# Poissons Ratio (z) = 0.04188 0.20300
#
# Static dielectric constant tensor:
#      x y z
#    x 1.735920 0.012990 0.001500 
#    y 0.012990 1.737310 0.000930 
#    z 0.001500 0.000930 1.820570 
# 
# From -- ./inp_files/547974.got.cif
#   From: 2010.05.17/outbox.cif.g08.bks.cpg/sg2_274_cif.got.tgz:547974.got - 2010.06.03 11:33:40.
