data_PCOD9083660
_publ_section_title
;
Structure prediction by ZEFSAII (Michael W. Deem and Ramdas Pophale) SiO2 
 PCOD9083660
Probable space group: P -1
;
_chemical_formula_sum "Si O2"
_cell_formula_units_Z 12
_cell_length_a 10.501055
_cell_length_b 10.244584
_cell_length_c 11.789711
_cell_angle_alpha 38.827989
_cell_angle_beta 95.362999
_cell_angle_gamma 65.076719
_cell_volume 483.671063
_symmetry_space_group_name_H-M "P -1"
_symmetry_group_IT_number 2
_symmetry_cell_setting 'triclinic'
loop_
_space_group_symop_operation_xyz
x,y,z
-x,-y,-z
loop_
_atom_site_type_symbol
_atom_site_label
_atom_site_fract_x
_atom_site_fract_y
_atom_site_fract_z
Si Si1 0.574696 0.513653 0.611222
Si Si2 0.087672 0.569942 0.809636
Si Si3 0.958564 0.747448 0.122167
Si Si4 0.659841 0.509313 0.276168
Si Si5 0.747281 0.704931 0.736824
Si Si6 0.298182 0.272066 0.645846
O O1 0.500000 0.500000 0.500000
O O2 0.413692 0.629688 0.609548
O O3 0.584835 0.742032 0.431578
O O4 0.806370 0.118179 0.906777
O O5 0.163548 0.674146 0.677737
O O6 0.169075 0.275293 0.933521
O O7 0.847672 0.799934 0.644735
O O8 0.181082 0.439138 0.032039
O O9 0.114464 0.614738 0.122534
O O10 0.089695 0.485487 0.415110
O O11 0.730456 0.535131 0.380570
O O12 0.447215 0.896537 0.953437
O O13 0.500000 0.000000 0.500000
#
# Coordination Sequence:
#
# PCOD9083660 Si02
#       6
#     2   2   2   2   2   2
#     4  10  21  35  54  86 121 154 185 234 294 348
#     4   9  19  34  55  86 112 145 199 238 279 342
#     4  10  19  34  57  84 116 155 191 236 290 344
#     4  10  20  35  57  87 119 152 191 234 290 352
#     4   9  19  35  56  85 112 149 202 241 281 336
#     4  10  20  34  56  86 125 151 185 232 293 348
#
# _framework density 24.810248999999999
#
# number of rings (size 3 to 8) (size 9 to 14) (size 15 to 20)
#    1.000    1.333    0.000    4.500    0.000    2.667 
#    0.000    0.000    0.000    5.000    0.000    0.000 
#    0.000    1.000    0.000    0.000    0.000    0.000 
#
# Total GULP energy -66988.437180 kJ/mol
# GULP energy per Si atom -5582.369765 kJ/mol
# Density = 2.475378 g / cm^3
# Si number density = 24.810249 Si / 1000 Ang^3
#
#
#
# Elastic Constant Matrix: (Units=GPa)
#
#
# Indices 1 2 3 4 5 6 
#
# 1 117.0261 45.2869 33.6807 18.5304 6.4914 -50.8714
# 2 45.2869 141.1939 46.2425 7.1730 5.4624 -22.7896
# 3 33.6807 46.2425 70.6569 24.1124 28.6249 2.2885
# 4 18.5304 7.1730 24.1124 46.8201 -3.5724 0.5084
# 5 6.4914 5.4624 28.6249 -3.5724 48.1206 13.0647
# 6 -50.8714 -22.7896 2.2885 0.5084 13.0647 50.8783
#
#
#
# Elastic Compliance Matrix: (Units=1/GPa)
#
#
# Indices 1 2 3 4 5 6 
#
# 1 0.022429 -0.000640 -0.006482 -0.006166 -0.006086 0.024056
# 2 -0.000640 0.010706 -0.009786 0.003921 0.004027 0.003523
# 3 -0.006482 -0.009786 0.037491 -0.016655 -0.019554 -0.007363
# 4 -0.006166 0.003921 -0.016655 0.032994 0.014863 -0.007806
# 5 -0.006086 0.004027 -0.019554 0.014863 0.037455 -0.013168
# 6 0.024056 0.003523 -0.007363 -0.007806 -0.013168 0.049076
#
#
# Mechanical properties :
#
#
# Convention : Reuss Voigt Hill
#
# Bulk Modulus (GPa) = 27.16516 64.36633 45.76575
# Shear Modulus (GPa) = 21.16513 42.74160 31.95337
#
# Velocity S-wave (km/s) = 2.92392 4.15509 3.59264
# Velocity P-wave (km/s) = 4.72991 7.00139 5.97459
#
# Compressibility (1/GPa) = 0.03681185
#
# Stress axis : x y z
#
# Youngs Moduli (GPa) = 44.58469 93.40472 26.67284
#
# Poissons Ratio (x) = 0.05974 0.17290
# Poissons Ratio (y) = 0.02851 0.26101
# Poissons Ratio (z) = 0.28901 0.91401
#
# Static dielectric constant tensor:
#      x y z
#    x 2.040360 -0.031020 -0.003880 
#    y -0.031020 2.020730 -0.058890 
#    z -0.003880 -0.058890 1.973910 
# 
# From -- ./inp_files/425006.got.cif
#   From: 2010.05.17/outbox.cif.g08.bks.cpg/sg2_213_cif.got.tgz:425006.got - 2010.06.03 11:33:40.
