data_PCOD9083452
_publ_section_title
;
Structure prediction by ZEFSAII (Michael W. Deem and Ramdas Pophale) SiO2 
 PCOD9083452
Probable space group: P -1
;
_chemical_formula_sum "Si O2"
_cell_formula_units_Z 16
_cell_length_a 22.606329
_cell_length_b 5.414671
_cell_length_c 7.347180
_cell_angle_alpha 117.822152
_cell_angle_beta 121.065457
_cell_angle_gamma 96.035386
_cell_volume 606.096753
_symmetry_space_group_name_H-M "P -1"
_symmetry_group_IT_number 2
_symmetry_cell_setting 'triclinic'
loop_
_space_group_symop_operation_xyz
x,y,z
-x,-y,-z
loop_
_atom_site_type_symbol
_atom_site_label
_atom_site_fract_x
_atom_site_fract_y
_atom_site_fract_z
Si Si1 0.551870 0.232125 0.444954
Si Si2 0.666874 0.855557 0.994696
Si Si3 0.693339 0.217939 0.532346
Si Si4 0.908049 0.534588 0.202316
Si Si5 0.238944 0.508045 0.838434
Si Si6 0.036697 0.974907 0.854467
Si Si7 0.440687 0.642505 0.931460
Si Si8 0.259710 0.246289 0.448831
O O1 0.584085 0.564993 0.709901
O O2 0.622570 0.138489 0.530228
O O3 0.551535 0.285481 0.246054
O O4 0.470030 0.922927 0.225666
O O5 0.720944 0.691629 0.077906
O O6 0.705723 0.125694 0.997459
O O7 0.661852 0.045467 0.228913
O O8 0.732702 0.585512 0.671997
O O9 0.752830 0.100956 0.660587
O O10 0.908873 0.197170 0.083995
O O11 0.974391 0.748975 0.528286
O O12 0.924204 0.698715 0.085011
O O13 0.833661 0.534226 0.177026
O O14 0.211210 0.347822 0.541271
O O15 0.000000 0.000000 0.000000
O O16 0.349770 0.422657 0.729193
O O17 0.500000 0.500000 0.000000
#
# Coordination Sequence:
#
# PCOD9083452 Si02
#       8
#     2   2   2   2   2   2   2   2
#     4  10  21  35  56  78 106 149 198 261 323 367
#     4  10  22  37  58  82 114 155 205 252 303 383
#     4   9  18  35  52  73 105 138 183 242 302 356
#     4  10  21  40  67  97 139 179 206 268 318 365
#     4  10  21  40  59  85 126 162 205 249 314 378
#     4  10  21  40  69 104 137 170 220 259 307 376
#     4  10  19  34  56  79 110 147 204 264 324 379
#     4   9  18  34  54  76 109 150 190 247 301 368
#
# _framework density 26.398425
#
# number of rings (size 3 to 8) (size 9 to 14) (size 15 to 20)
#    0.000    2.250    1.250    1.125    1.750    0.000 
#    0.000   22.500    0.000    0.000    0.000    0.000 
#    0.000    0.000    0.000    0.000    0.000    0.000 
#
# Total GULP energy -89462.928226 kJ/mol
# GULP energy per Si atom -5591.433014 kJ/mol
# Density = 2.633834 g / cm^3
# Si number density = 26.398425 Si / 1000 Ang^3
#
#
#
# Elastic Constant Matrix: (Units=GPa)
#
#
# Indices 1 2 3 4 5 6 
#
# 1 125.4586 52.2001 4.7401 -1.3155 -13.4789 -2.3072
# 2 52.2001 196.7331 15.9953 12.9049 -2.1321 -7.0928
# 3 4.7401 15.9953 81.9512 5.4585 -15.8829 -1.6085
# 4 -1.3155 12.9049 5.4585 33.7271 0.7376 -6.6800
# 5 -13.4789 -2.1321 -15.8829 0.7376 25.4392 1.4767
# 6 -2.3072 -7.0928 -1.6085 -6.6800 1.4767 52.3825
#
#
#
# Elastic Compliance Matrix: (Units=1/GPa)
#
#
# Indices 1 2 3 4 5 6 
#
# 1 0.009632 -0.002644 0.000937 0.001134 0.005429 0.000087
# 2 -0.002644 0.006017 -0.001184 -0.002091 -0.001601 0.000440
# 3 0.000937 -0.001184 0.014340 -0.002079 0.009423 -0.000209
# 4 0.001134 -0.002091 -0.002079 0.031626 -0.002009 0.003793
# 5 0.005429 -0.001601 0.009423 -0.002009 0.048069 -0.001300
# 6 0.000087 0.000440 -0.000209 0.003793 -0.001300 0.019668
#
#
# Mechanical properties :
#
#
# Convention : Reuss Voigt Hill
#
# Bulk Modulus (GPa) = 41.30958 61.11266 51.21112
# Shear Modulus (GPa) = 34.91573 44.39026 39.65299
#
# Velocity S-wave (km/s) = 3.64076 4.10512 3.87989
# Velocity P-wave (km/s) = 5.77547 6.75794 6.28593
#
# Compressibility (1/GPa) = 0.02420746
#
# Stress axis : x y z
#
# Youngs Moduli (GPa) = 103.81582 166.20527 69.73590
#
# Poissons Ratio (x) = 0.43953 -0.06537
# Poissons Ratio (y) = 0.27454 0.08255
# Poissons Ratio (z) = -0.09732 0.19673
#
# Static dielectric constant tensor:
#      x y z
#    x 2.070740 0.008620 0.032410 
#    y 0.008620 2.160800 0.058040 
#    z 0.032410 0.058040 2.207170 
# 
# From -- ./inp_files/351118.got.cif
#   From: 2010.05.17/outbox.cif.g08.bks.cpg/sg2_176_cif.got.tgz:351118.got - 2010.06.03 11:33:40.
