data_PCOD9083920
_publ_section_title
;
Structure prediction by ZEFSAII (Michael W. Deem and Ramdas Pophale) SiO2 
 PCOD9083920
Probable space group: P -1
;
_chemical_formula_sum "Si O2"
_cell_formula_units_Z 16
_cell_length_a 8.631037
_cell_length_b 9.825349
_cell_length_c 22.133877
_cell_angle_alpha 91.516318
_cell_angle_beta 105.195288
_cell_angle_gamma 31.260191
_cell_volume 863.712923
_symmetry_space_group_name_H-M "P -1"
_symmetry_group_IT_number 2
_symmetry_cell_setting 'triclinic'
loop_
_space_group_symop_operation_xyz
x,y,z
-x,-y,-z
loop_
_atom_site_type_symbol
_atom_site_label
_atom_site_fract_x
_atom_site_fract_y
_atom_site_fract_z
Si Si1 0.557486 0.681386 0.871593
Si Si2 0.965255 0.716710 0.189137
Si Si3 0.111461 0.395477 0.440730
Si Si4 0.986639 0.905854 0.413973
Si Si5 0.813761 0.468112 0.655492
Si Si6 0.107324 0.116399 0.467037
Si Si7 0.185402 0.716798 0.013520
Si Si8 0.639193 0.895941 0.944198
O O1 0.178315 0.022747 0.834725
O O2 0.657632 0.467106 0.911863
O O3 0.701743 0.563621 0.817776
O O4 0.734603 0.672195 0.928334
O O5 0.675300 0.841683 0.129712
O O6 0.010500 0.659373 0.263477
O O7 0.006024 0.570691 0.376950
O O8 0.998192 0.324638 0.417796
O O9 0.000000 0.500000 0.500000
O O10 0.510947 0.126817 0.480297
O O11 0.580131 0.203110 0.371305
O O12 0.090437 0.984929 0.431412
O O13 0.077113 0.766527 0.485894
O O14 0.161407 0.698179 0.374879
O O15 0.500000 0.500000 0.000000
O O16 0.919850 0.801102 0.965376
O O17 0.000000 0.000000 0.000000
O O18 0.500000 0.000000 0.000000
#
# Coordination Sequence:
#
# PCOD9083920 Si02
#       8
#     2   2   2   2   2   2   2   2
#     4  10  21  39  62  84 115 156 196 241 280 360
#     4  10  22  36  66  79 113 156 217 227 282 356
#     4  10  19  34  59  82 119 148 194 243 303 342
#     4  10  21  35  59  83 119 142 198 241 297 341
#     4  11  22  38  58  85 113 158 195 247 286 354
#     4   9  20  34  54  91 108 151 187 249 294 351
#     4  12  23  34  60  97 123 141 186 256 313 336
#     4  10  21  39  66  87 115 158 207 242 287 353
#
# _framework density 18.524671999999999
#
# number of rings (size 3 to 8) (size 9 to 14) (size 15 to 20)
#    0.750    1.000    2.500    2.625    3.500    1.500 
#    0.000    0.000    8.250    0.000    0.000    0.000 
#    0.000    0.000    0.000    0.000    0.000    0.000 
#
# Total GULP energy -89089.784851 kJ/mol
# GULP energy per Si atom -5568.111553 kJ/mol
# Density = 1.848251 g / cm^3
# Si number density = 18.524672 Si / 1000 Ang^3
#
#
#
# Elastic Constant Matrix: (Units=GPa)
#
#
# Indices 1 2 3 4 5 6 
#
# 1 99.3553 25.4131 34.2529 7.5377 -9.9269 18.0618
# 2 25.4131 95.6906 23.7191 11.5726 -11.9201 5.1569
# 3 34.2529 23.7191 109.1341 12.6122 -21.3432 12.1091
# 4 7.5377 11.5726 12.6122 25.9839 -6.6305 -3.8952
# 5 -9.9269 -11.9201 -21.3432 -6.6305 20.5602 -3.1759
# 6 18.0618 5.1569 12.1091 -3.8952 -3.1759 33.0076
#
#
#
# Elastic Compliance Matrix: (Units=1/GPa)
#
#
# Indices 1 2 3 4 5 6 
#
# 1 0.012787 -0.002092 -0.002495 -0.002276 0.000718 -0.005955
# 2 -0.002092 0.012142 -0.000727 -0.003484 0.004073 -0.000505
# 3 -0.002495 -0.000727 0.012727 -0.002894 0.010260 -0.002545
# 4 -0.002276 -0.003484 -0.002894 0.046087 0.010172 0.009269
# 5 0.000718 0.004073 0.010260 0.010172 0.065698 0.002729
# 6 -0.005955 -0.000505 -0.002545 0.009269 0.002729 0.035923
#
#
# Mechanical properties :
#
#
# Convention : Reuss Voigt Hill
#
# Bulk Modulus (GPa) = 36.99734 52.32780 44.66257
# Shear Modulus (GPa) = 24.39012 30.63001 27.51007
#
# Velocity S-wave (km/s) = 3.63247 4.07070 3.85782
# Velocity P-wave (km/s) = 6.13257 7.09951 6.63368
#
# Compressibility (1/GPa) = 0.02702897
#
# Stress axis : x y z
#
# Youngs Moduli (GPa) = 78.20542 82.35786 78.57173
#
# Poissons Ratio (x) = 0.17229 0.19600
# Poissons Ratio (y) = 0.16360 0.05713
# Poissons Ratio (z) = 0.19509 0.05988
#
# Static dielectric constant tensor:
#      x y z
#    x 1.648140 0.022340 -0.011120 
#    y 0.022340 1.730600 -0.041310 
#    z -0.011120 -0.041310 1.660090 
# 
# From -- ./inp_files/587996.got.cif
#   From: 2010.05.17/outbox.cif.g08.bks.cpg/sg2_294_cif.got.tgz:587996.got - 2010.06.03 11:33:40.
