data_PCOD9083818
_publ_section_title
;
Structure prediction by ZEFSAII (Michael W. Deem and Ramdas Pophale) SiO2 
 PCOD9083818
Probable space group: P -1
;
_chemical_formula_sum "Si O2"
_cell_formula_units_Z 16
_cell_length_a 8.537496
_cell_length_b 11.941044
_cell_length_c 12.645953
_cell_angle_alpha 112.883411
_cell_angle_beta 58.980955
_cell_angle_gamma 73.116280
_cell_volume 797.318627
_symmetry_space_group_name_H-M "P -1"
_symmetry_group_IT_number 2
_symmetry_cell_setting 'triclinic'
loop_
_space_group_symop_operation_xyz
x,y,z
-x,-y,-z
loop_
_atom_site_type_symbol
_atom_site_label
_atom_site_fract_x
_atom_site_fract_y
_atom_site_fract_z
Si Si1 0.280249 0.165031 0.686195
Si Si2 0.671393 0.153224 0.170706
Si Si3 0.181055 0.552508 0.690293
Si Si4 0.144826 0.356786 0.474435
Si Si5 0.327324 0.831552 0.388308
Si Si6 0.968364 0.817474 0.012337
Si Si7 0.290467 0.719494 0.575365
Si Si8 0.004462 0.198036 0.600272
O O1 0.405864 0.238191 0.707073
O O2 0.170994 0.145652 0.818744
O O3 0.079486 0.240776 0.694878
O O4 0.500000 0.000000 0.500000
O O5 0.398975 0.242198 0.291566
O O6 0.702084 0.195519 0.294165
O O7 0.811893 0.969979 0.049325
O O8 0.790670 0.204387 0.072541
O O9 0.153587 0.431895 0.607127
O O10 0.146483 0.663656 0.647089
O O11 0.451396 0.443860 0.592491
O O12 0.024472 0.667293 0.881104
O O13 0.045963 0.268910 0.512477
O O14 0.000000 0.500000 0.500000
O O15 0.230520 0.822184 0.531277
O O16 0.250662 0.757917 0.305991
O O17 0.187215 0.009736 0.466227
#
# Coordination Sequence:
#
# PCOD9083818 Si02
#       8
#     2   2   2   2   2   2   2   2
#     4  10  19  35  58  82 114 156 197 243 297 349
#     4   9  18  33  58  89 117 153 201 248 301 362
#     4   9  19  33  56  87 116 151 197 241 298 360
#     4  11  21  38  60  85 121 160 197 246 307 370
#     4  10  19  34  58  85 114 151 201 251 288 346
#     4  10  19  34  58  88 119 153 202 256 300 353
#     4   9  16  33  58  83 113 151 192 241 298 356
#     4  10  21  34  56  88 112 148 205 248 291 354
#
# _framework density 20.067260000000001
#
# number of rings (size 3 to 8) (size 9 to 14) (size 15 to 20)
#    0.000    2.250    0.000    6.000    0.000    0.000 
#    0.000    4.375    0.000    3.750    0.000    0.000 
#    0.000    0.000    0.000    0.000    0.000    0.000 
#
# Total GULP energy -89103.187861 kJ/mol
# GULP energy per Si atom -5568.949241 kJ/mol
# Density = 2.002159 g / cm^3
# Si number density = 20.067260 Si / 1000 Ang^3
#
#
#
# Elastic Constant Matrix: (Units=GPa)
#
#
# Indices 1 2 3 4 5 6 
#
# 1 120.6857 16.9940 13.0233 -10.4015 -11.5805 13.7726
# 2 16.9940 99.6401 21.9247 -20.3987 -8.4146 13.9851
# 3 13.0233 21.9247 97.5523 -4.2546 -6.9918 7.6248
# 4 -10.4015 -20.3987 -4.2546 33.9601 0.4844 -2.7178
# 5 -11.5805 -8.4146 -6.9918 0.4844 9.2378 -5.6853
# 6 13.7726 13.9851 7.6248 -2.7178 -5.6853 25.4171
#
#
#
# Elastic Compliance Matrix: (Units=1/GPa)
#
#
# Indices 1 2 3 4 5 6 
#
# 1 0.009840 0.000212 -0.000276 0.002739 0.010500 -0.002725
# 2 0.000212 0.013146 -0.001765 0.007286 0.007892 -0.004275
# 3 -0.000276 -0.001765 0.011186 0.000100 0.005958 -0.000891
# 4 0.002739 0.007286 0.000100 0.034558 0.008360 0.000042
# 5 0.010500 0.007892 0.005958 0.008360 0.146056 0.021745
# 6 -0.002725 -0.004275 -0.000891 0.000042 0.021745 0.048308
#
#
# Mechanical properties :
#
#
# Convention : Reuss Voigt Hill
#
# Bulk Modulus (GPa) = 32.77250 46.86245 39.81748
# Shear Modulus (GPa) = 18.05545 31.45207 24.75376
#
# Velocity S-wave (km/s) = 3.00283 3.96325 3.51599
# Velocity P-wave (km/s) = 5.32817 6.65932 6.03059
#
# Compressibility (1/GPa) = 0.03051338
#
# Stress axis : x y z
#
# Youngs Moduli (GPa) = 101.62151 76.06634 89.40047
#
# Poissons Ratio (x) = -0.01616 0.02472
# Poissons Ratio (y) = -0.02159 0.15783
# Poissons Ratio (z) = 0.02810 0.13429
#
# Static dielectric constant tensor:
#      x y z
#    x 1.719710 0.055310 0.010200 
#    y 0.055310 1.717040 -0.003350 
#    z 0.010200 -0.003350 1.690050 
# 
# From -- ./inp_files/390634.got.cif
#   From: 2010.05.17/outbox.cif.g08.bks.cpg/sg2_196_cif.got.tgz:390634.got - 2010.06.03 11:33:40.
