data_PCOD9083855
_publ_section_title
;
Structure prediction by ZEFSAII (Michael W. Deem and Ramdas Pophale) SiO2 
 PCOD9083855
Probable space group: P -1
;
_chemical_formula_sum "Si O2"
_cell_formula_units_Z 16
_cell_length_a 13.881449
_cell_length_b 11.961936
_cell_length_c 9.297192
_cell_angle_alpha 46.022349
_cell_angle_beta 67.157184
_cell_angle_gamma 101.522288
_cell_volume 723.357718
_symmetry_space_group_name_H-M "P -1"
_symmetry_group_IT_number 2
_symmetry_cell_setting 'triclinic'
loop_
_space_group_symop_operation_xyz
x,y,z
-x,-y,-z
loop_
_atom_site_type_symbol
_atom_site_label
_atom_site_fract_x
_atom_site_fract_y
_atom_site_fract_z
Si Si1 0.805148 0.790376 0.436839
Si Si2 0.575743 0.369012 0.267433
Si Si3 0.493119 0.363879 0.866357
Si Si4 0.818888 0.358035 0.634974
Si Si5 0.301471 0.050089 0.495770
Si Si6 0.584937 0.241120 0.682552
Si Si7 0.060794 0.826745 0.205818
Si Si8 0.672226 0.225096 0.152945
O O1 0.650003 0.550389 0.691659
O O2 0.934320 0.800605 0.372397
O O3 0.794921 0.896739 0.482476
O O4 0.846070 0.952508 0.137588
O O5 0.589933 0.558857 0.145660
O O6 0.570171 0.254966 0.511421
O O7 0.423741 0.212661 0.404603
O O8 0.691126 0.410460 0.054400
O O9 0.524676 0.327504 0.725601
O O10 0.391719 0.139709 0.216266
O O11 0.746464 0.372080 0.532062
O O12 0.843447 0.198982 0.738295
O O13 0.717182 0.267836 0.920815
O O14 0.968826 0.609869 0.353743
O O15 0.500000 0.000000 0.500000
O O16 0.236011 0.815995 0.786560
O O17 0.500000 0.000000 0.000000
#
# Coordination Sequence:
#
# PCOD9083855 Si02
#       8
#     2   2   2   2   2   2   2   2
#     4  10  19  36  58  91 116 150 196 253 287 331
#     4  10  21  33  54  88 116 152 179 236 309 342
#     4  11  22  37  59  92 121 149 196 248 299 345
#     4  11  22  40  59  91 117 154 203 241 282 358
#     4  10  19  35  60  91 118 148 192 252 297 342
#     4  12  23  37  57  86 125 157 186 237 307 360
#     4  10  22  36  60  86 117 159 199 246 280 329
#     4  10  19  34  58  87 117 146 191 245 293 340
#
# _framework density 22.119071999999999
#
# number of rings (size 3 to 8) (size 9 to 14) (size 15 to 20)
#    0.000    1.500    2.500    5.625    3.500    0.000 
#    0.000    0.000    0.000    3.000    0.000    6.125 
#    0.000    0.000    0.000    0.000    0.000    0.000 
#
# Total GULP energy -89239.777440 kJ/mol
# GULP energy per Si atom -5577.486090 kJ/mol
# Density = 2.206873 g / cm^3
# Si number density = 22.119072 Si / 1000 Ang^3
#
#
#
# Elastic Constant Matrix: (Units=GPa)
#
#
# Indices 1 2 3 4 5 6 
#
# 1 62.4492 30.2190 16.2225 10.0181 10.8297 -38.8053
# 2 30.2190 65.6363 2.8763 9.1554 4.1754 -34.2206
# 3 16.2225 2.8763 77.1263 13.9452 9.3809 -4.7742
# 4 10.0181 9.1554 13.9452 32.6351 -4.3487 4.5002
# 5 10.8297 4.1754 9.3809 -4.3487 33.1761 4.5664
# 6 -38.8053 -34.2206 -4.7742 4.5002 4.5664 49.4152
#
#
#
# Elastic Compliance Matrix: (Units=1/GPa)
#
#
# Indices 1 2 3 4 5 6 
#
# 1 0.060200 0.011668 0.001374 -0.035501 -0.034686 0.061926
# 2 0.011668 0.032263 0.004515 -0.021703 -0.016874 0.035477
# 3 0.001374 0.004515 0.015832 -0.010529 -0.007895 0.007423
# 4 -0.035501 -0.021703 -0.010529 0.063792 0.032924 -0.052778
# 5 -0.034686 -0.016874 -0.007895 0.032924 0.056733 -0.047927
# 6 0.061926 0.035477 0.007423 -0.052778 -0.047927 0.103388
#
#
# Mechanical properties :
#
#
# Convention : Reuss Voigt Hill
#
# Bulk Modulus (GPa) = 6.97307 33.76084 20.36695
# Shear Modulus (GPa) = 14.49703 33.43820 23.96762
#
# Velocity S-wave (km/s) = 2.56287 3.89232 3.29534
# Velocity P-wave (km/s) = 3.45212 5.95790 4.86897
#
# Compressibility (1/GPa) = 0.14340895
#
# Stress axis : x y z
#
# Youngs Moduli (GPa) = 16.61117 30.99535 63.16300
#
# Poissons Ratio (x) = -0.36166 -0.08676
# Poissons Ratio (y) = -0.19382 -0.28519
# Poissons Ratio (z) = -0.02282 -0.13995
#
# Static dielectric constant tensor:
#      x y z
#    x 2.005420 -0.054470 -0.023330 
#    y -0.054470 1.871140 -0.039290 
#    z -0.023330 -0.039290 1.870290 
# 
# From -- ./inp_files/302331.got.cif
#   From: 2010.05.17/outbox.cif.g08.bks.cpg/sg2_152_cif.got.tgz:302331.got - 2010.06.03 11:33:40.
