data_PCOD9083077
_publ_section_title
;
Structure prediction by ZEFSAII (Michael W. Deem and Ramdas Pophale) SiO2 
 PCOD9083077
Probable space group: P -1
;
_chemical_formula_sum "Si O2"
_cell_formula_units_Z 16
_cell_length_a 10.434209
_cell_length_b 21.017275
_cell_length_c 16.442994
_cell_angle_alpha 159.471940
_cell_angle_beta 33.383625
_cell_angle_gamma 145.939886
_cell_volume 675.290354
_symmetry_space_group_name_H-M "P -1"
_symmetry_group_IT_number 2
_symmetry_cell_setting 'triclinic'
loop_
_space_group_symop_operation_xyz
x,y,z
-x,-y,-z
loop_
_atom_site_type_symbol
_atom_site_label
_atom_site_fract_x
_atom_site_fract_y
_atom_site_fract_z
Si Si1 0.578450 0.583834 0.146498
Si Si2 0.062402 0.604112 0.506465
Si Si3 0.999946 0.472139 0.870771
Si Si4 0.228602 0.776756 0.855460
Si Si5 0.285056 0.875194 0.211544
Si Si6 0.972465 0.955903 0.339059
Si Si7 0.670714 0.696253 0.612818
Si Si8 0.795841 0.015418 0.050130
O O1 0.340779 0.613901 0.351575
O O2 0.768300 0.777992 0.263798
O O3 0.500000 0.500000 0.000000
O O4 0.733686 0.462044 0.966108
O O5 0.028557 0.816624 0.790059
O O6 0.000000 0.500000 0.500000
O O7 0.905934 0.446126 0.340133
O O8 0.133495 0.329340 0.587839
O O9 0.182159 0.669475 0.984510
O O10 0.000000 0.500000 0.000000
O O11 0.479981 0.792645 0.785611
O O12 0.258517 0.857285 0.844978
O O13 0.069083 0.892394 0.128410
O O14 0.187375 0.996211 0.339368
O O15 0.170044 0.887395 0.375969
O O16 0.567160 0.940225 0.138564
O O17 0.500000 0.500000 0.500000
O O18 0.811840 0.830386 0.769386
#
# Coordination Sequence:
#
# PCOD9083077 Si02
#       8
#     2   2   2   2   2   2   2   2
#     4  11  21  41  68  93 127 174 223 272 330 401
#     4  10  23  39  65  96 129 167 227 276 327 390
#     4  11  27  41  64  98 137 177 216 278 351 394
#     4  11  23  38  67  97 128 176 225 278 325 400
#     4  10  20  36  58  93 130 165 218 279 324 394
#     4  10  19  33  61  95 123 160 225 275 323 375
#     4  12  24  42  64  92 141 171 224 278 343 400
#     4  11  22  40  64  97 126 177 227 276 327 398
#
# _framework density 23.693512999999999
#
# number of rings (size 3 to 8) (size 9 to 14) (size 15 to 20)
#    0.000    1.250    5.000    1.125    5.250    0.000 
#    0.000    0.625    2.750    3.750    0.000    0.000 
#    0.000    0.000    0.000    0.000    0.000    0.000 
#
# Total GULP energy -89276.338632 kJ/mol
# GULP energy per Si atom -5579.771164 kJ/mol
# Density = 2.363959 g / cm^3
# Si number density = 23.693513 Si / 1000 Ang^3
#
#
#
# Elastic Constant Matrix: (Units=GPa)
#
#
# Indices 1 2 3 4 5 6 
#
# 1 113.9781 19.9678 35.6857 -13.0652 29.9331 17.6508
# 2 19.9678 102.0432 51.9895 -16.2040 15.0672 11.1383
# 3 35.6857 51.9895 183.5751 -14.3496 38.9141 7.2682
# 4 -13.0652 -16.2040 -14.3496 59.1287 3.2309 11.6671
# 5 29.9331 15.0672 38.9141 3.2309 35.1835 1.4122
# 6 17.6508 11.1383 7.2682 11.6671 1.4122 31.8102
#
#
#
# Elastic Compliance Matrix: (Units=1/GPa)
#
#
# Indices 1 2 3 4 5 6 
#
# 1 0.014199 0.000943 0.000715 0.006294 -0.013448 -0.010084
# 2 0.000943 0.012761 -0.002411 0.004495 -0.003776 -0.005922
# 3 0.000715 -0.002411 0.008077 0.002296 -0.008645 -0.001856
# 4 0.006294 0.004495 0.002296 0.023414 -0.011420 -0.013672
# 5 -0.013448 -0.003776 -0.008645 -0.011420 0.051583 0.012658
# 6 -0.010084 -0.005922 -0.001856 -0.013672 0.012658 0.043982
#
#
# Mechanical properties :
#
#
# Convention : Reuss Voigt Hill
#
# Bulk Modulus (GPa) = 29.82338 68.32027 49.07182
# Shear Modulus (GPa) = 29.99402 44.68803 37.34103
#
# Velocity S-wave (km/s) = 3.56183 4.34762 3.97420
# Velocity P-wave (km/s) = 5.43415 7.35527 6.46645
#
# Compressibility (1/GPa) = 0.03353074
#
# Stress axis : x y z
#
# Youngs Moduli (GPa) = 70.42506 78.36106 123.81159
#
# Poissons Ratio (x) = -0.07391 -0.08847
# Poissons Ratio (y) = -0.06643 0.29854
# Poissons Ratio (z) = -0.05032 0.18895
#
# Static dielectric constant tensor:
#      x y z
#    x 1.948300 -0.029750 -0.073770 
#    y -0.029750 1.914060 0.083890 
#    z -0.073770 0.083890 2.085950 
# 
# From -- ./inp_files/570969.got.cif
#   From: 2010.05.17/outbox.cif.g08.bks.cpg/sg2_286_cif.got.tgz:570969.got - 2010.06.03 11:33:40.
