data_PCOD9083810
_publ_section_title
;
Structure prediction by ZEFSAII (Michael W. Deem and Ramdas Pophale) SiO2 
 PCOD9083810
Probable space group: P -1
;
_chemical_formula_sum "Si O2"
_cell_formula_units_Z 12
_cell_length_a 9.424639
_cell_length_b 7.446071
_cell_length_c 7.599337
_cell_angle_alpha 92.642737
_cell_angle_beta 81.007260
_cell_angle_gamma 112.465947
_cell_volume 486.709736
_symmetry_space_group_name_H-M "P -1"
_symmetry_group_IT_number 2
_symmetry_cell_setting 'triclinic'
loop_
_space_group_symop_operation_xyz
x,y,z
-x,-y,-z
loop_
_atom_site_type_symbol
_atom_site_label
_atom_site_fract_x
_atom_site_fract_y
_atom_site_fract_z
Si Si1 0.147658 0.623565 0.739360
Si Si2 0.834431 0.921147 0.932180
Si Si3 0.368939 0.476408 0.170303
Si Si4 0.358805 0.017433 0.720592
Si Si5 0.527545 0.294608 0.389033
Si Si6 0.169534 0.698131 0.164003
O O1 0.289894 0.568662 0.641906
O O2 0.983343 0.459135 0.725695
O O3 0.202233 0.844180 0.665822
O O4 0.158002 0.654379 0.952092
O O5 0.788363 0.706407 0.857537
O O6 0.829855 0.087230 0.808011
O O7 0.700519 0.902824 0.098598
O O8 0.000000 0.000000 0.000000
O O9 0.433115 0.407745 0.325155
O O10 0.318984 0.659436 0.196860
O O11 0.500000 0.500000 0.000000
O O12 0.444434 0.180783 0.572138
O O13 0.460352 0.886683 0.736633
#
# Coordination Sequence:
#
# PCOD9083810 Si02
#       6
#     2   2   2   2   2   2
#     4   8  14  32  57  78 110 161 185 229 287 347
#     4  11  23  38  63  90 116 158 199 239 290 354
#     4  12  22  36  61  93 117 150 197 251 294 333
#     4   8  17  36  58  87 118 156 200 234 290 359
#     4   9  18  34  62  86 116 160 192 240 299 344
#     4  10  19  34  58  84 121 147 196 242 286 347
#
# _framework density 24.655352000000001
#
# number of rings (size 3 to 8) (size 9 to 14) (size 15 to 20)
#    1.000    1.333    1.667    3.000    0.000    2.667 
#    0.000    4.167    0.000    4.000    0.000    0.000 
#    0.000    0.000    0.000    0.000    0.000    0.000 
#
# Total GULP energy -67053.260350 kJ/mol
# GULP energy per Si atom -5587.771696 kJ/mol
# Density = 2.459923 g / cm^3
# Si number density = 24.655352 Si / 1000 Ang^3
#
#
#
# Elastic Constant Matrix: (Units=GPa)
#
#
# Indices 1 2 3 4 5 6 
#
# 1 121.3932 52.6206 27.2478 -22.5736 -4.1328 -9.5204
# 2 52.6206 122.6328 21.0852 -15.3192 -5.3426 -5.8677
# 3 27.2478 21.0852 62.6388 -21.1164 -12.1647 7.1605
# 4 -22.5736 -15.3192 -21.1164 30.4641 -0.8944 -8.8858
# 5 -4.1328 -5.3426 -12.1647 -0.8944 22.2197 -8.7649
# 6 -9.5204 -5.8677 7.1605 -8.8858 -8.7649 49.9227
#
#
#
# Elastic Compliance Matrix: (Units=1/GPa)
#
#
# Indices 1 2 3 4 5 6 
#
# 1 0.011840 -0.003668 -0.001551 0.006992 0.002204 0.003681
# 2 -0.003668 0.010322 -0.000869 0.002337 0.001971 0.001400
# 3 -0.001551 -0.000869 0.025256 0.016797 0.014611 0.001534
# 4 0.006992 0.002337 0.016797 0.054895 0.018057 0.012140
# 5 0.002204 0.001971 0.014611 0.018057 0.059429 0.012204
# 6 0.003681 0.001400 0.001534 0.012140 0.012204 0.024981
#
#
# Mechanical properties :
#
#
# Convention : Reuss Voigt Hill
#
# Bulk Modulus (GPa) = 28.37472 56.50800 42.44136
# Shear Modulus (GPa) = 23.73637 34.23540 28.98588
#
# Velocity S-wave (km/s) = 3.10615 3.73038 3.43248
# Velocity P-wave (km/s) = 4.93941 6.44385 5.74112
#
# Compressibility (1/GPa) = 0.03524263
#
# Stress axis : x y z
#
# Youngs Moduli (GPa) = 84.46147 96.87581 39.59399
#
# Poissons Ratio (x) = 0.35535 0.06142
# Poissons Ratio (y) = 0.30981 0.03439
# Poissons Ratio (z) = 0.13102 0.08415
#
# Static dielectric constant tensor:
#      x y z
#    x 1.955860 0.041200 0.022060 
#    y 0.041200 2.007420 0.064060 
#    z 0.022060 0.064060 1.995050 
# 
# From -- ./inp_files/146848.got.cif
#   From: 2010.05.17/outbox.cif.g08.bks.cpg/sg2_74_cif.got.tgz:146848.got - 2010.06.03 11:33:40.
