data_PCOD9083794
_publ_section_title
;
Structure prediction by ZEFSAII (Michael W. Deem and Ramdas Pophale) SiO2 
 PCOD9083794
Probable space group: P -1
;
_chemical_formula_sum "Si O2"
_cell_formula_units_Z 16
_cell_length_a 9.130068
_cell_length_b 19.792821
_cell_length_c 6.889694
_cell_angle_alpha 140.529734
_cell_angle_beta 105.968347
_cell_angle_gamma 62.115127
_cell_volume 691.316010
_symmetry_space_group_name_H-M "P -1"
_symmetry_group_IT_number 2
_symmetry_cell_setting 'triclinic'
loop_
_space_group_symop_operation_xyz
x,y,z
-x,-y,-z
loop_
_atom_site_type_symbol
_atom_site_label
_atom_site_fract_x
_atom_site_fract_y
_atom_site_fract_z
Si Si1 0.083575 0.790897 0.300553
Si Si2 0.704965 0.350520 0.283900
Si Si3 0.489239 0.784791 0.057261
Si Si4 0.650704 0.445712 0.080304
Si Si5 0.772746 0.825635 0.063626
Si Si6 0.135701 0.427428 0.615121
Si Si7 0.224261 0.430960 0.101806
Si Si8 0.819554 0.033730 0.403336
O O1 0.153114 0.888501 0.586249
O O2 0.884675 0.832533 0.305586
O O3 0.142829 0.746785 0.999768
O O4 0.194116 0.673428 0.197357
O O5 0.406234 0.587782 0.811261
O O6 0.752801 0.447317 0.611284
O O7 0.610096 0.287942 0.231791
O O8 0.585019 0.843236 0.090846
O O9 0.343719 0.880882 0.346030
O O10 0.635827 0.687246 0.022156
O O11 0.732888 0.534084 0.355723
O O12 0.500000 0.500000 0.000000
O O13 0.788103 0.917291 0.118504
O O14 0.854592 0.693692 0.725270
O O15 0.952610 0.531905 0.770230
O O16 0.193535 0.411244 0.823660
O O17 0.000000 0.000000 0.500000
#
# Coordination Sequence:
#
# PCOD9083794 Si02
#       8
#     2   2   2   2   2   2   2   2
#     4   8  18  35  62  83 116 157 194 238 298 348
#     4   9  19  36  55  83 121 159 185 237 299 359
#     4  11  21  34  61  91 116 153 199 255 293 349
#     4  10  19  34  58  83 121 149 199 234 299 358
#     4  11  20  37  61  90 121 153 211 237 290 355
#     4  11  23  35  55  92 122 165 188 250 293 359
#     4  11  22  37  56  85 131 155 200 236 310 354
#     4   9  20  39  61  88 113 159 205 245 293 355
#
# _framework density 23.144262999999999
#
# number of rings (size 3 to 8) (size 9 to 14) (size 15 to 20)
#    0.750    1.250    1.250    3.000    0.000    2.500 
#    0.000    0.625    0.000    0.000    0.000    5.250 
#    0.000    0.000    0.000    0.000    0.000    0.000 
#
# Total GULP energy -89207.398958 kJ/mol
# GULP energy per Si atom -5575.462435 kJ/mol
# Density = 2.309159 g / cm^3
# Si number density = 23.144263 Si / 1000 Ang^3
#
#
#
# Elastic Constant Matrix: (Units=GPa)
#
#
# Indices 1 2 3 4 5 6 
#
# 1 124.6121 3.5820 28.1598 12.5739 26.6999 -4.0693
# 2 3.5820 55.8211 31.9628 11.6209 11.3050 -10.2776
# 3 28.1598 31.9628 68.1374 28.9726 23.4414 6.8389
# 4 12.5739 11.6209 28.9726 30.2523 2.7381 0.7268
# 5 26.6999 11.3050 23.4414 2.7381 55.9938 15.5706
# 6 -4.0693 -10.2776 6.8389 0.7268 15.5706 29.1863
#
#
#
# Elastic Compliance Matrix: (Units=1/GPa)
#
#
# Indices 1 2 3 4 5 6 
#
# 1 0.010690 0.005057 -0.004874 -0.001346 -0.006163 0.007735
# 2 0.005057 0.032538 -0.018201 0.002989 -0.007110 0.020146
# 3 -0.004874 -0.018201 0.041269 -0.029630 -0.006310 -0.012655
# 4 -0.001346 0.002989 -0.029630 0.059984 0.009104 0.001457
# 5 -0.006163 -0.007110 -0.006310 0.009104 0.029374 -0.017782
# 6 0.007735 0.020146 -0.012655 0.001457 -0.017782 0.054851
#
#
# Mechanical properties :
#
#
# Convention : Reuss Voigt Hill
#
# Bulk Modulus (GPa) = 20.63492 41.77550 31.20521
# Shear Modulus (GPa) = 17.80024 35.41090 26.60557
#
# Velocity S-wave (km/s) = 2.77627 3.91578 3.39419
# Velocity P-wave (km/s) = 4.38316 6.20755 5.37335
#
# Compressibility (1/GPa) = 0.04846154
#
# Stress axis : x y z
#
# Youngs Moduli (GPa) = 93.54675 30.73306 24.23150
#
# Poissons Ratio (x) = -0.15543 0.11811
# Poissons Ratio (y) = -0.47309 0.44103
# Poissons Ratio (z) = 0.45595 0.55937
#
# Static dielectric constant tensor:
#      x y z
#    x 1.967110 0.039310 -0.020250 
#    y 0.039310 1.944740 0.039790 
#    z -0.020250 0.039790 1.925080 
# 
# From -- ./inp_files/189380.got.cif
#   From: 2010.05.17/outbox.cif.g08.bks.cpg/sg2_95_cif.got.tgz:189380.got - 2010.06.03 11:33:40.
