data_PCOD9083370
_publ_section_title
;
Structure prediction by ZEFSAII (Michael W. Deem and Ramdas Pophale) SiO2 
 PCOD9083370
Probable space group: P -1
;
_chemical_formula_sum "Si O2"
_cell_formula_units_Z 14
_cell_length_a 14.053655
_cell_length_b 7.913932
_cell_length_c 8.141357
_cell_angle_alpha 103.897255
_cell_angle_beta 58.106584
_cell_angle_gamma 133.870435
_cell_volume 542.355628
_symmetry_space_group_name_H-M "P -1"
_symmetry_group_IT_number 2
_symmetry_cell_setting 'triclinic'
loop_
_space_group_symop_operation_xyz
x,y,z
-x,-y,-z
loop_
_atom_site_type_symbol
_atom_site_label
_atom_site_fract_x
_atom_site_fract_y
_atom_site_fract_z
Si Si1 0.975729 0.099342 0.263526
Si Si2 0.686689 0.593459 0.479304
Si Si3 0.865358 0.532556 0.514143
Si Si4 0.595602 0.621039 0.109682
Si Si5 0.775715 0.503157 0.067867
Si Si6 0.673818 0.119683 0.836282
Si Si7 0.142649 0.916961 0.162210
O O1 0.026410 0.303026 0.391569
O O2 0.058023 0.014639 0.243950
O O3 0.050612 0.239914 0.055164
O O4 0.797511 0.860173 0.366621
O O5 0.764689 0.591186 0.567562
O O6 0.519329 0.471236 0.656851
O O7 0.701412 0.455123 0.299625
O O8 0.743999 0.266249 0.636974
O O9 0.988305 0.637062 0.278447
O O10 0.680506 0.528765 0.040048
O O11 0.500000 0.500000 0.000000
O O12 0.723990 0.910946 0.055880
O O13 0.757784 0.294976 0.960650
O O14 0.737761 0.992992 0.773468
O O15 0.500000 0.000000 0.000000
#
# Coordination Sequence:
#
# PCOD9083370 Si02
#       7
#     2   2   2   2   2   2   2
#     4   9  19  36  59  82 107 142 183 224 271 327
#     4  11  19  34  58  85 111 139 178 231 275 317
#     4  10  20  36  58  82 106 142 185 225 270 326
#     4  11  20  35  58  83 108 141 183 225 268 325
#     4  10  22  36  54  83 113 142 179 226 277 321
#     4  11  22  37  55  78 109 147 186 225 269 326
#     4  10  19  34  55  79 106 139 182 226 263 316
#
# _framework density 25.813320999999998
#
# number of rings (size 3 to 8) (size 9 to 14) (size 15 to 20)
#    0.000    1.714    0.000    8.143    0.000    0.000 
#    0.000    5.714    0.000    5.143    0.000    0.000 
#    0.000    0.000    0.000    0.000    0.000    0.000 
#
# Total GULP energy -78078.525192 kJ/mol
# GULP energy per Si atom -5577.037514 kJ/mol
# Density = 2.575457 g / cm^3
# Si number density = 25.813321 Si / 1000 Ang^3
#
#
#
# Elastic Constant Matrix: (Units=GPa)
#
#
# Indices 1 2 3 4 5 6 
#
# 1 68.5373 5.5363 25.0831 -21.3644 -16.6178 6.8938
# 2 5.5363 51.3430 39.0741 -20.7862 -0.5591 3.8694
# 3 25.0831 39.0741 177.1656 -41.7169 -14.9982 2.2460
# 4 -21.3644 -20.7862 -41.7169 55.8018 12.9218 4.2094
# 5 -16.6178 -0.5591 -14.9982 12.9218 43.2286 -4.5170
# 6 6.8938 3.8694 2.2460 4.2094 -4.5170 20.4633
#
#
#
# Elastic Compliance Matrix: (Units=1/GPa)
#
#
# Indices 1 2 3 4 5 6 
#
# 1 0.018592 0.002100 -0.001091 0.006672 0.004068 -0.007015
# 2 0.002100 0.026746 -0.004289 0.009064 -0.003882 -0.008015
# 3 -0.001091 -0.004289 0.007656 0.003454 0.001136 -0.000122
# 4 0.006672 0.009064 0.003454 0.028669 -0.005895 -0.011539
# 5 0.004068 -0.003882 0.001136 -0.005895 0.027484 0.006518
# 6 -0.007015 -0.008015 -0.000122 -0.011539 0.006518 0.056573
#
#
# Mechanical properties :
#
#
# Convention : Reuss Voigt Hill
#
# Bulk Modulus (GPa) = 21.53633 48.49255 35.01444
# Shear Modulus (GPa) = 26.63006 39.05557 32.84282
#
# Velocity S-wave (km/s) = 3.21540 3.89395 3.57083
# Velocity P-wave (km/s) = 4.70598 6.24850 5.53128
#
# Compressibility (1/GPa) = 0.04643316
#
# Stress axis : x y z
#
# Youngs Moduli (GPa) = 53.78655 37.38915 130.61835
#
# Poissons Ratio (x) = -0.07850 0.14250
# Poissons Ratio (y) = -0.11293 0.56020
# Poissons Ratio (z) = 0.05868 0.16035
#
# Static dielectric constant tensor:
#      x y z
#    x 2.082390 -0.022780 0.011130 
#    y -0.022780 2.131210 -0.015490 
#    z 0.011130 -0.015490 2.070570 
# 
# From -- ./inp_files/154073.got.cif
#   From: 2010.05.17/outbox.cif.g08.bks.cpg/sg2_78_cif.got.tgz:154073.got - 2010.06.03 11:33:40.
