data_PCOD9083720
_publ_section_title
;
Structure prediction by ZEFSAII (Michael W. Deem and Ramdas Pophale) SiO2 
 PCOD9083720
Probable space group: P -1
;
_chemical_formula_sum "Si O2"
_cell_formula_units_Z 16
_cell_length_a 9.507954
_cell_length_b 15.458053
_cell_length_c 11.357073
_cell_angle_alpha 51.540153
_cell_angle_beta 73.332854
_cell_angle_gamma 33.719999
_cell_volume 615.168433
_symmetry_space_group_name_H-M "P -1"
_symmetry_group_IT_number 2
_symmetry_cell_setting 'triclinic'
loop_
_space_group_symop_operation_xyz
x,y,z
-x,-y,-z
loop_
_atom_site_type_symbol
_atom_site_label
_atom_site_fract_x
_atom_site_fract_y
_atom_site_fract_z
Si Si1 0.676367 0.936762 0.395300
Si Si2 0.312633 0.572981 0.639503
Si Si3 0.577804 0.126768 0.876648
Si Si4 0.773510 0.373118 0.108835
Si Si5 0.218216 0.458506 0.472778
Si Si6 0.252524 0.187739 0.063065
Si Si7 0.789980 0.109275 0.564595
Si Si8 0.002277 0.848080 0.211984
O O1 0.027788 0.690887 0.558299
O O2 0.765353 0.998300 0.251933
O O3 0.500000 0.000000 0.500000
O O4 0.465820 0.030322 0.259601
O O5 0.305862 0.562342 0.790342
O O6 0.245923 0.747397 0.488634
O O7 0.652905 0.338235 0.710608
O O8 0.445343 0.291500 0.668617
O O9 0.678485 0.950748 0.933259
O O10 0.327059 0.252372 0.924144
O O11 0.844650 0.993388 0.008162
O O12 0.912432 0.395260 0.008742
O O13 0.500000 0.500000 0.000000
O O14 0.037649 0.110349 0.244014
O O15 0.454122 0.297557 0.446358
O O16 0.050180 0.683783 0.317310
O O17 0.000000 0.500000 0.500000
O O18 0.000000 0.000000 0.500000
#
# Coordination Sequence:
#
# PCOD9083720 Si02
#       8
#     2   2   2   2   2   2   2   2
#     4  11  21  38  62  84 119 168 205 245 302 373
#     4  10  21  38  59  86 119 159 205 246 305 367
#     4  10  20  36  61  92 124 150 204 262 306 350
#     4  11  20  34  61  88 121 157 196 254 314 358
#     4  11  20  34  60  90 125 159 198 255 309 362
#     4  10  19  34  57  89 118 156 200 252 304 358
#     4   9  21  36  55  87 122 153 200 250 303 359
#     4  10  23  38  62  92 120 164 207 252 308 362
#
# _framework density 26.009132999999999
#
# number of rings (size 3 to 8) (size 9 to 14) (size 15 to 20)
#    0.000    1.750    2.500    3.375    0.000    2.000 
#    0.000    0.000    5.500   10.500    0.000    0.000 
#    0.000    0.000    0.000    0.000    0.000    0.000 
#
# Total GULP energy -89071.408168 kJ/mol
# GULP energy per Si atom -5566.963010 kJ/mol
# Density = 2.594994 g / cm^3
# Si number density = 26.009133 Si / 1000 Ang^3
#
#
#
# Elastic Constant Matrix: (Units=GPa)
#
#
# Indices 1 2 3 4 5 6 
#
# 1 91.4532 40.8378 25.0769 -12.1822 27.2568 -30.4054
# 2 40.8378 157.5173 24.6137 15.0516 10.0329 -47.9307
# 3 25.0769 24.6137 99.0254 22.4746 24.3227 1.5496
# 4 -12.1822 15.0516 22.4746 40.1964 5.5484 2.1736
# 5 27.2568 10.0329 24.3227 5.5484 54.0227 -13.7499
# 6 -30.4054 -47.9307 1.5496 2.1736 -13.7499 49.5373
#
#
#
# Elastic Compliance Matrix: (Units=1/GPa)
#
#
# Indices 1 2 3 4 5 6 
#
# 1 0.018977 -0.002464 -0.005098 0.009953 -0.005979 0.007327
# 2 -0.002464 0.010485 -0.001849 -0.004591 0.003081 0.009747
# 3 -0.005098 -0.001849 0.014938 -0.008234 -0.004565 -0.006292
# 4 0.009953 -0.004591 -0.008234 0.034845 -0.004240 -0.000781
# 5 -0.005979 0.003081 -0.004565 -0.004240 0.025130 0.006615
# 6 0.007327 0.009747 -0.006292 -0.000781 0.006615 0.036181
#
#
# Mechanical properties :
#
#
# Convention : Reuss Voigt Hill
#
# Bulk Modulus (GPa) = 39.09959 58.78362 48.94161
# Shear Modulus (GPa) = 29.77900 45.91577 37.84738
#
# Velocity S-wave (km/s) = 3.38737 4.20619 3.81879
# Velocity P-wave (km/s) = 5.51042 6.79997 6.18887
#
# Compressibility (1/GPa) = 0.02557572
#
# Stress axis : x y z
#
# Youngs Moduli (GPa) = 52.69653 95.37844 66.94435
#
# Poissons Ratio (x) = 0.23502 0.34130
# Poissons Ratio (y) = 0.12985 0.12380
# Poissons Ratio (z) = 0.26866 0.17638
#
# Static dielectric constant tensor:
#      x y z
#    x 2.151350 -0.022190 -0.015280 
#    y -0.022190 2.271330 0.059780 
#    z -0.015280 0.059780 2.082630 
# 
# From -- ./inp_files/438065.got.cif
#   From: 2010.05.17/outbox.cif.g08.bks.cpg/sg2_220_cif.got.tgz:438065.got - 2010.06.03 11:33:40.
