data_PCOD9083357
_publ_section_title
;
Structure prediction by ZEFSAII (Michael W. Deem and Ramdas Pophale) SiO2 
 PCOD9083357
Probable space group: P -1
;
_chemical_formula_sum "Si O2"
_cell_formula_units_Z 12
_cell_length_a 11.352615
_cell_length_b 5.040892
_cell_length_c 9.220585
_cell_angle_alpha 77.206502
_cell_angle_beta 87.056266
_cell_angle_gamma 104.450722
_cell_volume 495.104036
_symmetry_space_group_name_H-M "P -1"
_symmetry_group_IT_number 2
_symmetry_cell_setting 'triclinic'
loop_
_space_group_symop_operation_xyz
x,y,z
-x,-y,-z
loop_
_atom_site_type_symbol
_atom_site_label
_atom_site_fract_x
_atom_site_fract_y
_atom_site_fract_z
Si Si1 0.495105 0.493530 0.673623
Si Si2 0.145238 0.552305 0.601825
Si Si3 0.348270 0.875506 0.760402
Si Si4 0.414854 0.682024 0.048440
Si Si5 0.035853 0.902854 0.164634
Si Si6 0.109084 0.392390 0.317365
O O1 0.500000 0.500000 0.500000
O O2 0.463535 0.773472 0.701530
O O3 0.604483 0.433072 0.772677
O O4 0.384762 0.209266 0.744283
O O5 0.247919 0.767287 0.658923
O O6 0.090737 0.262778 0.728460
O O7 0.029092 0.686323 0.593088
O O8 0.888353 0.853929 0.763012
O O9 0.314065 0.699703 0.933795
O O10 0.500000 0.500000 0.000000
O O11 0.500000 0.000000 0.000000
O O12 0.815314 0.518839 0.551097
O O13 0.109803 0.666072 0.187590
O O14 0.000000 0.000000 0.000000
#
# Coordination Sequence:
#
# PCOD9083357 Si02
#       6
#     2   2   2   2   2   2
#     4  10  20  35  55  76 107 134 170 218 276 306
#     4   9  21  33  56  78 107 139 190 206 258 310
#     4  10  20  33  56  78 100 140 178 216 246 324
#     4   8  16  32  50  71  96 132 165 202 261 310
#     4  10  19  34  55  75 104 144 177 212 268 305
#     4   9  20  34  54  75 110 146 174 212 262 315
#
# _framework density 24.237331000000001
#
# number of rings (size 3 to 8) (size 9 to 14) (size 15 to 20)
#    1.000    1.667    0.000    1.500    2.333    0.000 
#    0.000    3.333    0.000    0.000    0.000    0.000 
#    0.000    0.000    0.000    0.000    0.000    0.000 
#
# Total GULP energy -66900.504490 kJ/mol
# GULP energy per Si atom -5575.042041 kJ/mol
# Density = 2.418217 g / cm^3
# Si number density = 24.237331 Si / 1000 Ang^3
#
#
#
# Elastic Constant Matrix: (Units=GPa)
#
#
# Indices 1 2 3 4 5 6 
#
# 1 19.0667 4.4736 18.6691 -1.2469 -9.7667 -4.7575
# 2 4.4736 118.0736 -7.5756 7.1120 2.2599 -16.1205
# 3 18.6691 -7.5756 153.3270 8.1658 2.5647 9.9579
# 4 -1.2469 7.1120 8.1658 35.7433 0.5633 15.1714
# 5 -9.7667 2.2599 2.5647 0.5633 28.7754 13.5137
# 6 -4.7575 -16.1205 9.9579 15.1714 13.5137 23.3408
#
#
#
# Elastic Compliance Matrix: (Units=1/GPa)
#
#
# Indices 1 2 3 4 5 6 
#
# 1 0.078865 -0.005866 -0.010402 0.009086 0.031617 -0.007751
# 2 -0.005866 0.013112 0.000719 -0.013061 -0.014234 0.024285
# 3 -0.010402 0.000719 0.008103 -0.001275 -0.003141 -0.002433
# 4 0.009086 -0.013061 -0.001275 0.057288 0.032552 -0.062709
# 5 0.031617 -0.014234 -0.003141 0.032552 0.078480 -0.068643
# 6 -0.007751 0.024285 -0.002433 -0.062709 -0.068643 0.139577
#
#
# Mechanical properties :
#
#
# Convention : Reuss Voigt Hill
#
# Bulk Modulus (GPa) = 14.49674 35.73351 25.11512
# Shear Modulus (GPa) = 11.64099 35.89860 23.76979
#
# Velocity S-wave (km/s) = 2.19393 3.85272 3.13503
# Velocity P-wave (km/s) = 3.52306 5.87932 4.84656
#
# Compressibility (1/GPa) = 0.06898101
#
# Stress axis : x y z
#
# Youngs Moduli (GPa) = 12.67996 76.26360 123.41864
#
# Poissons Ratio (x) = 0.44737 1.28378
# Poissons Ratio (y) = 0.07438 -0.08869
# Poissons Ratio (z) = 0.13189 -0.05480
#
# Static dielectric constant tensor:
#      x y z
#    x 2.047800 0.040060 -0.001960 
#    y 0.040060 1.890050 0.025110 
#    z -0.001960 0.025110 2.062340 
# 
# From -- ./inp_files/321175.got.cif
#   From: 2010.05.17/outbox.cif.g08.bks.cpg/sg2_161_cif.got.tgz:321175.got - 2010.06.03 11:33:40.
