data_PCOD9083905
_publ_section_title
;
Structure prediction by ZEFSAII (Michael W. Deem and Ramdas Pophale) SiO2 
 PCOD9083905
Probable space group: P -1
;
_chemical_formula_sum "Si O2"
_cell_formula_units_Z 16
_cell_length_a 7.600824
_cell_length_b 19.553613
_cell_length_c 7.529844
_cell_angle_alpha 70.937942
_cell_angle_beta 134.626516
_cell_angle_gamma 130.532522
_cell_volume 587.624579
_symmetry_space_group_name_H-M "P -1"
_symmetry_group_IT_number 2
_symmetry_cell_setting 'triclinic'
loop_
_space_group_symop_operation_xyz
x,y,z
-x,-y,-z
loop_
_atom_site_type_symbol
_atom_site_label
_atom_site_fract_x
_atom_site_fract_y
_atom_site_fract_z
Si Si1 0.478212 0.290955 0.453020
Si Si2 0.935043 0.214520 0.774167
Si Si3 0.115006 0.718682 0.983457
Si Si4 0.561553 0.569827 0.141325
Si Si5 0.930523 0.426655 0.364097
Si Si6 0.464153 0.930777 0.676164
Si Si7 0.662719 0.834914 0.028948
Si Si8 0.976342 0.909093 0.563255
O O1 0.675539 0.333408 0.375378
O O2 0.240018 0.178302 0.385900
O O3 0.247731 0.320238 0.277765
O O4 0.742965 0.325377 0.769292
O O5 0.170845 0.324646 0.820742
O O6 0.708301 0.161676 0.491558
O O7 0.151505 0.183975 0.948913
O O8 0.779073 0.200199 0.866433
O O9 0.300037 0.754252 0.898806
O O10 0.743106 0.558983 0.435822
O O11 0.500000 0.500000 0.000000
O O12 0.247627 0.563419 0.930367
O O13 0.000000 0.500000 0.500000
O O14 0.728327 0.928570 0.945806
O O15 0.319615 0.938358 0.746255
O O16 0.500000 0.000000 0.500000
O O17 0.828410 0.854845 0.318387
O O18 0.000000 0.000000 0.500000
#
# Coordination Sequence:
#
# PCOD9083905 Si02
#       8
#     2   2   2   2   2   2   2   2
#     4  11  20  39  63  99 127 175 227 277 337 411
#     4  11  24  41  69  98 132 187 225 294 350 419
#     4  11  23  40  70  94 132 182 231 277 342 414
#     4  10  21  37  62 101 133 172 229 282 344 419
#     4  10  19  34  59 102 135 163 225 285 338 414
#     4  11  26  42  62 100 138 176 237 297 346 420
#     4  10  25  45  61  98 138 180 238 288 349 419
#     4  10  24  41  64  92 131 186 232 288 346 412
#
# _framework density 27.228266000000001
#
# number of rings (size 3 to 8) (size 9 to 14) (size 15 to 20)
#    0.000    1.500    3.750    0.000    7.000    3.500 
#    0.000    0.000    0.000    0.750    0.000   18.375 
#    0.000    0.000    0.000    0.000    0.000    0.000 
#
# Total GULP energy -89160.511156 kJ/mol
# GULP energy per Si atom -5572.531947 kJ/mol
# Density = 2.716629 g / cm^3
# Si number density = 27.228266 Si / 1000 Ang^3
#
#
#
# Elastic Constant Matrix: (Units=GPa)
#
#
# Indices 1 2 3 4 5 6 
#
# 1 118.7784 11.6146 38.3629 -16.2984 12.9250 2.8767
# 2 11.6146 68.6749 -35.0638 -10.1448 -11.2806 2.6957
# 3 38.3629 -35.0638 169.9665 -36.3920 38.1737 3.7758
# 4 -16.2984 -10.1448 -36.3920 30.7223 -13.5059 3.5069
# 5 12.9250 -11.2806 38.1737 -13.5059 57.0170 -5.5294
# 6 2.8767 2.6957 3.7758 3.5069 -5.5294 23.1585
#
#
#
# Elastic Compliance Matrix: (Units=1/GPa)
#
#
# Indices 1 2 3 4 5 6 
#
# 1 0.009716 -0.002728 -0.002229 0.001265 -0.001044 -0.000967
# 2 -0.002728 0.022975 0.008753 0.018550 0.003133 -0.005824
# 3 -0.002229 0.008753 0.012329 0.015720 -0.002858 -0.005815
# 4 0.001265 0.018550 0.015720 0.062220 0.006358 -0.012783
# 5 -0.001044 0.003133 -0.002858 0.006358 0.022259 0.004583
# 6 -0.000967 -0.005824 -0.005815 -0.012783 0.004583 0.047957
#
#
# Mechanical properties :
#
#
# Convention : Reuss Voigt Hill
#
# Bulk Modulus (GPa) = 19.00709 43.02746 31.01727
# Shear Modulus (GPa) = 26.68051 45.01330 35.84691
#
# Velocity S-wave (km/s) = 3.13370 4.07035 3.63234
# Velocity P-wave (km/s) = 4.48211 6.15850 5.38592
#
# Compressibility (1/GPa) = 0.05261196
#
# Stress axis : x y z
#
# Youngs Moduli (GPa) = 102.91963 43.52521 81.10841
#
# Poissons Ratio (x) = 0.11874 0.18080
# Poissons Ratio (y) = 0.28078 -0.70994
# Poissons Ratio (z) = 0.22942 -0.38097
#
# Static dielectric constant tensor:
#      x y z
#    x 2.439880 0.159640 0.050310 
#    y 0.159640 2.309320 0.079540 
#    z 0.050310 0.079540 2.316160 
# 
# From -- ./inp_files/223525.got.cif
#   From: 2010.05.17/outbox.cif.g08.bks.cpg/sg2_112_cif.got.tgz:223525.got - 2010.06.03 11:33:40.
