data_PCOD9083206
_publ_section_title
;
Structure prediction by ZEFSAII (Michael W. Deem and Ramdas Pophale) SiO2 
 PCOD9083206
Probable space group: P -1
;
_chemical_formula_sum "Si O2"
_cell_formula_units_Z 10
_cell_length_a 10.640861
_cell_length_b 7.320556
_cell_length_c 6.572511
_cell_angle_alpha 106.568915
_cell_angle_beta 116.907225
_cell_angle_gamma 75.428644
_cell_volume 433.074957
_symmetry_space_group_name_H-M "P -1"
_symmetry_group_IT_number 2
_symmetry_cell_setting 'triclinic'
loop_
_space_group_symop_operation_xyz
x,y,z
-x,-y,-z
loop_
_atom_site_type_symbol
_atom_site_label
_atom_site_fract_x
_atom_site_fract_y
_atom_site_fract_z
Si Si1 0.104575 0.398703 0.827864
Si Si2 0.691840 0.325250 0.034696
Si Si3 0.050214 0.000442 0.772137
Si Si4 0.437195 0.395221 0.608391
Si Si5 0.147723 0.274747 0.348298
O O1 0.310805 0.278662 0.412924
O O2 0.138924 0.321547 0.600073
O O3 0.955138 0.538676 0.753716
O O4 0.226832 0.530597 0.995975
O O5 0.564356 0.269843 0.786986
O O6 0.812064 0.156836 0.142314
O O7 0.627880 0.441259 0.223979
O O8 0.920548 0.923536 0.773765
O O9 0.000000 0.000000 0.500000
O O10 0.092179 0.212963 0.895039
O O11 0.500000 0.500000 0.500000
#
# Coordination Sequence:
#
# PCOD9083206 Si02
#       5
#     2   2   2   2   2
#     4   8  14  29  53  75  97 128 168 214 250 285
#     4   9  19  34  54  78  98 131 176 201 246 312
#     4   9  15  29  56  78  97 131 169 212 254 287
#     4  10  19  34  53  73 106 139 162 205 254 295
#     4   8  15  28  49  75  98 129 172 203 245 305
#
# _framework density 23.090689999999999
#
# number of rings (size 3 to 8) (size 9 to 14) (size 15 to 20)
#    0.000    3.200    0.000    3.600    0.000    0.000 
#    0.000   22.000    0.000   36.000    0.000    0.000 
#    0.000    0.000    0.000    0.000    0.000    0.000 
#
# Total GULP energy -55892.182603 kJ/mol
# GULP energy per Si atom -5589.218260 kJ/mol
# Density = 2.303813 g / cm^3
# Si number density = 23.090690 Si / 1000 Ang^3
#
#
#
# Elastic Constant Matrix: (Units=GPa)
#
#
# Indices 1 2 3 4 5 6 
#
# 1 178.9518 76.0159 60.8242 -19.4708 25.4194 29.8854
# 2 76.0159 118.6962 34.7453 -25.9568 9.4569 33.9410
# 3 60.8242 34.7453 65.8395 -17.1514 19.3710 6.4683
# 4 -19.4708 -25.9568 -17.1514 40.3241 5.0271 -1.2192
# 5 25.4194 9.4569 19.3710 5.0271 54.9092 -0.7406
# 6 29.8854 33.9410 6.4683 -1.2192 -0.7406 38.5695
#
#
#
# Elastic Compliance Matrix: (Units=1/GPa)
#
#
# Indices 1 2 3 4 5 6 
#
# 1 0.010194 -0.003274 -0.006753 0.000052 -0.001831 -0.003919
# 2 -0.003274 0.016062 -0.001913 0.007789 -0.001438 -0.011058
# 3 -0.006753 -0.001913 0.025979 0.007431 -0.006354 0.002672
# 4 0.000052 0.007789 0.007431 0.033674 -0.007168 -0.007215
# 5 -0.001831 -0.001438 -0.006354 -0.007168 0.022258 0.003950
# 6 -0.003919 -0.011058 0.002672 -0.007215 0.003950 0.038094
#
#
# Mechanical properties :
#
#
# Convention : Reuss Voigt Hill
#
# Bulk Modulus (GPa) = 35.26648 78.51762 56.89205
# Shear Modulus (GPa) = 27.84088 39.55404 33.69746
#
# Velocity S-wave (km/s) = 3.47611 4.14331 3.82429
# Velocity P-wave (km/s) = 5.60512 7.54766 6.64773
#
# Compressibility (1/GPa) = 0.02835554
#
# Stress axis : x y z
#
# Youngs Moduli (GPa) = 98.09474 62.26066 38.49309
#
# Poissons Ratio (x) = 0.20384 0.25993
# Poissons Ratio (y) = 0.32117 0.07363
# Poissons Ratio (z) = 0.66239 0.11910
#
# Static dielectric constant tensor:
#      x y z
#    x 1.860110 0.028510 -0.019740 
#    y 0.028510 1.815360 0.039030 
#    z -0.019740 0.039030 1.982850 
# 
# From -- ./inp_files/25751.got.cif
#   From: 2010.05.17/outbox.cif.g08.bks.cpg/sg2_13_cif.got.tgz:25751.got - 2010.06.03 11:33:40.
