data_PCOD9083823
_publ_section_title
;
Structure prediction by ZEFSAII (Michael W. Deem and Ramdas Pophale) SiO2 
 PCOD9083823
Probable space group: P -1
;
_chemical_formula_sum "Si O2"
_cell_formula_units_Z 14
_cell_length_a 8.894716
_cell_length_b 6.953425
_cell_length_c 15.413069
_cell_angle_alpha 69.591158
_cell_angle_beta 140.578572
_cell_angle_gamma 90.889295
_cell_volume 513.150489
_symmetry_space_group_name_H-M "P -1"
_symmetry_group_IT_number 2
_symmetry_cell_setting 'triclinic'
loop_
_space_group_symop_operation_xyz
x,y,z
-x,-y,-z
loop_
_atom_site_type_symbol
_atom_site_label
_atom_site_fract_x
_atom_site_fract_y
_atom_site_fract_z
Si Si1 0.322758 0.196031 0.622012
Si Si2 0.351564 0.420474 0.874764
Si Si3 0.279160 0.828053 0.078752
Si Si4 0.787631 0.675621 0.622115
Si Si5 0.823396 0.267890 0.487129
Si Si6 0.759199 0.577537 0.813661
Si Si7 0.017266 0.819708 0.238078
O O1 0.564282 0.059802 0.814804
O O2 0.397888 0.164781 0.558843
O O3 0.236300 0.468869 0.558084
O O4 0.073204 0.168348 0.552371
O O5 0.521023 0.342588 0.876275
O O6 0.251604 0.222180 0.877674
O O7 0.067289 0.629284 0.711582
O O8 0.500000 0.500000 0.000000
O O9 0.218839 0.677884 0.146106
O O10 0.041713 0.988497 0.888754
O O11 0.796427 0.698872 0.724833
O O12 0.774880 0.432765 0.651097
O O13 0.550969 0.281566 0.326128
O O14 0.907297 0.138678 0.637780
O O15 0.000000 0.500000 0.000000
#
# Coordination Sequence:
#
# PCOD9083823 Si02
#       7
#     2   2   2   2   2   2   2
#     4   9  16  32  56  89 100 146 194 242 265 333
#     4  10  19  34  58  85 117 149 186 236 280 339
#     4  11  20  35  63  85 116 147 196 235 283 335
#     4   9  20  34  53  83 113 143 197 229 281 332
#     4   9  17  33  57  81 112 147 194 230 279 343
#     4  11  23  37  55  85 113 155 191 234 289 347
#     4   9  20  35  59  90 112 147 192 240 284 325
#
# _framework density 27.282444999999999
#
# number of rings (size 3 to 8) (size 9 to 14) (size 15 to 20)
#    0.857    1.429    1.429    3.000    0.000    5.714 
#    0.000    0.714    0.000    2.571    0.000    0.000 
#    0.000    0.000    0.000    0.000    0.000    0.000 
#
# Total GULP energy -78087.719583 kJ/mol
# GULP energy per Si atom -5577.694256 kJ/mol
# Density = 2.722035 g / cm^3
# Si number density = 27.282445 Si / 1000 Ang^3
#
#
#
# Elastic Constant Matrix: (Units=GPa)
#
#
# Indices 1 2 3 4 5 6 
#
# 1 119.6516 23.0581 95.4886 5.7505 -12.5239 -9.5469
# 2 23.0581 69.7727 31.8421 -2.2564 1.3806 2.4245
# 3 95.4886 31.8421 250.7551 18.0374 -21.6355 12.0784
# 4 5.7505 -2.2564 18.0374 44.7517 10.6794 -3.1806
# 5 -12.5239 1.3806 -21.6355 10.6794 53.4702 0.7231
# 6 -9.5469 2.4245 12.0784 -3.1806 0.7231 17.5468
#
#
#
# Elastic Compliance Matrix: (Units=1/GPa)
#
#
# Indices 1 2 3 4 5 6 
#
# 1 0.014499 -0.002553 -0.005807 0.001055 0.000734 0.012400
# 2 -0.002553 0.015919 -0.001235 0.001907 -0.001858 -0.002316
# 3 -0.005807 -0.001235 0.007227 -0.003418 0.002396 -0.008682
# 4 0.001055 0.001907 -0.003418 0.025759 -0.006432 0.007597
# 5 0.000734 -0.001858 0.002396 -0.006432 0.021217 -0.003033
# 6 0.012400 -0.002316 -0.008682 0.007597 -0.003033 0.071535
#
#
# Mechanical properties :
#
#
# Convention : Reuss Voigt Hill
#
# Bulk Modulus (GPa) = 54.18723 82.32853 68.25788
# Shear Modulus (GPa) = 27.54854 42.47313 35.01084
#
# Velocity S-wave (km/s) = 3.18111 3.94990 3.58617
# Velocity P-wave (km/s) = 5.77904 7.14452 6.49775
#
# Compressibility (1/GPa) = 0.01845453
#
# Stress axis : x y z
#
# Youngs Moduli (GPa) = 68.96820 62.81971 138.37099
#
# Poissons Ratio (x) = 0.16037 0.80354
# Poissons Ratio (y) = 0.17606 0.17093
# Poissons Ratio (z) = 0.40051 0.07760
#
# Static dielectric constant tensor:
#      x y z
#    x 2.118250 -0.015460 0.056900 
#    y -0.015460 2.259060 0.099800 
#    z 0.056900 0.099800 2.236610 
# 
# From -- ./inp_files/497813.got.cif
#   From: 2010.05.17/outbox.cif.g08.bks.cpg/sg2_249_cif.got.tgz:497813.got - 2010.06.03 11:33:40.
