data_PCOD9083371
_publ_section_title
;
Structure prediction by ZEFSAII (Michael W. Deem and Ramdas Pophale) SiO2 
 PCOD9083371
Probable space group: P -1
;
_chemical_formula_sum "Si O2"
_cell_formula_units_Z 14
_cell_length_a 22.218923
_cell_length_b 6.348227
_cell_length_c 19.102128
_cell_angle_alpha 93.625941
_cell_angle_beta 11.169114
_cell_angle_gamma 93.094310
_cell_volume 520.416090
_symmetry_space_group_name_H-M "P -1"
_symmetry_group_IT_number 2
_symmetry_cell_setting 'triclinic'
loop_
_space_group_symop_operation_xyz
x,y,z
-x,-y,-z
loop_
_atom_site_type_symbol
_atom_site_label
_atom_site_fract_x
_atom_site_fract_y
_atom_site_fract_z
Si Si1 0.746987 0.266041 0.284893
Si Si2 0.721891 0.342186 0.517462
Si Si3 0.555642 0.098575 0.822835
Si Si4 0.646721 0.437008 0.179645
Si Si5 0.174373 0.856351 0.143982
Si Si6 0.193409 0.375097 0.335330
Si Si7 0.113907 0.040113 0.985244
O O1 0.600446 0.497622 0.475460
O O2 0.874095 0.198735 0.061894
O O3 0.450166 0.116000 0.625506
O O4 0.993437 0.185449 0.060025
O O5 0.567714 0.310805 0.766919
O O6 0.482799 0.411191 0.731915
O O7 0.009185 0.495183 0.192195
O O8 0.874109 0.111447 0.319530
O O9 0.905470 0.036756 0.444780
O O10 0.317176 0.149499 0.158289
O O11 0.417820 0.922824 0.925921
O O12 0.676619 0.212355 0.102115
O O13 0.994858 0.664440 0.379943
O O14 0.000000 0.500000 0.500000
O O15 0.500000 0.500000 0.000000
#
# Coordination Sequence:
#
# PCOD9083371 Si02
#       7
#     2   2   2   2   2   2   2
#     4   8  14  25  45  73 101 130 172 224 264 296
#     4  10  19  34  55  79 106 141 184 222 260 312
#     4  12  24  39  57  82 114 143 173 215 271 321
#     4  10  19  34  55  79 106 141 184 222 260 312
#     4  12  24  39  57  82 114 143 173 215 271 321
#     4  12  24  42  64  84 106 138 182 222 260 312
#     4   8  14  25  45  73 101 130 172 224 264 296
#
# _framework density 26.901551999999999
#
# number of rings (size 3 to 8) (size 9 to 14) (size 15 to 20)
#    0.000    1.714    0.000    6.000    0.000    0.000 
#    0.000    0.000    0.000    1.714    0.000    0.000 
#    0.000    0.000    0.000    0.000    0.000    0.000 
#
# Total GULP energy -78432.743566 kJ/mol
# GULP energy per Si atom -5602.338826 kJ/mol
# Density = 2.684032 g / cm^3
# Si number density = 26.901552 Si / 1000 Ang^3
#
#
#
# Elastic Constant Matrix: (Units=GPa)
#
#
# Indices 1 2 3 4 5 6 
#
# 1 81.2412 29.5063 35.8252 1.1359 -5.3325 2.9313
# 2 29.5063 77.8253 33.6302 10.4854 10.0635 25.5160
# 3 35.8252 33.6302 98.9735 8.9078 -8.7824 2.0990
# 4 1.1359 10.4854 8.9078 63.9464 15.6210 7.0517
# 5 -5.3325 10.0635 -8.7824 15.6210 47.8795 15.7957
# 6 2.9313 25.5160 2.0990 7.0517 15.7957 60.8290
#
#
#
# Elastic Compliance Matrix: (Units=1/GPa)
#
#
# Indices 1 2 3 4 5 6 
#
# 1 0.015924 -0.004883 -0.004041 0.000597 0.001551 0.000948
# 2 -0.004883 0.019619 -0.004930 -0.000952 -0.002971 -0.006943
# 3 -0.004041 -0.004930 0.013694 -0.001976 0.003365 0.001145
# 4 0.000597 -0.000952 -0.001976 0.017478 -0.005768 -0.000089
# 5 0.001551 -0.002971 0.003365 -0.005768 0.025826 -0.004982
# 6 0.000948 -0.006943 0.001145 -0.000089 -0.004982 0.020571
#
#
# Mechanical properties :
#
#
# Convention : Reuss Voigt Hill
#
# Bulk Modulus (GPa) = 46.44790 50.66259 48.55525
# Shear Modulus (GPa) = 33.78508 45.13623 39.46065
#
# Velocity S-wave (km/s) = 3.54768 4.10058 3.83411
# Velocity P-wave (km/s) = 5.83822 6.42597 6.13913
#
# Compressibility (1/GPa) = 0.02152950
#
# Stress axis : x y z
#
# Youngs Moduli (GPa) = 62.79971 50.96979 73.02733
#
# Poissons Ratio (x) = 0.24888 0.29510
# Poissons Ratio (y) = 0.30665 0.36000
# Poissons Ratio (z) = 0.25377 0.25126
#
# Static dielectric constant tensor:
#      x y z
#    x 2.017390 0.079790 0.014930 
#    y 0.079790 2.155490 0.071540 
#    z 0.014930 0.071540 2.034670 
# 
# From -- ./inp_files/9397.got.cif
#   From: 2010.05.17/outbox.cif.g08.bks.cpg/sg2_5_cif.got.tgz:9397.got - 2010.06.03 11:33:40.
