data_PCOD9083001
_publ_section_title
;
Structure prediction by ZEFSAII (Michael W. Deem and Ramdas Pophale) SiO2 
 PCOD9083001
Probable space group: P -1
;
_chemical_formula_sum "Si O2"
_cell_formula_units_Z 16
_cell_length_a 19.959557
_cell_length_b 5.887583
_cell_length_c 8.156449
_cell_angle_alpha 90.327169
_cell_angle_beta 101.592840
_cell_angle_gamma 126.070810
_cell_volume 749.567277
_symmetry_space_group_name_H-M "P -1"
_symmetry_group_IT_number 2
_symmetry_cell_setting 'triclinic'
loop_
_space_group_symop_operation_xyz
x,y,z
-x,-y,-z
loop_
_atom_site_type_symbol
_atom_site_label
_atom_site_fract_x
_atom_site_fract_y
_atom_site_fract_z
Si Si1 0.188643 0.377287 0.594322
Si Si2 0.414796 0.440753 0.385966
Si Si3 0.657510 0.315020 0.828755
Si Si4 0.585204 0.781570 0.971170
Si Si5 0.744680 0.147080 0.627194
Si Si6 0.744680 0.831641 0.117486
Si Si7 0.904078 0.188136 0.631132
Si Si8 0.095922 0.571823 0.727053
O O1 0.243428 0.670237 0.524187
O O2 0.243428 0.303475 0.719241
O O3 0.130495 0.390669 0.699791
O O4 0.130495 0.131313 0.430704
O O5 0.500000 0.500000 0.500000
O O6 0.401504 0.679467 0.337815
O O7 0.410138 0.320276 0.205069
O O8 0.331558 0.184665 0.438800
O O9 0.717024 0.251908 0.765014
O O10 0.598496 0.073449 0.936311
O O11 0.717024 0.616186 0.952010
O O12 0.500000 0.500000 0.000000
O O13 0.668442 0.858432 0.107242
O O14 0.832738 0.185446 0.694596
O O15 0.832738 0.145505 0.138142
O O16 0.907675 0.315350 0.453838
O O17 0.000000 0.379119 0.747659
#
# Coordination Sequence:
#
# PCOD9083001 Si02
#       8
#     2   2   2   2   2   2   2   2
#     4  10  19  33  60  88 119 156 193 243 297 342
#     4  10  23  39  59  85 115 151 195 240 287 349
#     4  10  22  41  59  82 121 160 188 235 298 346
#     4  10  23  39  59  85 115 151 195 240 287 349
#     4  10  21  37  58  86 119 155 196 241 290 350
#     4  10  21  37  58  86 119 155 196 241 290 350
#     4   9  18  33  55  86 119 153 197 244 289 343
#     4   9  18  33  55  86 119 153 197 244 289 343
#
# _framework density 21.345649999999999
#
# number of rings (size 3 to 8) (size 9 to 14) (size 15 to 20)
#    0.000    2.250    0.000    1.875    0.000   11.000 
#    0.000    0.625    0.000   14.250    0.000    0.000 
#    0.000    0.000    0.000    0.000    0.000    0.000 
#
# Total GULP energy -89258.097025 kJ/mol
# GULP energy per Si atom -5578.631064 kJ/mol
# Density = 2.129707 g / cm^3
# Si number density = 21.345650 Si / 1000 Ang^3
#
#
#
# Elastic Constant Matrix: (Units=GPa)
#
#
# Indices 1 2 3 4 5 6 
#
# 1 126.3739 96.0783 45.7280 0.5563 19.5684 20.3468
# 2 96.0783 127.0105 42.6446 -7.6499 26.0264 10.0209
# 3 45.7280 42.6446 50.9799 5.5885 13.9109 9.9077
# 4 0.5563 -7.6499 5.5885 28.6203 -6.2378 -0.7998
# 5 19.5684 26.0264 13.9109 -6.2378 34.0755 6.6993
# 6 20.3468 10.0209 9.9077 -0.7998 6.6993 35.1537
#
#
#
# Elastic Compliance Matrix: (Units=1/GPa)
#
#
# Indices 1 2 3 4 5 6 
#
# 1 0.022355 -0.014713 -0.006547 -0.002860 0.001994 -0.007344
# 2 -0.014713 0.021935 -0.005108 0.005954 -0.006113 0.005003
# 3 -0.006547 -0.005108 0.033296 -0.009361 -0.007054 -0.003007
# 4 -0.002860 0.005954 -0.009361 0.040188 0.007878 0.002009
# 5 0.001994 -0.006113 -0.007054 0.007878 0.038077 -0.004500
# 6 -0.007344 0.005003 -0.003007 0.002009 -0.004500 0.033022
#
#
# Mechanical properties :
#
#
# Convention : Reuss Voigt Hill
#
# Bulk Modulus (GPa) = 40.24293 74.80734 57.52513
# Shear Modulus (GPa) = 20.00852 27.56412 23.78632
#
# Velocity S-wave (km/s) = 3.06495 3.59740 3.34180
# Velocity P-wave (km/s) = 5.60528 7.23718 6.47287
#
# Compressibility (1/GPa) = 0.02484909
#
# Stress axis : x y z
#
# Youngs Moduli (GPa) = 44.73347 45.58933 30.03321
#
# Poissons Ratio (x) = 0.67078 0.19663
# Poissons Ratio (y) = 0.65818 0.15341
# Poissons Ratio (z) = 0.29288 0.23287
#
# Static dielectric constant tensor:
#      x y z
#    x 1.856080 -0.031120 0.033140 
#    y -0.031120 1.894800 -0.024430 
#    z 0.033140 -0.024430 1.798540 
# 
# From -- ./inp_files/76215.got.cif
#   From: 2010.05.17/outbox.cif.g08.bks.cpg/sg2_39_cif.got.tgz:76215.got - 2010.06.03 11:33:40.
