data_PCOD9083918
_publ_section_title
;
Structure prediction by ZEFSAII (Michael W. Deem and Ramdas Pophale) SiO2 
 PCOD9083918
Probable space group: P -1
;
_chemical_formula_sum "Si O2"
_cell_formula_units_Z 16
_cell_length_a 7.077382
_cell_length_b 7.722484
_cell_length_c 17.095667
_cell_angle_alpha 135.214857
_cell_angle_beta 72.623794
_cell_angle_gamma 97.828935
_cell_volume 624.174513
_symmetry_space_group_name_H-M "P -1"
_symmetry_group_IT_number 2
_symmetry_cell_setting 'triclinic'
loop_
_space_group_symop_operation_xyz
x,y,z
-x,-y,-z
loop_
_atom_site_type_symbol
_atom_site_label
_atom_site_fract_x
_atom_site_fract_y
_atom_site_fract_z
Si Si1 0.726585 0.031552 0.227897
Si Si2 0.876477 0.078954 0.752214
Si Si3 0.060575 0.712505 0.503532
Si Si4 0.979860 0.285558 0.148926
Si Si5 0.632855 0.622509 0.325768
Si Si6 0.848386 0.602392 0.984190
Si Si7 0.477240 0.852990 0.562324
Si Si8 0.268756 0.332215 0.252380
O O1 0.833221 0.186899 0.200230
O O2 0.551192 0.162579 0.346168
O O3 0.682580 0.785772 0.108163
O O4 0.905790 0.957779 0.244046
O O5 0.756748 0.893953 0.758800
O O6 0.911344 0.956334 0.621970
O O7 0.792193 0.364587 0.867183
O O8 0.279009 0.766761 0.520625
O O9 0.108134 0.568178 0.370914
O O10 0.000000 0.500000 0.500000
O O11 0.851736 0.555129 0.242785
O O12 0.030178 0.228098 0.033869
O O13 0.195860 0.260036 0.153687
O O14 0.643839 0.692361 0.439191
O O15 0.485845 0.416671 0.259513
O O16 0.528517 0.863568 0.371163
O O17 0.000000 0.500000 0.000000
#
# Coordination Sequence:
#
# PCOD9083918 Si02
#       8
#     2   2   2   2   2   2   2   2
#     4   9  18  33  56  82 112 148 190 236 274 324
#     4   8  15  30  53  78 107 147 189 223 274 336
#     4   8  13  27  51  76 107 144 177 218 272 326
#     4  11  21  35  59  88 110 143 192 230 280 339
#     4  10  20  36  58  84 119 150 179 228 282 335
#     4  10  19  34  59  82 108 150 191 232 281 330
#     4   9  18  35  55  82 117 152 186 223 277 337
#     4   9  19  34  54  83 115 145 181 231 279 329
#
# _framework density 25.633855000000001
#
# number of rings (size 3 to 8) (size 9 to 14) (size 15 to 20)
#    0.000    2.750    0.000    3.375    0.000    0.500 
#    0.000   11.250    0.000   22.500    0.000    0.000 
#    0.000    0.000    0.000    0.000    0.000    0.000 
#
# Total GULP energy -89273.654686 kJ/mol
# GULP energy per Si atom -5579.603418 kJ/mol
# Density = 2.557551 g / cm^3
# Si number density = 25.633855 Si / 1000 Ang^3
#
#
#
# Elastic Constant Matrix: (Units=GPa)
#
#
# Indices 1 2 3 4 5 6 
#
# 1 70.8952 6.2703 1.6538 -6.9815 0.4987 7.4100
# 2 6.2703 103.0277 3.5334 -16.4609 9.1038 10.0048
# 3 1.6538 3.5334 83.1882 -22.0404 -4.8567 6.3254
# 4 -6.9815 -16.4609 -22.0404 46.0306 3.2553 10.0833
# 5 0.4987 9.1038 -4.8567 3.2553 18.4074 0.0350
# 6 7.4100 10.0048 6.3254 10.0833 0.0350 27.3450
#
#
#
# Elastic Compliance Matrix: (Units=1/GPa)
#
#
# Indices 1 2 3 4 5 6 
#
# 1 0.015139 0.000457 0.001287 0.004518 -0.001084 -0.006232
# 2 0.000457 0.012145 0.001597 0.007336 -0.006880 -0.007633
# 3 0.001287 0.001597 0.015193 0.009694 0.001484 -0.008024
# 4 0.004518 0.007336 0.009694 0.034302 -0.007223 -0.018790
# 5 -0.001084 -0.006880 0.001484 -0.007223 0.059418 0.005055
# 6 -0.006232 -0.007633 -0.008024 -0.018790 0.005055 0.049830
#
#
# Mechanical properties :
#
#
# Convention : Reuss Voigt Hill
#
# Bulk Modulus (GPa) = 20.34188 31.11402 25.72795
# Shear Modulus (GPa) = 25.54566 34.73350 30.13958
#
# Velocity S-wave (km/s) = 3.16026 3.68501 3.43267
# Velocity P-wave (km/s) = 4.61184 5.50181 5.07637
#
# Compressibility (1/GPa) = 0.04915967
#
# Stress axis : x y z
#
# Youngs Moduli (GPa) = 66.05580 82.33984 65.82152
#
# Poissons Ratio (x) = -0.03765 -0.08472
# Poissons Ratio (y) = -0.03020 -0.10514
# Poissons Ratio (z) = -0.08502 -0.13153
#
# Static dielectric constant tensor:
#      x y z
#    x 2.489700 -1.268550 0.117530 
#    y -1.268550 5.004110 -0.156290 
#    z 0.117530 -0.156290 2.217650 
# 
# From -- ./inp_files/306734.got.cif
#   From: 2010.05.17/outbox.cif.g08.bks.cpg/sg2_154_cif.got.tgz:306734.got - 2010.06.03 11:33:40.
