data_PCOD9083664
_publ_section_title
;
Structure prediction by ZEFSAII (Michael W. Deem and Ramdas Pophale) SiO2 
 PCOD9083664
Probable space group: P -1
;
_chemical_formula_sum "Si O2"
_cell_formula_units_Z 16
_cell_length_a 17.927218
_cell_length_b 7.215850
_cell_length_c 8.419803
_cell_angle_alpha 67.701276
_cell_angle_beta 56.989933
_cell_angle_gamma 52.751849
_cell_volume 725.040391
_symmetry_space_group_name_H-M "P -1"
_symmetry_group_IT_number 2
_symmetry_cell_setting 'triclinic'
loop_
_space_group_symop_operation_xyz
x,y,z
-x,-y,-z
loop_
_atom_site_type_symbol
_atom_site_label
_atom_site_fract_x
_atom_site_fract_y
_atom_site_fract_z
Si Si1 0.293976 0.388174 0.333616
Si Si2 0.958648 0.819562 0.600748
Si Si3 0.523619 0.094585 0.685453
Si Si4 0.652104 0.560078 0.420817
Si Si5 0.552029 0.345186 0.835918
Si Si6 0.290490 0.871671 0.708876
Si Si7 0.263943 0.875873 0.105167
Si Si8 0.877664 0.705498 0.422178
O O1 0.274949 0.427686 0.534538
O O2 0.273468 0.626361 0.206161
O O3 0.213951 0.319914 0.382125
O O4 0.412187 0.175460 0.255275
O O5 0.853133 0.928200 0.787695
O O6 0.929957 0.790060 0.462925
O O7 0.000000 0.000000 0.500000
O O8 0.040898 0.555970 0.644540
O O9 0.424386 0.196008 0.655097
O O10 0.493200 0.255144 0.824351
O O11 0.612089 0.124021 0.483353
O O12 0.584025 0.485710 0.632120
O O13 0.704446 0.358324 0.294653
O O14 0.657061 0.125895 0.855686
O O15 0.500000 0.500000 0.000000
O O16 0.183906 0.094516 0.700748
O O17 0.297843 0.874434 0.887525
#
# Coordination Sequence:
#
# PCOD9083664 Si02
#       8
#     2   2   2   2   2   2   2   2
#     4  10  20  36  58  86 120 159 207 246 299 365
#     4  11  22  41  72  89 119 156 205 249 308 363
#     4  10  19  35  57  84 119 163 210 245 297 361
#     4  10  19  34  57  84 120 168 199 250 305 351
#     4  10  19  34  59  84 117 160 207 244 298 360
#     4  10  21  37  59  86 125 158 204 248 303 363
#     4  11  21  37  59  90 123 163 197 254 307 350
#     4  10  22  41  66  92 115 158 204 246 305 373
#
# _framework density 22.067736
#
# number of rings (size 3 to 8) (size 9 to 14) (size 15 to 20)
#    0.000    1.750    1.250    6.375    0.000    0.500 
#    0.000   12.500    0.000    0.000    0.000    0.000 
#    0.000    0.000    0.000    0.000    0.000    0.000 
#
# Total GULP energy -89432.175196 kJ/mol
# GULP energy per Si atom -5589.510950 kJ/mol
# Density = 2.201751 g / cm^3
# Si number density = 22.067736 Si / 1000 Ang^3
#
#
#
# Elastic Constant Matrix: (Units=GPa)
#
#
# Indices 1 2 3 4 5 6 
#
# 1 91.3424 36.2939 16.0418 -6.2647 13.3996 2.2084
# 2 36.2939 149.3507 36.9679 11.2100 9.7842 -16.3441
# 3 16.0418 36.9679 85.9728 12.4096 14.9134 -7.7224
# 4 -6.2647 11.2100 12.4096 25.9794 -5.7366 8.1996
# 5 13.3996 9.7842 14.9134 -5.7366 17.6704 3.1245
# 6 2.2084 -16.3441 -7.7224 8.1996 3.1245 40.7277
#
#
#
# Elastic Compliance Matrix: (Units=1/GPa)
#
#
# Indices 1 2 3 4 5 6 
#
# 1 0.013706 -0.003392 -0.001160 0.005061 -0.005374 -0.002931
# 2 -0.003392 0.009234 -0.000899 -0.007264 -0.005126 0.005575
# 3 -0.001160 -0.000899 0.019060 -0.016343 -0.021474 0.008254
# 4 0.005061 -0.007264 -0.016343 0.066574 0.039609 -0.022730
# 5 -0.005374 -0.005126 -0.021474 0.039609 0.098263 -0.021350
# 6 -0.002931 0.005575 0.008254 -0.022730 -0.021350 0.034728
#
#
# Mechanical properties :
#
#
# Convention : Reuss Voigt Hill
#
# Bulk Modulus (GPa) = 32.15827 56.14145 44.14986
# Shear Modulus (GPa) = 19.02349 32.69964 25.86157
#
# Velocity S-wave (km/s) = 2.93925 3.85357 3.42704
# Velocity P-wave (km/s) = 5.11108 6.73021 5.97574
#
# Compressibility (1/GPa) = 0.03109620
#
# Stress axis : x y z
#
# Youngs Moduli (GPa) = 72.96196 108.30076 52.46563
#
# Poissons Ratio (x) = 0.36736 0.06088
# Poissons Ratio (y) = 0.24749 0.04717
# Poissons Ratio (z) = 0.08467 0.09738
#
# Static dielectric constant tensor:
#      x y z
#    x 1.843500 0.013250 -0.021870 
#    y 0.013250 1.848610 0.011160 
#    z -0.021870 0.011160 1.803460 
# 
# From -- ./inp_files/351410.got.cif
#   From: 2010.05.17/outbox.cif.g08.bks.cpg/sg2_176_cif.got.tgz:351410.got - 2010.06.03 11:33:40.
