data_PCOD9083636
_publ_section_title
;
Structure prediction by ZEFSAII (Michael W. Deem and Ramdas Pophale) SiO2 
 PCOD9083636
Probable space group: P -1
;
_chemical_formula_sum "Si O2"
_cell_formula_units_Z 14
_cell_length_a 5.563883
_cell_length_b 16.083201
_cell_length_c 18.770297
_cell_angle_alpha 22.717268
_cell_angle_beta 69.775523
_cell_angle_gamma 60.438674
_cell_volume 533.470474
_symmetry_space_group_name_H-M "P -1"
_symmetry_group_IT_number 2
_symmetry_cell_setting 'triclinic'
loop_
_space_group_symop_operation_xyz
x,y,z
-x,-y,-z
loop_
_atom_site_type_symbol
_atom_site_label
_atom_site_fract_x
_atom_site_fract_y
_atom_site_fract_z
Si Si1 0.427225 0.620108 0.674471
Si Si2 0.224378 0.236523 0.373512
Si Si3 0.903629 0.969269 0.112101
Si Si4 0.552932 0.464395 0.623905
Si Si5 0.385863 0.904021 0.194907
Si Si6 0.443848 0.315295 0.050924
Si Si7 0.908975 0.318527 0.076487
O O1 0.642518 0.720791 0.600703
O O2 0.528556 0.495645 0.685601
O O3 0.461273 0.433486 0.882027
O O4 0.071983 0.786129 0.573955
O O5 0.147903 0.463708 0.146734
O O6 0.500000 0.000000 0.500000
O O7 0.575130 0.026740 0.102631
O O8 0.114532 0.674311 0.330681
O O9 0.055630 0.072559 0.069514
O O10 0.000000 0.000000 0.000000
O O11 0.389795 0.725086 0.397247
O O12 0.457093 0.273740 0.749668
O O13 0.750338 0.179685 0.167414
O O14 0.252353 0.179466 0.167048
O O15 0.252567 0.545275 0.942038
#
# Coordination Sequence:
#
# PCOD9083636 Si02
#       7
#     2   2   2   2   2   2   2
#     4  10  20  31  54  75  99 134 179 225 253 313
#     4  10  20  33  49  74 101 136 174 217 274 314
#     4  10  19  34  57  83 109 148 183 221 273 328
#     4   9  21  33  58  81 113 144 194 220 268 328
#     4   9  20  34  56  81 112 151 187 213 272 338
#     4   8  14  26  43  68  83 114 160 198 249 285
#     4   8  14  26  45  61  87 118 153 201 244 309
#
# _framework density 26.243251999999998
#
# number of rings (size 3 to 8) (size 9 to 14) (size 15 to 20)
#    0.857    2.000    0.000    1.286    2.000    0.000 
#    0.000    0.000    6.286    0.000    0.000    0.000 
#    0.000    0.000    0.000    0.000    0.000    0.000 
#
# Total GULP energy -78196.228838 kJ/mol
# GULP energy per Si atom -5585.444917 kJ/mol
# Density = 2.618352 g / cm^3
# Si number density = 26.243252 Si / 1000 Ang^3
#
#
#
# Elastic Constant Matrix: (Units=GPa)
#
#
# Indices 1 2 3 4 5 6 
#
# 1 261.0319 35.6039 45.3128 2.0623 26.0532 2.7619
# 2 35.6039 119.3039 10.9689 14.0274 17.9079 19.2719
# 3 45.3128 10.9689 66.8577 16.0110 13.1466 10.3641
# 4 2.0623 14.0274 16.0110 33.3109 4.7847 10.6160
# 5 26.0532 17.9079 13.1466 4.7847 31.0966 8.1668
# 6 2.7619 19.2719 10.3641 10.6160 8.1668 25.4245
#
#
#
# Elastic Compliance Matrix: (Units=1/GPa)
#
#
# Indices 1 2 3 4 5 6 
#
# 1 0.004786 -0.001221 -0.003174 0.001515 -0.002706 0.001936
# 2 -0.001221 0.010445 0.001370 -0.002509 -0.003570 -0.006149
# 3 -0.003174 0.001370 0.020356 -0.008211 -0.004380 -0.004156
# 4 0.001515 -0.002509 -0.008211 0.038390 0.000671 -0.011161
# 5 -0.002706 -0.003570 -0.004380 0.000671 0.040460 -0.008491
# 6 0.001936 -0.006149 -0.004156 -0.011161 -0.008491 0.052864
#
#
# Mechanical properties :
#
#
# Convention : Reuss Voigt Hill
#
# Bulk Modulus (GPa) = 33.85770 70.10716 51.98243
# Shear Modulus (GPa) = 27.29302 41.65357 34.47329
#
# Velocity S-wave (km/s) = 3.22840 3.98830 3.62830
# Velocity P-wave (km/s) = 5.17941 6.92684 6.11586
#
# Compressibility (1/GPa) = 0.02953538
#
# Stress axis : x y z
#
# Youngs Moduli (GPa) = 208.93267 95.74395 49.12619
#
# Poissons Ratio (x) = 0.11693 0.15595
# Poissons Ratio (y) = 0.25516 -0.06731
# Poissons Ratio (z) = 0.66324 -0.13118
#
# Static dielectric constant tensor:
#      x y z
#    x 2.197100 -0.016690 0.036610 
#    y -0.016690 2.011700 -0.024200 
#    z 0.036610 -0.024200 2.080950 
# 
# From -- ./inp_files/547121.got.cif
#   From: 2010.05.17/outbox.cif.g08.bks.cpg/sg2_274_cif.got.tgz:547121.got - 2010.06.03 11:33:40.
