data_PCOD9083255
_publ_section_title
;
Structure prediction by ZEFSAII (Michael W. Deem and Ramdas Pophale) SiO2 
 PCOD9083255
Probable space group: P -1
;
_chemical_formula_sum "Si O2"
_cell_formula_units_Z 16
_cell_length_a 11.490209
_cell_length_b 13.998673
_cell_length_c 11.092326
_cell_angle_alpha 69.965860
_cell_angle_beta 45.561277
_cell_angle_gamma 39.064703
_cell_volume 718.224271
_symmetry_space_group_name_H-M "P -1"
_symmetry_group_IT_number 2
_symmetry_cell_setting 'triclinic'
loop_
_space_group_symop_operation_xyz
x,y,z
-x,-y,-z
loop_
_atom_site_type_symbol
_atom_site_label
_atom_site_fract_x
_atom_site_fract_y
_atom_site_fract_z
Si Si1 0.292010 0.347250 0.917052
Si Si2 0.549146 0.516662 0.259688
Si Si3 0.104728 0.770977 0.687387
Si Si4 0.223996 0.279061 0.563329
Si Si5 0.802510 0.066464 0.503453
Si Si6 0.512963 0.023372 0.658618
Si Si7 0.202482 0.517186 0.411858
Si Si8 0.283463 0.172277 0.189038
O O1 0.377570 0.412996 0.881907
O O2 0.505427 0.222721 0.709231
O O3 0.318942 0.246746 0.039861
O O4 0.000000 0.500000 0.000000
O O5 0.327670 0.646600 0.471319
O O6 0.806455 0.344880 0.218716
O O7 0.424597 0.493501 0.274922
O O8 0.126440 0.877729 0.662551
O O9 0.832442 0.866588 0.782670
O O10 0.412007 0.109499 0.422320
O O11 0.305348 0.356151 0.453421
O O12 0.928548 0.423176 0.651984
O O13 0.274703 0.208287 0.690028
O O14 0.777735 0.967327 0.505321
O O15 0.000000 0.000000 0.500000
O O16 0.478583 0.988923 0.828741
O O17 0.954660 0.670924 0.615024
#
# Coordination Sequence:
#
# PCOD9083255 Si02
#       8
#     2   2   2   2   2   2   2   2
#     4  11  23  35  55  92 124 158 193 236 304 366
#     4   9  17  30  54  79 114 146 188 246 284 341
#     4   9  16  30  50  81 112 147 188 228 287 347
#     4   9  19  34  58  89 106 149 211 254 283 335
#     4  11  22  36  58  88 120 157 192 240 299 367
#     4  10  20  35  56  85 118 152 194 248 294 345
#     4   9  18  34  61  86 106 151 205 256 287 337
#     4  10  19  34  53  84 126 151 186 240 300 356
#
# _framework density 22.277162000000001
#
# number of rings (size 3 to 8) (size 9 to 14) (size 15 to 20)
#    0.000    2.250    2.500    0.750    5.250    0.500 
#    0.000    0.000    0.000    7.500    0.000    0.000 
#    0.000    0.000    0.000    0.000    0.000    0.000 
#
# Total GULP energy -89285.838720 kJ/mol
# GULP energy per Si atom -5580.364920 kJ/mol
# Density = 2.222646 g / cm^3
# Si number density = 22.277162 Si / 1000 Ang^3
#
#
#
# Elastic Constant Matrix: (Units=GPa)
#
#
# Indices 1 2 3 4 5 6 
#
# 1 109.4045 51.9109 37.6657 -19.2889 -19.2513 2.7540
# 2 51.9109 148.0624 49.1998 -42.4745 -8.0287 -10.6051
# 3 37.6657 49.1998 64.4981 -28.3221 -9.6216 -3.6883
# 4 -19.2889 -42.4745 -28.3221 48.5091 5.8783 -1.2057
# 5 -19.2513 -8.0287 -9.6216 5.8783 24.6362 -11.7437
# 6 2.7540 -10.6051 -3.6883 -1.2057 -11.7437 48.3979
#
#
#
# Elastic Compliance Matrix: (Units=1/GPa)
#
#
# Indices 1 2 3 4 5 6 
#
# 1 0.013422 -0.002953 -0.004851 -0.001040 0.007936 0.000119
# 2 -0.002953 0.011025 -0.003857 0.006363 -0.000647 0.002292
# 3 -0.004851 -0.003857 0.026273 0.009590 0.004208 0.002693
# 4 -0.001040 0.006363 0.009590 0.031591 -0.001261 0.002665
# 5 0.007936 -0.000647 0.004208 -0.001261 0.054709 0.012971
# 6 0.000119 0.002292 0.002693 0.002665 0.012971 0.024576
#
#
# Mechanical properties :
#
#
# Convention : Reuss Voigt Hill
#
# Bulk Modulus (GPa) = 36.50097 66.61308 51.55702
# Shear Modulus (GPa) = 25.76642 36.52122 31.14382
#
# Velocity S-wave (km/s) = 3.40462 4.05335 3.74306
# Velocity P-wave (km/s) = 5.64586 7.20229 6.47104
#
# Compressibility (1/GPa) = 0.02739654
#
# Stress axis : x y z
#
# Youngs Moduli (GPa) = 74.50468 90.70037 38.06247
#
# Poissons Ratio (x) = 0.26785 0.18466
# Poissons Ratio (y) = 0.22002 0.14681
# Poissons Ratio (z) = 0.36146 0.34984
#
# Static dielectric constant tensor:
#      x y z
#    x 1.879230 0.014920 0.019950 
#    y 0.014920 1.912040 -0.003150 
#    z 0.019950 -0.003150 1.838460 
# 
# From -- ./inp_files/433782.got.cif
#   From: 2010.05.17/outbox.cif.g08.bks.cpg/sg2_217_cif.got.tgz:433782.got - 2010.06.03 11:33:40.
