data_PCOD9083785
_publ_section_title
;
Structure prediction by ZEFSAII (Michael W. Deem and Ramdas Pophale) SiO2 
 PCOD9083785
Probable space group: P -1
;
_chemical_formula_sum "Si O2"
_cell_formula_units_Z 16
_cell_length_a 12.467749
_cell_length_b 7.803609
_cell_length_c 16.337585
_cell_angle_alpha 56.486184
_cell_angle_beta 147.927015
_cell_angle_gamma 104.627751
_cell_volume 614.879436
_symmetry_space_group_name_H-M "P -1"
_symmetry_group_IT_number 2
_symmetry_cell_setting 'triclinic'
loop_
_space_group_symop_operation_xyz
x,y,z
-x,-y,-z
loop_
_atom_site_type_symbol
_atom_site_label
_atom_site_fract_x
_atom_site_fract_y
_atom_site_fract_z
Si Si1 0.639279 0.122116 0.464037
Si Si2 0.304926 0.207771 0.625380
Si Si3 0.028952 0.689066 0.374027
Si Si4 0.126213 0.772262 0.702013
Si Si5 0.215151 0.363874 0.235228
Si Si6 0.555931 0.756322 0.020670
Si Si7 0.359714 0.921344 0.245543
Si Si8 0.877210 0.297324 0.761614
O O1 0.822449 0.193738 0.526321
O O2 0.438896 0.318045 0.339177
O O3 0.765215 0.885976 0.662020
O O4 0.488254 0.064441 0.317908
O O5 0.170332 0.406850 0.554364
O O6 0.482569 0.254348 0.676274
O O7 0.104899 0.236785 0.424417
O O8 0.454369 0.950285 0.830435
O O9 0.069358 0.692389 0.301357
O O10 0.753584 0.798167 0.180346
O O11 0.287531 0.520045 0.828959
O O12 0.307814 0.780955 0.881023
O O13 0.000000 0.000000 0.500000
O O14 0.186055 0.498316 0.266261
O O15 0.000000 0.500000 0.000000
O O16 0.305392 0.793611 0.316541
O O17 0.120742 0.096420 0.005026
#
# Coordination Sequence:
#
# PCOD9083785 Si02
#       8
#     2   2   2   2   2   2   2   2
#     4  11  24  37  52  78 108 147 191 235 279 331
#     4  10  19  34  58  83 110 146 186 230 274 330
#     4  11  22  35  56  82 114 148 189 231 277 330
#     4   8  16  31  57  87 115 138 176 230 279 324
#     4  11  22  37  54  74 105 146 194 239 283 322
#     4   9  17  33  54  87 114 140 179 230 275 332
#     4  11  22  37  55  79 112 149 193 232 277 327
#     4  11  22  37  57  77 109 154 192 234 277 326
#
# _framework density 26.021360999999999
#
# number of rings (size 3 to 8) (size 9 to 14) (size 15 to 20)
#    0.000    1.750    2.500    3.000    1.750    2.500 
#    0.000    0.000    0.000    0.750    0.000   29.750 
#    0.000    0.000    0.000    0.000    0.000    0.000 
#
# Total GULP energy -89321.505461 kJ/mol
# GULP energy per Si atom -5582.594091 kJ/mol
# Density = 2.596214 g / cm^3
# Si number density = 26.021361 Si / 1000 Ang^3
#
#
#
# Elastic Constant Matrix: (Units=GPa)
#
#
# Indices 1 2 3 4 5 6 
#
# 1 59.0787 3.1847 40.9353 13.3666 2.3624 0.6208
# 2 3.1847 119.1700 47.8108 31.7074 13.6090 -4.7925
# 3 40.9353 47.8108 200.4816 12.1617 25.2961 12.1880
# 4 13.3666 31.7074 12.1617 40.9611 10.6606 8.8212
# 5 2.3624 13.6090 25.2961 10.6606 44.9488 8.6988
# 6 0.6208 -4.7925 12.1880 8.8212 8.6988 33.0795
#
#
#
# Elastic Compliance Matrix: (Units=1/GPa)
#
#
# Indices 1 2 3 4 5 6 
#
# 1 0.022917 0.004462 -0.005656 -0.010842 0.002312 0.004583
# 2 0.004462 0.013227 -0.003663 -0.011845 -0.000627 0.006506
# 3 -0.005656 -0.003663 0.007362 0.004019 -0.003030 -0.003412
# 4 -0.010842 -0.011845 0.004019 0.039923 -0.005199 -0.012272
# 5 0.002312 -0.000627 -0.003030 -0.005199 0.026125 -0.004502
# 6 0.004583 0.006506 -0.003412 -0.012272 -0.004502 0.036800
#
#
# Mechanical properties :
#
#
# Convention : Reuss Voigt Hill
#
# Bulk Modulus (GPa) = 29.59333 62.51022 46.05178
# Shear Modulus (GPa) = 29.88041 42.91785 36.39913
#
# Velocity S-wave (km/s) = 3.39234 4.06560 3.74413
# Velocity P-wave (km/s) = 5.17120 6.79070 6.03552
#
# Compressibility (1/GPa) = 0.03379140
#
# Stress axis : x y z
#
# Youngs Moduli (GPa) = 43.63480 75.60566 135.82513
#
# Poissons Ratio (x) = -0.33733 0.76824
# Poissons Ratio (y) = -0.19469 0.49754
# Poissons Ratio (z) = 0.24680 0.27695
#
# Static dielectric constant tensor:
#      x y z
#    x 2.048610 0.017100 0.013490 
#    y 0.017100 2.246700 0.001650 
#    z 0.013490 0.001650 2.002110 
# 
# From -- ./inp_files/591169.got.cif
#   From: 2010.05.17/outbox.cif.g08.bks.cpg/sg2_296_cif.got.tgz:591169.got - 2010.06.03 11:33:40.
