data_PCOD9083550
_publ_section_title
;
Structure prediction by ZEFSAII (Michael W. Deem and Ramdas Pophale) SiO2 
 PCOD9083550
Probable space group: P -1
;
_chemical_formula_sum "Si O2"
_cell_formula_units_Z 16
_cell_length_a 25.959681
_cell_length_b 18.989584
_cell_length_c 9.572111
_cell_angle_alpha 37.183008
_cell_angle_beta 150.785117
_cell_angle_gamma 161.456480
_cell_volume 717.916221
_symmetry_space_group_name_H-M "P -1"
_symmetry_group_IT_number 2
_symmetry_cell_setting 'triclinic'
loop_
_space_group_symop_operation_xyz
x,y,z
-x,-y,-z
loop_
_atom_site_type_symbol
_atom_site_label
_atom_site_fract_x
_atom_site_fract_y
_atom_site_fract_z
Si Si1 0.777241 0.733315 0.920913
Si Si2 0.421354 0.235338 0.655034
Si Si3 0.823957 0.781611 0.264730
Si Si4 0.206304 0.977245 0.284819
Si Si5 0.071174 0.435590 0.281538
Si Si6 0.225830 0.038406 0.798094
Si Si7 0.178312 0.460286 0.813600
Si Si8 0.444908 0.679411 0.624299
O O1 0.585783 0.639745 0.621993
O O2 0.798090 0.701501 0.174472
O O3 0.766467 0.623584 0.954825
O O4 0.000000 0.000000 0.000000
O O5 0.247736 0.021464 0.478410
O O6 0.336012 0.180100 0.693706
O O7 0.596248 0.301940 0.969187
O O8 0.655681 0.539206 0.324264
O O9 0.052909 0.963787 0.561339
O O10 0.814495 0.910951 0.006266
O O11 0.412182 0.128962 0.459152
O O12 0.996196 0.705893 0.217929
O O13 0.122651 0.459275 0.531243
O O14 0.268430 0.594396 0.401545
O O15 0.894164 0.189581 0.178850
O O16 0.000000 0.500000 0.000000
O O17 0.395492 0.187473 0.081800
#
# Coordination Sequence:
#
# PCOD9083550 Si02
#       8
#     2   2   2   2   2   2   2   2
#     4  11  15  31  55  87 119 156 197 240 279 347
#     4  11  20  33  62  88 119 162 196 237 293 359
#     4  10  19  34  56  87 131 164 196 230 289 363
#     4  11  23  38  56  92 133 159 191 242 295 361
#     4  11  24  43  67  89 112 152 210 265 302 347
#     4  11  19  39  64  86 121 158 205 248 287 357
#     4  12  20  37  59  87 117 159 207 245 294 356
#     4  11  24  39  60  90 124 160 198 246 304 353
#
# _framework density 22.286724
#
# number of rings (size 3 to 8) (size 9 to 14) (size 15 to 20)
#    0.000    1.000    8.750    0.750    0.000    6.000 
#    0.000    0.625    0.000    1.500    0.000    0.000 
#    0.000    0.000    0.000    0.000    0.000    0.000 
#
# Total GULP energy -89098.196691 kJ/mol
# GULP energy per Si atom -5568.637293 kJ/mol
# Density = 2.223600 g / cm^3
# Si number density = 22.286724 Si / 1000 Ang^3
#
#
#
# Elastic Constant Matrix: (Units=GPa)
#
#
# Indices 1 2 3 4 5 6 
#
# 1 47.5292 19.3932 16.0176 -4.5062 9.1354 23.6200
# 2 19.3932 69.8231 36.8839 14.7641 21.7615 24.9660
# 3 16.0176 36.8839 106.4066 12.4620 13.3518 2.8558
# 4 -4.5062 14.7641 12.4620 24.1502 -0.2046 1.2193
# 5 9.1354 21.7615 13.3518 -0.2046 32.7489 3.8566
# 6 23.6200 24.9660 2.8558 1.2193 3.8566 32.5469
#
#
#
# Elastic Compliance Matrix: (Units=1/GPa)
#
#
# Indices 1 2 3 4 5 6 
#
# 1 0.038976 0.003258 -0.006525 0.010094 -0.006807 -0.029784
# 2 0.003258 0.036789 -0.008218 -0.016439 -0.018927 -0.027005
# 3 -0.006525 -0.008218 0.013294 -0.003549 0.000670 0.009926
# 4 0.010094 -0.016439 -0.003549 0.055133 0.009618 0.002391
# 5 -0.006807 -0.018927 0.000670 0.009618 0.043158 0.013925
# 6 -0.029784 -0.027005 0.009926 0.002391 0.013925 0.070444
#
#
# Mechanical properties :
#
#
# Convention : Reuss Voigt Hill
#
# Bulk Modulus (GPa) = 15.13113 40.92756 28.02934
# Shear Modulus (GPa) = 16.51296 27.98681 22.24989
#
# Velocity S-wave (km/s) = 2.72496 3.54752 3.16309
# Velocity P-wave (km/s) = 4.08712 5.93159 5.09354
#
# Compressibility (1/GPa) = 0.06608894
#
# Stress axis : x y z
#
# Youngs Moduli (GPa) = 25.65686 27.18235 75.22275
#
# Poissons Ratio (x) = -0.08856 0.49084
# Poissons Ratio (y) = -0.08359 0.61815
# Poissons Ratio (z) = 0.16742 0.22337
#
# Static dielectric constant tensor:
#      x y z
#    x 1.875680 0.022910 -0.020620 
#    y 0.022910 2.075750 0.185060 
#    z -0.020620 0.185060 2.075600 
# 
# From -- ./inp_files/357734.got.cif
#   From: 2010.05.17/outbox.cif.g08.bks.cpg/sg2_179_cif.got.tgz:357734.got - 2010.06.03 11:33:40.
