data_PCOD9083850
_publ_section_title
;
Structure prediction by ZEFSAII (Michael W. Deem and Ramdas Pophale) SiO2 
 PCOD9083850
Probable space group: P -1
;
_chemical_formula_sum "Si O2"
_cell_formula_units_Z 14
_cell_length_a 8.757657
_cell_length_b 19.819453
_cell_length_c 10.931792
_cell_angle_alpha 147.902732
_cell_angle_beta 139.812545
_cell_angle_gamma 48.563276
_cell_volume 650.007156
_symmetry_space_group_name_H-M "P -1"
_symmetry_group_IT_number 2
_symmetry_cell_setting 'triclinic'
loop_
_space_group_symop_operation_xyz
x,y,z
-x,-y,-z
loop_
_atom_site_type_symbol
_atom_site_label
_atom_site_fract_x
_atom_site_fract_y
_atom_site_fract_z
Si Si1 0.138266 0.621350 0.129273
Si Si2 0.600100 0.188100 0.286981
Si Si3 0.354436 0.285486 0.060222
Si Si4 0.368005 0.000372 0.552758
Si Si5 0.783534 0.647147 0.167982
Si Si6 0.870796 0.922128 0.078654
Si Si7 0.172238 0.116917 0.262724
O O1 0.332498 0.726413 0.423483
O O2 0.024575 0.632257 0.213730
O O3 0.239215 0.478391 0.958029
O O4 0.898138 0.652241 0.952877
O O5 0.558286 0.270078 0.262358
O O6 0.789521 0.068527 0.217892
O O7 0.342864 0.129775 0.055612
O O8 0.404452 0.347894 0.053139
O O9 0.302521 0.143704 0.768031
O O10 0.563874 0.944468 0.677910
O O11 0.129686 0.926096 0.299055
O O12 0.500000 0.000000 0.500000
O O13 0.808218 0.773284 0.456638
O O14 0.899148 0.837023 0.843819
O O15 0.000000 0.000000 0.000000
#
# Coordination Sequence:
#
# PCOD9083850 Si02
#       7
#     2   2   2   2   2   2   2
#     4   9  19  40  56  86 114 148 197 238 281 333
#     4  11  22  37  58  81 121 155 194 230 280 353
#     4  10  19  34  58  87 111 148 187 241 282 333
#     4  12  20  34  57  89 119 141 184 243 295 336
#     4   9  20  37  60  86 113 147 193 242 290 324
#     4  11  24  36  54  90 117 155 189 233 293 337
#     4  12  21  37  60  86 117 148 186 242 295 340
#
# _framework density 21.538225000000001
#
# number of rings (size 3 to 8) (size 9 to 14) (size 15 to 20)
#    0.857    0.571    5.714    0.857    0.000    2.286 
#    0.000    0.714    0.000    1.714    0.000    0.000 
#    0.000    0.000    0.000    0.000    0.000    0.000 
#
# Total GULP energy -77946.910436 kJ/mol
# GULP energy per Si atom -5567.636460 kJ/mol
# Density = 2.148920 g / cm^3
# Si number density = 21.538225 Si / 1000 Ang^3
#
#
#
# Elastic Constant Matrix: (Units=GPa)
#
#
# Indices 1 2 3 4 5 6 
#
# 1 30.8427 -5.7300 6.4791 2.4604 5.2367 -9.2215
# 2 -5.7300 86.1670 36.3959 -3.6852 4.4515 -3.3708
# 3 6.4791 36.3959 61.0407 -12.5178 8.3449 -9.6306
# 4 2.4604 -3.6852 -12.5178 36.9963 -8.8889 2.6355
# 5 5.2367 4.4515 8.3449 -8.8889 26.5696 -10.7645
# 6 -9.2215 -3.3708 -9.6306 2.6355 -10.7645 14.0429
#
#
#
# Elastic Compliance Matrix: (Units=1/GPa)
#
#
# Indices 1 2 3 4 5 6 
#
# 1 0.043285 0.005715 -0.004827 -0.005547 0.001920 0.028998
# 2 0.005715 0.016528 -0.010881 -0.002764 -0.001578 -0.000433
# 3 -0.004827 -0.010881 0.026711 0.007893 0.002182 0.012728
# 4 -0.005547 -0.002764 0.007893 0.032265 0.011410 0.003798
# 5 0.001920 -0.001578 0.002182 0.011410 0.059107 0.045545
# 6 0.028998 -0.000433 0.012728 0.003798 0.045545 0.133077
#
#
# Mechanical properties :
#
#
# Convention : Reuss Voigt Hill
#
# Bulk Modulus (GPa) = 15.02889 28.03782 21.53336
# Shear Modulus (GPa) = 14.15879 24.91543 19.53711
#
# Velocity S-wave (km/s) = 2.56672 3.40487 3.01506
# Velocity P-wave (km/s) = 3.97203 5.33886 4.70534
#
# Compressibility (1/GPa) = 0.06653849
#
# Stress axis : x y z
#
# Youngs Moduli (GPa) = 23.10278 60.50453 37.43786
#
# Poissons Ratio (x) = -0.34580 0.18072
# Poissons Ratio (y) = -0.13204 0.40735
# Poissons Ratio (z) = 0.11152 0.65833
#
# Static dielectric constant tensor:
#      x y z
#    x 1.872470 0.066770 0.020710 
#    y 0.066770 1.898340 0.003990 
#    z 0.020710 0.003990 1.837640 
# 
# From -- ./inp_files/387201.got.cif
#   From: 2010.05.17/outbox.cif.g08.bks.cpg/sg2_194_cif.got.tgz:387201.got - 2010.06.03 11:33:40.
