data_PCOD9083876
_publ_section_title
;
Structure prediction by ZEFSAII (Michael W. Deem and Ramdas Pophale) SiO2 
 PCOD9083876
Probable space group: P -1
;
_chemical_formula_sum "Si O2"
_cell_formula_units_Z 16
_cell_length_a 7.330962
_cell_length_b 13.880110
_cell_length_c 27.283415
_cell_angle_alpha 159.771748
_cell_angle_beta 130.672473
_cell_angle_gamma 55.616452
_cell_volume 716.347326
_symmetry_space_group_name_H-M "P -1"
_symmetry_group_IT_number 2
_symmetry_cell_setting 'triclinic'
loop_
_space_group_symop_operation_xyz
x,y,z
-x,-y,-z
loop_
_atom_site_type_symbol
_atom_site_label
_atom_site_fract_x
_atom_site_fract_y
_atom_site_fract_z
Si Si1 0.745369 0.202911 0.352538
Si Si2 0.686179 0.907881 0.026704
Si Si3 0.536554 0.269242 0.706781
Si Si4 0.246092 0.554473 0.635908
Si Si5 0.693351 0.272357 0.623069
Si Si6 0.059515 0.796007 0.956172
Si Si7 0.991619 0.319891 0.864584
Si Si8 0.347675 0.730800 0.062132
O O1 0.708357 0.387609 0.386533
O O2 0.968812 0.374800 0.505721
O O3 0.854544 0.928222 0.223045
O O4 0.486509 0.041761 0.252869
O O5 0.744451 0.146758 0.192161
O O6 0.549451 0.600949 0.875072
O O7 0.911400 0.889455 0.021322
O O8 0.500000 0.000000 0.000000
O O9 0.652557 0.242471 0.660237
O O10 0.718213 0.181465 0.736681
O O11 0.303119 0.024609 0.544617
O O12 0.462626 0.407429 0.626527
O O13 0.941862 0.493007 0.769085
O O14 0.311444 0.771151 0.016545
O O15 0.000000 0.000000 0.000000
O O16 0.090906 0.560754 0.956886
O O17 0.000000 0.500000 0.000000
O O18 0.500000 0.500000 0.000000
#
# Coordination Sequence:
#
# PCOD9083876 Si02
#       8
#     2   2   2   2   2   2   2   2
#     4  10  23  36  63  86 126 165 208 249 314 377
#     4  11  21  37  62  93 120 155 208 265 312 362
#     4  10  19  34  58  90 113 150 201 257 301 355
#     4  11  20  39  60  94 120 161 211 260 304 374
#     4  10  19  35  64  87 117 154 207 255 306 365
#     4  11  22  40  64  93 128 166 206 256 323 380
#     4  11  20  38  61  90 122 161 210 256 306 375
#     4  10  22  40  58  91 126 169 207 249 318 376
#
# _framework density 22.335533999999999
#
# number of rings (size 3 to 8) (size 9 to 14) (size 15 to 20)
#    0.000    1.500    6.250    1.500    0.000    0.000 
#    0.000    1.875    0.000    0.750    0.000    0.000 
#    0.000    0.000    0.000    0.000    0.000    0.000 
#
# Total GULP energy -89075.948771 kJ/mol
# GULP energy per Si atom -5567.246798 kJ/mol
# Density = 2.228470 g / cm^3
# Si number density = 22.335534 Si / 1000 Ang^3
#
#
#
# Elastic Constant Matrix: (Units=GPa)
#
#
# Indices 1 2 3 4 5 6 
#
# 1 14.8451 5.9352 12.6313 0.9114 -8.9962 2.5761
# 2 5.9352 127.9462 16.7113 -17.3858 -5.1775 4.6436
# 3 12.6313 16.7113 185.5552 -10.2271 6.3021 -5.1352
# 4 0.9114 -17.3858 -10.2271 38.4441 -0.2210 2.1469
# 5 -8.9962 -5.1775 6.3021 -0.2210 30.7053 1.6336
# 6 2.5761 4.6436 -5.1352 2.1469 1.6336 14.8937
#
#
#
# Elastic Compliance Matrix: (Units=1/GPa)
#
#
# Indices 1 2 3 4 5 6 
#
# 1 0.098431 -0.001937 -0.008429 -0.004032 0.031394 -0.022189
# 2 -0.001937 0.008693 -0.000562 0.004018 0.001217 -0.003282
# 3 -0.008429 -0.000562 0.006341 0.001382 -0.004072 0.004067
# 4 -0.004032 0.004018 0.001382 0.028522 -0.000361 -0.004151
# 5 0.031394 0.001217 -0.004072 -0.000361 0.043438 -0.011926
# 6 -0.022189 -0.003282 0.004067 -0.004151 -0.011926 0.075312
#
#
# Mechanical properties :
#
#
# Convention : Reuss Voigt Hill
#
# Bulk Modulus (GPa) = 10.91588 44.32246 27.61917
# Shear Modulus (GPa) = 15.96783 36.34654 26.15718
#
# Velocity S-wave (km/s) = 2.67667 4.03835 3.42585
# Velocity P-wave (km/s) = 3.80140 6.45224 5.29538
#
# Compressibility (1/GPa) = 0.09160967
#
# Stress axis : x y z
#
# Youngs Moduli (GPa) = 10.15939 115.02988 157.71402
#
# Poissons Ratio (x) = 0.22286 1.32930
# Poissons Ratio (y) = 0.01968 0.08859
# Poissons Ratio (z) = 0.08563 0.06462
#
# Static dielectric constant tensor:
#      x y z
#    x 2.229870 -0.678300 0.064740 
#    y -0.678300 2.833050 0.054120 
#    z 0.064740 0.054120 1.882870 
# 
# From -- ./inp_files/321081.got.cif
#   From: 2010.05.17/outbox.cif.g08.bks.cpg/sg2_161_cif.got.tgz:321081.got - 2010.06.03 11:33:40.
