data_PCOD9083256
_publ_section_title
;
Structure prediction by ZEFSAII (Michael W. Deem and Ramdas Pophale) SiO2 
 PCOD9083256
Probable space group: P -1
;
_chemical_formula_sum "Si O2"
_cell_formula_units_Z 16
_cell_length_a 10.751074
_cell_length_b 9.092870
_cell_length_c 12.160889
_cell_angle_alpha 65.247744
_cell_angle_beta 41.578016
_cell_angle_gamma 58.739593
_cell_volume 673.433464
_symmetry_space_group_name_H-M "P -1"
_symmetry_group_IT_number 2
_symmetry_cell_setting 'triclinic'
loop_
_space_group_symop_operation_xyz
x,y,z
-x,-y,-z
loop_
_atom_site_type_symbol
_atom_site_label
_atom_site_fract_x
_atom_site_fract_y
_atom_site_fract_z
Si Si1 0.741690 0.452707 0.454762
Si Si2 0.360838 0.224084 0.971295
Si Si3 0.286298 0.917825 0.384020
Si Si4 0.806602 0.920466 0.241959
Si Si5 0.164529 0.289583 0.309033
Si Si6 0.308292 0.537886 0.760434
Si Si7 0.060183 0.123153 0.072649
Si Si8 0.400671 0.158948 0.393475
O O1 0.753442 0.252079 0.499108
O O2 0.532976 0.539375 0.629325
O O3 0.702340 0.530973 0.334477
O O4 0.955141 0.433287 0.372184
O O5 0.574936 0.139116 0.798661
O O6 0.272408 0.408624 0.912541
O O7 0.322053 0.257170 0.115250
O O8 0.229782 0.111925 0.051189
O O9 0.125480 0.106528 0.407239
O O10 0.396010 0.981369 0.391529
O O11 0.993809 0.956826 0.160897
O O12 0.635046 0.106054 0.273492
O O13 0.713271 0.826195 0.420960
O O14 0.870393 0.843014 0.104862
O O15 0.278949 0.302311 0.341660
O O16 0.132436 0.716562 0.822134
#
# Coordination Sequence:
#
# PCOD9083256 Si02
#       8
#     2   2   2   2   2   2   2   2
#     4  10  19  34  53  85 114 147 180 223 288 339
#     4  11  20  35  55  91 116 143 178 227 297 339
#     4   9  19  32  54  83 118 138 176 232 287 328
#     4  10  21  37  58  80 114 145 198 228 267 327
#     4  10  20  32  58  84 119 142 180 232 291 334
#     4  10  22  35  54  84 119 148 181 228 281 337
#     4  11  20  35  57  83 107 150 187 234 271 323
#     4   9  20  36  53  84 108 149 178 237 277 317
#
# _framework density 23.758844
#
# number of rings (size 3 to 8) (size 9 to 14) (size 15 to 20)
#    0.750    1.250    2.500    1.875    0.000    0.000 
#    0.000    3.750    0.000    4.500    0.000    0.000 
#    0.000    0.000    0.000    0.000    0.000    0.000 
#
# Total GULP energy -89306.370336 kJ/mol
# GULP energy per Si atom -5581.648146 kJ/mol
# Density = 2.370477 g / cm^3
# Si number density = 23.758844 Si / 1000 Ang^3
#
#
#
# Elastic Constant Matrix: (Units=GPa)
#
#
# Indices 1 2 3 4 5 6 
#
# 1 80.6706 -9.8293 40.8936 -3.7017 12.1965 -20.8097
# 2 -9.8293 43.6907 4.1550 5.3958 3.0751 -11.6837
# 3 40.8936 4.1550 114.7347 8.6699 20.3945 -8.5777
# 4 -3.7017 5.3958 8.6699 35.3318 1.5137 0.0476
# 5 12.1965 3.0751 20.3945 1.5137 31.2185 -4.0977
# 6 -20.8097 -11.6837 -8.5777 0.0476 -4.0977 31.8529
#
#
#
# Elastic Compliance Matrix: (Units=1/GPa)
#
#
# Indices 1 2 3 4 5 6 
#
# 1 0.021323 0.009398 -0.006424 0.002491 -0.003181 0.015235
# 2 0.009398 0.030114 -0.002529 -0.002899 -0.002724 0.016159
# 3 -0.006424 -0.002529 0.012080 -0.003020 -0.005321 -0.002552
# 4 0.002491 -0.002899 -0.003020 0.029757 -0.000200 -0.000319
# 5 -0.003181 -0.002724 -0.005321 -0.000200 0.037063 0.000258
# 6 0.015235 0.016159 -0.002552 -0.000319 0.000258 0.046621
#
#
# Mechanical properties :
#
#
# Convention : Reuss Voigt Hill
#
# Bulk Modulus (GPa) = 15.52602 34.39274 24.95938
# Shear Modulus (GPa) = 25.31171 33.27243 29.29207
#
# Velocity S-wave (km/s) = 3.26753 3.74628 3.51506
# Velocity P-wave (km/s) = 4.55902 5.76368 5.19638
#
# Compressibility (1/GPa) = 0.06440801
#
# Stress axis : x y z
#
# Youngs Moduli (GPa) = 46.89782 33.20712 82.77894
#
# Poissons Ratio (x) = -0.31210 0.53178
# Poissons Ratio (y) = -0.44077 0.20935
# Poissons Ratio (z) = 0.30128 0.08398
#
# Static dielectric constant tensor:
#      x y z
#    x 1.950730 0.033710 -0.031370 
#    y 0.033710 1.950130 0.000900 
#    z -0.031370 0.000900 1.890520 
# 
# From -- ./inp_files/423401.got.cif
#   From: 2010.05.17/outbox.cif.g08.bks.cpg/sg2_212_cif.got.tgz:423401.got - 2010.06.03 11:33:40.
