data_PCOD9083675
_publ_section_title
;
Structure prediction by ZEFSAII (Michael W. Deem and Ramdas Pophale) SiO2 
 PCOD9083675
Probable space group: P -1
;
_chemical_formula_sum "Si O2"
_cell_formula_units_Z 16
_cell_length_a 13.561227
_cell_length_b 10.345918
_cell_length_c 7.770987
_cell_angle_alpha 79.125363
_cell_angle_beta 113.800615
_cell_angle_gamma 57.674007
_cell_volume 718.424321
_symmetry_space_group_name_H-M "P -1"
_symmetry_group_IT_number 2
_symmetry_cell_setting 'triclinic'
loop_
_space_group_symop_operation_xyz
x,y,z
-x,-y,-z
loop_
_atom_site_type_symbol
_atom_site_label
_atom_site_fract_x
_atom_site_fract_y
_atom_site_fract_z
Si Si1 0.021370 0.494488 0.720468
Si Si2 0.380622 0.801611 0.638118
Si Si3 0.699677 0.601512 0.977360
Si Si4 0.076700 0.136011 0.491427
Si Si5 0.604374 0.293190 0.700132
Si Si6 0.053548 0.731621 0.253498
Si Si7 0.643124 0.482981 0.303106
Si Si8 0.872084 0.228044 0.037724
O O1 0.191640 0.367129 0.926602
O O2 0.000000 0.500000 0.500000
O O3 0.950658 0.695792 0.653462
O O4 0.954408 0.416013 0.762922
O O5 0.354692 0.823596 0.409092
O O6 0.404680 0.626656 0.746277
O O7 0.242122 0.960728 0.610109
O O8 0.528592 0.761096 0.781742
O O9 0.703028 0.513457 0.176829
O O10 0.772811 0.443041 0.930692
O O11 0.037087 0.172622 0.657100
O O12 0.965773 0.137144 0.300867
O O13 0.500000 0.500000 0.500000
O O14 0.492616 0.328344 0.753045
O O15 0.749732 0.221158 0.915730
O O16 0.218817 0.638289 0.441121
O O17 0.019829 0.839980 0.030370
#
# Coordination Sequence:
#
# PCOD9083675 Si02
#       8
#     2   2   2   2   2   2   2   2
#     4   9  19  40  63  85 114 158 205 242 280 351
#     4  11  22  38  56  91 126 149 193 250 301 347
#     4  11  20  36  64  90 111 161 205 239 285 353
#     4  10  24  39  57  91 124 154 192 247 302 346
#     4  10  19  34  57  85 116 155 191 239 284 354
#     4  11  20  40  65  85 118 156 205 239 289 349
#     4  11  19  36  62  89 113 157 199 237 288 356
#     4  11  20  39  61  88 117 157 203 233 294 353
#
# _framework density 22.270962000000001
#
# number of rings (size 3 to 8) (size 9 to 14) (size 15 to 20)
#    0.000    1.500    8.750    0.375    0.000    3.000 
#    2.250    2.500    0.000    3.750    0.000    0.000 
#    0.000    0.000    0.000    0.000    0.000    0.000 
#
# Total GULP energy -89361.991161 kJ/mol
# GULP energy per Si atom -5585.124448 kJ/mol
# Density = 2.222027 g / cm^3
# Si number density = 22.270962 Si / 1000 Ang^3
#
#
#
# Elastic Constant Matrix: (Units=GPa)
#
#
# Indices 1 2 3 4 5 6 
#
# 1 76.7745 35.9536 15.9592 2.1739 4.3850 -17.8669
# 2 35.9536 80.0899 31.1848 0.6383 4.2919 -32.6618
# 3 15.9592 31.1848 88.8114 10.3717 26.3931 -12.4053
# 4 2.1739 0.6383 10.3717 24.1654 -8.3124 3.2265
# 5 4.3850 4.2919 26.3931 -8.3124 45.3582 2.6698
# 6 -17.8669 -32.6618 -12.4053 3.2265 2.6698 42.0285
#
#
#
# Elastic Compliance Matrix: (Units=1/GPa)
#
#
# Indices 1 2 3 4 5 6 
#
# 1 0.016762 -0.006595 0.000510 -0.002537 -0.001903 0.002467
# 2 -0.006595 0.022900 -0.005400 0.000876 0.000992 0.013269
# 3 0.000510 -0.005400 0.018991 -0.013052 -0.013185 0.003466
# 4 -0.002537 0.000876 -0.013052 0.054790 0.018364 -0.009623
# 5 -0.001903 0.000992 -0.013185 0.018364 0.033614 -0.007475
# 6 0.002467 0.013269 0.003466 -0.009623 -0.007475 0.037390
#
#
# Mechanical properties :
#
#
# Convention : Reuss Voigt Hill
#
# Bulk Modulus (GPa) = 28.02410 45.76345 36.89377
# Shear Modulus (GPa) = 22.79861 33.14896 27.97379
#
# Velocity S-wave (km/s) = 3.20299 3.86221 3.54795
# Velocity P-wave (km/s) = 5.12732 6.36255 5.77804
#
# Compressibility (1/GPa) = 0.03568358
#
# Stress axis : x y z
#
# Youngs Moduli (GPa) = 59.65762 43.66762 52.65758
#
# Poissons Ratio (x) = 0.28800 -0.02686
# Poissons Ratio (y) = 0.39346 0.28433
# Poissons Ratio (z) = -0.03043 0.23579
#
# Static dielectric constant tensor:
#      x y z
#    x 1.841270 -0.000610 -0.046440 
#    y -0.000610 1.877820 0.017600 
#    z -0.046440 0.017600 1.874000 
# 
# From -- ./inp_files/305277.got.cif
#   From: 2010.05.17/outbox.cif.g08.bks.cpg/sg2_153_cif.got.tgz:305277.got - 2010.06.03 11:33:40.
