data_PCOD9083000
_publ_section_title
;
Structure prediction by ZEFSAII (Michael W. Deem and Ramdas Pophale) SiO2 
 PCOD9083000
Probable space group: P -1
;
_chemical_formula_sum "Si O2"
_cell_formula_units_Z 16
_cell_length_a 8.363697
_cell_length_b 21.403288
_cell_length_c 13.684761
_cell_angle_alpha 36.092204
_cell_angle_beta 77.050548
_cell_angle_gamma 46.674000
_cell_volume 668.659251
_symmetry_space_group_name_H-M "P -1"
_symmetry_group_IT_number 2
_symmetry_cell_setting 'triclinic'
loop_
_space_group_symop_operation_xyz
x,y,z
-x,-y,-z
loop_
_atom_site_type_symbol
_atom_site_label
_atom_site_fract_x
_atom_site_fract_y
_atom_site_fract_z
Si Si1 0.251687 0.064837 0.513320
Si Si2 0.314704 0.156112 0.568261
Si Si3 0.598313 0.325200 0.432586
Si Si4 0.388541 0.582496 0.301315
Si Si5 0.257483 0.208878 0.880955
Si Si6 0.178524 0.367234 0.495440
Si Si7 0.947481 0.210361 0.170837
Si Si8 0.288602 0.840131 0.867821
O O1 0.990092 0.177440 0.322370
O O2 0.500000 0.000000 0.500000
O O3 0.117200 0.213469 0.433637
O O4 0.483416 0.834983 0.812611
O O5 0.675027 0.993946 0.675509
O O6 0.123921 0.349532 0.418050
O O7 0.430105 0.005668 0.824022
O O8 0.646291 0.378751 0.448077
O O9 0.476846 0.283634 0.547536
O O10 0.289389 0.554024 0.123207
O O11 0.932001 0.104327 0.606274
O O12 0.500000 0.500000 0.500000
O O13 0.029775 0.721699 0.160183
O O14 0.368437 0.716827 0.103178
O O15 0.291478 0.218841 0.749959
O O16 0.126629 0.390863 0.721489
O O17 0.766941 0.210585 0.148347
#
# Coordination Sequence:
#
# PCOD9083000 Si02
#       8
#     2   2   2   2   2   2   2   2
#     4  10  25  40  62  96 124 157 214 264 306 367
#     4  11  19  39  60  85 127 158 201 259 304 364
#     4  10  20  38  64  88 121 160 216 248 300 383
#     4  10  22  39  59  94 126 157 209 254 303 375
#     4  10  20  36  59  88 124 163 203 245 307 375
#     4  10  19  33  60  88 117 164 201 244 307 370
#     4  10  20  42  63  87 122 163 210 260 304 365
#     4  11  21  41  68  84 122 173 196 255 326 354
#
# _framework density 23.928481000000001
#
# number of rings (size 3 to 8) (size 9 to 14) (size 15 to 20)
#    0.000    1.750    5.000    0.750    0.000    5.000 
#    0.000    3.125    0.000    0.000    0.000    0.000 
#    0.000    0.000    0.000    0.000    0.000    0.000 
#
# Total GULP energy -89403.830126 kJ/mol
# GULP energy per Si atom -5587.739383 kJ/mol
# Density = 2.387402 g / cm^3
# Si number density = 23.928481 Si / 1000 Ang^3
#
#
#
# Elastic Constant Matrix: (Units=GPa)
#
#
# Indices 1 2 3 4 5 6 
#
# 1 67.7973 31.8753 38.6584 9.0769 -24.4760 0.2353
# 2 31.8753 157.8061 60.2790 28.6207 -1.9905 31.1314
# 3 38.6584 60.2790 115.9838 22.7663 -21.1897 -0.6502
# 4 9.0769 28.6207 22.7663 43.1717 -2.2134 3.0483
# 5 -24.4760 -1.9905 -21.1897 -2.2134 40.8163 11.0841
# 6 0.2353 31.1314 -0.6502 3.0483 11.0841 39.7735
#
#
#
# Elastic Compliance Matrix: (Units=1/GPa)
#
#
# Indices 1 2 3 4 5 6 
#
# 1 0.022467 -0.002534 -0.004006 -0.000232 0.011649 -0.001443
# 2 -0.002534 0.010673 -0.004231 -0.003831 -0.001298 -0.007752
# 3 -0.004006 -0.004231 0.013482 -0.003490 0.003422 0.002869
# 4 -0.000232 -0.003831 -0.003490 0.027466 -0.000948 0.001102
# 5 0.011649 -0.001298 0.003422 -0.000948 0.035545 -0.008830
# 6 -0.001443 -0.007752 0.002869 0.001102 -0.008830 0.033642
#
#
# Mechanical properties :
#
#
# Convention : Reuss Voigt Hill
#
# Bulk Modulus (GPa) = 39.87182 67.02363 53.44772
# Shear Modulus (GPa) = 28.87230 38.80393 33.83811
#
# Velocity S-wave (km/s) = 3.47739 4.03136 3.76458
# Velocity P-wave (km/s) = 5.72906 7.05265 6.42503
#
# Compressibility (1/GPa) = 0.02508037
#
# Stress axis : x y z
#
# Youngs Moduli (GPa) = 44.50994 93.69769 74.17177
#
# Poissons Ratio (x) = 0.23745 0.29711
# Poissons Ratio (y) = 0.11280 0.31380
# Poissons Ratio (z) = 0.17829 0.39641
#
# Static dielectric constant tensor:
#      x y z
#    x 2.066150 -0.082930 -0.000520 
#    y -0.082930 1.991920 0.041650 
#    z -0.000520 0.041650 1.973600 
# 
# From -- ./inp_files/402837.got.cif
#   From: 2010.05.17/outbox.cif.g08.bks.cpg/sg2_202_cif.got.tgz:402837.got - 2010.06.03 11:33:40.
