data_PCOD9083039
_publ_section_title
;
Structure prediction by ZEFSAII (Michael W. Deem and Ramdas Pophale) SiO2 
 PCOD9083039
Probable space group: P -1
;
_chemical_formula_sum "Si O2"
_cell_formula_units_Z 14
_cell_length_a 9.129765
_cell_length_b 18.772487
_cell_length_c 5.420055
_cell_angle_alpha 117.473243
_cell_angle_beta 52.305073
_cell_angle_gamma 132.065342
_cell_volume 543.568546
_symmetry_space_group_name_H-M "P -1"
_symmetry_group_IT_number 2
_symmetry_cell_setting 'triclinic'
loop_
_space_group_symop_operation_xyz
x,y,z
-x,-y,-z
loop_
_atom_site_type_symbol
_atom_site_label
_atom_site_fract_x
_atom_site_fract_y
_atom_site_fract_z
Si Si1 0.340485 0.300612 0.153220
Si Si2 0.298132 0.018473 0.223757
Si Si3 0.536809 0.912028 0.334139
Si Si4 0.839647 0.567676 0.461570
Si Si5 0.090917 0.195341 0.738081
Si Si6 0.265566 0.630619 0.831197
Si Si7 0.803223 0.268079 0.316417
O O1 0.311539 0.390261 0.345880
O O2 0.213468 0.233505 0.413096
O O3 0.593304 0.338249 0.012784
O O4 0.234842 0.245628 0.917941
O O5 0.064119 0.919549 0.271671
O O6 0.311251 0.064878 0.546534
O O7 0.500000 0.000000 0.000000
O O8 0.357000 0.084126 0.028603
O O9 0.317243 0.809611 0.463870
O O10 0.500000 0.000000 0.500000
O O11 0.717399 0.454051 0.437950
O O12 0.001318 0.629781 0.617512
O O13 0.012068 0.592357 0.099534
O O14 0.912089 0.224752 0.972000
O O15 0.343744 0.713947 0.684957
#
# Coordination Sequence:
#
# PCOD9083039 Si02
#       7
#     2   2   2   2   2   2   2
#     4  11  25  43  68  98 137 176 218 274 333 399
#     4  10  19  33  60  98 128 165 225 268 314 395
#     4  10  20  31  61  99 127 164 220 265 323 389
#     4  10  24  43  68  97 131 177 227 272 329 402
#     4  11  22  40  66 101 132 176 224 267 332 399
#     4  11  24  44  66  98 134 176 222 279 332 389
#     4  11  22  38  67  97 133 171 224 275 329 391
#
# _framework density 25.75572
#
# number of rings (size 3 to 8) (size 9 to 14) (size 15 to 20)
#    0.000    1.429    4.286    1.714   10.000    0.000 
#    0.000    2.143    0.000    5.143    0.000    0.000 
#    0.000    0.000    0.000    0.000    0.000    0.000 
#
# Total GULP energy -78420.243332 kJ/mol
# GULP energy per Si atom -5601.445952 kJ/mol
# Density = 2.569710 g / cm^3
# Si number density = 25.755720 Si / 1000 Ang^3
#
#
#
# Elastic Constant Matrix: (Units=GPa)
#
#
# Indices 1 2 3 4 5 6 
#
# 1 135.6204 52.0971 43.7374 2.5397 17.3346 -17.0355
# 2 52.0971 103.5595 23.4974 13.6114 8.2008 -8.4820
# 3 43.7374 23.4974 79.2923 -7.8026 19.4377 -22.3215
# 4 2.5397 13.6114 -7.8026 37.0719 -3.7866 5.4773
# 5 17.3346 8.2008 19.4377 -3.7866 56.0271 5.8785
# 6 -17.0355 -8.4820 -22.3215 5.4773 5.8785 31.7720
#
#
#
# Elastic Compliance Matrix: (Units=1/GPa)
#
#
# Indices 1 2 3 4 5 6 
#
# 1 0.010666 -0.004144 -0.003566 -0.000511 -0.001755 0.002520
# 2 -0.004144 0.012886 -0.001612 -0.004990 -0.000491 0.001037
# 3 -0.003566 -0.001612 0.020715 0.002544 -0.007048 0.013077
# 4 -0.000511 -0.004990 0.002544 0.030470 0.002649 -0.005562
# 5 -0.001755 -0.000491 -0.007048 0.002649 0.022198 -0.010588
# 6 0.002520 0.001037 0.013077 -0.005562 -0.010588 0.045207
#
#
# Mechanical properties :
#
#
# Convention : Reuss Voigt Hill
#
# Bulk Modulus (GPa) = 39.02461 61.90400 50.46430
# Shear Modulus (GPa) = 29.52861 38.25022 33.88942
#
# Velocity S-wave (km/s) = 3.38966 3.85790 3.63133
# Velocity P-wave (km/s) = 5.52308 6.62810 6.10066
#
# Compressibility (1/GPa) = 0.02562486
#
# Stress axis : x y z
#
# Youngs Moduli (GPa) = 93.75737 77.60159 48.27339
#
# Poissons Ratio (x) = 0.32157 0.17213
# Poissons Ratio (y) = 0.38852 0.07780
# Poissons Ratio (z) = 0.33432 0.12507
#
# Static dielectric constant tensor:
#      x y z
#    x 2.039950 -0.031380 -0.055060 
#    y -0.031380 2.050470 0.023950 
#    z -0.055060 0.023950 2.072180 
# 
# From -- ./inp_files/35852.got.cif
#   From: 2010.05.17/outbox.cif.g08.bks.cpg/sg2_18_cif.got.tgz:35852.got - 2010.06.03 11:33:40.
