data_PCOD9083631
_publ_section_title
;
Structure prediction by ZEFSAII (Michael W. Deem and Ramdas Pophale) SiO2 
 PCOD9083631
Probable space group: P -1
;
_chemical_formula_sum "Si O2"
_cell_formula_units_Z 14
_cell_length_a 10.903422
_cell_length_b 9.463821
_cell_length_c 7.232319
_cell_angle_alpha 96.233895
_cell_angle_beta 133.082586
_cell_angle_gamma 98.378345
_cell_volume 516.398986
_symmetry_space_group_name_H-M "P -1"
_symmetry_group_IT_number 2
_symmetry_cell_setting 'triclinic'
loop_
_space_group_symop_operation_xyz
x,y,z
-x,-y,-z
loop_
_atom_site_type_symbol
_atom_site_label
_atom_site_fract_x
_atom_site_fract_y
_atom_site_fract_z
Si Si1 0.845876 0.574602 0.908046
Si Si2 0.738286 0.945366 0.994856
Si Si3 0.207694 0.160986 0.606972
Si Si4 0.712114 0.528220 0.190253
Si Si5 0.111112 0.885205 0.200219
Si Si6 0.389207 0.718978 0.451835
Si Si7 0.383938 0.782648 0.014014
O O1 0.678851 0.459350 0.614912
O O2 0.782470 0.560898 0.055436
O O3 0.000000 0.500000 0.000000
O O4 0.929437 0.749872 0.977692
O O5 0.577478 0.807607 0.738430
O O6 0.830803 0.038429 0.926752
O O7 0.848570 0.886734 0.249390
O O8 0.674355 0.072243 0.050244
O O9 0.185637 0.323302 0.570870
O O10 0.140205 0.028479 0.378297
O O11 0.417225 0.189417 0.838013
O O12 0.735272 0.366891 0.229565
O O13 0.500000 0.500000 0.000000
O O14 0.252546 0.801986 0.395854
O O15 0.388423 0.747764 0.233651
#
# Coordination Sequence:
#
# PCOD9083631 Si02
#       7
#     2   2   2   2   2   2   2
#     4   9  19  36  62  82 116 165 198 233 300 359
#     4  11  19  32  61  89 113 150 206 246 280 351
#     4  11  20  32  57  88 118 151 194 244 302 347
#     4   9  20  36  59  86 122 156 194 245 299 353
#     4  10  19  34  57  82 117 156 193 244 296 348
#     4   9  16  32  58  83 110 155 204 240 282 347
#     4   9  16  33  55  80 115 152 193 244 283 340
#
# _framework density 27.110817999999998
#
# number of rings (size 3 to 8) (size 9 to 14) (size 15 to 20)
#    0.000    2.286    2.857    2.143    0.000    0.571 
#    0.000    3.571    9.429    6.000    0.000    0.000 
#    0.000    0.000    0.000    0.000    0.000    0.000 
#
# Total GULP energy -78341.861383 kJ/mol
# GULP energy per Si atom -5595.847242 kJ/mol
# Density = 2.704911 g / cm^3
# Si number density = 27.110818 Si / 1000 Ang^3
#
#
#
# Elastic Constant Matrix: (Units=GPa)
#
#
# Indices 1 2 3 4 5 6 
#
# 1 128.0228 42.6887 54.7041 28.5251 -7.5937 9.5954
# 2 42.6887 137.2815 87.5579 57.1940 -2.5342 19.6558
# 3 54.7041 87.5579 141.0159 58.7690 -8.4955 12.5858
# 4 28.5251 57.1940 58.7690 64.1995 -0.8481 3.7835
# 5 -7.5937 -2.5342 -8.4955 -0.8481 47.7499 9.1913
# 6 9.5954 19.6558 12.5858 3.7835 9.1913 30.1381
#
#
#
# Elastic Compliance Matrix: (Units=1/GPa)
#
#
# Indices 1 2 3 4 5 6 
#
# 1 0.009611 -0.000455 -0.002645 -0.001313 0.001379 -0.001914
# 2 -0.000455 0.015076 -0.005135 -0.008113 0.000984 -0.006825
# 3 -0.002645 -0.005135 0.014766 -0.007642 0.002118 -0.001662
# 4 -0.001313 -0.008113 -0.007642 0.029999 -0.002607 0.005930
# 5 0.001379 0.000984 0.002118 -0.002607 0.023223 -0.008720
# 6 -0.001914 -0.006825 -0.001662 0.005930 -0.008720 0.040850
#
#
# Mechanical properties :
#
#
# Convention : Reuss Voigt Hill
#
# Bulk Modulus (GPa) = 43.50890 86.24685 64.87787
# Shear Modulus (GPa) = 31.71458 43.17546 37.44502
#
# Velocity S-wave (km/s) = 3.42396 3.99501 3.72046
# Velocity P-wave (km/s) = 5.63158 7.29122 6.51447
#
# Compressibility (1/GPa) = 0.02298380
#
# Stress axis : x y z
#
# Youngs Moduli (GPa) = 104.05056 66.32944 67.72239
#
# Poissons Ratio (x) = 0.03021 0.17909
# Poissons Ratio (y) = 0.04739 0.34773
# Poissons Ratio (z) = 0.27516 0.34058
#
# Static dielectric constant tensor:
#      x y z
#    x 2.367510 0.057960 -0.016130 
#    y 0.057960 2.111720 0.026750 
#    z -0.016130 0.026750 2.073480 
# 
# From -- ./inp_files/255165.got.cif
#   From: 2010.05.17/outbox.cif.g08.bks.cpg/sg2_128_cif.got.tgz:255165.got - 2010.06.03 11:33:40.
