data_PCOD9083769
_publ_section_title
;
Structure prediction by ZEFSAII (Michael W. Deem and Ramdas Pophale) SiO2 
 PCOD9083769
Probable space group: P -1
;
_chemical_formula_sum "Si O2"
_cell_formula_units_Z 16
_cell_length_a 10.843663
_cell_length_b 22.222874
_cell_length_c 10.655738
_cell_angle_alpha 36.208948
_cell_angle_beta 132.252448
_cell_angle_gamma 143.697932
_cell_volume 896.253693
_symmetry_space_group_name_H-M "P -1"
_symmetry_group_IT_number 2
_symmetry_cell_setting 'triclinic'
loop_
_space_group_symop_operation_xyz
x,y,z
-x,-y,-z
loop_
_atom_site_type_symbol
_atom_site_label
_atom_site_fract_x
_atom_site_fract_y
_atom_site_fract_z
Si Si1 0.407255 0.547422 0.256234
Si Si2 0.873335 0.096518 0.800219
Si Si3 0.685738 0.849240 0.943593
Si Si4 0.372177 0.879691 0.201508
Si Si5 0.039979 0.648616 0.621771
Si Si6 0.595003 0.587161 0.041856
Si Si7 0.000053 0.615251 0.352440
Si Si8 0.488286 0.214217 0.330369
O O1 0.500000 0.500000 0.500000
O O2 0.516436 0.697216 0.106650
O O3 0.471904 0.536665 0.177089
O O4 0.157266 0.460553 0.249669
O O5 0.782864 0.105995 0.850627
O O6 0.919863 0.216371 0.551561
O O7 0.091298 0.122548 0.933079
O O8 0.707440 0.957593 0.860850
O O9 0.644837 0.868702 0.740530
O O10 0.224866 0.745827 0.254754
O O11 0.500953 0.862792 0.420891
O O12 0.500000 0.000000 0.000000
O O13 0.977850 0.612550 0.493160
O O14 0.270367 0.683688 0.724313
O O15 0.816443 0.615409 0.169532
O O16 0.500000 0.500000 0.000000
O O17 0.599679 0.709839 0.814157
O O18 0.000000 0.500000 0.500000
#
# Coordination Sequence:
#
# PCOD9083769 Si02
#       8
#     2   2   2   2   2   2   2   2
#     4  11  19  36  60  86 113 150 197 239 276 346
#     4   9  19  36  54  79 111 150 189 228 293 348
#     4  10  19  34  58  81 109 146 189 234 295 334
#     4  10  21  38  56  78 112 152 194 235 285 352
#     4  10  19  35  57  83 113 149 191 241 285 344
#     4  11  21  37  57  86 121 152 189 239 299 346
#     4  10  20  37  60  81 115 157 193 231 298 350
#     4   9  20  37  58  82 116 152 185 244 299 332
#
# _framework density 17.852088999999999
#
# number of rings (size 3 to 8) (size 9 to 14) (size 15 to 20)
#    0.000    2.250    2.500    3.750    0.000    5.000 
#    2.250    5.000    0.000    0.000    0.000    0.000 
#    0.000    0.000    0.000    0.000    0.000    0.000 
#
# Total GULP energy -89131.107457 kJ/mol
# GULP energy per Si atom -5570.694216 kJ/mol
# Density = 1.781146 g / cm^3
# Si number density = 17.852089 Si / 1000 Ang^3
#
#
#
# Elastic Constant Matrix: (Units=GPa)
#
#
# Indices 1 2 3 4 5 6 
#
# 1 48.1776 28.1734 34.2782 -22.6479 4.7138 -3.5663
# 2 28.1734 107.0018 45.3043 -20.0454 4.1136 -12.7147
# 3 34.2782 45.3043 94.3526 -17.5418 2.8333 6.3742
# 4 -22.6479 -20.0454 -17.5418 37.1838 7.7782 2.4310
# 5 4.7138 4.1136 2.8333 7.7782 35.1167 -2.4284
# 6 -3.5663 -12.7147 6.3742 2.4310 -2.4284 26.9180
#
#
#
# Elastic Compliance Matrix: (Units=1/GPa)
#
#
# Indices 1 2 3 4 5 6 
#
# 1 0.039099 -0.001629 -0.009772 0.019803 -0.008366 0.004182
# 2 -0.001629 0.013811 -0.005851 0.003467 -0.001192 0.007273
# 3 -0.009772 -0.005851 0.017436 -0.000371 0.000109 -0.008144
# 4 0.019803 0.003467 -0.000371 0.043349 -0.012685 -0.000710
# 5 -0.008366 -0.001192 0.000109 -0.012685 0.032706 0.002399
# 6 0.004182 0.007273 -0.008144 -0.000710 0.002399 0.043348
#
#
# Mechanical properties :
#
#
# Convention : Reuss Voigt Hill
#
# Bulk Modulus (GPa) = 27.89949 51.67155 39.78552
# Shear Modulus (GPa) = 21.16840 29.29544 25.23192
#
# Velocity S-wave (km/s) = 3.44723 4.05533 3.76358
# Velocity P-wave (km/s) = 5.61307 7.13686 6.42033
#
# Compressibility (1/GPa) = 0.03584295
#
# Stress axis : x y z
#
# Youngs Moduli (GPa) = 25.57585 72.40459 57.35270
#
# Poissons Ratio (x) = 0.11794 0.56046
# Poissons Ratio (y) = 0.04166 0.33556
# Poissons Ratio (z) = 0.24993 0.42362
#
# Static dielectric constant tensor:
#      x y z
#    x 1.609640 0.006240 -0.002290 
#    y 0.006240 1.633590 -0.008010 
#    z -0.002290 -0.008010 1.633810 
# 
# From -- ./inp_files/439217.got.cif
#   From: 2010.05.17/outbox.cif.g08.bks.cpg/sg2_220_cif.got.tgz:439217.got - 2010.06.03 11:33:40.
