data_PCOD9083121
_publ_section_title
;
Structure prediction by ZEFSAII (Michael W. Deem and Ramdas Pophale) SiO2 
 PCOD9083121
Probable space group: P -1
;
_chemical_formula_sum "Si O2"
_cell_formula_units_Z 14
_cell_length_a 12.461578
_cell_length_b 14.290848
_cell_length_c 5.355031
_cell_angle_alpha 98.376495
_cell_angle_beta 102.867368
_cell_angle_gamma 138.823271
_cell_volume 534.234513
_symmetry_space_group_name_H-M "P -1"
_symmetry_group_IT_number 2
_symmetry_cell_setting 'triclinic'
loop_
_space_group_symop_operation_xyz
x,y,z
-x,-y,-z
loop_
_atom_site_type_symbol
_atom_site_label
_atom_site_fract_x
_atom_site_fract_y
_atom_site_fract_z
Si Si1 0.556877 0.658031 0.911772
Si Si2 0.854740 0.106588 0.132199
Si Si3 0.801014 0.704038 0.347053
Si Si4 0.982367 0.675026 0.089623
Si Si5 0.506226 0.128997 0.843908
Si Si6 0.579271 0.340208 0.639200
Si Si7 0.247872 0.778303 0.613394
O O1 0.402091 0.465658 0.708267
O O2 0.545371 0.709039 0.671590
O O3 0.754383 0.749330 0.132542
O O4 0.487086 0.660699 0.131396
O O5 0.861252 0.222915 0.263259
O O6 0.031100 0.163914 0.318676
O O7 0.872554 0.142277 0.864815
O O8 0.671217 0.948904 0.130100
O O9 0.875446 0.661376 0.238294
O O10 0.105557 0.676020 0.267583
O O11 0.800680 0.516708 0.772268
O O12 0.681055 0.253521 0.178492
O O13 0.554666 0.212870 0.643621
O O14 0.434208 0.970875 0.712833
#
# Coordination Sequence:
#
# PCOD9083121 Si02
#       7
#     2   2   2   2   2   2   2
#     4  10  22  37  60  87 121 153 196 237 296 339
#     4   9  17  35  58  83 106 155 191 241 272 363
#     4   9  19  35  59  84 114 153 198 233 282 355
#     4  10  19  33  64  84 114 145 207 238 288 335
#     4   9  20  40  58  80 122 150 198 234 304 341
#     4  11  23  39  58  92 121 151 189 256 288 336
#     4   8  19  39  58  81 111 159 198 228 288 369
#
# _framework density 26.205722000000002
#
# number of rings (size 3 to 8) (size 9 to 14) (size 15 to 20)
#    0.857    1.714    1.429    0.000    2.000    4.000 
#    2.571    2.143    0.000    0.000    0.000    0.000 
#    0.000    0.000    0.000    0.000    0.000    0.000 
#
# Total GULP energy -78015.655074 kJ/mol
# GULP energy per Si atom -5572.546791 kJ/mol
# Density = 2.614608 g / cm^3
# Si number density = 26.205722 Si / 1000 Ang^3
#
#
#
# Elastic Constant Matrix: (Units=GPa)
#
#
# Indices 1 2 3 4 5 6 
#
# 1 51.9615 19.3384 45.6115 0.4199 21.3222 8.8572
# 2 19.3384 77.1492 32.8068 -27.2440 13.2543 3.0153
# 3 45.6115 32.8068 165.4404 -26.3945 54.9493 0.7461
# 4 0.4199 -27.2440 -26.3945 37.0104 -6.6879 6.1962
# 5 21.3222 13.2543 54.9493 -6.6879 50.2948 2.4347
# 6 8.8572 3.0153 0.7461 6.1962 2.4347 27.6285
#
#
#
# Elastic Compliance Matrix: (Units=1/GPa)
#
#
# Indices 1 2 3 4 5 6 
#
# 1 0.031611 -0.007660 -0.007481 -0.011082 -0.004382 -0.006224
# 2 -0.007660 0.020504 0.000940 0.016262 -0.000857 -0.003379
# 3 -0.007481 0.000940 0.012312 0.007647 -0.009564 0.001091
# 4 -0.011082 0.016262 0.007647 0.045741 -0.001445 -0.008559
# 5 -0.004382 -0.000857 -0.009564 -0.001445 0.032260 -0.000762
# 6 -0.006224 -0.003379 0.001091 -0.008559 -0.000762 0.040516
#
#
# Mechanical properties :
#
#
# Convention : Reuss Voigt Hill
#
# Bulk Modulus (GPa) = 27.75739 54.45160 41.10449
# Shear Modulus (GPa) = 22.38611 36.10636 29.24623
#
# Velocity S-wave (km/s) = 2.92592 3.71591 3.34432
# Velocity P-wave (km/s) = 4.69359 6.26372 5.53462
#
# Compressibility (1/GPa) = 0.03602645
#
# Stress axis : x y z
#
# Youngs Moduli (GPa) = 31.63468 48.77102 81.22221
#
# Poissons Ratio (x) = 0.37358 0.60759
# Poissons Ratio (y) = 0.24232 -0.07637
# Poissons Ratio (z) = 0.23664 -0.04586
#
# Static dielectric constant tensor:
#      x y z
#    x 2.149360 -0.064530 -0.062680 
#    y -0.064530 2.176570 -0.008760 
#    z -0.062680 -0.008760 2.252900 
# 
# From -- ./inp_files/99365.got.cif
#   From: 2010.05.17/outbox.cif.g08.bks.cpg/sg2_50_cif.got.tgz:99365.got - 2010.06.03 11:33:40.
