data_PCOD9083686
_publ_section_title
;
Structure prediction by ZEFSAII (Michael W. Deem and Ramdas Pophale) SiO2 
 PCOD9083686
Probable space group: P -1
;
_chemical_formula_sum "Si O2"
_cell_formula_units_Z 16
_cell_length_a 9.693992
_cell_length_b 10.467252
_cell_length_c 14.296487
_cell_angle_alpha 74.413809
_cell_angle_beta 66.495316
_cell_angle_gamma 131.574609
_cell_volume 625.917428
_symmetry_space_group_name_H-M "P -1"
_symmetry_group_IT_number 2
_symmetry_cell_setting 'triclinic'
loop_
_space_group_symop_operation_xyz
x,y,z
-x,-y,-z
loop_
_atom_site_type_symbol
_atom_site_label
_atom_site_fract_x
_atom_site_fract_y
_atom_site_fract_z
Si Si1 0.415817 0.470162 0.664842
Si Si2 0.299147 0.826158 0.224247
Si Si3 0.874055 0.077430 0.605811
Si Si4 0.330915 0.159769 0.635235
Si Si5 0.716051 0.162941 0.318416
Si Si6 0.978902 0.341577 0.877083
Si Si7 0.659997 0.653202 0.829184
Si Si8 0.857785 0.581257 0.693873
O O1 0.288624 0.228945 0.717154
O O2 0.428382 0.582504 0.549948
O O3 0.779282 0.718709 0.532120
O O4 0.183256 0.365707 0.817235
O O5 0.165055 0.828920 0.332573
O O6 0.159807 0.753233 0.173216
O O7 0.215186 0.607276 0.305543
O O8 0.670248 0.114506 0.065739
O O9 0.870289 0.134380 0.491437
O O10 0.647436 0.788136 0.759534
O O11 0.390441 0.051496 0.664222
O O12 0.018150 0.918484 0.708594
O O13 0.788111 0.360032 0.216747
O O14 0.046339 0.390529 0.234108
O O15 0.500000 0.000000 0.500000
O O16 0.594525 0.486393 0.805161
O O17 0.500000 0.500000 0.000000
#
# Coordination Sequence:
#
# PCOD9083686 Si02
#       8
#     2   2   2   2   2   2   2   2
#     4  10  19  34  57  86 120 152 197 242 302 350
#     4  10  22  36  62  87 120 156 205 252 299 346
#     4  11  23  40  61  88 127 163 193 244 306 369
#     4   9  18  31  53  86 112 145 198 246 285 346
#     4  10  19  34  59  85 115 155 203 248 291 354
#     4  10  20  35  58  90 117 149 206 262 288 336
#     4  10  22  36  62  89 119 155 204 250 291 350
#     4  10  23  40  60  88 121 162 200 243 306 366
#
# _framework density 25.562477999999999
#
# number of rings (size 3 to 8) (size 9 to 14) (size 15 to 20)
#    0.000    2.000    1.250    3.000   10.500    0.000 
#    0.000    0.625    0.000    0.750    0.000    0.000 
#    0.000    0.000    0.000    0.000    0.000    0.000 
#
# Total GULP energy -89299.842590 kJ/mol
# GULP energy per Si atom -5581.240162 kJ/mol
# Density = 2.550430 g / cm^3
# Si number density = 25.562478 Si / 1000 Ang^3
#
#
#
# Elastic Constant Matrix: (Units=GPa)
#
#
# Indices 1 2 3 4 5 6 
#
# 1 96.8568 53.9434 43.6625 4.9460 -9.2643 -26.4183
# 2 53.9434 123.8202 34.7374 -2.1919 -5.8583 -37.5531
# 3 43.6625 34.7374 112.5922 11.4492 -9.5393 -21.5508
# 4 4.9460 -2.1919 11.4492 32.5841 2.0006 3.9815
# 5 -9.2643 -5.8583 -9.5393 2.0006 31.8510 4.6860
# 6 -26.4183 -37.5531 -21.5508 3.9815 4.6860 40.2965
#
#
#
# Elastic Compliance Matrix: (Units=1/GPa)
#
#
# Indices 1 2 3 4 5 6 
#
# 1 0.015971 -0.004612 -0.003555 -0.002139 0.002246 0.004222
# 2 -0.004612 0.012868 -0.000656 0.000775 -0.000485 0.008597
# 3 -0.003555 -0.000656 0.011737 -0.004186 0.002108 0.003504
# 4 -0.002139 0.000775 -0.004186 0.033438 -0.002969 -0.005877
# 5 0.002246 -0.000485 0.002108 -0.002969 0.032983 -0.001394
# 6 0.004222 0.008597 0.003504 -0.005877 -0.001394 0.038212
#
#
# Mechanical properties :
#
#
# Convention : Reuss Voigt Hill
#
# Bulk Modulus (GPa) = 43.60879 66.43954 55.02416
# Shear Modulus (GPa) = 29.32574 34.34137 31.83356
#
# Velocity S-wave (km/s) = 3.39074 3.66926 3.53274
# Velocity P-wave (km/s) = 5.69440 6.63315 6.18162
#
# Compressibility (1/GPa) = 0.02293116
#
# Stress axis : x y z
#
# Youngs Moduli (GPa) = 62.61315 77.71457 85.19727
#
# Poissons Ratio (x) = 0.35841 0.30285
# Poissons Ratio (y) = 0.28876 0.05588
# Poissons Ratio (z) = 0.22257 0.05097
#
# Static dielectric constant tensor:
#      x y z
#    x 2.203750 -0.026650 -0.014180 
#    y -0.026650 2.086420 -0.006500 
#    z -0.014180 -0.006500 1.985990 
# 
# From -- ./inp_files/565923.got.cif
#   From: 2010.05.17/outbox.cif.g08.bks.cpg/sg2_283_cif.got.tgz:565923.got - 2010.06.03 11:33:40.
