data_PCOD9083094
_publ_section_title
;
Structure prediction by ZEFSAII (Michael W. Deem and Ramdas Pophale) SiO2 
 PCOD9083094
Probable space group: P -1
;
_chemical_formula_sum "Si O2"
_cell_formula_units_Z 16
_cell_length_a 11.342994
_cell_length_b 23.136616
_cell_length_c 17.027173
_cell_angle_alpha 158.397301
_cell_angle_beta 30.898632
_cell_angle_gamma 149.543732
_cell_volume 794.622046
_symmetry_space_group_name_H-M "P -1"
_symmetry_group_IT_number 2
_symmetry_cell_setting 'triclinic'
loop_
_space_group_symop_operation_xyz
x,y,z
-x,-y,-z
loop_
_atom_site_type_symbol
_atom_site_label
_atom_site_fract_x
_atom_site_fract_y
_atom_site_fract_z
Si Si1 0.009527 0.525043 0.883795
Si Si2 0.796264 0.817834 0.386581
Si Si3 0.259298 0.841892 0.455642
Si Si4 0.463717 0.350792 0.269162
Si Si5 0.431584 0.660465 0.269608
Si Si6 0.437319 0.786567 0.695452
Si Si7 0.918234 0.527578 0.411267
Si Si8 0.234557 0.069922 0.159759
O O1 0.849160 0.333526 0.753585
O O2 0.281410 0.584619 0.839800
O O3 0.048032 0.530496 0.771965
O O4 0.896909 0.665006 0.146423
O O5 0.661556 0.784785 0.338501
O O6 0.591384 0.795709 0.541164
O O7 0.000000 0.000000 0.500000
O O8 0.341951 0.764105 0.387117
O O9 0.026117 0.905542 0.671709
O O10 0.500000 0.000000 0.500000
O O11 0.500000 0.500000 0.500000
O O12 0.214961 0.335909 0.348508
O O13 0.416398 0.183267 0.133304
O O14 0.186946 0.587633 0.369479
O O15 0.500000 0.500000 0.000000
O O16 0.270994 0.612961 0.607122
O O17 0.642179 0.864454 0.743890
O O18 0.252324 0.888041 0.915810
#
# Coordination Sequence:
#
# PCOD9083094 Si02
#       8
#     2   2   2   2   2   2   2   2
#     4  10  19  40  67  93 129 172 216 272 329 390
#     4  12  27  43  64 102 142 175 217 275 340 398
#     4  11  23  38  70 100 129 172 233 274 320 404
#     4  10  15  35  65  91 121 161 224 265 321 385
#     4  11  23  44  72  93 130 183 223 268 341 396
#     4  11  25  37  67 100 133 171 222 278 321 398
#     4  10  19  39  70  94 115 173 227 268 318 395
#     4  11  21  39  64  99 131 171 224 269 328 393
#
# _framework density 20.135358
#
# number of rings (size 3 to 8) (size 9 to 14) (size 15 to 20)
#    0.000    1.250    8.750    0.750    5.250    0.500 
#    0.000    3.125    2.750    0.000    0.000    0.000 
#    0.000    0.000    0.000    0.000    0.000    0.000 
#
# Total GULP energy -89092.970603 kJ/mol
# GULP energy per Si atom -5568.310663 kJ/mol
# Density = 2.008953 g / cm^3
# Si number density = 20.135358 Si / 1000 Ang^3
#
#
#
# Elastic Constant Matrix: (Units=GPa)
#
#
# Indices 1 2 3 4 5 6 
#
# 1 61.7687 28.5868 50.7667 -3.0674 -20.9530 19.8354
# 2 28.5868 115.9291 43.9211 4.8626 -3.7832 16.8713
# 3 50.7667 43.9211 99.7139 -0.4868 -31.4140 11.3087
# 4 -3.0674 4.8626 -0.4868 17.8452 7.9247 -13.6823
# 5 -20.9530 -3.7832 -31.4140 7.9247 30.8033 -2.3406
# 6 19.8354 16.8713 11.3087 -13.6823 -2.3406 39.7851
#
#
#
# Elastic Compliance Matrix: (Units=1/GPa)
#
#
# Indices 1 2 3 4 5 6 
#
# 1 0.036429 -0.000847 -0.011076 -0.015476 0.015915 -0.019041
# 2 -0.000847 0.011735 -0.005171 -0.006196 -0.003225 -0.005405
# 3 -0.011076 -0.005171 0.023742 -0.008646 0.018197 -0.000937
# 4 -0.015476 -0.006196 -0.008646 0.112340 -0.045301 0.048770
# 5 0.015915 -0.003225 0.018197 -0.045301 0.071349 -0.023121
# 6 -0.019041 -0.005405 -0.000937 0.048770 -0.023121 0.052598
#
#
# Mechanical properties :
#
#
# Convention : Reuss Voigt Hill
#
# Bulk Modulus (GPa) = 26.51255 58.21788 42.36521
# Shear Modulus (GPa) = 14.08626 27.96252 21.02439
#
# Velocity S-wave (km/s) = 2.64782 3.73061 3.23484
# Velocity P-wave (km/s) = 4.74802 6.89439 5.91930
#
# Compressibility (1/GPa) = 0.03771799
#
# Stress axis : x y z
#
# Youngs Moduli (GPa) = 27.45046 85.21368 42.11896
#
# Poissons Ratio (x) = 0.07220 0.46652
# Poissons Ratio (y) = 0.02326 0.21780
# Poissons Ratio (z) = 0.30404 0.44064
#
# Static dielectric constant tensor:
#      x y z
#    x 1.814410 0.024360 0.008790 
#    y 0.024360 1.764190 -0.017510 
#    z 0.008790 -0.017510 1.729550 
# 
# From -- ./inp_files/571050.got.cif
#   From: 2010.05.17/outbox.cif.g08.bks.cpg/sg2_286_cif.got.tgz:571050.got - 2010.06.03 11:33:40.
