data_PCOD9083632
_publ_section_title
;
Structure prediction by ZEFSAII (Michael W. Deem and Ramdas Pophale) SiO2 
 PCOD9083632
Probable space group: P -1
;
_chemical_formula_sum "Si O2"
_cell_formula_units_Z 14
_cell_length_a 19.649118
_cell_length_b 10.622843
_cell_length_c 8.840170
_cell_angle_alpha 137.639195
_cell_angle_beta 31.086671
_cell_angle_gamma 145.728917
_cell_volume 533.397184
_symmetry_space_group_name_H-M "P -1"
_symmetry_group_IT_number 2
_symmetry_cell_setting 'triclinic'
loop_
_space_group_symop_operation_xyz
x,y,z
-x,-y,-z
loop_
_atom_site_type_symbol
_atom_site_label
_atom_site_fract_x
_atom_site_fract_y
_atom_site_fract_z
Si Si1 0.124839 0.946869 0.275357
Si Si2 0.614572 0.211930 0.080418
Si Si3 0.068862 0.701367 0.868249
Si Si4 0.681269 0.810087 0.307505
Si Si5 0.555906 0.908429 0.179220
Si Si6 0.125648 0.135428 0.747748
Si Si7 0.750949 0.470424 0.758274
O O1 0.104371 0.964650 0.508430
O O2 0.097337 0.754675 0.039470
O O3 0.313500 0.138634 0.060635
O O4 0.000000 0.000000 0.500000
O O5 0.501205 0.277825 0.429686
O O6 0.658114 0.114669 0.049759
O O7 0.739916 0.389814 0.881532
O O8 0.500000 0.000000 0.000000
O O9 0.101099 0.517408 0.588285
O O10 0.212750 0.930255 0.714782
O O11 0.913679 0.693437 0.099673
O O12 0.713060 0.778682 0.393919
O O13 0.738858 0.682002 0.985271
O O14 0.500000 0.000000 0.500000
O O15 0.403530 0.711069 0.206448
O O16 0.000000 0.000000 0.000000
#
# Coordination Sequence:
#
# PCOD9083632 Si02
#       7
#     2   2   2   2   2   2   2
#     4  10  20  37  63  88 116 163 205 239 299 365
#     4  10  19  34  57  82 120 153 194 245 298 349
#     4  10  20  39  58  84 121 158 198 248 296 354
#     4  11  20  38  58  90 119 155 201 251 296 354
#     4  11  20  37  62  88 120 162 198 244 306 356
#     4   9  20  34  63  86 115 162 202 240 300 355
#     4  11  22  35  61  89 120 153 201 252 298 352
#
# _framework density 26.246859000000001
#
# number of rings (size 3 to 8) (size 9 to 14) (size 15 to 20)
#    0.000    1.714    4.286    2.143    2.000    0.571 
#    0.000    4.286    0.000    8.571    0.000    0.000 
#    0.000    0.000    0.000    0.000    0.000    0.000 
#
# Total GULP energy -78294.664619 kJ/mol
# GULP energy per Si atom -5592.476044 kJ/mol
# Density = 2.618712 g / cm^3
# Si number density = 26.246859 Si / 1000 Ang^3
#
#
#
# Elastic Constant Matrix: (Units=GPa)
#
#
# Indices 1 2 3 4 5 6 
#
# 1 139.7799 14.6541 61.4577 4.4860 10.0162 7.5811
# 2 14.6541 51.5873 29.4136 13.5222 8.1137 -0.1281
# 3 61.4577 29.4136 221.0985 23.3058 2.9804 -0.7284
# 4 4.4860 13.5222 23.3058 46.7032 2.6395 12.5333
# 5 10.0162 8.1137 2.9804 2.6395 55.7323 -4.8173
# 6 7.5811 -0.1281 -0.7284 12.5333 -4.8173 27.4339
#
#
#
# Elastic Compliance Matrix: (Units=1/GPa)
#
#
# Indices 1 2 3 4 5 6 
#
# 1 0.008594 -0.001299 -0.002394 0.001789 -0.001619 -0.003546
# 2 -0.001299 0.022888 -0.001997 -0.006110 -0.002463 0.002772
# 3 -0.002394 -0.001997 0.005733 -0.002671 0.000727 0.002153
# 4 0.001789 -0.006110 -0.002671 0.028139 -0.001812 -0.013767
# 5 -0.001619 -0.002463 0.000727 -0.001812 0.019039 0.004626
# 6 -0.003546 0.002772 0.002153 -0.013767 0.004626 0.044603
#
#
# Mechanical properties :
#
#
# Convention : Reuss Voigt Hill
#
# Bulk Modulus (GPa) = 38.70941 69.27962 53.99452
# Shear Modulus (GPa) = 33.55937 46.43659 39.99798
#
# Velocity S-wave (km/s) = 3.57964 4.21078 3.90797
# Velocity P-wave (km/s) = 5.64494 7.07768 6.40152
#
# Compressibility (1/GPa) = 0.02583351
#
# Stress axis : x y z
#
# Youngs Moduli (GPa) = 116.36112 43.69035 174.42788
#
# Poissons Ratio (x) = 0.05676 0.41765
# Poissons Ratio (y) = 0.15116 0.34841
# Poissons Ratio (z) = 0.27861 0.08727
#
# Static dielectric constant tensor:
#      x y z
#    x 2.108670 -0.009570 -0.046940 
#    y -0.009570 2.144910 0.002050 
#    z -0.046940 0.002050 2.016890 
# 
# From -- ./inp_files/278154.got.cif
#   From: 2010.05.17/outbox.cif.g08.bks.cpg/sg2_140_cif.got.tgz:278154.got - 2010.06.03 11:33:40.
