data_PCOD9083372
_publ_section_title
;
Structure prediction by ZEFSAII (Michael W. Deem and Ramdas Pophale) SiO2 
 PCOD9083372
Probable space group: P -1
;
_chemical_formula_sum "Si O2"
_cell_formula_units_Z 16
_cell_length_a 5.020107
_cell_length_b 22.093136
_cell_length_c 6.759628
_cell_angle_alpha 98.799640
_cell_angle_beta 89.999917
_cell_angle_gamma 84.038548
_cell_volume 736.782125
_symmetry_space_group_name_H-M "P -1"
_symmetry_group_IT_number 2
_symmetry_cell_setting 'triclinic'
loop_
_space_group_symop_operation_xyz
x,y,z
-x,-y,-z
loop_
_atom_site_type_symbol
_atom_site_label
_atom_site_fract_x
_atom_site_fract_y
_atom_site_fract_z
Si Si1 0.912288 0.801852 0.539251
Si Si2 0.297841 0.934611 0.319987
Si Si3 0.050587 0.559719 0.404461
Si Si4 0.449412 0.440281 0.844743
Si Si5 0.159159 0.321072 0.285252
Si Si6 0.412289 0.801852 0.262599
Si Si7 0.797840 0.934611 0.614626
Si Si8 0.340841 0.678928 0.964178
O O1 0.877772 0.743246 0.642462
O O2 0.708714 0.799802 0.352711
O O3 0.833824 0.867579 0.681270
O O4 0.208713 0.799802 0.447088
O O5 0.333825 0.867579 0.186309
O O6 0.555422 0.934959 0.460105
O O7 0.055422 0.934959 0.474856
O O8 0.250001 1.000000 0.239086
O O9 0.360124 0.558512 0.346224
O O10 0.000000 0.500000 0.500000
O O11 0.860125 0.558512 0.212288
O O12 0.948448 0.621731 0.550525
O O13 0.500000 0.500000 0.000000
O O14 0.551551 0.378269 0.928796
O O15 0.466169 0.324592 0.228682
O O16 0.966169 0.324592 0.095913
O O17 0.377771 0.743246 0.100781
#
# Coordination Sequence:
#
# PCOD9083372 Si02
#       8
#     2   2   2   2   2   2   2   2
#     4  10  19  34  55  79 106 141 184 228 273 321
#     4   8  14  25  45  73 101 130 172 224 270 315
#     4  12  24  42  64  88 115 145 182 223 270 321
#     4  12  24  42  64  88 115 145 182 223 270 321
#     4  12  24  39  57  82 114 148 184 223 270 321
#     4  10  19  34  55  79 106 141 184 228 273 321
#     4   8  14  25  45  73 101 130 172 224 270 315
#     4  12  24  39  57  82 114 148 184 223 270 321
#
# _framework density 21.716054
#
# number of rings (size 3 to 8) (size 9 to 14) (size 15 to 20)
#    0.000    1.500    0.000    6.750    0.000    0.000 
#    0.000    0.000    0.000    1.500    0.000    0.000 
#    0.000    0.000    0.000    0.000    0.000    0.000 
#
# Total GULP energy -89380.184951 kJ/mol
# GULP energy per Si atom -5586.261559 kJ/mol
# Density = 2.166663 g / cm^3
# Si number density = 21.716054 Si / 1000 Ang^3
#
#
#
# Elastic Constant Matrix: (Units=GPa)
#
#
# Indices 1 2 3 4 5 6 
#
# 1 87.3154 -8.3471 -13.7576 -0.5349 1.4305 -1.3650
# 2 -8.3471 205.5794 33.5818 19.8953 -5.5692 -2.1218
# 3 -13.7576 33.5818 20.7553 8.5956 5.2673 -3.6109
# 4 -0.5349 19.8953 8.5956 20.4730 6.7423 -0.2879
# 5 1.4305 -5.5692 5.2673 6.7423 39.1097 -2.0958
# 6 -1.3650 -2.1218 -3.6109 -0.2879 -2.0958 28.3815
#
#
#
# Elastic Compliance Matrix: (Units=1/GPa)
#
#
# Indices 1 2 3 4 5 6 
#
# 1 0.013454 -0.001324 0.013240 -0.003305 -0.001783 0.002067
# 2 -0.001324 0.007167 -0.012219 -0.002926 0.003172 -0.000878
# 3 0.013240 -0.012219 0.090255 -0.022237 -0.009997 0.010243
# 4 -0.003305 -0.002926 -0.022237 0.063676 -0.008449 -0.003185
# 5 -0.001783 0.003172 -0.009997 -0.008449 0.028939 0.000931
# 6 0.002067 -0.000878 0.010243 -0.003185 0.000931 0.036608
#
#
# Mechanical properties :
#
#
# Convention : Reuss Voigt Hill
#
# Bulk Modulus (GPa) = 9.06858 37.40049 23.23454
# Shear Modulus (GPa) = 18.02071 37.73771 27.87921
#
# Velocity S-wave (km/s) = 2.88381 4.17319 3.58691
# Velocity P-wave (km/s) = 3.90813 6.36244 5.27987
#
# Compressibility (1/GPa) = 0.11027082
#
# Stress axis : x y z
#
# Youngs Moduli (GPa) = 74.32926 139.53755 11.07972
#
# Poissons Ratio (x) = 0.18471 -0.14670
# Poissons Ratio (y) = 0.09839 0.13538
# Poissons Ratio (z) = -0.98415 1.70498
#
# Static dielectric constant tensor:
#      x y z
#    x 1.746400 0.007590 -0.005010 
#    y 0.007590 1.848870 0.003670 
#    z -0.005010 0.003670 1.827840 
# 
# From -- ./inp_files/11430.got.cif
#   From: 2010.05.17/outbox.cif.g08.bks.cpg/sg2_6_cif.got.tgz:11430.got - 2010.06.03 11:33:40.
