data_PCOD9083556
_publ_section_title
;
Structure prediction by ZEFSAII (Michael W. Deem and Ramdas Pophale) SiO2 
 PCOD9083556
Probable space group: P -1
;
_chemical_formula_sum "Si O2"
_cell_formula_units_Z 14
_cell_length_a 15.162959
_cell_length_b 7.295596
_cell_length_c 23.385926
_cell_angle_alpha 48.594877
_cell_angle_beta 19.854734
_cell_angle_gamma 40.689956
_cell_volume 556.953673
_symmetry_space_group_name_H-M "P -1"
_symmetry_group_IT_number 2
_symmetry_cell_setting 'triclinic'
loop_
_space_group_symop_operation_xyz
x,y,z
-x,-y,-z
loop_
_atom_site_type_symbol
_atom_site_label
_atom_site_fract_x
_atom_site_fract_y
_atom_site_fract_z
Si Si1 0.742061 0.379103 0.327791
Si Si2 0.629938 0.034394 0.629761
Si Si3 0.870071 0.019488 0.222234
Si Si4 0.692654 0.754295 0.103108
Si Si5 0.199255 0.965390 0.227066
Si Si6 0.327178 0.741146 0.829357
Si Si7 0.355065 0.407494 0.058242
O O1 0.500000 0.500000 0.500000
O O2 0.656500 0.666671 0.285426
O O3 0.049417 0.169943 0.218861
O O4 0.697531 0.178821 0.352072
O O5 0.581283 0.095003 0.714686
O O6 0.936500 0.974872 0.423973
O O7 0.578342 0.777248 0.700115
O O8 0.012373 0.681992 0.201134
O O9 0.675700 0.180578 0.251835
O O10 0.168816 0.050988 0.036274
O O11 0.630285 0.572156 0.132779
O O12 0.000000 0.500000 0.000000
O O13 0.328128 0.136206 0.146371
O O14 0.447466 0.672028 0.104023
O O15 0.000000 0.000000 0.000000
O O16 0.500000 0.500000 0.000000
#
# Coordination Sequence:
#
# PCOD9083556 Si02
#       7
#     2   2   2   2   2   2   2
#     4  10  19  36  58  91 127 153 189 254 305 357
#     4  11  20  38  59  92 127 151 194 254 308 360
#     4  11  20  38  63  90 123 161 207 241 299 373
#     4  10  19  34  56  88 121 153 194 239 300 361
#     4  10  24  41  60  86 121 159 206 256 296 351
#     4  11  19  34  62  94 121 159 189 242 316 361
#     4  11  23  43  62  84 115 170 212 243 295 357
#
# _framework density 25.136741000000001
#
# number of rings (size 3 to 8) (size 9 to 14) (size 15 to 20)
#    0.000    1.429    7.143    0.857    0.000    1.143 
#    0.000    3.571    0.000    1.714    0.000    0.000 
#    0.000    0.000    0.000    0.000    0.000    0.000 
#
# Total GULP energy -78282.516581 kJ/mol
# GULP energy per Si atom -5591.608327 kJ/mol
# Density = 2.507953 g / cm^3
# Si number density = 25.136741 Si / 1000 Ang^3
#
#
#
# Elastic Constant Matrix: (Units=GPa)
#
#
# Indices 1 2 3 4 5 6 
#
# 1 63.6075 27.1692 18.2402 11.9174 19.1888 26.8728
# 2 27.1692 156.0607 52.8877 9.6812 13.8863 28.3029
# 3 18.2402 52.8877 171.8668 3.6483 33.9845 31.3474
# 4 11.9174 9.6812 3.6483 36.8632 13.0073 -0.8913
# 5 19.1888 13.8863 33.9845 13.0073 37.5088 10.8873
# 6 26.8728 28.3029 31.3474 -0.8913 10.8873 54.1684
#
#
#
# Elastic Compliance Matrix: (Units=1/GPa)
#
#
# Indices 1 2 3 4 5 6 
#
# 1 0.023719 -0.001811 0.001654 -0.004637 -0.008404 -0.010165
# 2 -0.001811 0.007817 -0.001972 -0.001707 0.001076 -0.002289
# 3 0.001654 -0.001972 0.008202 0.001650 -0.007233 -0.003056
# 4 -0.004637 -0.001707 0.001650 0.033068 -0.011432 0.005079
# 5 -0.008404 0.001076 -0.007233 -0.011432 0.041280 -0.000692
# 6 -0.010165 -0.002289 -0.003056 0.005079 -0.000692 0.026691
#
#
# Mechanical properties :
#
#
# Convention : Reuss Voigt Hill
#
# Bulk Modulus (GPa) = 28.18452 65.34770 46.76611
# Shear Modulus (GPa) = 31.87507 45.25726 38.56616
#
# Velocity S-wave (km/s) = 3.56486 4.24777 3.92121
# Velocity P-wave (km/s) = 5.30859 7.07894 6.25669
#
# Compressibility (1/GPa) = 0.03548047
#
# Stress axis : x y z
#
# Youngs Moduli (GPa) = 42.15981 127.93154 121.91570
#
# Poissons Ratio (x) = 0.23169 -0.20169
# Poissons Ratio (y) = 0.07635 0.24045
# Poissons Ratio (z) = -0.06975 0.25231
#
# Static dielectric constant tensor:
#      x y z
#    x 2.100100 -0.040020 -0.027110 
#    y -0.040020 2.042880 -0.013270 
#    z -0.027110 -0.013270 1.982530 
# 
# From -- ./inp_files/424675.got.cif
#   From: 2010.05.17/outbox.cif.g08.bks.cpg/sg2_213_cif.got.tgz:424675.got - 2010.06.03 11:33:40.
