data_PCOD9083274
_publ_section_title
;
Structure prediction by ZEFSAII (Michael W. Deem and Ramdas Pophale) SiO2 
 PCOD9083274
Probable space group: P -1
;
_chemical_formula_sum "Si O2"
_cell_formula_units_Z 16
_cell_length_a 19.073984
_cell_length_b 27.199159
_cell_length_c 28.259942
_cell_angle_alpha 169.871633
_cell_angle_beta 160.801375
_cell_angle_gamma 19.104126
_cell_volume 817.789234
_symmetry_space_group_name_H-M "P -1"
_symmetry_group_IT_number 2
_symmetry_cell_setting 'triclinic'
loop_
_space_group_symop_operation_xyz
x,y,z
-x,-y,-z
loop_
_atom_site_type_symbol
_atom_site_label
_atom_site_fract_x
_atom_site_fract_y
_atom_site_fract_z
Si Si1 0.218300 0.563088 0.178392
Si Si2 0.696293 0.310836 0.280501
Si Si3 0.314175 0.131021 0.745708
Si Si4 0.022458 0.046634 0.307230
Si Si5 0.284903 0.988930 0.324205
Si Si6 0.270423 0.598505 0.861727
Si Si7 0.762185 0.602941 0.150183
Si Si8 0.798507 0.881081 0.848813
O O1 0.431341 0.421004 0.211746
O O2 0.206031 0.899181 0.481789
O O3 0.271074 0.410848 0.016687
O O4 0.000000 0.500000 0.000000
O O5 0.770830 0.185498 0.261687
O O6 0.790993 0.586706 0.591973
O O7 0.771991 0.109309 0.091119
O O8 0.224357 0.221334 0.722172
O O9 0.578638 0.983121 0.773836
O O10 0.117861 0.008543 0.278860
O O11 0.140354 0.249965 0.604854
O O12 0.094157 0.729957 0.075951
O O13 0.245664 0.272343 0.534499
O O14 0.500000 0.000000 0.500000
O O15 0.301930 0.701718 0.033159
O O16 0.026889 0.813546 0.900775
O O17 0.501488 0.610630 0.996859
#
# Coordination Sequence:
#
# PCOD9083274 Si02
#       8
#     2   2   2   2   2   2   2   2
#     4  10  21  42  71  88 101 132 178 236 286 332
#     4  10  20  34  57  87 108 133 184 242 279 304
#     4  10  23  40  57  86 116 141 179 222 280 343
#     4  12  21  34  53  78 115 153 189 227 272 313
#     4  12  20  30  47  75 107 147 203 244 247 290
#     4  12  20  31  50  76 108 154 198 228 267 293
#     4  12  24  34  52  79 119 163 182 212 271 336
#     4  10  19  34  54  76 111 147 188 243 266 294
#
# _framework density 19.564944000000001
#
# number of rings (size 3 to 8) (size 9 to 14) (size 15 to 20)
#    0.000    1.000    5.000    3.000    0.000    0.500 
#    0.000    0.000    0.000   12.000    0.000    0.000 
#    0.000    0.000    0.000    0.000    0.000    0.000 
#
# Total GULP energy -89216.069620 kJ/mol
# GULP energy per Si atom -5576.004351 kJ/mol
# Density = 1.952041 g / cm^3
# Si number density = 19.564944 Si / 1000 Ang^3
#
#
#
# Elastic Constant Matrix: (Units=GPa)
#
#
# Indices 1 2 3 4 5 6 
#
# 1 37.1234 35.2285 1.0918 -8.1248 6.7482 14.0476
# 2 35.2285 83.6035 15.9725 -11.3210 18.6180 8.3385
# 3 1.0918 15.9725 86.0378 6.6786 6.4302 9.5841
# 4 -8.1248 -11.3210 6.6786 31.9627 -2.7467 2.8675
# 5 6.7482 18.6180 6.4302 -2.7467 13.7061 0.8932
# 6 14.0476 8.3385 9.5841 2.8675 0.8932 21.8398
#
#
#
# Elastic Compliance Matrix: (Units=1/GPa)
#
#
# Indices 1 2 3 4 5 6 
#
# 1 0.066074 -0.024466 0.006957 0.010219 0.001938 -0.037633
# 2 -0.024466 0.027882 -0.004052 0.001751 -0.024074 0.007624
# 3 0.006957 -0.004052 0.013715 -0.002134 -0.004230 -0.008494
# 4 0.010219 0.001751 -0.002134 0.036079 0.001546 -0.011105
# 5 0.001938 -0.024074 -0.004230 0.001546 0.106661 0.005236
# 6 -0.037633 0.007624 -0.008494 -0.011105 0.005236 0.072054
#
#
# Mechanical properties :
#
#
# Convention : Reuss Voigt Hill
#
# Bulk Modulus (GPa) = 15.49154 34.59449 25.04301
# Shear Modulus (GPa) = 12.91648 23.79984 18.35816
#
# Velocity S-wave (km/s) = 2.57219 3.49155 3.06652
# Velocity P-wave (km/s) = 4.09350 5.82879 5.03645
#
# Compressibility (1/GPa) = 0.06455136
#
# Stress axis : x y z
#
# Youngs Moduli (GPa) = 15.13452 35.86496 72.91499
#
# Poissons Ratio (x) = 0.87746 -0.50731
# Poissons Ratio (y) = 0.37028 0.29543
# Poissons Ratio (z) = -0.10530 0.14531
#
# Static dielectric constant tensor:
#      x y z
#    x 1.360350 1.032080 -0.306350 
#    y 1.032080 -1.742110 1.094050 
#    z -0.306350 1.094050 1.353110 
# 
# From -- ./inp_files/620548.got.cif
#   From: 2010.05.17/outbox.cif.g08.bks.cpg/sg2_311_cif.got.tgz:620548.got - 2010.06.03 11:33:40.
