data_PCOD9083938
_publ_section_title
;
Structure prediction by ZEFSAII (Michael W. Deem and Ramdas Pophale) SiO2 
 PCOD9083938
Probable space group: P -1
;
_chemical_formula_sum "Si O2"
_cell_formula_units_Z 16
_cell_length_a 15.667620
_cell_length_b 9.243145
_cell_length_c 18.717211
_cell_angle_alpha 54.194455
_cell_angle_beta 36.620028
_cell_angle_gamma 34.048765
_cell_volume 878.951803
_symmetry_space_group_name_H-M "P -1"
_symmetry_group_IT_number 2
_symmetry_cell_setting 'triclinic'
loop_
_space_group_symop_operation_xyz
x,y,z
-x,-y,-z
loop_
_atom_site_type_symbol
_atom_site_label
_atom_site_fract_x
_atom_site_fract_y
_atom_site_fract_z
Si Si1 0.085648 0.164859 0.531032
Si Si2 0.334266 0.933509 0.300227
Si Si3 0.013998 0.162476 0.327158
Si Si4 0.006416 0.709507 0.851697
Si Si5 0.336832 0.262023 0.363764
Si Si6 0.680612 0.881467 0.127017
Si Si7 0.599132 0.714200 0.526000
Si Si8 0.411892 0.571602 0.620266
O O1 0.271301 0.111398 0.460400
O O2 0.863687 0.455366 0.619534
O O3 0.135099 0.177457 0.412490
O O4 0.056376 0.977579 0.602781
O O5 0.515064 0.917808 0.179488
O O6 0.443810 0.687453 0.350414
O O7 0.222458 0.967122 0.294387
O O8 0.063003 0.220681 0.204117
O O9 0.816779 0.449187 0.415606
O O10 0.148030 0.406891 0.866216
O O11 0.175871 0.712279 0.741501
O O12 0.811566 0.892037 0.985124
O O13 0.371029 0.326159 0.397540
O O14 0.537675 0.089617 0.226702
O O15 0.425247 0.745999 0.599337
O O16 0.500000 0.000000 0.500000
O O17 0.500000 0.500000 0.500000
#
# Coordination Sequence:
#
# PCOD9083938 Si02
#       8
#     2   2   2   2   2   2   2   2
#     4  10  19  34  59  84 119 151 186 238 303 349
#     4  10  19  34  61  85 118 150 196 244 287 349
#     4  12  21  36  61  92 116 152 199 248 298 347
#     4  10  21  38  62  81 116 161 202 237 283 364
#     4  10  21  36  55  87 119 151 188 242 296 348
#     4   9  21  40  58  83 117 163 198 234 296 347
#     4  12  24  32  55  92 123 144 191 248 299 343
#     4  11  21  38  60  89 117 154 197 240 298 356
#
# _framework density 18.203499999999998
#
# number of rings (size 3 to 8) (size 9 to 14) (size 15 to 20)
#    0.000    1.500    3.750    1.875    5.250    0.500 
#    0.000    1.250    0.000    1.500    0.000    0.000 
#    0.000    0.000    0.000    0.000    0.000    0.000 
#
# Total GULP energy -89073.790813 kJ/mol
# GULP energy per Si atom -5567.111926 kJ/mol
# Density = 1.816207 g / cm^3
# Si number density = 18.203500 Si / 1000 Ang^3
#
#
#
# Elastic Constant Matrix: (Units=GPa)
#
#
# Indices 1 2 3 4 5 6 
#
# 1 117.1605 39.9618 64.0401 -13.6104 13.7712 0.3802
# 2 39.9618 76.9297 42.5611 9.9584 0.5448 9.7744
# 3 64.0401 42.5611 145.3858 7.5024 7.5627 0.0658
# 4 -13.6104 9.9584 7.5024 22.6182 5.1459 -0.4675
# 5 13.7712 0.5448 7.5627 5.1459 20.6598 0.6989
# 6 0.3802 9.7744 0.0658 -0.4675 0.6989 35.4356
#
#
#
# Elastic Compliance Matrix: (Units=1/GPa)
#
#
# Indices 1 2 3 4 5 6 
#
# 1 0.019739 -0.010058 -0.006044 0.022082 -0.016288 0.003186
# 2 -0.010058 0.022270 -0.001753 -0.018019 0.011466 -0.006496
# 3 -0.006044 -0.001753 0.010298 -0.006720 0.001965 0.000402
# 4 0.022082 -0.018019 -0.006720 0.074760 -0.030620 0.006336
# 5 -0.016288 0.011466 0.001965 -0.030620 0.066024 -0.004698
# 6 0.003186 -0.006496 0.000402 0.006336 -0.004698 0.030153
#
#
# Mechanical properties :
#
#
# Convention : Reuss Voigt Hill
#
# Bulk Modulus (GPa) = 60.24968 70.28912 65.26940
# Shear Modulus (GPa) = 18.90466 28.60359 23.75413
#
# Velocity S-wave (km/s) = 3.22610 3.96829 3.61629
# Velocity P-wave (km/s) = 6.85906 7.72614 7.30548
#
# Compressibility (1/GPa) = 0.01659760
#
# Stress axis : x y z
#
# Youngs Moduli (GPa) = 50.66131 44.90387 97.10602
#
# Poissons Ratio (x) = 0.45163 0.58691
# Poissons Ratio (y) = 0.50954 0.17021
# Poissons Ratio (z) = 0.30620 0.07871
#
# Static dielectric constant tensor:
#      x y z
#    x 1.686070 -0.022620 -0.016440 
#    y -0.022620 1.723140 -0.006230 
#    z -0.016440 -0.006230 1.618290 
# 
# From -- ./inp_files/572564.got.cif
#   From: 2010.05.17/outbox.cif.g08.bks.cpg/sg2_287_cif.got.tgz:572564.got - 2010.06.03 11:33:40.
