data_PCOD9083523
_publ_section_title
;
Structure prediction by ZEFSAII (Michael W. Deem and Ramdas Pophale) SiO2 
 PCOD9083523
Probable space group: P -1
;
_chemical_formula_sum "Si O2"
_cell_formula_units_Z 16
_cell_length_a 5.013019
_cell_length_b 29.829111
_cell_length_c 19.281824
_cell_angle_alpha 17.063286
_cell_angle_beta 68.654861
_cell_angle_gamma 61.379117
_cell_volume 691.502683
_symmetry_space_group_name_H-M "P -1"
_symmetry_group_IT_number 2
_symmetry_cell_setting 'triclinic'
loop_
_space_group_symop_operation_xyz
x,y,z
-x,-y,-z
loop_
_atom_site_type_symbol
_atom_site_label
_atom_site_fract_x
_atom_site_fract_y
_atom_site_fract_z
Si Si1 0.948226 0.354289 0.755865
Si Si2 0.590913 0.997880 0.746056
Si Si3 0.705747 0.624893 0.175447
Si Si4 0.031394 0.624102 0.873959
Si Si5 0.902768 0.778964 0.295158
Si Si6 0.813539 0.118937 0.757450
Si Si7 0.244067 0.993372 0.654618
Si Si8 0.487207 0.315380 0.359860
O O1 0.594538 0.372392 0.757062
O O2 0.000000 0.500000 0.500000
O O3 0.039287 0.357428 0.823705
O O4 0.220508 0.168292 0.978113
O O5 0.341480 0.976923 0.751018
O O6 0.890526 0.002722 0.667833
O O7 0.406032 0.172017 0.548458
O O8 0.881368 0.429215 0.419422
O O9 0.523755 0.803353 0.882726
O O10 0.284556 0.668138 0.744908
O O11 0.174047 0.504192 0.105754
O O12 0.769654 0.819792 0.634691
O O13 0.000000 0.500000 0.000000
O O14 0.529470 0.823686 0.254854
O O15 0.962765 0.837138 0.279098
O O16 0.965698 0.909129 0.046334
O O17 0.687028 0.236788 0.526650
#
# Coordination Sequence:
#
# PCOD9083523 Si02
#       8
#     2   2   2   2   2   2   2   2
#     4  10  20  32  49  82 111 143 181 222 272 349
#     4   9  18  31  47  76 111 140 178 210 271 339
#     4  10  20  36  56  74 110 152 181 231 282 322
#     4  10  19  34  56  85 118 145 181 222 297 355
#     4  10  22  42  58  82 109 153 199 238 275 322
#     4  10  23  39  60  83 111 145 202 240 275 325
#     4   9  18  33  51  77 110 143 176 213 272 342
#     4  10  21  34  56  84 114 151 178 239 286 338
#
# _framework density 23.138014999999999
#
# number of rings (size 3 to 8) (size 9 to 14) (size 15 to 20)
#    0.000    2.250    1.250    1.125    3.500    0.000 
#    4.500    0.000    0.000    1.500    0.000    0.000 
#    0.000    0.000    0.000    0.000    0.000    0.000 
#
# Total GULP energy -89097.360201 kJ/mol
# GULP energy per Si atom -5568.585013 kJ/mol
# Density = 2.308535 g / cm^3
# Si number density = 23.138015 Si / 1000 Ang^3
#
#
#
# Elastic Constant Matrix: (Units=GPa)
#
#
# Indices 1 2 3 4 5 6 
#
# 1 83.0086 11.3756 5.8861 -8.3291 -6.0526 12.0050
# 2 11.3756 25.8369 32.2561 1.4971 0.6139 10.2195
# 3 5.8861 32.2561 206.3850 -29.4074 4.3213 4.1249
# 4 -8.3291 1.4971 -29.4074 33.7923 9.3777 6.1577
# 5 -6.0526 0.6139 4.3213 9.3777 35.5556 -4.6598
# 6 12.0050 10.2195 4.1249 6.1577 -4.6598 21.4262
#
#
#
# Elastic Compliance Matrix: (Units=1/GPa)
#
#
# Indices 1 2 3 4 5 6 
#
# 1 0.014478 -0.005695 0.001601 0.006741 -0.000423 -0.007733
# 2 -0.005695 0.064209 -0.010645 -0.008884 -0.001476 -0.023153
# 3 0.001601 -0.010645 0.007725 0.008408 -0.002742 -0.000320
# 4 0.006741 -0.008884 0.008408 0.046082 -0.014166 -0.017483
# 5 -0.000423 -0.001476 -0.002742 -0.014166 0.033839 0.012899
# 6 -0.007733 -0.023153 -0.000320 -0.017483 0.012899 0.069939
#
#
# Mechanical properties :
#
#
# Convention : Reuss Voigt Hill
#
# Bulk Modulus (GPa) = 17.56411 46.02956 31.79684
# Shear Modulus (GPa) = 17.56062 35.86899 26.71480
#
# Velocity S-wave (km/s) = 2.75790 3.94155 3.40160
# Velocity P-wave (km/s) = 4.21293 6.37582 5.40370
#
# Compressibility (1/GPa) = 0.05693428
#
# Stress axis : x y z
#
# Youngs Moduli (GPa) = 69.07156 15.57405 129.44508
#
# Poissons Ratio (x) = 0.08869 -0.20724
# Poissons Ratio (y) = 0.39336 1.37796
# Poissons Ratio (z) = -0.11058 0.16579
#
# Static dielectric constant tensor:
#      x y z
#    x 1.856760 -0.021860 0.030630 
#    y -0.021860 1.903020 -0.052930 
#    z 0.030630 -0.052930 2.051670 
# 
# From -- ./inp_files/127178.got.cif
#   From: 2010.05.17/outbox.cif.g08.bks.cpg/sg2_64_cif.got.tgz:127178.got - 2010.06.03 11:33:40.
