data_PCOD9083857
_publ_section_title
;
Structure prediction by ZEFSAII (Michael W. Deem and Ramdas Pophale) SiO2 
 PCOD9083857
Probable space group: P -1
;
_chemical_formula_sum "Si O2"
_cell_formula_units_Z 16
_cell_length_a 8.408485
_cell_length_b 11.937761
_cell_length_c 12.640357
_cell_angle_alpha 143.079533
_cell_angle_beta 128.684404
_cell_angle_gamma 50.968331
_cell_volume 571.621369
_symmetry_space_group_name_H-M "P -1"
_symmetry_group_IT_number 2
_symmetry_cell_setting 'triclinic'
loop_
_space_group_symop_operation_xyz
x,y,z
-x,-y,-z
loop_
_atom_site_type_symbol
_atom_site_label
_atom_site_fract_x
_atom_site_fract_y
_atom_site_fract_z
Si Si1 0.669360 0.527470 0.731948
Si Si2 0.105262 0.435501 0.355249
Si Si3 0.398990 0.168455 0.455729
Si Si4 0.736517 0.276990 0.010894
Si Si5 0.010602 0.097414 0.331985
Si Si6 0.334600 0.586649 0.135972
Si Si7 0.652318 0.086969 0.023472
Si Si8 0.321117 0.898426 0.651934
O O1 0.791055 0.604095 0.748511
O O2 0.780948 0.450905 0.833114
O O3 0.470987 0.699362 0.820546
O O4 0.375638 0.663591 0.483997
O O5 0.246811 0.307695 0.409745
O O6 0.062942 0.665647 0.525765
O O7 0.886967 0.378887 0.214940
O O8 0.499091 0.300811 0.670636
O O9 0.605898 0.037887 0.381497
O O10 0.256886 0.060826 0.380651
O O11 0.485726 0.388816 0.001684
O O12 0.740080 0.091608 0.943820
O O13 0.793111 0.299601 0.929266
O O14 0.866560 0.024685 0.132456
O O15 0.919687 0.039981 0.361271
O O16 0.471947 0.973505 0.852761
#
# Coordination Sequence:
#
# PCOD9083857 Si02
#       8
#     2   2   2   2   2   2   2   2
#     4   9  21  38  60  84 122 158 193 245 301 351
#     4  11  19  34  60  92 116 154 203 244 296 358
#     4  11  20  36  59  87 120 156 198 247 296 353
#     4  10  19  34  58  87 118 155 200 241 293 358
#     4  11  20  34  59  87 120 157 192 248 297 348
#     4   9  19  35  56  86 117 158 198 237 299 355
#     4  11  21  39  59  86 124 157 192 250 298 349
#     4  10  23  38  57  93 123 155 197 246 301 355
#
# _framework density 27.990556999999999
#
# number of rings (size 3 to 8) (size 9 to 14) (size 15 to 20)
#    0.000    1.750    2.500    3.750    0.000    4.500 
#    2.250    2.500    0.000    0.750    0.000    0.000 
#    0.000    0.000    0.000    0.000    0.000    0.000 
#
# Total GULP energy -89503.990795 kJ/mol
# GULP energy per Si atom -5593.999425 kJ/mol
# Density = 2.792685 g / cm^3
# Si number density = 27.990557 Si / 1000 Ang^3
#
#
#
# Elastic Constant Matrix: (Units=GPa)
#
#
# Indices 1 2 3 4 5 6 
#
# 1 191.1173 35.8024 30.0084 -10.1832 1.7589 45.1463
# 2 35.8024 113.4221 31.8309 -19.1932 -2.6323 9.2956
# 3 30.0084 31.8309 129.7267 2.9978 11.4688 3.1436
# 4 -10.1832 -19.1932 2.9978 43.9972 6.2905 -9.7800
# 5 1.7589 -2.6323 11.4688 6.2905 51.9324 2.3085
# 6 45.1463 9.2956 3.1436 -9.7800 2.3085 41.6293
#
#
#
# Elastic Compliance Matrix: (Units=1/GPa)
#
#
# Indices 1 2 3 4 5 6 
#
# 1 0.007533 -0.001491 -0.001202 -0.000636 0.000364 -0.007915
# 2 -0.001491 0.010716 -0.002450 0.004512 0.000569 0.000438
# 3 -0.001202 -0.002450 0.008765 -0.001464 -0.001884 0.000950
# 4 -0.000636 0.004512 -0.001464 0.026435 -0.002903 0.006164
# 5 0.000364 0.000569 -0.001884 -0.002903 0.020137 -0.002178
# 6 -0.007915 0.000438 0.000950 0.006164 -0.002178 0.034005
#
#
# Mechanical properties :
#
#
# Convention : Reuss Voigt Hill
#
# Bulk Modulus (GPa) = 59.78002 69.94994 64.86498
# Shear Modulus (GPa) = 40.50147 49.95339 45.22743
#
# Velocity S-wave (km/s) = 3.80803 4.22910 4.02408
# Velocity P-wave (km/s) = 6.38266 6.99227 6.69441
#
# Compressibility (1/GPa) = 0.01672800
#
# Stress axis : x y z
#
# Youngs Moduli (GPa) = 132.74874 93.32185 114.08938
#
# Poissons Ratio (x) = 0.13914 0.13717
# Poissons Ratio (y) = 0.19792 0.27947
# Poissons Ratio (z) = 0.15961 0.22860
#
# Static dielectric constant tensor:
#      x y z
#    x 2.278150 -0.011920 -0.143690 
#    y -0.011920 2.217020 0.049180 
#    z -0.143690 0.049180 2.190460 
# 
# From -- ./inp_files/238720.got.cif
#   From: 2010.05.17/outbox.cif.g08.bks.cpg/sg2_120_cif.got.tgz:238720.got - 2010.06.03 11:33:40.
