data_PCOD9083278
_publ_section_title
;
Structure prediction by ZEFSAII (Michael W. Deem and Ramdas Pophale) SiO2 
 PCOD9083278
Probable space group: P -1
;
_chemical_formula_sum "Si O2"
_cell_formula_units_Z 16
_cell_length_a 8.674830
_cell_length_b 14.849946
_cell_length_c 15.536806
_cell_angle_alpha 121.678846
_cell_angle_beta 122.629621
_cell_angle_gamma 23.779318
_cell_volume 676.678057
_symmetry_space_group_name_H-M "P -1"
_symmetry_group_IT_number 2
_symmetry_cell_setting 'triclinic'
loop_
_space_group_symop_operation_xyz
x,y,z
-x,-y,-z
loop_
_atom_site_type_symbol
_atom_site_label
_atom_site_fract_x
_atom_site_fract_y
_atom_site_fract_z
Si Si1 0.007877 0.763358 0.074798
Si Si2 0.976689 0.398205 0.489941
Si Si3 0.846948 0.172589 0.597497
Si Si4 0.998162 0.200611 0.274961
Si Si5 0.926530 0.501011 0.710569
Si Si6 0.045661 0.670461 0.221108
Si Si7 0.954412 0.014020 0.263847
Si Si8 0.068020 0.674739 0.860427
O O1 0.913509 0.739320 0.117181
O O2 0.478652 0.527093 0.097577
O O3 0.884772 0.788924 0.956250
O O4 0.884732 0.945931 0.151242
O O5 0.524076 0.599758 0.451329
O O6 0.148079 0.217285 0.392159
O O7 0.070678 0.365831 0.601580
O O8 0.000000 0.500000 0.500000
O O9 0.092575 0.150620 0.684308
O O10 0.000000 0.000000 0.500000
O O11 0.768804 0.162686 0.663283
O O12 0.520547 0.439961 0.248416
O O13 0.108579 0.031385 0.262271
O O14 0.106017 0.170937 0.194224
O O15 0.052518 0.378767 0.774533
O O16 0.453751 0.744295 0.694174
O O17 0.044038 0.563244 0.775155
#
# Coordination Sequence:
#
# PCOD9083278 Si02
#       8
#     2   2   2   2   2   2   2   2
#     4   9  20  40  59  79 108 145 180 228 275 322
#     4  11  21  35  55  79 115 147 178 220 269 322
#     4  10  19  34  54  77 109 146 178 217 265 318
#     4   9  19  35  55  80 110 148 182 212 269 336
#     4  11  21  34  57  84 108 144 185 224 267 322
#     4   8  19  34  54  79 109 141 184 216 267 330
#     4  10  21  36  56  81 110 143 186 223 266 322
#     4  10  20  38  61  79 108 146 182 223 277 323
#
# _framework density 23.644922999999999
#
# number of rings (size 3 to 8) (size 9 to 14) (size 15 to 20)
#    0.000    2.250    2.500    0.750    1.750    3.000 
#    0.000    4.375    0.000    0.000    0.000    0.000 
#    0.000    0.000    0.000    0.000    0.000    0.000 
#
# Total GULP energy -89419.264903 kJ/mol
# GULP energy per Si atom -5588.704056 kJ/mol
# Density = 2.359111 g / cm^3
# Si number density = 23.644923 Si / 1000 Ang^3
#
#
#
# Elastic Constant Matrix: (Units=GPa)
#
#
# Indices 1 2 3 4 5 6 
#
# 1 101.7438 22.5330 52.5147 -10.6357 -26.4446 31.7661
# 2 22.5330 54.1545 27.1324 -8.9108 -9.1366 6.3301
# 3 52.5147 27.1324 164.6698 -5.5586 -33.0591 18.5481
# 4 -10.6357 -8.9108 -5.5586 28.9834 -1.9533 -2.8012
# 5 -26.4446 -9.1366 -33.0591 -1.9533 26.6974 -3.6075
# 6 31.7661 6.3301 18.5481 -2.8012 -3.6075 50.8511
#
#
#
# Elastic Compliance Matrix: (Units=1/GPa)
#
#
# Indices 1 2 3 4 5 6 
#
# 1 0.018479 -0.002467 -0.001186 0.005907 0.015153 -0.009404
# 2 -0.002467 0.021939 -0.002055 0.005652 0.002944 0.000080
# 3 -0.001186 -0.002055 0.008776 0.001066 0.008862 -0.001517
# 4 0.005907 0.005652 0.001066 0.039230 0.011735 -0.001789
# 5 0.015153 0.002944 0.008862 0.011735 0.064243 -0.007860
# 6 -0.009404 0.000080 -0.001517 -0.001789 -0.007860 0.025427
#
#
# Mechanical properties :
#
#
# Convention : Reuss Voigt Hill
#
# Bulk Modulus (GPa) = 26.47114 58.32536 42.39825
# Shear Modulus (GPa) = 24.73992 35.86559 30.30275
#
# Velocity S-wave (km/s) = 3.23818 3.89889 3.58379
# Velocity P-wave (km/s) = 5.02003 6.70740 5.92410
#
# Compressibility (1/GPa) = 0.03777700
#
# Stress axis : x y z
#
# Youngs Moduli (GPa) = 54.11568 45.58043 113.95331
#
# Poissons Ratio (x) = 0.11245 0.13515
# Poissons Ratio (y) = 0.13350 0.23422
# Poissons Ratio (z) = 0.06418 0.09369
#
# Static dielectric constant tensor:
#      x y z
#    x 1.910190 -0.073810 -0.018460 
#    y -0.073810 1.983670 0.012850 
#    z -0.018460 0.012850 1.897180 
# 
# From -- ./inp_files/187905.got.cif
#   From: 2010.05.17/outbox.cif.g08.bks.cpg/sg2_94_cif.got.tgz:187905.got - 2010.06.03 11:33:40.
