data_PCOD9083606
_publ_section_title
;
Structure prediction by ZEFSAII (Michael W. Deem and Ramdas Pophale) SiO2 
 PCOD9083606
Probable space group: P -1
;
_chemical_formula_sum "Si O2"
_cell_formula_units_Z 16
_cell_length_a 7.484195
_cell_length_b 13.462721
_cell_length_c 11.099072
_cell_angle_alpha 98.611499
_cell_angle_beta 141.980298
_cell_angle_gamma 68.378061
_cell_volume 620.747722
_symmetry_space_group_name_H-M "P -1"
_symmetry_group_IT_number 2
_symmetry_cell_setting 'triclinic'
loop_
_space_group_symop_operation_xyz
x,y,z
-x,-y,-z
loop_
_atom_site_type_symbol
_atom_site_label
_atom_site_fract_x
_atom_site_fract_y
_atom_site_fract_z
Si Si1 0.070375 0.673078 0.325223
Si Si2 0.035121 0.845500 0.495279
Si Si3 0.302009 0.647353 0.867382
Si Si4 0.638249 0.455474 0.871821
Si Si5 0.189016 0.967891 0.398164
Si Si6 0.215793 0.251206 0.069582
Si Si7 0.734712 0.574559 0.560362
Si Si8 0.913893 0.869496 0.805948
O O1 0.952344 0.743219 0.397146
O O2 0.440449 0.651894 0.499948
O O3 0.099122 0.548568 0.320205
O O4 0.879394 0.737000 0.118745
O O5 0.406708 0.800861 0.720936
O O6 0.836973 0.932012 0.506486
O O7 0.002463 0.910554 0.363290
O O8 0.530752 0.583539 0.868791
O O9 0.984798 0.625675 0.678953
O O10 0.183854 0.774574 0.855430
O O11 0.451479 0.590485 0.062539
O O12 0.435829 0.440800 0.653231
O O13 0.005277 0.374944 0.031969
O O14 0.069605 0.018482 0.212295
O O15 0.560209 0.887521 0.576719
O O16 0.082058 0.175370 0.064626
#
# Coordination Sequence:
#
# PCOD9083606 Si02
#       8
#     2   2   2   2   2   2   2   2
#     4  10  21  35  55  82 115 152 186 225 278 335
#     4  10  20  38  62  81 113 149 185 234 286 322
#     4  10  19  34  57  81 115 151 179 227 280 330
#     4   9  19  33  53  82 116 146 183 221 271 336
#     4   9  19  36  60  86 104 145 197 235 277 334
#     4   9  19  38  56  83 118 147 180 234 274 335
#     4  10  20  34  52  81 116 151 187 221 268 338
#     4   9  18  36  60  81 112 146 188 236 283 320
#
# _framework density 25.775365000000001
#
# number of rings (size 3 to 8) (size 9 to 14) (size 15 to 20)
#    0.000    2.500    0.000    2.625    1.750    1.000 
#    4.500   11.875    0.000    4.500    0.000    0.000 
#    0.000    0.000    0.000    0.000    0.000    0.000 
#
# Total GULP energy -89473.056666 kJ/mol
# GULP energy per Si atom -5592.066042 kJ/mol
# Density = 2.571670 g / cm^3
# Si number density = 25.775365 Si / 1000 Ang^3
#
#
#
# Elastic Constant Matrix: (Units=GPa)
#
#
# Indices 1 2 3 4 5 6 
#
# 1 100.9711 15.8437 34.1114 -8.1493 0.4490 -1.5009
# 2 15.8437 86.0695 30.3255 -10.1619 -5.7141 -19.2124
# 3 34.1114 30.3255 111.8315 -9.4241 -16.4618 6.7718
# 4 -8.1493 -10.1619 -9.4241 34.8318 6.1534 -8.9122
# 5 0.4490 -5.7141 -16.4618 6.1534 43.2289 -15.2433
# 6 -1.5009 -19.2124 6.7718 -8.9122 -15.2433 44.6514
#
#
#
# Elastic Compliance Matrix: (Units=1/GPa)
#
#
# Indices 1 2 3 4 5 6 
#
# 1 0.011318 -0.000678 -0.003369 0.001935 -0.001612 0.000436
# 2 -0.000678 0.016109 -0.003802 0.005405 0.003341 0.009705
# 3 -0.003369 -0.003802 0.011608 0.000074 0.003081 -0.002443
# 4 0.001935 0.005405 0.000074 0.033144 -0.000936 0.008675
# 5 -0.001612 0.003341 0.003081 -0.000936 0.028597 0.010492
# 6 0.000436 0.009705 -0.002443 0.008675 0.010492 0.032270
#
#
# Mechanical properties :
#
#
# Convention : Reuss Voigt Hill
#
# Bulk Modulus (GPa) = 42.84828 51.04815 46.94821
# Shear Modulus (GPa) = 31.94398 39.11519 35.52959
#
# Velocity S-wave (km/s) = 3.52422 3.89979 3.71675
# Velocity P-wave (km/s) = 5.76368 6.33449 6.05582
#
# Compressibility (1/GPa) = 0.02333816
#
# Stress axis : x y z
#
# Youngs Moduli (GPa) = 88.35332 62.07671 86.14472
#
# Poissons Ratio (x) = 0.04207 0.29024
# Poissons Ratio (y) = 0.05987 0.32752
# Poissons Ratio (z) = 0.29768 0.23601
#
# Static dielectric constant tensor:
#      x y z
#    x 2.044420 0.046750 -0.039380 
#    y 0.046750 2.063380 -0.049800 
#    z -0.039380 -0.049800 2.000100 
# 
# From -- ./inp_files/346441.got.cif
#   From: 2010.05.17/outbox.cif.g08.bks.cpg/sg2_174_cif.got.tgz:346441.got - 2010.06.03 11:33:40.
