data_PCOD9083773
_publ_section_title
;
Structure prediction by ZEFSAII (Michael W. Deem and Ramdas Pophale) SiO2 
 PCOD9083773
Probable space group: P -1
;
_chemical_formula_sum "Si O2"
_cell_formula_units_Z 16
_cell_length_a 7.783189
_cell_length_b 18.319231
_cell_length_c 14.665825
_cell_angle_alpha 152.550151
_cell_angle_beta 117.872930
_cell_angle_gamma 80.150270
_cell_volume 682.751026
_symmetry_space_group_name_H-M "P -1"
_symmetry_group_IT_number 2
_symmetry_cell_setting 'triclinic'
loop_
_space_group_symop_operation_xyz
x,y,z
-x,-y,-z
loop_
_atom_site_type_symbol
_atom_site_label
_atom_site_fract_x
_atom_site_fract_y
_atom_site_fract_z
Si Si1 0.283865 0.329163 0.316619
Si Si2 0.312281 0.473400 0.690101
Si Si3 0.220021 0.450738 0.123022
Si Si4 0.983475 0.916391 0.744379
Si Si5 0.981096 0.040897 0.681161
Si Si6 0.765713 0.099578 0.539531
Si Si7 0.466631 0.111575 0.327944
Si Si8 0.170214 0.700486 0.821110
O O1 0.500000 0.500000 0.500000
O O2 0.314293 0.403100 0.509488
O O3 0.028482 0.279016 0.163863
O O4 0.234415 0.117399 0.061808
O O5 0.559087 0.525363 0.851134
O O6 0.073435 0.293643 0.482161
O O7 0.306302 0.657986 0.880596
O O8 0.322292 0.673538 0.421317
O O9 0.977202 0.330205 0.870174
O O10 0.151162 0.281975 0.993485
O O11 0.941773 0.942573 0.658920
O O12 0.768501 0.893550 0.724254
O O13 0.120987 0.976474 0.584980
O O14 0.750567 0.994840 0.515219
O O15 0.557130 0.092694 0.428554
O O16 0.358485 0.893907 0.021459
O O17 0.000000 0.500000 0.500000
#
# Coordination Sequence:
#
# PCOD9083773 Si02
#       8
#     2   2   2   2   2   2   2   2
#     4  10  20  36  59  82 108 144 184 233 283 332
#     4  10  19  36  58  78 115 148 180 226 277 334
#     4   9  18  33  58  85 109 147 185 226 276 327
#     4  10  21  36  54  84 111 147 186 228 279 333
#     4   9  19  35  55  79 115 142 193 222 276 324
#     4   9  19  35  59  81 115 147 190 226 277 326
#     4  10  19  34  58  81 114 145 186 232 281 324
#     4   9  20  36  57  84 109 146 187 227 281 335
#
# _framework density 23.434604
#
# number of rings (size 3 to 8) (size 9 to 14) (size 15 to 20)
#    0.750    1.750    0.000    2.250    0.000    2.500 
#    0.000    8.125    0.000    0.000    0.000    0.000 
#    0.000    0.000    0.000    0.000    0.000    0.000 
#
# Total GULP energy -89067.677961 kJ/mol
# GULP energy per Si atom -5566.729873 kJ/mol
# Density = 2.338127 g / cm^3
# Si number density = 23.434604 Si / 1000 Ang^3
#
#
#
# Elastic Constant Matrix: (Units=GPa)
#
#
# Indices 1 2 3 4 5 6 
#
# 1 16.9771 13.5432 6.4558 5.4558 4.6381 1.2506
# 2 13.5432 89.7587 23.7983 30.3625 -2.6945 12.8911
# 3 6.4558 23.7983 99.2129 33.6833 6.8354 7.0947
# 4 5.4558 30.3625 33.6833 51.3095 -4.6176 4.9459
# 5 4.6381 -2.6945 6.8354 -4.6176 22.0113 -2.3042
# 6 1.2506 12.8911 7.0947 4.9459 -2.3042 35.8850
#
#
#
# Elastic Compliance Matrix: (Units=1/GPa)
#
#
# Indices 1 2 3 4 5 6 
#
# 1 0.073007 -0.010559 -0.000011 -0.003116 -0.017267 0.000572
# 2 -0.010559 0.016044 -0.000507 -0.007430 0.002356 -0.004120
# 3 -0.000011 -0.000507 0.013913 -0.009253 -0.006500 -0.001710
# 4 -0.003116 -0.007430 -0.009253 0.031033 0.009227 0.000922
# 5 -0.017267 0.002356 -0.006500 0.009227 0.053649 0.003214
# 6 0.000572 -0.004120 -0.001710 0.000922 0.003214 0.029744
#
#
# Mechanical properties :
#
#
# Convention : Reuss Voigt Hill
#
# Bulk Modulus (GPa) = 12.37463 32.61593 22.49528
# Shear Modulus (GPa) = 18.76306 32.65125 25.70716
#
# Velocity S-wave (km/s) = 2.83266 3.73673 3.31565
# Velocity P-wave (km/s) = 3.99882 5.70663 4.92728
#
# Compressibility (1/GPa) = 0.08081051
#
# Stress axis : x y z
#
# Youngs Moduli (GPa) = 13.69732 62.32791 71.87474
#
# Poissons Ratio (x) = 0.65812 0.00079
# Poissons Ratio (y) = 0.14463 0.03643
# Poissons Ratio (z) = 0.00015 0.03159
#
# Static dielectric constant tensor:
#      x y z
#    x 1.904730 -0.081710 -0.020090 
#    y -0.081710 1.975300 0.024920 
#    z -0.020090 0.024920 2.054160 
# 
# From -- ./inp_files/507350.got.cif
#   From: 2010.05.17/outbox.cif.g08.bks.cpg/sg2_254_cif.got.tgz:507350.got - 2010.06.03 11:33:40.
