data_PCOD9083232
_publ_section_title
;
Structure prediction by ZEFSAII (Michael W. Deem and Ramdas Pophale) SiO2 
 PCOD9083232
Probable space group: P -1
;
_chemical_formula_sum "Si O2"
_cell_formula_units_Z 16
_cell_length_a 8.011611
_cell_length_b 13.069421
_cell_length_c 14.472124
_cell_angle_alpha 126.676506
_cell_angle_beta 36.586587
_cell_angle_gamma 101.188596
_cell_volume 580.927720
_symmetry_space_group_name_H-M "P -1"
_symmetry_group_IT_number 2
_symmetry_cell_setting 'triclinic'
loop_
_space_group_symop_operation_xyz
x,y,z
-x,-y,-z
loop_
_atom_site_type_symbol
_atom_site_label
_atom_site_fract_x
_atom_site_fract_y
_atom_site_fract_z
Si Si1 0.508820 0.144755 0.550670
Si Si2 0.751968 0.821004 0.617289
Si Si3 0.827706 0.975145 0.149858
Si Si4 0.595561 0.637044 0.730733
Si Si5 0.950023 0.630089 0.272239
Si Si6 0.638078 0.744124 0.128116
Si Si7 0.502491 0.155345 0.953695
Si Si8 0.346923 0.612096 0.540370
O O1 0.141800 0.281869 0.738265
O O2 0.500000 0.000000 0.500000
O O3 0.553888 0.202585 0.658998
O O4 0.827966 0.054888 0.286796
O O5 0.066333 0.668432 0.336995
O O6 0.565102 0.921688 0.660045
O O7 0.685991 0.967827 0.784857
O O8 0.000000 0.000000 0.000000
O O9 0.598355 0.745410 0.706721
O O10 0.881659 0.808878 0.054386
O O11 0.423051 0.755268 0.957118
O O12 0.511361 0.514452 0.674343
O O13 0.000000 0.500000 0.500000
O O14 0.556765 0.683796 0.493800
O O15 0.163430 0.442499 0.066909
O O16 0.420511 0.816438 0.168997
O O17 0.072683 0.259546 0.204454
O O18 0.500000 0.500000 0.500000
#
# Coordination Sequence:
#
# PCOD9083232 Si02
#       8
#     2   2   2   2   2   2   2   2
#     4   9  20  35  49  77 120 155 187 232 290 350
#     4  10  20  30  52  79 114 147 194 233 289 336
#     4   9  20  32  54  87 119 145 188 241 290 334
#     4  10  20  35  50  76 121 153 189 235 295 349
#     4  11  20  31  55  82 113 146 196 242 293 333
#     4  10  19  34  53  79 113 154 188 232 286 349
#     4  10  21  34  54  78 117 159 191 232 291 349
#     4  11  20  34  53  87 118 147 188 251 294 339
#
# _framework density 27.542152999999999
#
# number of rings (size 3 to 8) (size 9 to 14) (size 15 to 20)
#    0.000    2.000    2.500    2.250    8.750    0.000 
#    0.000    0.000    0.000    0.750    0.000    0.875 
#    0.000    2.125    0.000    0.000    0.000    0.000 
#
# Total GULP energy -89159.715909 kJ/mol
# GULP energy per Si atom -5572.482244 kJ/mol
# Density = 2.747947 g / cm^3
# Si number density = 27.542153 Si / 1000 Ang^3
#
#
#
# Elastic Constant Matrix: (Units=GPa)
#
#
# Indices 1 2 3 4 5 6 
#
# 1 97.9433 29.2297 62.6734 -3.0777 47.9227 -4.4546
# 2 29.2297 134.2839 66.2733 18.3224 8.6223 -12.4096
# 3 62.6734 66.2733 175.9580 11.1673 59.1272 0.6564
# 4 -3.0777 18.3224 11.1673 56.4635 -2.0983 3.2714
# 5 47.9227 8.6223 59.1272 -2.0983 80.1285 -5.7494
# 6 -4.4546 -12.4096 0.6564 3.2714 -5.7494 32.2277
#
#
#
# Elastic Compliance Matrix: (Units=1/GPa)
#
#
# Indices 1 2 3 4 5 6 
#
# 1 0.016203 -0.001998 -0.002610 0.001769 -0.007503 0.000005
# 2 -0.001998 0.010611 -0.004296 -0.002851 0.003494 0.004810
# 3 -0.002610 -0.004296 0.010235 -0.000803 -0.005778 -0.003173
# 4 0.001769 -0.002851 -0.000803 0.019056 0.000144 -0.002746
# 5 -0.007503 0.003494 -0.005778 0.000144 0.021159 0.004186
# 6 0.000005 0.004810 -0.003173 -0.002746 0.004186 0.033972
#
#
# Mechanical properties :
#
#
# Convention : Reuss Voigt Hill
#
# Bulk Modulus (GPa) = 51.96837 80.50423 66.23630
# Shear Modulus (GPa) = 36.91167 50.43120 43.67143
#
# Velocity S-wave (km/s) = 3.66483 4.28373 3.98631
# Velocity P-wave (km/s) = 6.06775 7.33212 6.72969
#
# Compressibility (1/GPa) = 0.01924247
#
# Stress axis : x y z
#
# Youngs Moduli (GPa) = 61.71561 94.23974 97.70186
#
# Poissons Ratio (x) = 0.18830 0.25498
# Poissons Ratio (y) = 0.12331 0.41972
# Poissons Ratio (z) = 0.16106 0.40484
#
# Static dielectric constant tensor:
#      x y z
#    x 2.248060 0.109340 0.020090 
#    y 0.109340 1.801710 -0.227170 
#    z 0.020090 -0.227170 2.308340 
# 
# From -- ./inp_files/177834.got.cif
#   From: 2010.05.17/outbox.cif.g08.bks.cpg/sg2_89_cif.got.tgz:177834.got - 2010.06.03 11:33:40.
