data_PCOD9083790
_publ_section_title
;
Structure prediction by ZEFSAII (Michael W. Deem and Ramdas Pophale) SiO2 
 PCOD9083790
Probable space group: P -1
;
_chemical_formula_sum "Si O2"
_cell_formula_units_Z 16
_cell_length_a 14.391800
_cell_length_b 8.465494
_cell_length_c 14.138641
_cell_angle_alpha 113.515227
_cell_angle_beta 33.583181
_cell_angle_gamma 123.422005
_cell_volume 788.551589
_symmetry_space_group_name_H-M "P -1"
_symmetry_group_IT_number 2
_symmetry_cell_setting 'triclinic'
loop_
_space_group_symop_operation_xyz
x,y,z
-x,-y,-z
loop_
_atom_site_type_symbol
_atom_site_label
_atom_site_fract_x
_atom_site_fract_y
_atom_site_fract_z
Si Si1 0.326296 0.974617 0.341405
Si Si2 0.033058 0.770765 0.713821
Si Si3 0.104024 0.174980 0.526622
Si Si4 0.615398 0.597530 0.331409
Si Si5 0.642415 0.220885 0.428517
Si Si6 0.909932 0.393146 0.647407
Si Si7 0.294218 0.737607 0.836804
Si Si8 0.013563 0.135948 0.815993
O O1 0.173558 0.876465 0.531138
O O2 0.267061 0.804960 0.274138
O O3 0.295416 0.155123 0.371492
O O4 0.532329 0.068569 0.229689
O O5 0.174266 0.752389 0.664894
O O6 0.884337 0.557242 0.765732
O O7 0.939526 0.912137 0.849712
O O8 0.034432 0.155861 0.689336
O O9 0.064957 0.342443 0.554654
O O10 0.000000 0.000000 0.500000
O O11 0.500000 0.500000 0.500000
O O12 0.475930 0.663789 0.410206
O O13 0.681456 0.448315 0.192843
O O14 0.794790 0.771369 0.265012
O O15 0.697826 0.272733 0.285384
O O16 0.500000 0.000000 0.500000
O O17 0.000000 0.500000 0.500000
O O18 0.109899 0.756452 0.025576
#
# Coordination Sequence:
#
# PCOD9083790 Si02
#       8
#     2   2   2   2   2   2   2   2
#     4   9  18  37  55  82 111 148 197 234 278 338
#     4  10  19  34  58  83 114 147 197 232 285 338
#     4   9  18  35  61  80 105 148 197 237 275 338
#     4  10  21  37  58  82 112 152 198 231 276 346
#     4  11  19  36  58  85 113 154 197 235 279 338
#     4   9  19  33  58  86 105 135 193 250 277 320
#     4  11  23  36  56  83 123 156 185 238 286 339
#     4  11  22  38  54  86 122 150 186 236 294 344
#
# _framework density 20.290365000000001
#
# number of rings (size 3 to 8) (size 9 to 14) (size 15 to 20)
#    0.000    2.000    2.500    3.375    5.250    0.500 
#    0.000    3.125    0.000    0.000    0.000    0.000 
#    0.000    0.000    0.000    0.000    0.000    0.000 
#
# Total GULP energy -89106.163698 kJ/mol
# GULP energy per Si atom -5569.135231 kJ/mol
# Density = 2.024418 g / cm^3
# Si number density = 20.290365 Si / 1000 Ang^3
#
#
#
# Elastic Constant Matrix: (Units=GPa)
#
#
# Indices 1 2 3 4 5 6 
#
# 1 100.9311 26.5509 18.9491 14.9867 -10.7922 -9.3517
# 2 26.5509 100.7817 21.3393 40.1122 -2.6175 -7.7885
# 3 18.9491 21.3393 56.8799 29.8989 -9.2399 -1.1837
# 4 14.9867 40.1122 29.8989 29.5340 -5.4145 -6.4183
# 5 -10.7922 -2.6175 -9.2399 -5.4145 14.4755 9.1694
# 6 -9.3517 -7.7885 -1.1837 -6.4183 9.1694 35.1501
#
#
#
# Elastic Compliance Matrix: (Units=1/GPa)
#
#
# Indices 1 2 3 4 5 6 
#
# 1 0.011773 -0.003847 -0.003783 0.004561 0.006567 0.001272
# 2 -0.003847 0.032901 0.024643 -0.069444 -0.004345 -0.004450
# 3 -0.003783 0.024643 0.060897 -0.093653 0.014601 -0.014405
# 4 0.004561 -0.069444 -0.093653 0.225936 0.000500 0.023797
# 5 0.006567 -0.004345 0.014601 0.000500 0.098033 -0.024206
# 6 0.001272 -0.004450 -0.014405 0.023797 -0.024206 0.037976
#
#
# Mechanical properties :
#
#
# Convention : Reuss Voigt Hill
#
# Bulk Modulus (GPa) = 7.16348 43.58571 25.37460
# Shear Modulus (GPa) = 10.41622 28.61547 19.51584
#
# Velocity S-wave (km/s) = 2.26820 3.75947 3.10470
# Velocity P-wave (km/s) = 3.22456 6.35393 5.03836
#
# Compressibility (1/GPa) = 0.13959694
#
# Stress axis : x y z
#
# Youngs Moduli (GPa) = 84.94159 30.39440 16.42123
#
# Poissons Ratio (x) = 0.11693 0.06212
# Poissons Ratio (y) = 0.32677 -0.40467
# Poissons Ratio (z) = 0.32134 -0.74902
#
# Static dielectric constant tensor:
#      x y z
#    x 1.734690 -0.016830 -0.014950 
#    y -0.016830 1.772120 0.027610 
#    z -0.014950 0.027610 1.687960 
# 
# From -- ./inp_files/177917.got.cif
#   From: 2010.05.17/outbox.cif.g08.bks.cpg/sg2_89_cif.got.tgz:177917.got - 2010.06.03 11:33:40.
