data_PCOD9083033
_publ_section_title
;
Structure prediction by ZEFSAII (Michael W. Deem and Ramdas Pophale) SiO2 
 PCOD9083033
Probable space group: P -1
;
_chemical_formula_sum "Si O2"
_cell_formula_units_Z 14
_cell_length_a 15.684913
_cell_length_b 7.401982
_cell_length_c 11.785401
_cell_angle_alpha 100.014831
_cell_angle_beta 137.465325
_cell_angle_gamma 111.773968
_cell_volume 602.839834
_symmetry_space_group_name_H-M "P -1"
_symmetry_group_IT_number 2
_symmetry_cell_setting 'triclinic'
loop_
_space_group_symop_operation_xyz
x,y,z
-x,-y,-z
loop_
_atom_site_type_symbol
_atom_site_label
_atom_site_fract_x
_atom_site_fract_y
_atom_site_fract_z
Si Si1 0.767618 0.379492 0.038243
Si Si2 0.560073 0.898990 0.465357
Si Si3 0.181839 0.310217 0.474786
Si Si4 0.029480 0.750589 0.530428
Si Si5 0.428034 0.090116 0.017465
Si Si6 0.886325 0.027595 0.820798
Si Si7 0.081367 0.513607 0.215906
O O1 0.900195 0.638367 0.281620
O O2 0.907820 0.425535 0.097088
O O3 0.620077 0.337466 0.815766
O O4 0.653740 0.101519 0.970822
O O5 0.729995 0.162683 0.582697
O O6 0.500000 0.000000 0.500000
O O7 0.670366 0.849011 0.626441
O O8 0.400776 0.584773 0.752825
O O9 0.133891 0.069684 0.337049
O O10 0.139003 0.418564 0.350858
O O11 0.053402 0.218585 0.446471
O O12 0.000000 0.500000 0.500000
O O13 0.256648 0.009168 0.777161
O O14 0.500000 0.000000 0.000000
O O15 0.000000 0.000000 0.000000
O O16 0.014017 0.340189 0.015542
#
# Coordination Sequence:
#
# PCOD9083033 Si02
#       7
#     2   2   2   2   2   2   2
#     4  11  21  35  66  97 122 160 225 255 304 366
#     4  12  25  43  68  94 122 172 223 256 312 390
#     4  11  20  39  62  96 132 163 207 267 311 374
#     4  10  19  33  60  95 128 161 212 256 309 368
#     4  11  18  34  63 100 124 167 215 257 301 379
#     4  10  25  44  63  92 134 168 203 272 331 366
#     4  11  21  42  65  93 129 167 213 264 308 383
#
# _framework density 23.223417000000001
#
# number of rings (size 3 to 8) (size 9 to 14) (size 15 to 20)
#    0.000    1.143    8.571    0.429    0.000    0.000 
#    2.571    2.857    0.000    1.714    0.000    0.000 
#    0.000    0.000    0.000    0.000    0.000    0.000 
#
# Total GULP energy -78233.793570 kJ/mol
# GULP energy per Si atom -5588.128112 kJ/mol
# Density = 2.317056 g / cm^3
# Si number density = 23.223417 Si / 1000 Ang^3
#
#
#
# Elastic Constant Matrix: (Units=GPa)
#
#
# Indices 1 2 3 4 5 6 
#
# 1 177.5439 34.6502 76.6398 11.0028 -8.1203 -4.4460
# 2 34.6502 55.7239 22.3893 3.1190 2.8837 -9.9650
# 3 76.6398 22.3893 232.5188 -16.4461 0.2153 -16.6903
# 4 11.0028 3.1190 -16.4461 32.4670 -8.4589 4.4654
# 5 -8.1203 2.8837 0.2153 -8.4589 50.2214 0.9122
# 6 -4.4460 -9.9650 -16.6903 4.4654 0.9122 34.1817
#
#
#
# Elastic Compliance Matrix: (Units=1/GPa)
#
#
# Indices 1 2 3 4 5 6 
#
# 1 0.007640 -0.003816 -0.002436 -0.003078 0.000964 -0.000932
# 2 -0.003816 0.021900 -0.000600 -0.002568 -0.002413 0.005995
# 3 -0.002436 -0.000600 0.005534 0.003491 0.000173 0.001750
# 4 -0.003078 -0.002568 0.003491 0.035952 0.005768 -0.004295
# 5 0.000964 -0.002413 0.000173 0.005768 0.021210 -0.001813
# 6 -0.000932 0.005995 0.001750 -0.004295 -0.001813 0.032346
#
#
# Mechanical properties :
#
#
# Convention : Reuss Voigt Hill
#
# Bulk Modulus (GPa) = 46.79568 81.46057 64.12813
# Shear Modulus (GPa) = 34.38534 45.51449 39.94992
#
# Velocity S-wave (km/s) = 3.85207 4.43183 4.15208
# Velocity P-wave (km/s) = 6.32286 7.83206 7.11757
#
# Compressibility (1/GPa) = 0.02136949
#
# Stress axis : x y z
#
# Youngs Moduli (GPa) = 130.88431 45.66113 180.70561
#
# Poissons Ratio (x) = 0.17426 0.44025
# Poissons Ratio (y) = 0.49949 0.10842
# Poissons Ratio (z) = 0.31887 0.02740
#
# Static dielectric constant tensor:
#      x y z
#    x 1.854650 -0.044740 0.013020 
#    y -0.044740 2.047590 -0.111340 
#    z 0.013020 -0.111340 1.935040 
# 
# From -- ./inp_files/446227.got.cif
#   From: 2010.05.17/outbox.cif.g08.bks.cpg/sg2_224_cif.got.tgz:446227.got - 2010.06.03 11:33:40.
