data_PCOD9083279
_publ_section_title
;
Structure prediction by ZEFSAII (Michael W. Deem and Ramdas Pophale) SiO2 
 PCOD9083279
Probable space group: P -1
;
_chemical_formula_sum "Si O2"
_cell_formula_units_Z 16
_cell_length_a 6.774671
_cell_length_b 10.681665
_cell_length_c 17.139015
_cell_angle_alpha 60.162778
_cell_angle_beta 37.532061
_cell_angle_gamma 63.003772
_cell_volume 651.265831
_symmetry_space_group_name_H-M "P -1"
_symmetry_group_IT_number 2
_symmetry_cell_setting 'triclinic'
loop_
_space_group_symop_operation_xyz
x,y,z
-x,-y,-z
loop_
_atom_site_type_symbol
_atom_site_label
_atom_site_fract_x
_atom_site_fract_y
_atom_site_fract_z
Si Si1 0.705510 0.981290 0.521412
Si Si2 0.376299 0.447441 0.424559
Si Si3 0.216577 0.789445 0.932119
Si Si4 0.395630 0.289026 0.776581
Si Si5 0.076393 0.051943 0.794113
Si Si6 0.720138 0.970692 0.771820
Si Si7 0.359847 0.327037 0.309265
Si Si8 0.955014 0.359873 0.702979
O O1 0.449941 0.034878 0.651785
O O2 0.809503 0.812032 0.564253
O O3 0.500000 0.000000 0.500000
O O4 0.018635 0.054869 0.372781
O O5 0.554067 0.588510 0.341268
O O6 0.530745 0.368764 0.323953
O O7 0.000000 0.500000 0.500000
O O8 0.296133 0.347449 0.551579
O O9 0.025087 0.940112 0.913181
O O10 0.500818 0.839723 0.881241
O O11 0.384693 0.717770 0.824389
O O12 0.962764 0.696743 0.079996
O O13 0.654912 0.325714 0.750709
O O14 0.508135 0.123513 0.771480
O O15 0.884575 0.999882 0.794199
O O16 0.975360 0.219721 0.795046
O O17 0.133768 0.469208 0.304741
#
# Coordination Sequence:
#
# PCOD9083279 Si02
#       8
#     2   2   2   2   2   2   2   2
#     4   9  16  31  54  80 105 134 178 226 269 311
#     4   8  14  28  52  76 100 136 181 218 259 314
#     4  11  22  33  53  85 112 142 182 220 268 326
#     4   9  18  32  52  79 108 144 183 219 266 324
#     4   9  20  35  56  84 108 137 181 227 272 322
#     4  10  19  34  54  77 112 145 176 224 272 318
#     4   9  17  29  50  80 108 138 179 221 268 320
#     4   9  17  33  57  80 107 144 183 225 272 321
#
# _framework density 24.567540999999999
#
# number of rings (size 3 to 8) (size 9 to 14) (size 15 to 20)
#    0.000    3.000    0.000    4.125    0.000    6.000 
#    0.000    0.000    0.000   21.750    0.000   51.625 
#    0.000    0.000    0.000    0.000    0.000    0.000 
#
# Total GULP energy -89323.159247 kJ/mol
# GULP energy per Si atom -5582.697453 kJ/mol
# Density = 2.451162 g / cm^3
# Si number density = 24.567541 Si / 1000 Ang^3
#
#
#
# Elastic Constant Matrix: (Units=GPa)
#
#
# Indices 1 2 3 4 5 6 
#
# 1 90.6037 15.6059 25.8079 -0.0422 2.9525 0.7552
# 2 15.6059 80.4250 26.7281 -10.6733 8.6023 -7.0941
# 3 25.8079 26.7281 162.6151 -2.6616 -11.3677 15.5258
# 4 -0.0422 -10.6733 -2.6616 33.0856 1.6794 9.9619
# 5 2.9525 8.6023 -11.3677 1.6794 24.1887 -0.3021
# 6 0.7552 -7.0941 15.5258 9.9619 -0.3021 29.8905
#
#
#
# Elastic Compliance Matrix: (Units=1/GPa)
#
#
# Indices 1 2 3 4 5 6 
#
# 1 0.011872 -0.001576 -0.001799 -0.000696 -0.001680 0.000475
# 2 -0.001576 0.015362 -0.003070 0.003879 -0.006934 0.003918
# 3 -0.001799 -0.003070 0.007766 0.000880 0.004838 -0.004961
# 4 -0.000696 0.003879 0.000880 0.035111 -0.003459 -0.011256
# 5 -0.001680 -0.006934 0.004838 -0.003459 0.046495 -0.002493
# 6 0.000475 0.003918 -0.004961 -0.011256 -0.002493 0.040676
#
#
# Mechanical properties :
#
#
# Convention : Reuss Voigt Hill
#
# Bulk Modulus (GPa) = 45.23185 52.21418 48.72302
# Shear Modulus (GPa) = 28.16224 35.13308 31.64766
#
# Velocity S-wave (km/s) = 3.38941 3.78572 3.59303
# Velocity P-wave (km/s) = 5.81108 6.35675 6.09003
#
# Compressibility (1/GPa) = 0.02210831
#
# Stress axis : x y z
#
# Youngs Moduli (GPa) = 84.23512 65.09492 128.76716
#
# Poissons Ratio (x) = 0.10262 0.23167
# Poissons Ratio (y) = 0.13279 0.39532
# Poissons Ratio (z) = 0.15155 0.19985
#
# Static dielectric constant tensor:
#      x y z
#    x 2.088990 0.005750 -0.010990 
#    y 0.005750 2.010410 -0.002500 
#    z -0.010990 -0.002500 1.919770 
# 
# From -- ./inp_files/607557.got.cif
#   From: 2010.05.17/outbox.cif.g08.bks.cpg/sg2_304_cif.got.tgz:607557.got - 2010.06.03 11:33:40.
