data_PCOD9083693
_publ_section_title
;
Structure prediction by ZEFSAII (Michael W. Deem and Ramdas Pophale) SiO2 
 PCOD9083693
Probable space group: P -1
;
_chemical_formula_sum "Si O2"
_cell_formula_units_Z 16
_cell_length_a 5.065106
_cell_length_b 9.953154
_cell_length_c 17.831602
_cell_angle_alpha 73.181894
_cell_angle_beta 102.558089
_cell_angle_gamma 96.085824
_cell_volume 839.027105
_symmetry_space_group_name_H-M "P -1"
_symmetry_group_IT_number 2
_symmetry_cell_setting 'triclinic'
loop_
_space_group_symop_operation_xyz
x,y,z
-x,-y,-z
loop_
_atom_site_type_symbol
_atom_site_label
_atom_site_fract_x
_atom_site_fract_y
_atom_site_fract_z
Si Si1 0.642462 0.195497 0.827554
Si Si2 0.226579 0.902918 0.997632
Si Si3 0.416113 0.930975 0.427069
Si Si4 0.116213 0.939752 0.661827
Si Si5 0.556182 0.545694 0.317021
Si Si6 0.962659 0.638050 0.631704
Si Si7 0.099628 0.999446 0.823059
Si Si8 0.321828 0.360732 0.531613
O O1 0.588236 0.341297 0.760806
O O2 0.359053 0.106944 0.824739
O O3 0.849584 0.096332 0.812868
O O4 0.738985 0.213349 0.917389
O O5 0.141735 0.882501 0.909283
O O6 0.500000 0.000000 0.000000
O O7 0.000000 0.000000 0.000000
O O8 0.588865 0.013822 0.359399
O O9 0.097777 0.945899 0.394493
O O10 0.500000 0.000000 0.500000
O O11 0.510271 0.773778 0.455971
O O12 0.016389 0.793459 0.641648
O O13 0.094698 0.934389 0.750858
O O14 0.322263 0.433306 0.347762
O O15 0.700620 0.630392 0.381724
O O16 0.796145 0.458040 0.312249
O O17 0.938315 0.642967 0.538353
O O18 0.500000 0.500000 0.500000
#
# Coordination Sequence:
#
# PCOD9083693 Si02
#       8
#     2   2   2   2   2   2   2   2
#     4  10  19  35  57  86 115 140 181 233 286 335
#     4   8  16  30  53  82 114 141 171 224 285 337
#     4  12  25  41  60  83 112 151 191 235 285 332
#     4  12  24  39  60  80 115 148 192 231 279 338
#     4  11  22  37  56  79 108 144 192 230 278 333
#     4  11  24  38  54  77 109 151 187 231 279 327
#     4  10  19  34  57  87 112 143 182 227 285 340
#     4  10  23  39  58  80 109 144 188 235 280 329
#
# _framework density 19.069706
#
# number of rings (size 3 to 8) (size 9 to 14) (size 15 to 20)
#    0.000    1.500    1.250    4.500    1.750    3.000 
#    0.000    0.000    0.000    1.500    0.000    0.000 
#    0.000    0.000    0.000    0.000    0.000    0.000 
#
# Total GULP energy -89317.904495 kJ/mol
# GULP energy per Si atom -5582.369031 kJ/mol
# Density = 1.902630 g / cm^3
# Si number density = 19.069706 Si / 1000 Ang^3
#
#
#
# Elastic Constant Matrix: (Units=GPa)
#
#
# Indices 1 2 3 4 5 6 
#
# 1 72.9869 1.4479 -5.1023 -4.0477 4.1961 -6.2886
# 2 1.4479 88.6549 29.2789 -9.9233 1.5909 -7.6903
# 3 -5.1023 29.2789 124.5438 -0.6303 1.5130 -9.0637
# 4 -4.0477 -9.9233 -0.6303 15.8029 -5.6696 1.1438
# 5 4.1961 1.5909 1.5130 -5.6696 26.9954 -3.2476
# 6 -6.2886 -7.6903 -9.0637 1.1438 -3.2476 23.1104
#
#
#
# Elastic Compliance Matrix: (Units=1/GPa)
#
#
# Indices 1 2 3 4 5 6 
#
# 1 0.014341 0.000199 0.000861 0.003130 -0.001152 0.003989
# 2 0.000199 0.013457 -0.002899 0.008712 0.001551 0.003182
# 3 0.000861 -0.002899 0.008947 -0.001613 -0.000467 0.002793
# 4 0.003130 0.008712 -0.001613 0.074749 0.014972 0.001523
# 5 -0.001152 0.001551 -0.000467 0.014972 0.040906 0.005027
# 6 0.003989 0.003182 0.002793 0.001523 0.005027 0.047141
#
#
# Mechanical properties :
#
#
# Convention : Reuss Voigt Hill
#
# Bulk Modulus (GPa) = 30.24213 37.49272 33.86743
# Shear Modulus (GPa) = 23.33817 30.55250 26.94534
#
# Velocity S-wave (km/s) = 3.50213 4.00703 3.76306
# Velocity P-wave (km/s) = 5.67859 6.41186 6.05633
#
# Compressibility (1/GPa) = 0.03306645
#
# Stress axis : x y z
#
# Youngs Moduli (GPa) = 69.73076 74.31052 111.77214
#
# Poissons Ratio (x) = -0.01475 -0.09624
# Poissons Ratio (y) = -0.01384 0.32399
# Poissons Ratio (z) = -0.06004 0.21540
#
# Static dielectric constant tensor:
#      x y z
#    x 1.673670 -0.004330 -0.009260 
#    y -0.004330 1.627060 -0.002370 
#    z -0.009260 -0.002370 1.748790 
# 
# From -- ./inp_files/105028.got.cif
#   From: 2010.05.17/outbox.cif.g08.bks.cpg/sg2_53_cif.got.tgz:105028.got - 2010.06.03 11:33:40.
