data_PCOD9083025
_publ_section_title
;
Structure prediction by ZEFSAII (Michael W. Deem and Ramdas Pophale) SiO2 
 PCOD9083025
Probable space group: P -1
;
_chemical_formula_sum "Si O2"
_cell_formula_units_Z 16
_cell_length_a 13.680580
_cell_length_b 14.683831
_cell_length_c 11.272777
_cell_angle_alpha 44.619690
_cell_angle_beta 30.803221
_cell_angle_gamma 31.167547
_cell_volume 597.864212
_symmetry_space_group_name_H-M "P -1"
_symmetry_group_IT_number 2
_symmetry_cell_setting 'triclinic'
loop_
_space_group_symop_operation_xyz
x,y,z
-x,-y,-z
loop_
_atom_site_type_symbol
_atom_site_label
_atom_site_fract_x
_atom_site_fract_y
_atom_site_fract_z
Si Si1 0.628432 0.670186 0.822203
Si Si2 0.619847 0.753820 0.376628
Si Si3 0.216714 0.813494 0.304713
Si Si4 0.979521 0.364775 0.415534
Si Si5 0.173650 0.773618 0.635982
Si Si6 0.271564 0.207451 0.020287
Si Si7 0.907818 0.289057 0.972353
Si Si8 0.310527 0.965900 0.701013
O O1 0.859535 0.667094 0.606802
O O2 0.743161 0.473976 0.903638
O O3 0.460984 0.778485 0.781803
O O4 0.426157 0.786769 0.030952
O O5 0.350693 0.922074 0.560520
O O6 0.728198 0.569433 0.481631
O O7 0.841994 0.752018 0.192928
O O8 0.625133 0.750358 0.232395
O O9 0.337338 0.716832 0.396519
O O10 0.109248 0.739800 0.414475
O O11 0.983253 0.020495 0.375777
O O12 0.155986 0.318606 0.158521
O O13 0.967624 0.762600 0.812839
O O14 0.243052 0.696823 0.767897
O O15 0.500000 0.000000 0.000000
O O16 0.036482 0.125321 0.900283
O O17 0.500000 0.000000 0.500000
#
# Coordination Sequence:
#
# PCOD9083025 Si02
#       8
#     2   2   2   2   2   2   2   2
#     4  11  22  40  68  95 121 175 208 253 327 368
#     4   9  20  37  57  89 125 164 204 267 307 364
#     4  10  20  37  63  91 133 168 202 265 313 374
#     4  10  22  37  62  97 125 157 210 260 312 381
#     4   9  18  36  58  90 132 166 203 262 314 368
#     4  10  19  33  60  93 124 161 205 257 319 378
#     4   9  19  36  63  91 124 161 217 258 303 379
#     4  10  21  38  66  91 126 167 216 261 305 375
#
# _framework density 26.761931000000001
#
# number of rings (size 3 to 8) (size 9 to 14) (size 15 to 20)
#    0.000    2.250    1.250    1.125    3.500    6.000 
#    0.000    4.375    0.000    1.500    0.000    0.000 
#    0.000    0.000    0.000    0.000    0.000    0.000 
#
# Total GULP energy -89613.445884 kJ/mol
# GULP energy per Si atom -5600.840368 kJ/mol
# Density = 2.670102 g / cm^3
# Si number density = 26.761931 Si / 1000 Ang^3
#
#
#
# Elastic Constant Matrix: (Units=GPa)
#
#
# Indices 1 2 3 4 5 6 
#
# 1 102.2335 23.4366 12.3144 0.3224 -9.3451 -3.0669
# 2 23.4366 96.5964 -11.0799 2.2287 10.7503 1.7347
# 3 12.3144 -11.0799 50.4036 -0.8295 0.9305 -6.2300
# 4 0.3224 2.2287 -0.8295 37.7207 3.3116 3.5348
# 5 -9.3451 10.7503 0.9305 3.3116 24.0800 0.8887
# 6 -3.0669 1.7347 -6.2300 3.5348 0.8887 34.3452
#
#
#
# Elastic Compliance Matrix: (Units=1/GPa)
#
#
# Indices 1 2 3 4 5 6 
#
# 1 0.011784 -0.004027 -0.003840 -0.000567 0.006581 0.000447
# 2 -0.004027 0.012591 0.003874 0.000029 -0.007334 -0.000106
# 3 -0.003840 0.003874 0.022153 0.000331 -0.004253 0.003556
# 4 -0.000567 0.000029 0.000331 0.027113 -0.003876 -0.002682
# 5 0.006581 -0.007334 -0.004253 -0.003876 0.048078 -0.000659
# 6 0.000447 -0.000106 0.003556 -0.002682 -0.000659 0.030100
#
#
# Mechanical properties :
#
#
# Convention : Reuss Voigt Hill
#
# Bulk Modulus (GPa) = 25.94436 33.17506 29.55971
# Shear Modulus (GPa) = 28.96023 34.20000 31.58011
#
# Velocity S-wave (km/s) = 3.29316 3.57870 3.43890
# Velocity P-wave (km/s) = 4.91685 5.43133 5.18048
#
# Compressibility (1/GPa) = 0.03854402
#
# Stress axis : x y z
#
# Youngs Moduli (GPa) = 84.86142 79.42069 45.14033
#
# Poissons Ratio (x) = 0.31981 0.17333
# Poissons Ratio (y) = 0.34172 -0.17489
# Poissons Ratio (z) = 0.32585 -0.30771
#
# Static dielectric constant tensor:
#      x y z
#    x 2.083600 -0.015600 0.025670 
#    y -0.015600 2.014460 -0.019400 
#    z 0.025670 -0.019400 2.128450 
# 
# From -- ./inp_files/455539.got.cif
#   From: 2010.05.17/outbox.cif.g08.bks.cpg/sg2_228_cif.got.tgz:455539.got - 2010.06.03 11:33:40.
