data_PCOD9083668
_publ_section_title
;
Structure prediction by ZEFSAII (Michael W. Deem and Ramdas Pophale) SiO2 
 PCOD9083668
Probable space group: P -1
;
_chemical_formula_sum "Si O2"
_cell_formula_units_Z 16
_cell_length_a 10.189285
_cell_length_b 9.947625
_cell_length_c 8.832978
_cell_angle_alpha 57.277981
_cell_angle_beta 88.104745
_cell_angle_gamma 100.941686
_cell_volume 729.484237
_symmetry_space_group_name_H-M "P -1"
_symmetry_group_IT_number 2
_symmetry_cell_setting 'triclinic'
loop_
_space_group_symop_operation_xyz
x,y,z
-x,-y,-z
loop_
_atom_site_type_symbol
_atom_site_label
_atom_site_fract_x
_atom_site_fract_y
_atom_site_fract_z
Si Si1 0.706495 0.605788 0.447276
Si Si2 0.759544 0.794928 0.878891
Si Si3 0.721595 0.440398 0.822988
Si Si4 0.982082 0.665523 0.818917
Si Si5 0.598076 0.832032 0.563470
Si Si6 0.850816 0.915841 0.108992
Si Si7 0.431439 0.508126 0.789011
Si Si8 0.745837 0.140731 0.217484
O O1 0.723248 0.446477 0.635920
O O2 0.653164 0.720810 0.501646
O O3 0.835023 0.731719 0.289200
O O4 0.606777 0.547453 0.347048
O O5 0.912252 0.786364 0.843761
O O6 0.687995 0.848746 0.702729
O O7 0.757915 0.894152 0.973801
O O8 0.684679 0.605865 0.037300
O O9 0.857699 0.587335 0.758282
O O10 0.573186 0.467319 0.849964
O O11 0.726330 0.283132 0.017884
O O12 0.135206 0.772923 0.720314
O O13 0.000000 0.500000 0.000000
O O14 0.454866 0.704022 0.683626
O O15 0.620067 0.010946 0.379389
O O16 0.804259 0.023583 0.172873
O O17 0.000000 0.000000 0.000000
#
# Coordination Sequence:
#
# PCOD9083668 Si02
#       8
#     2   2   2   2   2   2   2   2
#     4   9  19  35  58  85 105 149 195 222 269 344
#     4  11  20  35  60  83 113 150 185 231 277 331
#     4  10  19  37  60  82 111 150 186 231 277 331
#     4  10  20  34  58  85 111 144 187 226 280 329
#     4  10  19  34  57  85 107 148 188 230 269 337
#     4  10  20  35  56  83 116 146 183 234 277 326
#     4  10  20  36  60  85 109 144 196 227 277 330
#     4  10  22  37  57  84 116 146 188 229 281 328
#
# _framework density 21.933306999999999
#
# number of rings (size 3 to 8) (size 9 to 14) (size 15 to 20)
#    0.000    2.000    3.750    1.875    0.000    1.500 
#    0.000   11.250   11.000    0.000    0.000    0.000 
#    0.000    0.000    0.000    0.000    0.000    0.000 
#
# Total GULP energy -89076.822338 kJ/mol
# GULP energy per Si atom -5567.301396 kJ/mol
# Density = 2.188339 g / cm^3
# Si number density = 21.933307 Si / 1000 Ang^3
#
#
#
# Elastic Constant Matrix: (Units=GPa)
#
#
# Indices 1 2 3 4 5 6 
#
# 1 32.8935 13.7518 14.0010 -11.8888 3.2188 18.1563
# 2 13.7518 97.4538 47.4122 -5.2356 8.5250 24.0033
# 3 14.0010 47.4122 128.3081 -12.4565 -1.2161 14.8638
# 4 -11.8888 -5.2356 -12.4565 51.8412 10.9265 -1.3496
# 5 3.2188 8.5250 -1.2161 10.9265 27.4028 -4.2285
# 6 18.1563 24.0033 14.8638 -1.3496 -4.2285 30.5204
#
#
#
# Elastic Compliance Matrix: (Units=1/GPa)
#
#
# Indices 1 2 3 4 5 6 
#
# 1 0.060627 0.005842 -0.002439 0.017562 -0.022502 -0.041815
# 2 0.005842 0.016591 -0.004729 0.003555 -0.009856 -0.015429
# 3 -0.002439 -0.004729 0.009837 0.000939 0.001926 0.000688
# 4 0.017562 0.003555 0.000939 0.026919 -0.016136 -0.014745
# 5 -0.022502 -0.009856 0.001926 -0.016136 0.052858 0.026810
# 6 -0.041815 -0.015429 0.000688 -0.014745 0.026810 0.072502
#
#
# Mechanical properties :
#
#
# Convention : Reuss Voigt Hill
#
# Bulk Modulus (GPa) = 11.84783 45.44283 28.64533
# Shear Modulus (GPa) = 18.51031 34.18555 26.34793
#
# Velocity S-wave (km/s) = 2.90821 3.95221 3.46970
# Velocity P-wave (km/s) = 4.08539 6.44905 5.39818
#
# Compressibility (1/GPa) = 0.08440366
#
# Stress axis : x y z
#
# Youngs Moduli (GPa) = 16.49440 60.27360 101.65615
#
# Poissons Ratio (x) = -0.35215 0.24792
# Poissons Ratio (y) = -0.09637 0.48075
# Poissons Ratio (z) = 0.04023 0.28504
#
# Static dielectric constant tensor:
#      x y z
#    x 1.840250 -0.011100 -0.039320 
#    y -0.011100 1.855360 -0.005430 
#    z -0.039320 -0.005430 1.852590 
# 
# From -- ./inp_files/261665.got.cif
#   From: 2010.05.17/outbox.cif.g08.bks.cpg/sg2_131_cif.got.tgz:261665.got - 2010.06.03 11:33:40.
