data_PCOD9083703
_publ_section_title
;
Structure prediction by ZEFSAII (Michael W. Deem and Ramdas Pophale) SiO2 
 PCOD9083703
Probable space group: P -1
;
_chemical_formula_sum "Si O2"
_cell_formula_units_Z 16
_cell_length_a 5.065426
_cell_length_b 11.743941
_cell_length_c 13.501085
_cell_angle_alpha 110.785539
_cell_angle_beta 116.102522
_cell_angle_gamma 87.444347
_cell_volume 668.318799
_symmetry_space_group_name_H-M "P -1"
_symmetry_group_IT_number 2
_symmetry_cell_setting 'triclinic'
loop_
_space_group_symop_operation_xyz
x,y,z
-x,-y,-z
loop_
_atom_site_type_symbol
_atom_site_label
_atom_site_fract_x
_atom_site_fract_y
_atom_site_fract_z
Si Si1 0.491119 0.807825 0.917314
Si Si2 0.385680 0.432085 0.559621
Si Si3 0.793075 0.212418 0.814410
Si Si4 0.341040 0.980794 0.123543
Si Si5 0.250664 0.891773 0.612816
Si Si6 0.596888 0.645248 0.058220
Si Si7 0.455255 0.168529 0.547770
Si Si8 0.245999 0.669929 0.663057
O O1 0.226520 0.745343 0.783660
O O2 0.702475 0.892240 0.900228
O O3 0.396122 0.894568 0.014264
O O4 0.596664 0.696650 0.961355
O O5 0.500000 0.500000 0.500000
O O6 0.528924 0.315999 0.583808
O O7 0.393081 0.547444 0.670512
O O8 0.055733 0.376886 0.456765
O O9 0.878577 0.097057 0.858686
O O10 0.624749 0.291803 0.887965
O O11 0.572940 0.159981 0.675144
O O12 0.069933 0.298485 0.839120
O O13 0.631008 0.012212 0.252253
O O14 0.372767 0.903874 0.525813
O O15 0.389371 0.770928 0.639374
O O16 0.895936 0.869662 0.539083
O O17 0.500000 0.500000 0.000000
#
# Coordination Sequence:
#
# PCOD9083703 Si02
#       8
#     2   2   2   2   2   2   2   2
#     4   9  20  42  68  94 126 176 216 270 333 376
#     4  10  19  34  57  87 127 163 211 266 315 389
#     4  11  25  44  66  95 133 173 222 270 323 389
#     4   9  21  43  68  96 131 170 226 276 316 392
#     4  10  21  39  62  93 128 164 217 266 323 383
#     4  11  25  45  66  97 133 171 220 272 323 394
#     4  11  23  38  62  94 127 173 210 264 333 380
#     4   9  19  36  57  89 124 163 212 264 321 384
#
# _framework density 23.940671999999999
#
# number of rings (size 3 to 8) (size 9 to 14) (size 15 to 20)
#    0.000    2.000    1.250    1.125    1.750    4.500 
#    4.500    3.750    0.000    0.000    0.000    0.000 
#    0.000    0.000    0.000    0.000    0.000    0.000 
#
# Total GULP energy -89253.497752 kJ/mol
# GULP energy per Si atom -5578.343610 kJ/mol
# Density = 2.388618 g / cm^3
# Si number density = 23.940672 Si / 1000 Ang^3
#
#
#
# Elastic Constant Matrix: (Units=GPa)
#
#
# Indices 1 2 3 4 5 6 
#
# 1 73.3461 14.7739 7.9048 5.5695 -5.8305 10.9078
# 2 14.7739 150.9608 48.1462 -1.8227 -4.6819 20.6851
# 3 7.9048 48.1462 143.5439 -2.0601 -6.1873 0.6816
# 4 5.5695 -1.8227 -2.0601 37.6046 0.2817 2.1497
# 5 -5.8305 -4.6819 -6.1873 0.2817 29.8525 -0.9261
# 6 10.9078 20.6851 0.6816 2.1497 -0.9261 23.0004
#
#
#
# Elastic Compliance Matrix: (Units=1/GPa)
#
#
# Indices 1 2 3 4 5 6 
#
# 1 0.015093 -0.000328 -0.000606 -0.001929 0.002585 -0.006561
# 2 -0.000328 0.008609 -0.002803 0.000741 0.000464 -0.007554
# 3 -0.000606 -0.002803 0.007982 0.000234 0.001175 0.002597
# 4 -0.001929 0.000741 0.000234 0.027063 -0.000539 -0.002309
# 5 0.002585 0.000464 0.001175 -0.000539 0.034317 -0.000246
# 6 -0.006561 -0.007554 0.002597 -0.002309 -0.000246 0.053511
#
#
# Mechanical properties :
#
#
# Convention : Reuss Voigt Hill
#
# Bulk Modulus (GPa) = 41.30651 56.61118 48.95884
# Shear Modulus (GPa) = 30.84169 37.89323 34.36746
#
# Velocity S-wave (km/s) = 3.59312 3.98275 3.79294
# Velocity P-wave (km/s) = 5.87411 6.69683 6.29892
#
# Compressibility (1/GPa) = 0.02420926
#
# Stress axis : x y z
#
# Youngs Moduli (GPa) = 66.25575 116.16205 125.28700
#
# Poissons Ratio (x) = 0.03809 0.07596
# Poissons Ratio (y) = 0.02172 0.35117
# Poissons Ratio (z) = 0.04017 0.32559
#
# Static dielectric constant tensor:
#      x y z
#    x 1.816440 -0.158790 -0.040090 
#    y -0.158790 1.798270 -0.074620 
#    z -0.040090 -0.074620 1.876060 
# 
# From -- ./inp_files/365110.got.cif
#   From: 2010.05.17/outbox.cif.g08.bks.cpg/sg2_183_cif.got.tgz:365110.got - 2010.06.03 11:33:40.
