data_PCOD9083258
_publ_section_title
;
Structure prediction by ZEFSAII (Michael W. Deem and Ramdas Pophale) SiO2 
 PCOD9083258
Probable space group: P -1
;
_chemical_formula_sum "Si O2"
_cell_formula_units_Z 16
_cell_length_a 8.814566
_cell_length_b 16.965219
_cell_length_c 19.995993
_cell_angle_alpha 150.994499
_cell_angle_beta 145.129838
_cell_angle_gamma 53.793911
_cell_volume 737.082296
_symmetry_space_group_name_H-M "P -1"
_symmetry_group_IT_number 2
_symmetry_cell_setting 'triclinic'
loop_
_space_group_symop_operation_xyz
x,y,z
-x,-y,-z
loop_
_atom_site_type_symbol
_atom_site_label
_atom_site_fract_x
_atom_site_fract_y
_atom_site_fract_z
Si Si1 0.376417 0.428630 0.741455
Si Si2 0.546914 0.929878 0.183340
Si Si3 0.867073 0.764126 0.251754
Si Si4 0.098371 0.668289 0.395274
Si Si5 0.113164 0.214302 0.180551
Si Si6 0.666539 0.709060 0.952076
Si Si7 0.716864 0.188859 0.683948
Si Si8 0.574279 0.571754 0.673756
O O1 0.063440 0.349442 0.606212
O O2 0.404538 0.527354 0.754817
O O3 0.519736 0.293407 0.685139
O O4 0.605356 0.587683 0.990501
O O5 0.738216 0.908536 0.298004
O O6 0.662374 0.874557 0.116140
O O7 0.608170 0.137661 0.356136
O O8 0.200056 0.796219 0.964923
O O9 0.903218 0.697211 0.287774
O O10 0.154795 0.820434 0.349680
O O11 0.182629 0.506878 0.292215
O O12 0.267048 0.381812 0.413571
O O13 0.347256 0.297733 0.265884
O O14 0.000000 0.000000 0.000000
O O15 0.610875 0.693008 0.841908
O O16 0.983790 0.714457 0.090439
O O17 0.500000 0.000000 0.500000
#
# Coordination Sequence:
#
# PCOD9083258 Si02
#       8
#     2   2   2   2   2   2   2   2
#     4  10  19  34  55  83 129 167 204 254 303 377
#     4  10  22  41  62  92 133 162 209 269 309 377
#     4  10  21  35  58  90 128 170 207 253 313 381
#     4  12  21  37  63  98 127 169 212 254 319 377
#     4  11  24  48  68  95 124 162 216 272 320 374
#     4  10  22  41  59  91 123 165 212 255 318 379
#     4  10  19  34  53  85 132 171 204 255 309 375
#     4  11  24  43  73  92 124 170 212 263 323 379
#
# _framework density 21.70721
#
# number of rings (size 3 to 8) (size 9 to 14) (size 15 to 20)
#    0.000    1.750    1.250    6.750    0.000    2.500 
#    4.500    0.625    0.000    0.000    0.000    0.000 
#    0.000    0.000    0.000    0.000    0.000    0.000 
#
# Total GULP energy -89274.046126 kJ/mol
# GULP energy per Si atom -5579.627883 kJ/mol
# Density = 2.165780 g / cm^3
# Si number density = 21.707210 Si / 1000 Ang^3
#
#
#
# Elastic Constant Matrix: (Units=GPa)
#
#
# Indices 1 2 3 4 5 6 
#
# 1 45.0478 6.0840 24.3990 -8.2830 7.0928 13.9213
# 2 6.0840 65.3727 17.9385 13.9276 1.1047 11.8825
# 3 24.3990 17.9385 64.4006 4.1040 9.2878 7.7957
# 4 -8.2830 13.9276 4.1040 42.2086 0.5671 0.4241
# 5 7.0928 1.1047 9.2878 0.5671 38.4809 -6.7398
# 6 13.9213 11.8825 7.7957 0.4241 -6.7398 27.6517
#
#
#
# Elastic Compliance Matrix: (Units=1/GPa)
#
#
# Indices 1 2 3 4 5 6 
#
# 1 0.036221 0.001354 -0.011475 0.008048 -0.007119 -0.017441
# 2 0.001354 0.018962 -0.004358 -0.005476 -0.001021 -0.007766
# 3 -0.011475 -0.004358 0.021556 -0.002882 -0.002754 0.000946
# 4 0.008048 -0.005476 -0.002882 0.027392 -0.001319 -0.001628
# 5 -0.007119 -0.001021 -0.002754 -0.001319 0.030144 0.012167
# 6 -0.017441 -0.007766 0.000946 -0.001628 0.012167 0.051006
#
#
# Mechanical properties :
#
#
# Convention : Reuss Voigt Hill
#
# Bulk Modulus (GPa) = 20.92919 30.18489 25.55704
# Shear Modulus (GPa) = 21.72329 30.09487 25.90908
#
# Velocity S-wave (km/s) = 3.16688 3.72748 3.45856
# Velocity P-wave (km/s) = 4.79945 5.69747 5.26763
#
# Compressibility (1/GPa) = 0.04778016
#
# Stress axis : x y z
#
# Youngs Moduli (GPa) = 27.60794 52.73593 46.39154
#
# Poissons Ratio (x) = -0.07138 0.53234
# Poissons Ratio (y) = -0.03737 0.20219
# Poissons Ratio (z) = 0.31680 0.22984
#
# Static dielectric constant tensor:
#      x y z
#    x 1.800330 -0.024990 -0.008980 
#    y -0.024990 1.876790 0.013290 
#    z -0.008980 0.013290 1.823380 
# 
# From -- ./inp_files/590998.got.cif
#   From: 2010.05.17/outbox.cif.g08.bks.cpg/sg2_296_cif.got.tgz:590998.got - 2010.06.03 11:33:40.
