data_PCOD9083449
_publ_section_title
;
Structure prediction by ZEFSAII (Michael W. Deem and Ramdas Pophale) SiO2 
 PCOD9083449
Probable space group: P -1
;
_chemical_formula_sum "Si O2"
_cell_formula_units_Z 16
_cell_length_a 11.146260
_cell_length_b 15.070300
_cell_length_c 14.870068
_cell_angle_alpha 27.105682
_cell_angle_beta 134.392930
_cell_angle_gamma 140.439045
_cell_volume 724.090724
_symmetry_space_group_name_H-M "P -1"
_symmetry_group_IT_number 2
_symmetry_cell_setting 'triclinic'
loop_
_space_group_symop_operation_xyz
x,y,z
-x,-y,-z
loop_
_atom_site_type_symbol
_atom_site_label
_atom_site_fract_x
_atom_site_fract_y
_atom_site_fract_z
Si Si1 0.737780 0.893521 0.216985
Si Si2 0.099661 0.333221 0.287317
Si Si3 0.616441 0.828490 0.489639
Si Si4 0.153816 0.858201 0.122546
Si Si5 0.136726 0.958055 0.414501
Si Si6 0.246927 0.477631 0.530205
Si Si7 0.258691 0.818083 0.888560
Si Si8 0.887167 0.057368 0.781108
O O1 0.689053 0.640368 0.407467
O O2 0.962929 0.009678 0.252923
O O3 0.664465 0.995769 0.162506
O O4 0.713652 0.973350 0.034330
O O5 0.227238 0.209995 0.451234
O O6 0.971896 0.247653 0.387840
O O7 0.954053 0.263645 0.189827
O O8 0.238654 0.591230 0.121785
O O9 0.420083 0.624598 0.551146
O O10 0.694674 0.867953 0.595517
O O11 0.620514 0.050253 0.252830
O O12 0.157185 0.631059 0.310288
O O13 0.210252 0.926364 0.193772
O O14 0.954132 0.867915 0.998495
O O15 0.203843 0.939930 0.365512
O O16 0.084442 0.280082 0.677260
#
# Coordination Sequence:
#
# PCOD9083449 Si02
#       8
#     2   2   2   2   2   2   2   2
#     4  10  20  35  57  81 104 142 188 221 253 318
#     4  10  19  34  56  78 110 143 182 224 260 312
#     4  11  20  36  52  80 118 143 168 223 271 321
#     4   9  19  37  59  77 107 138 182 227 264 316
#     4   9  17  36  58  78 104 140 185 223 258 312
#     4  10  22  34  54  80 114 143 172 214 284 319
#     4  10  20  33  55  82 106 147 185 216 263 310
#     4   9  20  38  60  80  99 140 188 229 261 307
#
# _framework density 22.096678000000001
#
# number of rings (size 3 to 8) (size 9 to 14) (size 15 to 20)
#    0.000    2.500    2.500    1.125    3.500    2.500 
#    0.000    1.875    0.000   12.000    0.000    0.000 
#    0.000    0.000    0.000    0.000    0.000    0.000 
#
# Total GULP energy -89105.657791 kJ/mol
# GULP energy per Si atom -5569.103612 kJ/mol
# Density = 2.204639 g / cm^3
# Si number density = 22.096678 Si / 1000 Ang^3
#
#
#
# Elastic Constant Matrix: (Units=GPa)
#
#
# Indices 1 2 3 4 5 6 
#
# 1 52.0777 34.8973 30.7264 3.0286 -0.1311 -16.0095
# 2 34.8973 156.4325 40.4721 -3.4178 -11.2142 -16.9192
# 3 30.7264 40.4721 121.9639 -10.4672 7.6824 -20.2007
# 4 3.0286 -3.4178 -10.4672 26.4106 -12.5157 -10.0348
# 5 -0.1311 -11.2142 7.6824 -12.5157 19.4169 8.6654
# 6 -16.0095 -16.9192 -20.2007 -10.0348 8.6654 39.3047
#
#
#
# Elastic Compliance Matrix: (Units=1/GPa)
#
#
# Indices 1 2 3 4 5 6 
#
# 1 0.027621 -0.005104 -0.004133 -0.006918 -0.008750 0.007093
# 2 -0.005104 0.008764 -0.001696 0.005445 0.009118 0.000202
# 3 -0.004133 -0.001696 0.011480 0.004536 -0.005212 0.005794
# 4 -0.006918 0.005445 0.004536 0.062475 0.037296 0.009585
# 5 -0.008750 0.009118 -0.005212 0.037296 0.088282 -0.012259
# 6 0.007093 0.000202 0.005794 0.009585 -0.012259 0.036546
#
#
# Mechanical properties :
#
#
# Convention : Reuss Voigt Hill
#
# Bulk Modulus (GPa) = 38.46073 60.29620 49.37847
# Shear Modulus (GPa) = 18.81809 31.98497 25.40153
#
# Velocity S-wave (km/s) = 2.92143 3.80873 3.39420
# Velocity P-wave (km/s) = 5.36872 6.83291 6.14458
#
# Compressibility (1/GPa) = 0.02600054
#
# Stress axis : x y z
#
# Youngs Moduli (GPa) = 36.20404 114.09798 87.10533
#
# Poissons Ratio (x) = 0.58235 0.35998
# Poissons Ratio (y) = 0.18478 0.14774
# Poissons Ratio (z) = 0.14962 0.19352
#
# Static dielectric constant tensor:
#      x y z
#    x 1.864810 -0.030960 0.009090 
#    y -0.030960 1.850640 0.026400 
#    z 0.009090 0.026400 1.884530 
# 
# From -- ./inp_files/533169.got.cif
#   From: 2010.05.17/outbox.cif.g08.bks.cpg/sg2_267_cif.got.tgz:533169.got - 2010.06.03 11:33:40.
