data_PCOD9083045
_publ_section_title
;
Structure prediction by ZEFSAII (Michael W. Deem and Ramdas Pophale) SiO2 
 PCOD9083045
Probable space group: P -1
;
_chemical_formula_sum "Si O2"
_cell_formula_units_Z 14
_cell_length_a 7.201859
_cell_length_b 11.473444
_cell_length_c 11.338221
_cell_angle_alpha 97.178228
_cell_angle_beta 55.947484
_cell_angle_gamma 60.027411
_cell_volume 555.326239
_symmetry_space_group_name_H-M "P -1"
_symmetry_group_IT_number 2
_symmetry_cell_setting 'triclinic'
loop_
_space_group_symop_operation_xyz
x,y,z
-x,-y,-z
loop_
_atom_site_type_symbol
_atom_site_label
_atom_site_fract_x
_atom_site_fract_y
_atom_site_fract_z
Si Si1 0.899224 0.438400 0.745383
Si Si2 0.532088 0.173776 0.588131
Si Si3 0.129676 0.706271 0.856343
Si Si4 0.473993 0.990515 0.216446
Si Si5 0.562863 0.350837 0.761549
Si Si6 0.557811 0.762130 0.631382
Si Si7 0.394427 0.246665 0.015316
O O1 0.802837 0.338380 0.751598
O O2 0.162099 0.342224 0.741737
O O3 0.105109 0.397959 0.554967
O O4 0.618052 0.632695 0.884374
O O5 0.608607 0.043830 0.636008
O O6 0.694520 0.232371 0.587637
O O7 0.589831 0.128938 0.424254
O O8 0.335954 0.534258 0.823513
O O9 0.340486 0.733822 0.738720
O O10 0.850790 0.854348 0.055527
O O11 0.926925 0.703150 0.835611
O O12 0.381761 0.943997 0.127896
O O13 0.397274 0.154650 0.275806
O O14 0.401390 0.311779 0.894888
#
# Coordination Sequence:
#
# PCOD9083045 Si02
#       7
#     2   2   2   2   2   2   2
#     4  10  21  33  58  88 111 136 190 230 276 321
#     4   9  19  36  57  83 109 142 185 226 271 323
#     4  10  19  33  61  77 117 144 184 225 273 329
#     4   9  18  36  61  76 111 152 185 219 273 333
#     4  11  19  36  58  85 110 147 183 230 274 324
#     4  10  21  35  55  88 111 146 182 225 283 324
#     4   9  19  34  56  83 106 145 188 225 267 323
#
# _framework density 25.210405999999999
#
# number of rings (size 3 to 8) (size 9 to 14) (size 15 to 20)
#    1.714    0.571    1.429    2.571    0.000    2.857 
#    0.000    2.857    3.143    0.857    0.000    0.000 
#    0.000    0.000    0.000    0.000    0.000    0.000 
#
# Total GULP energy -77969.468768 kJ/mol
# GULP energy per Si atom -5569.247769 kJ/mol
# Density = 2.515303 g / cm^3
# Si number density = 25.210406 Si / 1000 Ang^3
#
#
#
# Elastic Constant Matrix: (Units=GPa)
#
#
# Indices 1 2 3 4 5 6 
#
# 1 -288.2592 445.1193 99.7407 219.6869 -541.2346 466.7231
# 2 445.1193 -338.1599 -50.5057 -238.6328 597.5497 -441.0963
# 3 99.7407 -50.5057 57.6540 -29.1957 106.7165 -68.2051
# 4 219.6869 -238.6328 -29.1957 -93.1262 339.6179 -242.9555
# 5 -541.2346 597.5497 106.7165 339.6179 -804.5984 651.4180
# 6 466.7231 -441.0963 -68.2051 -242.9555 651.4180 -453.2508
#
#
#
# Elastic Compliance Matrix: (Units=1/GPa)
#
#
# Indices 1 2 3 4 5 6 
#
# 1 0.025603 -0.005619 -0.008330 0.015906 -0.025046 -0.011437
# 2 -0.005619 0.014620 -0.002118 -0.000846 0.009651 -0.005371
# 3 -0.008330 -0.002118 0.019121 -0.009303 0.005675 0.003749
# 4 0.015906 -0.000846 -0.009303 0.038604 -0.012470 -0.020013
# 5 -0.025046 0.009651 0.005675 -0.012470 0.033636 0.018989
# 6 -0.011437 -0.005371 0.003749 -0.020013 0.018989 0.028698
#
#
# Mechanical properties :
#
#
# Convention : Reuss Voigt Hill
#
# Bulk Modulus (GPa) = 36.75324 46.66038 41.70681
# Shear Modulus (GPa) = 24.81558 -341.06972 -158.12707
#
# Velocity S-wave (km/s) = 3.14082 -11.64401 -7.92837
# Velocity P-wave (km/s) = 5.26908 12.73690 8.19956
#
# Compressibility (1/GPa) = 0.02720849
#
# Stress axis : x y z
#
# Youngs Moduli (GPa) = 39.05797 68.39883 52.29943
#
# Poissons Ratio (x) = 0.38432 0.43567
# Poissons Ratio (y) = 0.21946 0.11079
# Poissons Ratio (z) = 0.32537 0.14490
#
# Static dielectric constant tensor:
#      x y z
#    x 2.063050 -0.009940 0.052480 
#    y -0.009940 1.950360 0.015430 
#    z 0.052480 0.015430 2.015290 
# 
# From -- ./inp_files/498091.got.cif
#   From: 2010.05.17/outbox.cif.g08.bks.cpg/sg2_250_cif.got.tgz:498091.got - 2010.06.03 11:33:40.
