data_PCOD9083874
_publ_section_title
;
Structure prediction by ZEFSAII (Michael W. Deem and Ramdas Pophale) SiO2 
 PCOD9083874
Probable space group: P -1
;
_chemical_formula_sum "Si O2"
_cell_formula_units_Z 16
_cell_length_a 11.393657
_cell_length_b 21.695135
_cell_length_c 16.511441
_cell_angle_alpha 25.178165
_cell_angle_beta 23.695840
_cell_angle_gamma 36.465535
_cell_volume 690.628142
_symmetry_space_group_name_H-M "P -1"
_symmetry_group_IT_number 2
_symmetry_cell_setting 'triclinic'
loop_
_space_group_symop_operation_xyz
x,y,z
-x,-y,-z
loop_
_atom_site_type_symbol
_atom_site_label
_atom_site_fract_x
_atom_site_fract_y
_atom_site_fract_z
Si Si1 0.120705 0.351573 0.615705
Si Si2 0.011223 0.598142 0.746218
Si Si3 0.261598 0.916749 0.398399
Si Si4 0.943700 0.061089 0.667680
Si Si5 0.634592 0.401959 0.098116
Si Si6 0.465092 0.917064 0.444914
Si Si7 0.375556 0.600712 0.651994
Si Si8 0.182890 0.955993 0.796058
O O1 0.374571 0.353786 0.385251
O O2 0.285715 0.361741 0.585238
O O3 0.000000 0.500000 0.500000
O O4 0.880220 0.209974 0.936626
O O5 0.307612 0.571139 0.636604
O O6 0.037006 0.771043 0.516385
O O7 0.905357 0.504943 0.845824
O O8 0.764539 0.537086 0.042067
O O9 0.481832 0.927669 0.324069
O O10 0.222613 0.741092 0.612683
O O11 0.000000 0.000000 0.500000
O O12 0.280853 0.976080 0.222621
O O13 0.255879 0.036129 0.460254
O O14 0.941220 0.976984 0.854893
O O15 0.706043 0.239495 0.228498
O O16 0.500000 0.500000 0.000000
O O17 0.765188 0.944177 0.275070
O O18 0.500000 0.000000 0.500000
#
# Coordination Sequence:
#
# PCOD9083874 Si02
#       8
#     2   2   2   2   2   2   2   2
#     4  11  25  41  64  94 132 171 219 270 321 383
#     4   9  17  34  61  91 120 167 207 255 318 391
#     4   9  16  33  55  90 120 162 208 262 318 378
#     4   9  19  32  60  87 117 162 214 250 311 389
#     4  11  23  38  65  96 131 166 214 269 330 382
#     4  10  19  34  58  89 125 158 208 264 318 372
#     4   9  18  35  60  87 126 160 221 260 309 383
#     4  10  23  39  62  90 126 172 222 262 321 390
#
# _framework density 23.167314000000001
#
# number of rings (size 3 to 8) (size 9 to 14) (size 15 to 20)
#    0.000    2.250    2.500    0.750   10.500    0.500 
#    0.000    2.500    2.750    0.750    0.000    0.000 
#    0.000    0.000    0.000    0.000    0.000    0.000 
#
# Total GULP energy -89106.517632 kJ/mol
# GULP energy per Si atom -5569.157352 kJ/mol
# Density = 2.311458 g / cm^3
# Si number density = 23.167314 Si / 1000 Ang^3
#
#
#
# Elastic Constant Matrix: (Units=GPa)
#
#
# Indices 1 2 3 4 5 6 
#
# 1 235.1745 17.3447 54.0378 -13.0011 -12.6636 -3.5253
# 2 17.3447 37.4666 22.3949 -8.6891 6.6750 -4.9202
# 3 54.0378 22.3949 90.4005 -16.1507 6.1763 4.3362
# 4 -13.0011 -8.6891 -16.1507 31.7581 6.3798 8.8122
# 5 -12.6636 6.6750 6.1763 6.3798 38.5574 -6.2789
# 6 -3.5253 -4.9202 4.3362 8.8122 -6.2789 27.0891
#
#
#
# Elastic Compliance Matrix: (Units=1/GPa)
#
#
# Indices 1 2 3 4 5 6 
#
# 1 0.005226 -0.000873 -0.003377 -0.000969 0.002903 0.002050
# 2 -0.000873 0.033859 -0.006739 0.005394 -0.005288 0.004134
# 3 -0.003377 -0.006739 0.017158 0.009020 -0.005590 -0.008640
# 4 -0.000969 0.005394 0.009020 0.044834 -0.013080 -0.018207
# 5 0.002903 -0.005288 -0.005590 -0.013080 0.032848 0.012181
# 6 0.002050 0.004134 -0.008640 -0.018207 0.012181 0.048062
#
#
# Mechanical properties :
#
#
# Convention : Reuss Voigt Hill
#
# Bulk Modulus (GPa) = 29.18555 61.17740 45.18148
# Shear Modulus (GPa) = 23.21396 37.43187 30.32291
#
# Velocity S-wave (km/s) = 3.16889 4.02396 3.62175
# Velocity P-wave (km/s) = 5.10042 6.93208 6.08556
#
# Compressibility (1/GPa) = 0.03426353
#
# Stress axis : x y z
#
# Youngs Moduli (GPa) = 191.34751 29.53421 58.28145
#
# Poissons Ratio (x) = 0.02579 0.19684
# Poissons Ratio (y) = 0.16709 0.39277
# Poissons Ratio (z) = 0.64626 0.19904
#
# Static dielectric constant tensor:
#      x y z
#    x 2.004830 0.011330 -0.024250 
#    y 0.011330 2.018380 -0.012540 
#    z -0.024250 -0.012540 1.894800 
# 
# From -- ./inp_files/279295.got.cif
#   From: 2010.05.17/outbox.cif.g08.bks.cpg/sg2_140_cif.got.tgz:279295.got - 2010.06.03 11:33:40.
