data_PCOD9083997
_publ_section_title
;
Structure prediction by ZEFSAII (Michael W. Deem and Ramdas Pophale) SiO2 
 PCOD9083997
Probable space group: P -1
;
_chemical_formula_sum "Si O2"
_cell_formula_units_Z 16
_cell_length_a 5.288845
_cell_length_b 24.007215
_cell_length_c 9.634925
_cell_angle_alpha 37.678418
_cell_angle_beta 73.424248
_cell_angle_gamma 84.090819
_cell_volume 700.741975
_symmetry_space_group_name_H-M "P -1"
_symmetry_group_IT_number 2
_symmetry_cell_setting 'triclinic'
loop_
_space_group_symop_operation_xyz
x,y,z
-x,-y,-z
loop_
_atom_site_type_symbol
_atom_site_label
_atom_site_fract_x
_atom_site_fract_y
_atom_site_fract_z
Si Si1 0.614289 0.454950 0.705178
Si Si2 0.430915 0.397316 0.141502
Si Si3 0.746598 0.985814 0.389537
Si Si4 0.018882 0.808340 0.171285
Si Si5 0.699079 0.062476 0.652352
Si Si6 0.471838 0.855553 0.221320
Si Si7 0.867303 0.393600 0.275300
Si Si8 0.924314 0.373629 0.609138
O O1 0.500000 0.500000 0.500000
O O2 0.833281 0.537249 0.581150
O O3 0.747285 0.376383 0.767531
O O4 0.437752 0.409328 0.951905
O O5 0.657071 0.353661 0.267752
O O6 0.131474 0.350522 0.323700
O O7 0.500000 0.500000 0.000000
O O8 0.500000 0.000000 0.500000
O O9 0.558771 0.925300 0.421788
O O10 0.880769 0.091115 0.116203
O O11 0.012291 0.940139 0.461757
O O12 0.272440 0.802305 0.241310
O O13 0.742061 0.816962 0.271858
O O14 0.983177 0.722945 0.237263
O O15 0.707709 0.132735 0.640236
O O16 0.590947 0.959448 0.937104
O O17 0.774080 0.393039 0.450816
O O18 0.000000 0.500000 0.000000
#
# Coordination Sequence:
#
# PCOD9083997 Si02
#       8
#     2   2   2   2   2   2   2   2
#     4  11  23  37  61  88 116 162 213 258 309 373
#     4  10  19  35  58  81 110 142 195 251 297 360
#     4  10  19  34  59  88 122 164 200 226 291 363
#     4  10  22  36  57  87 119 157 193 255 305 355
#     4   9  17  32  60  88 110 152 197 244 273 362
#     4   9  18  35  57  86 118 143 195 244 305 339
#     4  10  19  36  58  82 106 146 193 250 295 365
#     4  11  24  37  60  89 119 157 211 262 312 368
#
# _framework density 22.832943
#
# number of rings (size 3 to 8) (size 9 to 14) (size 15 to 20)
#    0.000    2.000    2.500    2.625    3.500    3.000 
#    0.000    0.000    8.250    0.000    0.000    0.000 
#    0.000    0.000    0.000    0.000    0.000    0.000 
#
# Total GULP energy -89162.463971 kJ/mol
# GULP energy per Si atom -5572.653998 kJ/mol
# Density = 2.278097 g / cm^3
# Si number density = 22.832943 Si / 1000 Ang^3
#
#
#
# Elastic Constant Matrix: (Units=GPa)
#
#
# Indices 1 2 3 4 5 6 
#
# 1 137.2562 34.2062 23.3100 2.3541 -0.4714 -14.2055
# 2 34.2062 119.0657 15.5270 16.2704 -14.8401 -4.5822
# 3 23.3100 15.5270 40.4262 16.2449 -12.7198 1.5585
# 4 2.3541 16.2704 16.2449 31.2384 -6.0253 -3.9380
# 5 -0.4714 -14.8401 -12.7198 -6.0253 32.5438 10.0951
# 6 -14.2055 -4.5822 1.5585 -3.9380 10.0951 33.1784
#
#
#
# Elastic Compliance Matrix: (Units=1/GPa)
#
#
# Indices 1 2 3 4 5 6 
#
# 1 0.010090 -0.002902 -0.008807 0.005064 -0.005756 0.006685
# 2 -0.002902 0.010286 0.001410 -0.005185 0.004854 -0.001981
# 3 -0.008807 0.001410 0.043980 -0.021186 0.018013 -0.013637
# 4 0.005064 -0.005185 -0.021186 0.045558 -0.005050 0.009391
# 5 -0.005756 0.004854 0.018013 -0.005050 0.044134 -0.016668
# 6 0.006685 -0.001981 -0.013637 0.009391 -0.016668 0.039556
#
#
# Mechanical properties :
#
#
# Convention : Reuss Voigt Hill
#
# Bulk Modulus (GPa) = 22.85298 49.20382 36.02840
# Shear Modulus (GPa) = 21.85448 34.30578 28.08013
#
# Velocity S-wave (km/s) = 3.09714 3.88037 3.51067
# Velocity P-wave (km/s) = 4.77705 6.45544 5.67859
#
# Compressibility (1/GPa) = 0.04375797
#
# Stress axis : x y z
#
# Youngs Moduli (GPa) = 99.11005 97.21977 22.73786
#
# Poissons Ratio (x) = 0.28216 0.20024
# Poissons Ratio (y) = 0.28764 -0.03206
# Poissons Ratio (z) = 0.87282 -0.13709
#
# Static dielectric constant tensor:
#      x y z
#    x 2.118340 -0.106050 0.119550 
#    y -0.106050 1.948150 -0.039480 
#    z 0.119550 -0.039480 1.958270 
# 
# From -- ./inp_files/140495.got.cif
#   From: 2010.05.17/outbox.cif.g08.bks.cpg/sg2_71_cif.got.tgz:140495.got - 2010.06.03 11:33:40.
