data_PCOD9083671
_publ_section_title
;
Structure prediction by ZEFSAII (Michael W. Deem and Ramdas Pophale) SiO2 
 PCOD9083671
Probable space group: P -1
;
_chemical_formula_sum "Si O2"
_cell_formula_units_Z 14
_cell_length_a 8.743353
_cell_length_b 8.111174
_cell_length_c 11.580181
_cell_angle_alpha 82.377175
_cell_angle_beta 90.676121
_cell_angle_gamma 45.047147
_cell_volume 569.499512
_symmetry_space_group_name_H-M "P -1"
_symmetry_group_IT_number 2
_symmetry_cell_setting 'triclinic'
loop_
_space_group_symop_operation_xyz
x,y,z
-x,-y,-z
loop_
_atom_site_type_symbol
_atom_site_label
_atom_site_fract_x
_atom_site_fract_y
_atom_site_fract_z
Si Si1 0.097968 0.589233 0.935719
Si Si2 0.707531 0.732077 0.226235
Si Si3 0.921999 0.316016 0.448266
Si Si4 0.953304 0.257114 0.838457
Si Si5 0.872305 0.004341 0.735395
Si Si6 0.395103 0.502607 0.366806
Si Si7 0.630199 0.993934 0.401755
O O1 0.304292 0.381773 0.874552
O O2 0.910809 0.813077 0.830713
O O3 0.000000 0.500000 0.000000
O O4 0.135134 0.677903 0.038254
O O5 0.552441 0.960878 0.287344
O O6 0.836904 0.522840 0.341538
O O7 0.848404 0.772668 0.170024
O O8 0.113802 0.223123 0.544685
O O9 0.718467 0.417964 0.516007
O O10 0.030220 0.101714 0.380075
O O11 0.009988 0.035192 0.804524
O O12 0.766969 0.461139 0.729789
O O13 0.636218 0.280085 0.694898
O O14 0.592584 0.221738 0.386328
O O15 0.500000 0.000000 0.500000
#
# Coordination Sequence:
#
# PCOD9083671 Si02
#       7
#     2   2   2   2   2   2   2
#     4   9  18  34  61  84 104 149 195 229 280 332
#     4  10  19  34  57  85 112 148 191 230 273 333
#     4  11  20  37  55  84 119 148 187 231 272 339
#     4   9  18  35  56  83 110 146 189 229 279 326
#     4   9  20  34  57  83 113 144 189 233 282 333
#     4  10  21  33  56  85 115 149 188 221 287 330
#     4  12  21  33  56  84 120 151 184 227 279 333
#
# _framework density 24.582989999999999
#
# number of rings (size 3 to 8) (size 9 to 14) (size 15 to 20)
#    0.857    1.143    2.857    2.143    0.000    0.571 
#    0.000    0.714    0.000    3.429    0.000    0.000 
#    0.000    0.000    0.000    0.000    0.000    0.000 
#
# Total GULP energy -77997.751996 kJ/mol
# GULP energy per Si atom -5571.268000 kJ/mol
# Density = 2.452704 g / cm^3
# Si number density = 24.582990 Si / 1000 Ang^3
#
#
#
# Elastic Constant Matrix: (Units=GPa)
#
#
# Indices 1 2 3 4 5 6 
#
# 1 34.7967 9.8513 10.8797 4.4731 -1.2364 0.6182
# 2 9.8513 127.4114 54.4859 12.5877 -6.1507 23.6725
# 3 10.8797 54.4859 163.7768 37.4803 -1.7170 14.5157
# 4 4.4731 12.5877 37.4803 59.5809 19.5445 3.3436
# 5 -1.2364 -6.1507 -1.7170 19.5445 31.2778 8.8289
# 6 0.6182 23.6725 14.5157 3.3436 8.8289 20.6927
#
#
#
# Elastic Compliance Matrix: (Units=1/GPa)
#
#
# Indices 1 2 3 4 5 6 
#
# 1 0.029861 -0.001960 -0.001109 -0.001638 0.001230 0.001868
# 2 -0.001960 0.012575 -0.001690 -0.003526 0.009157 -0.016479
# 3 -0.001109 -0.001690 0.008855 -0.006759 0.005939 -0.005687
# 4 -0.001638 -0.003526 -0.006759 0.028659 -0.022989 0.014001
# 5 0.001230 0.009157 0.005939 -0.022989 0.058673 -0.035998
# 6 0.001868 -0.016479 -0.005687 0.014001 -0.035998 0.084208
#
#
# Mechanical properties :
#
#
# Convention : Reuss Voigt Hill
#
# Bulk Modulus (GPa) = 23.93943 52.93543 38.43743
# Shear Modulus (GPa) = 20.30250 39.02814 29.66532
#
# Velocity S-wave (km/s) = 2.87692 3.98880 3.47759
# Velocity P-wave (km/s) = 4.56015 6.54172 5.63867
#
# Compressibility (1/GPa) = 0.04177208
#
# Stress axis : x y z
#
# Youngs Moduli (GPa) = 33.48812 79.52331 112.93312
#
# Poissons Ratio (x) = 0.15589 0.12527
# Poissons Ratio (y) = 0.06565 0.19084
# Poissons Ratio (z) = 0.03715 0.13438
#
# Static dielectric constant tensor:
#      x y z
#    x 2.070410 0.041310 0.044880 
#    y 0.041310 2.114050 0.081770 
#    z 0.044880 0.081770 1.967370 
# 
# From -- ./inp_files/417112.got.cif
#   From: 2010.05.17/outbox.cif.g08.bks.cpg/sg2_209_cif.got.tgz:417112.got - 2010.06.03 11:33:40.
