data_PCOD9083536
_publ_section_title
;
Structure prediction by ZEFSAII (Michael W. Deem and Ramdas Pophale) SiO2 
 PCOD9083536
Probable space group: P -1
;
_chemical_formula_sum "Si O2"
_cell_formula_units_Z 16
_cell_length_a 9.312357
_cell_length_b 16.356970
_cell_length_c 8.007276
_cell_angle_alpha 102.250759
_cell_angle_beta 51.478513
_cell_angle_gamma 132.197540
_cell_volume 660.717693
_symmetry_space_group_name_H-M "P -1"
_symmetry_group_IT_number 2
_symmetry_cell_setting 'triclinic'
loop_
_space_group_symop_operation_xyz
x,y,z
-x,-y,-z
loop_
_atom_site_type_symbol
_atom_site_label
_atom_site_fract_x
_atom_site_fract_y
_atom_site_fract_z
Si Si1 0.331481 0.616741 0.202326
Si Si2 0.027577 0.644027 0.621995
Si Si3 0.458408 0.853522 0.556597
Si Si4 0.898194 0.381507 0.940043
Si Si5 0.991112 0.251989 0.649539
Si Si6 0.312409 0.208895 0.254087
Si Si7 0.527116 0.973539 0.201294
Si Si8 0.004633 0.032236 0.817344
O O1 0.266343 0.653818 0.422364
O O2 0.118266 0.591457 0.226392
O O3 0.235988 0.491928 0.227364
O O4 0.595500 0.715934 0.955132
O O5 0.156983 0.730059 0.725223
O O6 0.984549 0.694672 0.526035
O O7 0.487975 0.907098 0.373043
O O8 0.516820 0.945723 0.683363
O O9 0.696349 0.866211 0.401096
O O10 0.040035 0.337776 0.794108
O O11 0.591651 0.270567 0.152026
O O12 0.000000 0.500000 0.000000
O O13 0.687812 0.129294 0.814467
O O14 0.169792 0.228449 0.485862
O O15 0.131085 0.077109 0.258663
O O16 0.817275 0.051105 0.963406
O O17 0.000000 0.000000 0.000000
#
# Coordination Sequence:
#
# PCOD9083536 Si02
#       8
#     2   2   2   2   2   2   2   2
#     4   8  17  31  46  62  93 123 155 179 227 269
#     4   9  16  30  44  65  96 129 146 176 223 279
#     4   9  16  23  40  61  88 121 145 174 214 265
#     4   9  19  34  48  65  87 117 158 199 227 254
#     4  10  17  28  47  67  96 117 146 186 231 274
#     4  10  18  29  45  70  92 120 154 182 229 270
#     4   9  15  25  37  62  91 118 142 176 221 262
#     4  10  16  24  41  64  94 119 143 180 218 273
#
# _framework density 24.216090000000001
#
# number of rings (size 3 to 8) (size 9 to 14) (size 15 to 20)
#    0.750    2.000    2.500    1.500    1.750    1.000 
#    0.000    0.000    0.000    0.000    0.000    1.750 
#    0.000    0.000    0.000    0.000    0.000    0.000 
#
# Total GULP energy -89132.689898 kJ/mol
# GULP energy per Si atom -5570.793119 kJ/mol
# Density = 2.416097 g / cm^3
# Si number density = 24.216090 Si / 1000 Ang^3
#
#
#
# Elastic Constant Matrix: (Units=GPa)
#
#
# Indices 1 2 3 4 5 6 
#
# 1 56.1926 0.8016 19.8308 -2.1740 -5.9045 -2.5105
# 2 0.8016 64.9553 6.5550 14.1230 11.1739 17.2738
# 3 19.8308 6.5550 112.8322 12.7253 -14.4949 -0.4596
# 4 -2.1740 14.1230 12.7253 39.3067 -8.6657 6.6261
# 5 -5.9045 11.1739 -14.4949 -8.6657 29.8269 -4.2687
# 6 -2.5105 17.2738 -0.4596 6.6261 -4.2687 13.4690
#
#
#
# Elastic Compliance Matrix: (Units=1/GPa)
#
#
# Indices 1 2 3 4 5 6 
#
# 1 0.020116 -0.004507 -0.002755 0.003446 0.006747 0.009879
# 2 -0.004507 0.035724 -0.003807 -0.009059 -0.025994 -0.050567
# 3 -0.002755 -0.003807 0.010685 -0.002118 0.006583 0.007861
# 4 0.003446 -0.009059 -0.002118 0.032275 0.012461 0.000259
# 5 0.006747 -0.025994 0.006583 0.012461 0.058164 0.047123
# 6 0.009879 -0.050567 0.007861 0.000259 0.047123 0.156014
#
#
# Mechanical properties :
#
#
# Convention : Reuss Voigt Hill
#
# Bulk Modulus (GPa) = 22.52965 32.03944 27.28455
# Shear Modulus (GPa) = 14.28931 30.30669 22.29800
#
# Velocity S-wave (km/s) = 2.43178 3.54151 3.03775
# Velocity P-wave (km/s) = 4.14832 5.47562 4.85752
#
# Compressibility (1/GPa) = 0.04438595
#
# Stress axis : x y z
#
# Youngs Moduli (GPa) = 49.71117 27.99250 93.59209
#
# Poissons Ratio (x) = 0.12617 0.25788
# Poissons Ratio (y) = 0.22406 0.35629
# Poissons Ratio (z) = 0.13697 0.10656
#
# Static dielectric constant tensor:
#      x y z
#    x 2.007970 -0.078690 0.061000 
#    y -0.078690 2.028920 0.115890 
#    z 0.061000 0.115890 2.095320 
# 
# From -- ./inp_files/303598.got.cif
#   From: 2010.05.17/outbox.cif.g08.bks.cpg/sg2_152_cif.got.tgz:303598.got - 2010.06.03 11:33:40.
