data_PCOD9083051
_publ_section_title
;
Structure prediction by ZEFSAII (Michael W. Deem and Ramdas Pophale) SiO2 
 PCOD9083051
Probable space group: P -1
;
_chemical_formula_sum "Si O2"
_cell_formula_units_Z 14
_cell_length_a 7.642013
_cell_length_b 10.810903
_cell_length_c 17.890879
_cell_angle_alpha 38.258144
_cell_angle_beta 143.210357
_cell_angle_gamma 118.691391
_cell_volume 502.088995
_symmetry_space_group_name_H-M "P -1"
_symmetry_group_IT_number 2
_symmetry_cell_setting 'triclinic'
loop_
_space_group_symop_operation_xyz
x,y,z
-x,-y,-z
loop_
_atom_site_type_symbol
_atom_site_label
_atom_site_fract_x
_atom_site_fract_y
_atom_site_fract_z
Si Si1 0.428954 0.309968 0.723790
Si Si2 0.271519 0.415287 0.793827
Si Si3 0.127442 0.974666 0.781426
Si Si4 0.847648 0.759561 0.575046
Si Si5 0.196462 0.736196 0.336835
Si Si6 0.590563 0.823383 0.695346
Si Si7 0.075024 0.566337 0.113171
O O1 0.307946 0.376074 0.736188
O O2 0.314742 0.524937 0.532016
O O3 0.797747 0.266483 0.882968
O O4 0.286944 0.137409 0.728780
O O5 0.121182 0.661381 0.653294
O O6 0.005756 0.318963 0.768889
O O7 0.602056 0.266161 0.015402
O O8 0.790767 0.955180 0.661482
O O9 0.054009 0.062049 0.799455
O O10 0.519457 0.769022 0.419581
O O11 0.980852 0.578855 0.772085
O O12 0.725372 0.989609 0.465954
O O13 0.651802 0.621952 0.754945
O O14 0.795931 0.697256 0.898536
#
# Coordination Sequence:
#
# PCOD9083051 Si02
#       7
#     2   2   2   2   2   2   2
#     4  10  19  36  61  84 109 148 199 226 268 341
#     4  11  19  33  54  86 119 140 180 242 287 315
#     4  10  19  33  61  83 107 151 187 227 276 333
#     4  10  22  37  56  86 116 148 183 237 287 329
#     4   9  19  35  55  81 113 156 187 219 277 350
#     4  10  21  40  64  77 112 155 193 224 276 345
#     4  10  21  40  62  83 106 154 199 223 269 352
#
# _framework density 27.883503999999999
#
# number of rings (size 3 to 8) (size 9 to 14) (size 15 to 20)
#    0.000    2.000    1.429    4.286    2.000    0.000 
#    5.143    2.857    0.000    0.000    0.000    0.000 
#    0.000    0.000    0.000    0.000    0.000    0.000 
#
# Total GULP energy -78167.415595 kJ/mol
# GULP energy per Si atom -5583.386828 kJ/mol
# Density = 2.782004 g / cm^3
# Si number density = 27.883504 Si / 1000 Ang^3
#
#
#
# Elastic Constant Matrix: (Units=GPa)
#
#
# Indices 1 2 3 4 5 6 
#
# 1 81.1327 24.5329 28.0050 -20.0196 4.3269 -22.0585
# 2 24.5329 137.0457 14.7750 -25.8938 -1.7905 25.7113
# 3 28.0050 14.7750 107.3305 -26.7209 10.4386 -4.4227
# 4 -20.0196 -25.8938 -26.7209 43.2470 -7.4169 -7.4236
# 5 4.3269 -1.7905 10.4386 -7.4169 39.4688 -17.4856
# 6 -22.0585 25.7113 -4.4227 -7.4236 -17.4856 40.9732
#
#
#
# Elastic Compliance Matrix: (Units=1/GPa)
#
#
# Indices 1 2 3 4 5 6 
#
# 1 0.023129 -0.005756 -0.002507 0.011138 0.009680 0.021942
# 2 -0.005756 0.010563 0.000274 0.001331 -0.003578 -0.010983
# 3 -0.002507 0.000274 0.011560 0.005886 -0.001619 0.000102
# 4 0.011138 0.001331 0.005886 0.037910 0.012353 0.017937
# 5 0.009680 -0.003578 -0.001619 0.012353 0.038326 0.025876
# 6 0.021942 -0.010983 0.000102 0.017937 0.025876 0.057415
#
#
# Mechanical properties :
#
#
# Convention : Reuss Voigt Hill
#
# Bulk Modulus (GPa) = 34.15786 51.12608 42.64197
# Shear Modulus (GPa) = 24.43329 41.95087 33.19208
#
# Velocity S-wave (km/s) = 2.96339 3.88300 3.45394
# Velocity P-wave (km/s) = 4.89752 6.20315 5.58859
#
# Compressibility (1/GPa) = 0.02927584
#
# Stress axis : x y z
#
# Youngs Moduli (GPa) = 43.23585 94.67146 86.50147
#
# Poissons Ratio (x) = 0.54490 0.21685
# Poissons Ratio (y) = 0.24885 -0.02374
# Poissons Ratio (z) = 0.10839 -0.02598
#
# Static dielectric constant tensor:
#      x y z
#    x 2.323290 0.091690 0.006960 
#    y 0.091690 2.228330 0.046690 
#    z 0.006960 0.046690 2.170410 
# 
# From -- ./inp_files/589496.got.cif
#   From: 2010.05.17/outbox.cif.g08.bks.cpg/sg2_295_cif.got.tgz:589496.got - 2010.06.03 11:33:40.
