data_PCOD9083235
_publ_section_title
;
Structure prediction by ZEFSAII (Michael W. Deem and Ramdas Pophale) SiO2 
 PCOD9083235
Probable space group: P -1
;
_chemical_formula_sum "Si O2"
_cell_formula_units_Z 16
_cell_length_a 9.188170
_cell_length_b 8.018722
_cell_length_c 19.509979
_cell_angle_alpha 40.354632
_cell_angle_beta 122.231104
_cell_angle_gamma 103.172041
_cell_volume 744.332867
_symmetry_space_group_name_H-M "P -1"
_symmetry_group_IT_number 2
_symmetry_cell_setting 'triclinic'
loop_
_space_group_symop_operation_xyz
x,y,z
-x,-y,-z
loop_
_atom_site_type_symbol
_atom_site_label
_atom_site_fract_x
_atom_site_fract_y
_atom_site_fract_z
Si Si1 0.291635 0.629837 0.926733
Si Si2 0.197462 0.468029 0.088953
Si Si3 0.712501 0.129189 0.689595
Si Si4 0.583138 0.427546 0.431999
Si Si5 0.043627 0.274934 0.786321
Si Si6 0.281158 0.084975 0.035324
Si Si7 0.712960 0.801087 0.253480
Si Si8 0.236727 0.546790 0.233703
O O1 0.219222 0.391645 0.954282
O O2 0.225618 0.941898 0.787335
O O3 0.500000 0.500000 0.000000
O O4 0.275402 0.636762 0.002808
O O5 0.194522 0.516953 0.153511
O O6 0.313826 0.152259 0.209080
O O7 0.000000 0.500000 0.000000
O O8 0.689265 0.185827 0.584673
O O9 0.560425 0.359645 0.620537
O O10 0.910569 0.134887 0.759784
O O11 0.705193 0.584034 0.376881
O O12 0.445061 0.375560 0.357682
O O13 0.899441 0.498078 0.729074
O O14 0.188669 0.107484 0.931099
O O15 0.160196 0.342363 0.733354
O O16 0.500668 0.947014 0.131764
O O17 0.217426 0.870366 0.130915
#
# Coordination Sequence:
#
# PCOD9083235 Si02
#       8
#     2   2   2   2   2   2   2   2
#     4  10  20  33  53  81 112 141 175 224 279 329
#     4  12  22  35  57  87 115 143 181 229 281 329
#     4  10  21  39  61  79 109 147 190 232 270 327
#     4   9  21  41  59  80 106 149 193 227 272 325
#     4  11  20  33  54  80 108 145 182 227 277 323
#     4  10  19  34  53  80 115 146 181 224 279 336
#     4  10  20  34  55  81 111 144 183 226 278 334
#     4  10  21  35  54  79 111 147 187 226 269 329
#
# _framework density 21.495760000000001
#
# number of rings (size 3 to 8) (size 9 to 14) (size 15 to 20)
#    0.000    1.750    0.000    6.750    0.000    4.000 
#    0.000    0.000    0.000    1.500    0.000    0.000 
#    0.000    0.000    0.000    0.000    0.000    0.000 
#
# Total GULP energy -89212.803632 kJ/mol
# GULP energy per Si atom -5575.800227 kJ/mol
# Density = 2.144683 g / cm^3
# Si number density = 21.495760 Si / 1000 Ang^3
#
#
#
# Elastic Constant Matrix: (Units=GPa)
#
#
# Indices 1 2 3 4 5 6 
#
# 1 112.3164 14.1591 9.3912 11.6774 -22.1872 -14.7315
# 2 14.1591 67.4596 23.3167 25.8104 4.0604 -7.7540
# 3 9.3912 23.3167 75.3774 20.1651 -24.5695 8.9035
# 4 11.6774 25.8104 20.1651 29.4644 -5.3645 -4.3144
# 5 -22.1872 4.0604 -24.5695 -5.3645 24.4780 1.9504
# 6 -14.7315 -7.7540 8.9035 -4.3144 1.9504 18.4086
#
#
#
# Elastic Compliance Matrix: (Units=1/GPa)
#
#
# Indices 1 2 3 4 5 6 
#
# 1 0.013157 -0.004988 0.005480 -0.000816 0.017779 0.003702
# 2 -0.004988 0.032907 -0.017440 -0.018342 -0.032899 0.017492
# 3 0.005480 -0.017440 0.039642 -0.009620 0.047890 -0.029462
# 4 -0.000816 -0.018342 -0.009620 0.059209 0.004855 0.009636
# 5 0.017779 -0.032899 0.047890 0.004855 0.114249 -0.033759
# 6 0.003702 0.017492 -0.029462 0.009636 -0.033759 0.084737
#
#
# Mechanical properties :
#
#
# Convention : Reuss Voigt Hill
#
# Bulk Modulus (GPa) = 19.30151 38.76527 29.03339
# Shear Modulus (GPa) = 12.65609 28.35597 20.50603
#
# Velocity S-wave (km/s) = 2.42909 3.63594 3.09197
# Velocity P-wave (km/s) = 4.10683 5.97493 5.12669
#
# Compressibility (1/GPa) = 0.05180941
#
# Stress axis : x y z
#
# Youngs Moduli (GPa) = 76.00729 30.38853 25.22568
#
# Poissons Ratio (x) = 0.15157 -0.13824
# Poissons Ratio (y) = 0.37912 0.43995
# Poissons Ratio (z) = -0.41653 0.52999
#
# Static dielectric constant tensor:
#      x y z
#    x 1.802280 0.007990 0.012070 
#    y 0.007990 1.895130 0.003640 
#    z 0.012070 0.003640 1.790030 
# 
# From -- ./inp_files/469821.got.cif
#   From: 2010.05.17/outbox.cif.g08.bks.cpg/sg2_235_cif.got.tgz:469821.got - 2010.06.03 11:33:40.
