data_PCOD9083159
_publ_section_title
;
Structure prediction by ZEFSAII (Michael W. Deem and Ramdas Pophale) SiO2 
 PCOD9083159
Probable space group: P -1
;
_chemical_formula_sum "Si O2"
_cell_formula_units_Z 14
_cell_length_a 26.253330
_cell_length_b 9.587782
_cell_length_c 5.154389
_cell_angle_alpha 39.257101
_cell_angle_beta 122.858564
_cell_angle_gamma 134.256572
_cell_volume 588.016628
_symmetry_space_group_name_H-M "P -1"
_symmetry_group_IT_number 2
_symmetry_cell_setting 'triclinic'
loop_
_space_group_symop_operation_xyz
x,y,z
-x,-y,-z
loop_
_atom_site_type_symbol
_atom_site_label
_atom_site_fract_x
_atom_site_fract_y
_atom_site_fract_z
Si Si1 0.988846 0.823342 0.973559
Si Si2 0.708831 0.810856 0.640723
Si Si3 0.463720 0.789843 0.479647
Si Si4 0.138092 0.998337 0.197029
Si Si5 0.437559 0.303141 0.419955
Si Si6 0.841512 0.662950 0.734078
Si Si7 0.308518 0.511973 0.441947
O O1 0.944672 0.218274 0.770174
O O2 0.904847 0.609464 0.031924
O O3 0.000000 0.000000 0.500000
O O4 0.000000 0.000000 0.000000
O O5 0.792474 0.025025 0.605891
O O6 0.641342 0.838186 0.473736
O O7 0.702460 0.706365 0.481832
O O8 0.696298 0.587223 0.134420
O O9 0.527468 0.850459 0.376037
O O10 0.387052 0.746243 0.270472
O O11 0.500000 0.000000 0.500000
O O12 0.438259 0.497696 0.926039
O O13 0.143829 0.117822 0.326630
O O14 0.150380 0.214520 0.704890
O O15 0.500000 0.500000 0.500000
O O16 0.758177 0.452070 0.835951
#
# Coordination Sequence:
#
# PCOD9083159 Si02
#       7
#     2   2   2   2   2   2   2
#     4   8  12  18  28  47  74 104 137 174 217 264
#     4   9  16  27  44  61  86 119 153 188 233 282
#     4  10  21  34  50  72  97 127 164 204 243 289
#     4   8  13  20  32  52  76 107 142 178 220 268
#     4  10  19  34  51  69  96 128 163 199 246 291
#     4   8  13  20  33  50  76 109 141 176 222 271
#     4   9  16  28  42  62  86 118 153 189 234 281
#
# _framework density 23.808852000000002
#
# number of rings (size 3 to 8) (size 9 to 14) (size 15 to 20)
#    0.000    3.143    1.429    0.000    0.000    0.571 
#    0.000    0.000    0.000    0.000    0.000    0.000 
#    0.000    1.143    0.000    2.143    0.000   17.429 
#
# Total GULP energy -77947.229679 kJ/mol
# GULP energy per Si atom -5567.659263 kJ/mol
# Density = 2.375466 g / cm^3
# Si number density = 23.808852 Si / 1000 Ang^3
#
#
#
# Elastic Constant Matrix: (Units=GPa)
#
#
# Indices 1 2 3 4 5 6 
#
# 1 193.0410 63.4402 30.9313 6.1470 56.5557 62.5637
# 2 63.4402 82.7239 19.5686 23.6211 18.2220 40.3477
# 3 30.9313 19.5686 56.4380 6.5505 28.6975 6.4776
# 4 6.1470 23.6211 6.5505 29.4417 5.6339 4.8858
# 5 56.5557 18.2220 28.6975 5.6339 67.0173 28.5793
# 6 62.5637 40.3477 6.4776 4.8858 28.5793 74.3245
#
#
#
# Elastic Compliance Matrix: (Units=1/GPa)
#
#
# Indices 1 2 3 4 5 6 
#
# 1 0.009605 -0.005690 -0.000761 0.004260 -0.005226 -0.003200
# 2 -0.005690 0.026863 -0.005915 -0.018477 0.006008 -0.010373
# 3 -0.000761 -0.005915 0.025066 0.000463 -0.011028 0.005877
# 4 0.004260 -0.018477 0.000463 0.047895 -0.005005 0.005180
# 5 -0.005226 0.006008 -0.011028 -0.005005 0.026083 -0.007602
# 6 -0.003200 -0.010373 0.005877 0.005180 -0.007602 0.023850
#
#
# Mechanical properties :
#
#
# Convention : Reuss Voigt Hill
#
# Bulk Modulus (GPa) = 27.17333 62.23144 44.70239
# Shear Modulus (GPa) = 25.46318 48.70757 37.08537
#
# Velocity S-wave (km/s) = 3.27384 4.52793 3.95096
# Velocity P-wave (km/s) = 5.07234 7.31648 6.29522
#
# Compressibility (1/GPa) = 0.03680079
#
# Stress axis : x y z
#
# Youngs Moduli (GPa) = 104.11521 37.22532 39.89476
#
# Poissons Ratio (x) = 0.21182 0.03036
# Poissons Ratio (y) = 0.59245 0.23599
# Poissons Ratio (z) = 0.07922 0.22020
#
# Static dielectric constant tensor:
#      x y z
#    x 1.951040 0.059210 0.046050 
#    y 0.059210 1.841250 0.024540 
#    z 0.046050 0.024540 1.964200 
# 
# From -- ./inp_files/122344.got.cif
#   From: 2010.05.17/outbox.cif.g08.bks.cpg/sg2_62_cif.got.tgz:122344.got - 2010.06.03 11:33:40.
