data_PCOD9083906
_publ_section_title
;
Structure prediction by ZEFSAII (Michael W. Deem and Ramdas Pophale) SiO2 
 PCOD9083906
Probable space group: P -1
;
_chemical_formula_sum "Si O2"
_cell_formula_units_Z 15
_cell_length_a 15.486931
_cell_length_b 5.255607
_cell_length_c 7.871301
_cell_angle_alpha 94.292204
_cell_angle_beta 116.815750
_cell_angle_gamma 102.702909
_cell_volume 546.520025
_symmetry_space_group_name_H-M "P -1"
_symmetry_group_IT_number 2
_symmetry_cell_setting 'triclinic'
loop_
_space_group_symop_operation_xyz
x,y,z
-x,-y,-z
loop_
_atom_site_type_symbol
_atom_site_label
_atom_site_fract_x
_atom_site_fract_y
_atom_site_fract_z
Si Si1 0.789942 0.987393 0.184086
Si Si2 0.537417 0.064545 0.232849
Si Si3 0.112185 0.089735 0.425694
Si Si4 0.671834 0.019459 0.781805
Si Si5 0.393375 0.391329 0.798385
Si Si6 0.761098 0.556089 0.707605
Si Si7 0.000000 0.500000 0.500000
Si Si8 0.933562 0.691751 0.115793
O O1 0.853983 0.108494 0.417768
O O2 0.696201 0.749972 0.162140
O O3 0.862591 0.858951 0.138681
O O4 0.736056 0.141184 0.016858
O O5 0.443846 0.056405 0.268223
O O6 0.587974 0.837549 0.315562
O O7 0.613590 0.354341 0.297886
O O8 0.500000 0.000000 0.000000
O O9 0.206262 0.297874 0.434891
O O10 0.054826 0.266416 0.485039
O O11 0.043797 0.903529 0.214647
O O12 0.700070 0.254127 0.681603
O O13 0.704541 0.755702 0.754365
O O14 0.500000 0.500000 0.000000
O O15 0.871937 0.572248 0.888959
O O16 0.950602 0.486712 0.260273
#
# Coordination Sequence:
#
# PCOD9083906 Si02
#       8
#     2   2   2   2   2   2   1   2
#     4  10  21  40  67  97 134 165 228 273 332 377
#     4  10  19  34  64  94 133 154 221 274 324 375
#     4  11  25  47  62  99 134 184 218 281 330 399
#     4  11  23  42  66 105 127 179 221 278 324 403
#     4  10  19  34  59 103 123 164 208 284 317 387
#     4  11  27  42  69  95 142 176 224 263 344 402
#     4  10  22  40  70  90 126 166 232 280 318 378
#     4  10  24  40  66  95 131 179 222 278 324 395
#
# _framework density 27.446386
#
# number of rings (size 3 to 8) (size 9 to 14) (size 15 to 20)
#    0.000    1.600    2.667    2.800   13.067    0.533 
#    4.800    0.000    0.000    4.800    0.000    0.000 
#    0.000    0.000    0.000    0.000    0.000    0.000 
#
# Total GULP energy -83824.202434 kJ/mol
# GULP energy per Si atom -5588.280162 kJ/mol
# Density = 2.738392 g / cm^3
# Si number density = 27.446386 Si / 1000 Ang^3
#
#
#
# Elastic Constant Matrix: (Units=GPa)
#
#
# Indices 1 2 3 4 5 6 
#
# 1 104.3258 42.4732 7.4444 19.2782 -0.2410 12.5655
# 2 42.4732 137.0108 13.0684 -4.3869 -5.0513 -16.4528
# 3 7.4444 13.0684 96.9042 -24.4767 2.4063 3.9135
# 4 19.2782 -4.3869 -24.4767 48.8813 8.7701 4.9254
# 5 -0.2410 -5.0513 2.4063 8.7701 20.6287 -0.1794
# 6 12.5655 -16.4528 3.9135 4.9254 -0.1794 52.4274
#
#
#
# Elastic Compliance Matrix: (Units=1/GPa)
#
#
# Indices 1 2 3 4 5 6 
#
# 1 0.013248 -0.004513 -0.001974 -0.006602 0.002054 -0.003817
# 2 -0.004513 0.009351 -0.000722 0.001558 0.001693 0.003929
# 3 -0.001974 -0.000722 0.012836 0.008227 -0.005208 -0.001502
# 4 -0.006602 0.001558 0.008227 0.029859 -0.013362 -0.001394
# 5 0.002054 0.001693 -0.005208 -0.013362 0.055219 0.001872
# 6 -0.003817 0.003929 -0.001502 -0.001394 0.001872 0.021471
#
#
# Mechanical properties :
#
#
# Convention : Reuss Voigt Hill
#
# Bulk Modulus (GPa) = 47.57510 51.57918 49.57714
# Shear Modulus (GPa) = 30.59874 42.73778 36.66826
#
# Velocity S-wave (km/s) = 3.34257 3.95034 3.65909
# Velocity P-wave (km/s) = 5.68053 6.29606 5.99620
#
# Compressibility (1/GPa) = 0.02101940
#
# Stress axis : x y z
#
# Youngs Moduli (GPa) = 75.48466 106.94578 77.90328
#
# Poissons Ratio (x) = 0.48260 0.15375
# Poissons Ratio (y) = 0.34063 0.05621
# Poissons Ratio (z) = 0.14897 0.07717
#
# Static dielectric constant tensor:
#      x y z
#    x 2.073390 0.061230 0.157500 
#    y 0.061230 2.359190 0.469130 
#    z 0.157500 0.469130 2.974720 
# 
# From -- ./inp_files/321729.got.cif
#   From: 2010.05.17/outbox.cif.g08.bks.cpg/sg2_161_cif.got.tgz:321729.got - 2010.06.03 11:33:40.
