data_PCOD9083493
_publ_section_title
;
Structure prediction by ZEFSAII (Michael W. Deem and Ramdas Pophale) SiO2 
 PCOD9083493
Probable space group: P -1
;
_chemical_formula_sum "Si O2"
_cell_formula_units_Z 16
_cell_length_a 15.952345
_cell_length_b 5.295944
_cell_length_c 10.433987
_cell_angle_alpha 90.605279
_cell_angle_beta 120.537488
_cell_angle_gamma 94.468817
_cell_volume 755.625702
_symmetry_space_group_name_H-M "P -1"
_symmetry_group_IT_number 2
_symmetry_cell_setting 'triclinic'
loop_
_space_group_symop_operation_xyz
x,y,z
-x,-y,-z
loop_
_atom_site_type_symbol
_atom_site_label
_atom_site_fract_x
_atom_site_fract_y
_atom_site_fract_z
Si Si1 0.722060 0.736413 0.140787
Si Si2 0.597520 0.058662 0.661116
Si Si3 0.663942 0.217351 0.964045
Si Si4 0.861842 0.239686 0.649831
Si Si5 0.867028 0.272090 0.960954
Si Si6 0.075420 0.208137 0.857810
Si Si7 0.245784 0.289221 0.533692
Si Si8 0.384327 0.436407 0.427074
O O1 0.663169 0.487348 0.032050
O O2 0.829271 0.765870 0.158524
O O3 0.735884 0.702377 0.301611
O O4 0.672241 0.989923 0.068243
O O5 0.654908 0.298985 0.637995
O O6 0.500000 0.000000 0.500000
O O7 0.648047 0.797238 0.693827
O O8 0.580673 0.141349 0.793466
O O9 0.761960 0.232502 0.951552
O O10 0.820752 0.492499 0.563836
O O11 0.975822 0.228744 0.703793
O O12 0.801298 0.987401 0.547380
O O13 0.861874 0.237906 0.804816
O O14 0.910534 0.555412 0.032296
O O15 0.926932 0.057560 0.070399
O O16 0.347254 0.348996 0.535789
O O17 0.500000 0.500000 0.500000
#
# Coordination Sequence:
#
# PCOD9083493 Si02
#       8
#     2   2   2   2   2   2   2   2
#     4  10  23  38  56  80 116 163 199 226 271 343
#     4  10  20  36  64  94 114 138 181 237 298 348
#     4  10  19  36  59  82 114 153 190 232 281 340
#     4  12  23  35  58  86 117 150 193 249 290 331
#     4  10  19  34  56  83 113 149 196 237 288 340
#     4  10  21  37  55  81 118 156 191 239 290 336
#     4  12  24  38  57  85 114 152 200 237 282 342
#     4  10  21  38  61  86 115 142 178 240 299 339
#
# _framework density 21.174503999999999
#
# number of rings (size 3 to 8) (size 9 to 14) (size 15 to 20)
#    0.000    1.500    0.000    6.000    0.000    3.000 
#    0.000    0.000    0.000   18.000    0.000    0.000 
#    0.000    0.000    0.000    0.000    0.000    0.000 
#
# Total GULP energy -89394.665334 kJ/mol
# GULP energy per Si atom -5587.166583 kJ/mol
# Density = 2.112631 g / cm^3
# Si number density = 21.174504 Si / 1000 Ang^3
#
#
#
# Elastic Constant Matrix: (Units=GPa)
#
#
# Indices 1 2 3 4 5 6 
#
# 1 36.0444 5.3607 21.9624 3.6815 3.2560 2.3953
# 2 5.3607 136.9295 20.6718 10.9598 -8.2812 0.3291
# 3 21.9624 20.6718 102.7494 -0.2560 -17.4706 13.0055
# 4 3.6815 10.9598 -0.2560 30.3952 -3.7287 -2.9986
# 5 3.2560 -8.2812 -17.4706 -3.7287 35.2455 -6.0168
# 6 2.3953 0.3291 13.0055 -2.9986 -6.0168 11.3771
#
#
#
# Elastic Compliance Matrix: (Units=1/GPa)
#
#
# Indices 1 2 3 4 5 6 
#
# 1 0.034438 -0.000152 -0.008330 -0.005608 -0.008577 -0.003738
# 2 -0.000152 0.007807 -0.001550 -0.002534 0.001063 0.001472
# 3 -0.008330 -0.001550 0.014198 0.001292 0.005688 -0.011083
# 4 -0.005608 -0.002534 0.001292 0.036595 0.006643 0.012936
# 5 -0.008577 0.001063 0.005688 0.006643 0.035647 0.015876
# 6 -0.003738 0.001472 -0.011083 0.012936 0.015876 0.113115
#
#
# Mechanical properties :
#
#
# Convention : Reuss Voigt Hill
#
# Bulk Modulus (GPa) = 27.48826 41.30148 34.39487
# Shear Modulus (GPa) = 18.24896 30.58543 24.41720
#
# Velocity S-wave (km/s) = 2.93889 3.80471 3.39948
# Velocity P-wave (km/s) = 4.95238 6.23287 5.62916
#
# Compressibility (1/GPa) = 0.03637917
#
# Stress axis : x y z
#
# Youngs Moduli (GPa) = 29.03809 128.09773 70.43327
#
# Poissons Ratio (x) = 0.01942 0.58668
# Poissons Ratio (y) = 0.00440 0.10918
# Poissons Ratio (z) = 0.24188 0.19856
#
# Static dielectric constant tensor:
#      x y z
#    x 2.042280 -0.164730 0.167790 
#    y -0.164730 1.882410 -0.064850 
#    z 0.167790 -0.064850 1.822720 
# 
# From -- ./inp_files/137361.got.cif
#   From: 2010.05.17/outbox.cif.g08.bks.cpg/sg2_69_cif.got.tgz:137361.got - 2010.06.03 11:33:40.
