data_PCOD9083600
_publ_section_title
;
Structure prediction by ZEFSAII (Michael W. Deem and Ramdas Pophale) SiO2 
 PCOD9083600
Probable space group: P -1
;
_chemical_formula_sum "Si O2"
_cell_formula_units_Z 16
_cell_length_a 7.749179
_cell_length_b 16.646202
_cell_length_c 11.326756
_cell_angle_alpha 119.616066
_cell_angle_beta 149.352870
_cell_angle_gamma 64.608584
_cell_volume 647.464863
_symmetry_space_group_name_H-M "P -1"
_symmetry_group_IT_number 2
_symmetry_cell_setting 'triclinic'
loop_
_space_group_symop_operation_xyz
x,y,z
-x,-y,-z
loop_
_atom_site_type_symbol
_atom_site_label
_atom_site_fract_x
_atom_site_fract_y
_atom_site_fract_z
Si Si1 0.688322 0.576174 0.243472
Si Si2 0.554340 0.102861 0.152261
Si Si3 0.993733 0.258463 0.562241
Si Si4 0.038105 0.217823 0.822581
Si Si5 0.393173 0.468706 0.584567
Si Si6 0.961241 0.891208 0.923629
Si Si7 0.499437 0.110888 0.563437
Si Si8 0.293820 0.366635 0.228434
O O1 0.520589 0.570532 0.267446
O O2 0.725813 0.679380 0.290408
O O3 0.067801 0.535556 0.451121
O O4 0.500000 0.500000 0.000000
O O5 0.924811 0.148956 0.419520
O O6 0.333927 0.119152 0.155352
O O7 0.388201 0.162858 0.994546
O O8 0.500000 0.000000 0.000000
O O9 0.640756 0.311106 0.366559
O O10 0.022951 0.266357 0.724710
O O11 0.773908 0.141246 0.649221
O O12 0.023084 0.297675 0.969145
O O13 0.284616 0.386562 0.375247
O O14 0.680707 0.532454 0.742551
O O15 0.833021 0.857102 0.691409
O O16 0.307786 0.859218 0.175636
O O17 0.000000 0.000000 0.000000
O O18 0.500000 0.000000 0.500000
#
# Coordination Sequence:
#
# PCOD9083600 Si02
#       8
#     2   2   2   2   2   2   2   2
#     4  10  20  35  60  84 121 156 184 232 294 360
#     4  10  21  37  56  80 109 151 196 246 296 357
#     4  10  20  36  57  84 112 152 197 239 297 357
#     4  10  19  34  57  81 111 146 196 245 295 353
#     4   9  19  37  58  86 118 149 193 232 291 358
#     4   9  17  33  55  78 105 143 191 241 297 351
#     4   9  17  31  54  78 106 146 189 240 293 350
#     4   9  19  35  60  86 111 150 192 245 289 351
#
# _framework density 24.711763000000001
#
# number of rings (size 3 to 8) (size 9 to 14) (size 15 to 20)
#    0.000    2.500    1.250    0.750    0.000    2.500 
#    0.000    8.750    8.250    1.500    0.000    0.000 
#    0.000    0.000    0.000    0.000    0.000    0.000 
#
# Total GULP energy -89114.060046 kJ/mol
# GULP energy per Si atom -5569.628753 kJ/mol
# Density = 2.465552 g / cm^3
# Si number density = 24.711763 Si / 1000 Ang^3
#
#
#
# Elastic Constant Matrix: (Units=GPa)
#
#
# Indices 1 2 3 4 5 6 
#
# 1 82.9058 36.9937 50.9103 13.0742 -17.0041 32.5156
# 2 36.9937 109.8149 65.2275 13.7236 -7.4725 16.9435
# 3 50.9103 65.2275 128.4269 0.1681 -26.4469 25.1850
# 4 13.0742 13.7236 0.1681 39.5438 -11.4935 10.5997
# 5 -17.0041 -7.4725 -26.4469 -11.4935 33.2000 2.3052
# 6 32.5156 16.9435 25.1850 10.5997 2.3052 44.8909
#
#
#
# Elastic Compliance Matrix: (Units=1/GPa)
#
#
# Indices 1 2 3 4 5 6 
#
# 1 0.022707 -0.003400 -0.002329 0.000537 0.010202 -0.014508
# 2 -0.003400 0.015319 -0.008889 -0.007602 -0.008277 0.003888
# 3 -0.002329 -0.008889 0.018003 0.010470 0.015350 -0.008318
# 4 0.000537 -0.007602 0.010470 0.037285 0.020732 -0.013262
# 5 0.010202 -0.008277 0.015350 0.020732 0.054315 -0.020562
# 6 -0.014508 0.003888 -0.008318 -0.013262 -0.020562 0.040171
#
#
# Mechanical properties :
#
#
# Convention : Reuss Voigt Hill
#
# Bulk Modulus (GPa) = 37.32518 69.71229 53.51874
# Shear Modulus (GPa) = 22.12689 34.72803 28.42746
#
# Velocity S-wave (km/s) = 2.99557 3.75283 3.39538
# Velocity P-wave (km/s) = 5.20592 6.85928 6.08898
#
# Compressibility (1/GPa) = 0.02679157
#
# Stress axis : x y z
#
# Youngs Moduli (GPa) = 44.03843 65.27982 55.54588
#
# Poissons Ratio (x) = 0.22198 0.12938
# Poissons Ratio (y) = 0.14975 0.49376
# Poissons Ratio (z) = 0.10257 0.58029
#
# Static dielectric constant tensor:
#      x y z
#    x 3.708440 -2.626880 0.159260 
#    y -2.626880 5.940770 -0.218430 
#    z 0.159260 -0.218430 2.145410 
# 
# From -- ./inp_files/51704.got.cif
#   From: 2010.05.17/outbox.cif.g08.bks.cpg/sg2_26_cif.got.tgz:51704.got - 2010.06.03 11:33:40.
