data_PCOD9083630
_publ_section_title
;
Structure prediction by ZEFSAII (Michael W. Deem and Ramdas Pophale) SiO2 
 PCOD9083630
Probable space group: P -1
;
_chemical_formula_sum "Si O2"
_cell_formula_units_Z 16
_cell_length_a 7.326501
_cell_length_b 7.693454
_cell_length_c 15.966067
_cell_angle_alpha 113.339730
_cell_angle_beta 60.656939
_cell_angle_gamma 121.743915
_cell_volume 655.407291
_symmetry_space_group_name_H-M "P -1"
_symmetry_group_IT_number 2
_symmetry_cell_setting 'triclinic'
loop_
_space_group_symop_operation_xyz
x,y,z
-x,-y,-z
loop_
_atom_site_type_symbol
_atom_site_label
_atom_site_fract_x
_atom_site_fract_y
_atom_site_fract_z
Si Si1 0.003462 0.820427 0.541030
Si Si2 0.564373 0.154624 0.845793
Si Si3 0.194109 0.576630 0.572711
Si Si4 0.187750 0.296931 0.902570
Si Si5 0.561015 0.993398 0.627986
Si Si6 0.807662 0.854289 0.309361
Si Si7 0.734952 0.252593 0.090602
Si Si8 0.044876 0.486210 0.758313
O O1 0.132056 0.695918 0.535906
O O2 0.799583 0.630358 0.505826
O O3 0.188579 0.952265 0.455083
O O4 0.996578 0.968146 0.646184
O O5 0.371962 0.247224 0.904972
O O6 0.816703 0.340254 0.832689
O O7 0.571450 0.066493 0.734550
O O8 0.485888 0.965335 0.893088
O O9 0.409516 0.750445 0.603110
O O10 0.997870 0.517172 0.678428
O O11 0.142272 0.159744 0.802135
O O12 0.290061 0.542368 0.900067
O O13 0.945954 0.239285 0.990847
O O14 0.422431 0.106193 0.630024
O O15 0.792670 0.638107 0.307367
O O16 0.828373 0.311670 0.176168
#
# Coordination Sequence:
#
# PCOD9083630 Si02
#       8
#     2   2   2   2   2   2   2   2
#     4  10  20  37  59  81 114 159 198 239 293 351
#     4  11  21  39  63  89 122 156 197 243 300 351
#     4  10  19  34  57  82 113 152 194 241 291 342
#     4   9  21  41  65  88 119 158 199 240 299 362
#     4  10  19  39  59  81 114 160 196 239 296 355
#     4   9  20  37  57  82 119 151 190 248 288 341
#     4  10  21  43  64  88 122 154 194 252 298 344
#     4  11  22  38  57  89 122 149 201 247 287 362
#
# _framework density 24.412299999999998
#
# number of rings (size 3 to 8) (size 9 to 14) (size 15 to 20)
#    0.000    2.000    2.500    1.875    0.000    1.000 
#    4.500   10.625    0.000    0.000    0.000    0.000 
#    0.000    0.000    0.000    0.000    0.000    0.000 
#
# Total GULP energy -89432.539469 kJ/mol
# GULP energy per Si atom -5589.533717 kJ/mol
# Density = 2.435674 g / cm^3
# Si number density = 24.412300 Si / 1000 Ang^3
#
#
#
# Elastic Constant Matrix: (Units=GPa)
#
#
# Indices 1 2 3 4 5 6 
#
# 1 47.7245 2.1021 24.4125 2.9234 -16.8566 -2.1514
# 2 2.1021 91.8452 31.0104 -14.3013 -16.4766 2.3223
# 3 24.4125 31.0104 84.0733 8.9138 -11.6334 -7.8856
# 4 2.9234 -14.3013 8.9138 39.3298 -0.9335 2.3040
# 5 -16.8566 -16.4766 -11.6334 -0.9335 32.3591 -0.0441
# 6 -2.1514 2.3223 -7.8856 2.3040 -0.0441 18.8135
#
#
#
# Elastic Compliance Matrix: (Units=1/GPa)
#
#
# Indices 1 2 3 4 5 6 
#
# 1 0.030720 0.005582 -0.009179 0.002271 0.015609 -0.001265
# 2 0.005582 0.016292 -0.007787 0.007805 0.008621 -0.005573
# 3 -0.009179 -0.007787 0.018664 -0.006935 -0.002225 0.008579
# 4 0.002271 0.007805 -0.006935 0.030178 0.003525 -0.007298
# 5 0.015609 0.008621 -0.002225 0.003525 0.042725 -0.000543
# 6 -0.001265 -0.005573 0.008579 -0.007298 -0.000543 0.058185
#
#
# Mechanical properties :
#
#
# Convention : Reuss Voigt Hill
#
# Bulk Modulus (GPa) = 23.30601 37.63255 30.46928
# Shear Modulus (GPa) = 21.38257 29.17502 25.27879
#
# Velocity S-wave (km/s) = 2.96276 3.46077 3.22140
# Velocity P-wave (km/s) = 4.61210 5.60518 5.13272
#
# Compressibility (1/GPa) = 0.04290740
#
# Stress axis : x y z
#
# Youngs Moduli (GPa) = 32.55234 61.37831 53.57912
#
# Poissons Ratio (x) = -0.34259 0.49178
# Poissons Ratio (y) = -0.18170 0.41725
# Poissons Ratio (z) = 0.29878 0.47798
#
# Static dielectric constant tensor:
#      x y z
#    x 1.984860 -0.033890 0.020550 
#    y -0.033890 1.958890 -0.002740 
#    z 0.020550 -0.002740 1.913340 
# 
# From -- ./inp_files/557440.got.cif
#   From: 2010.05.17/outbox.cif.g08.bks.cpg/sg2_279_cif.got.tgz:557440.got - 2010.06.03 11:33:40.
