data_PCOD9083861
_publ_section_title
;
Structure prediction by ZEFSAII (Michael W. Deem and Ramdas Pophale) SiO2 
 PCOD9083861
Probable space group: P -1
;
_chemical_formula_sum "Si O2"
_cell_formula_units_Z 16
_cell_length_a 19.978551
_cell_length_b 14.591415
_cell_length_c 8.907819
_cell_angle_alpha 72.796890
_cell_angle_beta 82.741032
_cell_angle_gamma 19.840022
_cell_volume 743.847135
_symmetry_space_group_name_H-M "P -1"
_symmetry_group_IT_number 2
_symmetry_cell_setting 'triclinic'
loop_
_space_group_symop_operation_xyz
x,y,z
-x,-y,-z
loop_
_atom_site_type_symbol
_atom_site_label
_atom_site_fract_x
_atom_site_fract_y
_atom_site_fract_z
Si Si1 0.527524 0.220191 0.302115
Si Si2 0.331922 0.049328 0.165584
Si Si3 0.765051 0.693769 0.454986
Si Si4 0.927915 0.975249 0.608410
Si Si5 0.147989 0.136531 0.379434
Si Si6 0.273233 0.315668 0.212448
Si Si7 0.645234 0.599883 0.025423
Si Si8 0.756014 0.402110 0.536977
O O1 0.300687 0.504864 0.319916
O O2 0.690329 0.906101 0.397251
O O3 0.658647 0.114211 0.426258
O O4 0.443347 0.356170 0.093122
O O5 0.426645 0.918833 0.033794
O O6 0.560311 0.722884 0.352197
O O7 0.184417 0.165177 0.224194
O O8 0.227035 0.292644 0.122174
O O9 0.851398 0.535190 0.666864
O O10 0.928366 0.456574 0.384834
O O11 0.534836 0.952805 0.356891
O O12 0.858509 0.959491 0.645685
O O13 0.144561 0.707114 0.779588
O O14 0.013301 0.873162 0.462842
O O15 0.751213 0.295990 0.545707
O O16 0.268444 0.424280 0.080172
#
# Coordination Sequence:
#
# PCOD9083861 Si02
#       8
#     2   2   2   2   2   2   2   2
#     4  10  21  37  59  86 117 156 184 245 292 338
#     4  10  20  37  56  85 123 154 187 236 297 341
#     4  10  19  34  58  88 114 153 202 228 282 347
#     4  10  22  39  62  88 109 153 205 240 273 345
#     4  11  22  36  60  88 119 151 195 237 283 355
#     4  10  19  34  59  83 117 160 186 239 279 349
#     4  10  22  38  56  86 122 155 190 234 295 335
#     4   9  19  40  65  80 111 157 205 232 272 350
#
# _framework density 21.509796999999999
#
# number of rings (size 3 to 8) (size 9 to 14) (size 15 to 20)
#    0.000    2.000    2.500    2.250    3.500    3.500 
#    2.250    3.125    0.000    7.500    0.000    0.000 
#    0.000    0.000    0.000    0.000    0.000    0.000 
#
# Total GULP energy -89192.980165 kJ/mol
# GULP energy per Si atom -5574.561260 kJ/mol
# Density = 2.146084 g / cm^3
# Si number density = 21.509797 Si / 1000 Ang^3
#
#
#
# Elastic Constant Matrix: (Units=GPa)
#
#
# Indices 1 2 3 4 5 6 
#
# 1 73.5661 8.8826 5.0743 -7.5642 4.4847 1.5485
# 2 8.8826 34.2452 -2.0885 4.8163 -8.8886 11.1212
# 3 5.0743 -2.0885 62.7507 6.2080 20.3759 -0.1052
# 4 -7.5642 4.8163 6.2080 23.5298 -3.6468 -2.7333
# 5 4.4847 -8.8886 20.3759 -3.6468 26.0877 2.9593
# 6 1.5485 11.1212 -0.1052 -2.7333 2.9593 20.4858
#
#
#
# Elastic Compliance Matrix: (Units=1/GPa)
#
#
# Indices 1 2 3 4 5 6 
#
# 1 0.015380 -0.007444 -0.000784 0.006537 -0.004147 0.004346
# 2 -0.007444 0.048280 -0.004166 -0.011170 0.022878 -0.030464
# 3 -0.000784 -0.004166 0.023672 -0.008458 -0.021457 0.004414
# 4 0.006537 -0.011170 -0.008458 0.051612 0.007608 0.011313
# 5 -0.004147 0.022878 -0.021457 0.007608 0.067032 -0.020885
# 6 0.004346 -0.030464 0.004414 0.011313 -0.020885 0.069573
#
#
# Mechanical properties :
#
#
# Convention : Reuss Voigt Hill
#
# Bulk Modulus (GPa) = 15.98891 21.58877 18.78884
# Shear Modulus (GPa) = 15.56733 24.60022 20.08378
#
# Velocity S-wave (km/s) = 2.69315 3.38550 3.05897
# Velocity P-wave (km/s) = 4.13765 5.03395 4.60764
#
# Compressibility (1/GPa) = 0.06254337
#
# Stress axis : x y z
#
# Youngs Moduli (GPa) = 65.02113 20.71235 42.24351
#
# Poissons Ratio (x) = 0.15419 0.03313
# Poissons Ratio (y) = 0.48403 0.17599
# Poissons Ratio (z) = 0.05100 0.08629
#
# Static dielectric constant tensor:
#      x y z
#    x 1.817270 -0.039550 0.013320 
#    y -0.039550 1.820370 0.011420 
#    z 0.013320 0.011420 1.847760 
# 
# From -- ./inp_files/218659.got.cif
#   From: 2010.05.17/outbox.cif.g08.bks.cpg/sg2_110_cif.got.tgz:218659.got - 2010.06.03 11:33:40.
