data_PCOD9083271
_publ_section_title
;
Structure prediction by ZEFSAII (Michael W. Deem and Ramdas Pophale) SiO2 
 PCOD9083271
Probable space group: P -1
;
_chemical_formula_sum "Si O2"
_cell_formula_units_Z 16
_cell_length_a 10.778655
_cell_length_b 14.506189
_cell_length_c 16.523159
_cell_angle_alpha 140.779125
_cell_angle_beta 31.795188
_cell_angle_gamma 124.421344
_cell_volume 826.357811
_symmetry_space_group_name_H-M "P -1"
_symmetry_group_IT_number 2
_symmetry_cell_setting 'triclinic'
loop_
_space_group_symop_operation_xyz
x,y,z
-x,-y,-z
loop_
_atom_site_type_symbol
_atom_site_label
_atom_site_fract_x
_atom_site_fract_y
_atom_site_fract_z
Si Si1 0.849156 0.810940 0.998223
Si Si2 0.015369 0.188442 0.709144
Si Si3 0.389766 0.698366 0.864427
Si Si4 0.638619 0.901619 0.931832
Si Si5 0.122525 0.879067 0.731793
Si Si6 0.428252 0.341840 0.605362
Si Si7 0.336046 0.669878 0.697028
Si Si8 0.637025 0.117683 0.763541
O O1 0.588399 0.791869 0.105274
O O2 0.821697 0.963610 0.169166
O O3 0.977186 0.834947 0.859067
O O4 0.053073 0.682586 0.844910
O O5 0.168499 0.307789 0.721393
O O6 0.818487 0.210912 0.760228
O O7 0.204960 0.026897 0.472719
O O8 0.847848 0.200077 0.888750
O O9 0.403701 0.520662 0.743211
O O10 0.368240 0.745591 0.814706
O O11 0.621113 0.733534 0.802718
O O12 0.483312 0.937733 0.126892
O O13 0.918854 0.900349 0.789478
O O14 0.500000 0.000000 0.000000
O O15 0.381903 0.750114 0.495031
O O16 0.556969 0.271095 0.401002
O O17 0.500000 0.500000 0.500000
#
# Coordination Sequence:
#
# PCOD9083271 Si02
#       8
#     2   2   2   2   2   2   2   2
#     4   9  15  30  53  76 102 131 178 216 254 306
#     4  10  19  34  54  76 105 140 178 210 258 313
#     4  10  21  34  50  79 107 141 172 212 263 310
#     4  10  20  32  53  80 108 130 170 225 268 305
#     4   9  17  28  51  80  98 132 173 219 260 304
#     4  10  19  34  57  76 103 140 178 212 258 316
#     4   9  19  33  54  79 104 136 173 215 262 309
#     4   9  19  33  54  80 102 138 179 215 258 309
#
# _framework density 19.362072000000001
#
# number of rings (size 3 to 8) (size 9 to 14) (size 15 to 20)
#    0.000    2.500    1.250    1.125    3.500    0.500 
#    0.000    1.875    5.500    3.000    0.000    0.000 
#    0.000    0.000    0.000    0.000    0.000    0.000 
#
# Total GULP energy -89074.525804 kJ/mol
# GULP energy per Si atom -5567.157863 kJ/mol
# Density = 1.931800 g / cm^3
# Si number density = 19.362072 Si / 1000 Ang^3
#
#
#
# Elastic Constant Matrix: (Units=GPa)
#
#
# Indices 1 2 3 4 5 6 
#
# 1 120.7724 25.4378 48.5421 2.5230 -23.0379 18.3371
# 2 25.4378 41.4708 10.7776 8.1167 -10.6718 21.4922
# 3 48.5421 10.7776 70.8046 1.1000 -6.5452 1.9975
# 4 2.5230 8.1167 1.1000 20.0985 0.7097 -3.2273
# 5 -23.0379 -10.6718 -6.5452 0.7097 43.3048 -4.3559
# 6 18.3371 21.4922 1.9975 -3.2273 -4.3559 30.5498
#
#
#
# Elastic Compliance Matrix: (Units=1/GPa)
#
#
# Indices 1 2 3 4 5 6 
#
# 1 0.014096 -0.001291 -0.008771 -0.001988 0.005240 -0.006442
# 2 -0.001291 0.053681 -0.004998 -0.027704 0.008379 -0.038396
# 3 -0.008771 -0.004998 0.020440 0.003278 -0.002109 0.007490
# 4 -0.001988 -0.027704 0.003278 0.065483 -0.005791 0.026561
# 5 0.005240 0.008379 -0.002109 -0.005791 0.027153 -0.005642
# 6 -0.006442 -0.038396 0.007490 0.026561 -0.005642 0.065124
#
#
# Mechanical properties :
#
#
# Convention : Reuss Voigt Hill
#
# Bulk Modulus (GPa) = 17.21226 44.72920 30.97073
# Shear Modulus (GPa) = 16.92262 28.67664 22.79963
#
# Velocity S-wave (km/s) = 2.95957 3.85265 3.43525
# Velocity P-wave (km/s) = 4.53737 6.55302 5.63604
#
# Compressibility (1/GPa) = 0.05809813
#
# Stress axis : x y z
#
# Youngs Moduli (GPa) = 70.94031 18.62854 48.92379
#
# Poissons Ratio (x) = 0.02405 0.42909
# Poissons Ratio (y) = 0.09160 0.24451
# Poissons Ratio (z) = 0.62219 0.09310
#
# Static dielectric constant tensor:
#      x y z
#    x 1.739850 0.004620 0.000020 
#    y 0.004620 1.719880 -0.000010 
#    z 0.000020 -0.000010 1.699880 
# 
# From -- ./inp_files/395878.got.cif
#   From: 2010.05.17/outbox.cif.g08.bks.cpg/sg2_198_cif.got.tgz:395878.got - 2010.06.03 11:33:40.
