data_PCOD9083319
_publ_section_title
;
Structure prediction by ZEFSAII (Michael W. Deem and Ramdas Pophale) SiO2 
 PCOD9083319
Probable space group: P -1
;
_chemical_formula_sum "Si O2"
_cell_formula_units_Z 14
_cell_length_a 8.171389
_cell_length_b 5.204803
_cell_length_c 25.574945
_cell_angle_alpha 108.260057
_cell_angle_beta 34.461159
_cell_angle_gamma 109.412699
_cell_volume 578.914624
_symmetry_space_group_name_H-M "P -1"
_symmetry_group_IT_number 2
_symmetry_cell_setting 'triclinic'
loop_
_space_group_symop_operation_xyz
x,y,z
-x,-y,-z
loop_
_atom_site_type_symbol
_atom_site_label
_atom_site_fract_x
_atom_site_fract_y
_atom_site_fract_z
Si Si1 0.803340 0.209896 0.039255
Si Si2 0.738892 0.350271 0.492852
Si Si3 0.877518 0.636967 0.365628
Si Si4 0.216111 0.161555 0.411988
Si Si5 0.142553 0.873004 0.742304
Si Si6 0.291461 0.883073 0.196433
Si Si7 0.581774 0.630868 0.930772
O O1 0.642889 0.175694 0.022059
O O2 0.514695 0.159994 0.148999
O O3 0.000000 0.500000 0.000000
O O4 0.000000 0.000000 0.000000
O O5 0.833892 0.539593 0.430077
O O6 0.405483 0.219470 0.564487
O O7 0.717656 0.533971 0.561920
O O8 0.000585 0.177197 0.421437
O O9 0.854187 0.366233 0.317378
O O10 0.176871 0.806196 0.278862
O O11 0.526710 0.052795 0.320300
O O12 0.000000 0.000000 0.500000
O O13 0.913454 0.772530 0.842420
O O14 0.989607 0.096483 0.765215
O O15 0.438671 0.634013 0.118685
O O16 0.500000 0.500000 0.000000
#
# Coordination Sequence:
#
# PCOD9083319 Si02
#       7
#     2   2   2   2   2   2   2
#     4  11  22  42  66  94 124 163 208 266 326 380
#     4   9  19  34  57  82 121 158 207 249 303 367
#     4   9  18  36  57  85 114 164 208 253 303 373
#     4  10  19  34  54  83 121 159 196 253 310 362
#     4   9  20  35  57  84 116 159 207 255 307 376
#     4  10  20  38  65  85 125 161 210 258 324 374
#     4  10  22  42  66  90 123 167 214 262 324 387
#
# _framework density 24.183185000000002
#
# number of rings (size 3 to 8) (size 9 to 14) (size 15 to 20)
#    0.000    2.286    1.429    0.857    0.000    4.571 
#    2.571    5.714    0.000    0.000    0.000    0.000 
#    0.000    0.000    0.000    0.000    0.000    0.000 
#
# Total GULP energy -78131.684652 kJ/mol
# GULP energy per Si atom -5580.834618 kJ/mol
# Density = 2.412814 g / cm^3
# Si number density = 24.183185 Si / 1000 Ang^3
#
#
#
# Elastic Constant Matrix: (Units=GPa)
#
#
# Indices 1 2 3 4 5 6 
#
# 1 104.8078 23.3101 62.6822 -0.8782 -36.8963 -31.3439
# 2 23.3101 80.7110 38.9083 -5.5454 -14.1886 -20.0502
# 3 62.6822 38.9083 142.6563 -23.8051 -22.7897 -16.2822
# 4 -0.8782 -5.5454 -23.8051 57.2943 3.9238 -3.7115
# 5 -36.8963 -14.1886 -22.7897 3.9238 54.1968 13.6763
# 6 -31.3439 -20.0502 -16.2822 -3.7115 13.6763 39.2430
#
#
#
# Elastic Compliance Matrix: (Units=1/GPa)
#
#
# Indices 1 2 3 4 5 6 
#
# 1 0.019147 0.001540 -0.006734 -0.002255 0.008191 0.010218
# 2 0.001540 0.015923 -0.003869 0.000302 0.001757 0.007176
# 3 -0.006734 -0.003869 0.011393 0.004165 -0.000597 -0.002027
# 4 -0.002255 0.000302 0.004165 0.019463 -0.001753 0.002533
# 5 0.008191 0.001757 -0.000597 -0.001753 0.024768 -0.001605
# 6 0.010218 0.007176 -0.002027 0.002533 -0.001605 0.037268
#
#
# Mechanical properties :
#
#
# Convention : Reuss Voigt Hill
#
# Bulk Modulus (GPa) = 35.29282 64.21956 49.75619
# Shear Modulus (GPa) = 32.14736 43.69846 37.92291
#
# Velocity S-wave (km/s) = 3.64995 4.25547 3.96429
# Velocity P-wave (km/s) = 5.69109 7.12450 6.44775
#
# Compressibility (1/GPa) = 0.02833437
#
# Stress axis : x y z
#
# Youngs Moduli (GPa) = 52.22819 62.80339 87.77631
#
# Poissons Ratio (x) = -0.09672 0.59113
# Poissons Ratio (y) = -0.08043 0.33964
# Poissons Ratio (z) = 0.35173 0.24301
#
# Static dielectric constant tensor:
#      x y z
#    x 1.976040 0.019140 -0.043880 
#    y 0.019140 2.030550 0.026250 
#    z -0.043880 0.026250 1.880190 
# 
# From -- ./inp_files/34541.got.cif
#   From: 2010.05.17/outbox.cif.g08.bks.cpg/sg2_18_cif.got.tgz:34541.got - 2010.06.03 11:33:40.
