data_PCOD9083772
_publ_section_title
;
Structure prediction by ZEFSAII (Michael W. Deem and Ramdas Pophale) SiO2 
 PCOD9083772
Probable space group: P -1
;
_chemical_formula_sum "Si O2"
_cell_formula_units_Z 12
_cell_length_a 15.869417
_cell_length_b 9.618672
_cell_length_c 5.451754
_cell_angle_alpha 84.672709
_cell_angle_beta 79.663016
_cell_angle_gamma 35.137892
_cell_volume 469.039636
_symmetry_space_group_name_H-M "P -1"
_symmetry_group_IT_number 2
_symmetry_cell_setting 'triclinic'
loop_
_space_group_symop_operation_xyz
x,y,z
-x,-y,-z
loop_
_atom_site_type_symbol
_atom_site_label
_atom_site_fract_x
_atom_site_fract_y
_atom_site_fract_z
Si Si1 0.570528 0.716024 0.226252
Si Si2 0.272896 0.739400 0.981379
Si Si3 0.018375 0.133597 0.384649
Si Si4 0.196758 0.378127 0.831559
Si Si5 0.519544 0.283498 0.222289
Si Si6 0.938708 0.695396 0.309464
O O1 0.644847 0.767776 0.164244
O O2 0.494703 0.786835 0.513224
O O3 0.707381 0.422630 0.169618
O O4 0.467867 0.812980 0.031216
O O5 0.359673 0.574145 0.210656
O O6 0.112213 0.000375 0.107099
O O7 0.365976 0.742167 0.823120
O O8 0.104977 0.110345 0.546262
O O9 0.871262 0.423089 0.367296
O O10 0.000000 0.000000 0.500000
O O11 0.185667 0.231602 0.777193
O O12 0.078787 0.540518 0.087554
O O13 0.000000 0.500000 0.500000
#
# Coordination Sequence:
#
# PCOD9083772 Si02
#       6
#     2   2   2   2   2   2
#     4  10  19  34  58  81 111 151 197 238 279 348
#     4   9  20  32  54  81 122 150 191 239 290 344
#     4  11  21  35  57  92 121 149 186 248 297 349
#     4  10  21  36  58  86 113 159 193 239 292 359
#     4   9  20  35  53  85 113 159 192 236 287 342
#     4   9  21  38  55  80 119 156 196 229 300 352
#
# _framework density 25.584192000000002
#
# number of rings (size 3 to 8) (size 9 to 14) (size 15 to 20)
#    1.000    1.333    0.000    2.500    4.667    4.000 
#    0.000    0.000    0.000    2.000    0.000    0.000 
#    0.000    0.000    0.000    0.000    0.000    0.000 
#
# Total GULP energy -67101.028284 kJ/mol
# GULP energy per Si atom -5591.752357 kJ/mol
# Density = 2.552596 g / cm^3
# Si number density = 25.584192 Si / 1000 Ang^3
#
#
#
# Elastic Constant Matrix: (Units=GPa)
#
#
# Indices 1 2 3 4 5 6 
#
# 1 136.7385 8.1107 57.6417 -9.0303 -0.0242 39.5444
# 2 8.1107 89.3777 25.1020 -6.4451 0.0747 26.9817
# 3 57.6417 25.1020 132.3007 3.7258 1.2073 25.1569
# 4 -9.0303 -6.4451 3.7258 30.4985 -3.4638 -2.0761
# 5 -0.0242 0.0747 1.2073 -3.4638 37.0006 -4.9123
# 6 39.5444 26.9817 25.1569 -2.0761 -4.9123 40.2903
#
#
#
# Elastic Compliance Matrix: (Units=1/GPa)
#
#
# Indices 1 2 3 4 5 6 
#
# 1 0.012674 0.004075 -0.004005 0.004114 -0.001156 -0.012597
# 2 0.004075 0.015679 -0.002376 0.003776 -0.001322 -0.012982
# 3 -0.004005 -0.002376 0.010036 -0.003066 -0.000744 -0.000993
# 4 0.004114 0.003776 -0.003066 0.035362 0.003080 -0.002455
# 5 -0.001156 -0.001322 -0.000744 0.003080 0.028148 0.006075
# 6 -0.012597 -0.012982 -0.000993 -0.002455 0.006075 0.047112
#
#
# Mechanical properties :
#
#
# Convention : Reuss Voigt Hill
#
# Bulk Modulus (GPa) = 29.60564 60.01398 44.80981
# Shear Modulus (GPa) = 30.32465 39.39538 34.86002
#
# Velocity S-wave (km/s) = 3.44654 3.92833 3.69529
# Velocity P-wave (km/s) = 5.23786 6.63958 5.97993
#
# Compressibility (1/GPa) = 0.03377735
#
# Stress axis : x y z
#
# Youngs Moduli (GPa) = 78.89877 63.78122 99.63747
#
# Poissons Ratio (x) = -0.25992 0.39908
# Poissons Ratio (y) = -0.32153 0.23674
# Poissons Ratio (z) = 0.31601 0.15154
#
# Static dielectric constant tensor:
#      x y z
#    x 2.002590 -0.033530 0.040730 
#    y -0.033530 2.182450 -0.165290 
#    z 0.040730 -0.165290 2.055170 
# 
# From -- ./inp_files/31732.got.cif
#   From: 2010.05.17/outbox.cif.g08.bks.cpg/sg2_16_cif.got.tgz:31732.got - 2010.06.03 11:33:40.
