data_PCOD9083864
_publ_section_title
;
Structure prediction by ZEFSAII (Michael W. Deem and Ramdas Pophale) SiO2 
 PCOD9083864
Probable space group: P -1
;
_chemical_formula_sum "Si O2"
_cell_formula_units_Z 16
_cell_length_a 17.315555
_cell_length_b 17.516100
_cell_length_c 7.030971
_cell_angle_alpha 111.121505
_cell_angle_beta 126.041863
_cell_angle_gamma 23.617597
_cell_volume 576.129597
_symmetry_space_group_name_H-M "P -1"
_symmetry_group_IT_number 2
_symmetry_cell_setting 'triclinic'
loop_
_space_group_symop_operation_xyz
x,y,z
-x,-y,-z
loop_
_atom_site_type_symbol
_atom_site_label
_atom_site_fract_x
_atom_site_fract_y
_atom_site_fract_z
Si Si1 0.340138 0.973980 0.128296
Si Si2 0.952907 0.199476 0.266132
Si Si3 0.064680 0.384684 0.788941
Si Si4 0.198598 0.685741 0.412657
Si Si5 0.054161 0.347804 0.165097
Si Si6 0.756974 0.179004 0.608359
Si Si7 0.358136 0.007160 0.740183
Si Si8 0.396054 0.375296 0.989030
O O1 0.377723 0.975047 0.966599
O O2 0.042994 0.174688 0.893065
O O3 0.534709 0.738603 0.194832
O O4 0.300733 0.087037 0.300041
O O5 0.223794 0.035534 0.482743
O O6 0.841457 0.282861 0.392601
O O7 0.019101 0.054795 0.170521
O O8 0.734207 0.432263 0.063278
O O9 0.140024 0.254360 0.632554
O O10 0.893953 0.598086 0.659623
O O11 0.976114 0.417257 0.889294
O O12 0.355617 0.191055 0.083601
O O13 0.487547 0.416779 0.544249
O O14 0.169199 0.798498 0.378357
O O15 0.798267 0.519397 0.059068
O O16 0.662590 0.187758 0.318142
#
# Coordination Sequence:
#
# PCOD9083864 Si02
#       8
#     2   2   2   2   2   2   2   2
#     4  10  19  35  62  84 121 159 196 244 297 353
#     4  11  24  40  63  92 124 160 198 248 304 360
#     4   9  17  32  64  85 112 162 204 245 297 353
#     4  10  22  41  64  91 119 160 203 249 295 356
#     4  10  19  34  58  88 116 160 202 239 304 353
#     4  11  22  43  65  88 122 158 205 247 296 361
#     4   9  17  35  58  86 114 155 202 245 293 353
#     4  12  23  38  63  91 124 162 198 247 303 362
#
# _framework density 27.771526999999999
#
# number of rings (size 3 to 8) (size 9 to 14) (size 15 to 20)
#    0.000    1.750    5.000    0.375    0.000    1.500 
#    0.000    2.500    0.000    0.000    0.000    0.000 
#    0.000    0.000    0.000    0.000    0.000    0.000 
#
# Total GULP energy -89645.597127 kJ/mol
# GULP energy per Si atom -5602.849820 kJ/mol
# Density = 2.770832 g / cm^3
# Si number density = 27.771527 Si / 1000 Ang^3
#
#
#
# Elastic Constant Matrix: (Units=GPa)
#
#
# Indices 1 2 3 4 5 6 
#
# 1 153.8170 63.6366 38.1300 -11.8757 -7.5002 3.1013
# 2 63.6366 217.7714 23.8816 -28.0873 -3.4425 32.1496
# 3 38.1300 23.8816 44.3667 -19.5650 -6.7313 -3.3840
# 4 -11.8757 -28.0873 -19.5650 49.4894 8.5286 -2.2262
# 5 -7.5002 -3.4425 -6.7313 8.5286 32.3129 -8.2517
# 6 3.1013 32.1496 -3.3840 -2.2262 -8.2517 64.5284
#
#
#
# Elastic Compliance Matrix: (Units=1/GPa)
#
#
# Indices 1 2 3 4 5 6 
#
# 1 0.009113 -0.002149 -0.007445 -0.002131 0.000973 0.000293
# 2 -0.002149 0.006080 -0.000653 0.002799 -0.001506 -0.003056
# 3 -0.007445 -0.000653 0.035020 0.011255 0.003380 0.003340
# 4 -0.002131 0.002799 0.011255 0.026571 -0.004972 -0.000421
# 5 0.000973 -0.001506 0.003380 -0.004972 0.034331 0.005100
# 6 0.000293 -0.003056 0.003340 -0.000421 0.005100 0.017818
#
#
# Mechanical properties :
#
#
# Convention : Reuss Voigt Hill
#
# Bulk Modulus (GPa) = 33.64824 74.13907 53.89366
# Shear Modulus (GPa) = 31.38060 48.61991 40.00025
#
# Velocity S-wave (km/s) = 3.36513 4.18869 3.79929
# Velocity P-wave (km/s) = 5.21931 7.08149 6.22048
#
# Compressibility (1/GPa) = 0.02971924
#
# Stress axis : x y z
#
# Youngs Moduli (GPa) = 109.73467 164.47384 28.55508
#
# Poissons Ratio (x) = 0.35350 0.21258
# Poissons Ratio (y) = 0.23585 0.01865
# Poissons Ratio (z) = 0.81693 0.10740
#
# Static dielectric constant tensor:
#      x y z
#    x 2.077320 0.064050 -0.045200 
#    y 0.064050 2.213160 -0.014360 
#    z -0.045200 -0.014360 2.238070 
# 
# From -- ./inp_files/315287.got.cif
#   From: 2010.05.17/outbox.cif.g08.bks.cpg/sg2_158_cif.got.tgz:315287.got - 2010.06.03 11:33:40.
