data_PCOD9083149
_publ_section_title
;
Structure prediction by ZEFSAII (Michael W. Deem and Ramdas Pophale) SiO2 
 PCOD9083149
Probable space group: P -1
;
_chemical_formula_sum "Si O2"
_cell_formula_units_Z 16
_cell_length_a 12.672016
_cell_length_b 5.210168
_cell_length_c 17.796150
_cell_angle_alpha 95.381699
_cell_angle_beta 41.938142
_cell_angle_gamma 96.008209
_cell_volume 780.721493
_symmetry_space_group_name_H-M "P -1"
_symmetry_group_IT_number 2
_symmetry_cell_setting 'triclinic'
loop_
_space_group_symop_operation_xyz
x,y,z
-x,-y,-z
loop_
_atom_site_type_symbol
_atom_site_label
_atom_site_fract_x
_atom_site_fract_y
_atom_site_fract_z
Si Si1 0.500706 0.413191 0.872754
Si Si2 0.356348 0.690581 0.575252
Si Si3 0.904086 0.148005 0.993608
Si Si4 0.761622 0.437946 0.863056
Si Si5 0.547178 0.135603 0.198374
Si Si6 0.175941 0.325881 0.762753
Si Si7 0.488472 0.112223 0.633639
Si Si8 0.063346 0.047754 0.185154
O O1 0.651540 0.424498 0.847953
O O2 0.521932 0.619379 0.799349
O O3 0.472019 0.121667 0.850035
O O4 0.355057 0.506608 0.003384
O O5 0.500000 0.500000 0.500000
O O6 0.210241 0.544285 0.689463
O O7 0.416491 0.915916 0.604670
O O8 0.360203 0.759843 0.486800
O O9 0.733487 0.214586 0.113809
O O10 0.873830 0.956329 0.933874
O O11 0.026449 0.363340 0.897646
O O12 0.000000 0.000000 0.000000
O O13 0.844345 0.172353 0.826826
O O14 0.890160 0.677112 0.797432
O O15 0.479943 0.038366 0.311428
O O16 0.113840 0.074728 0.739285
O O17 0.335864 0.291122 0.725178
#
# Coordination Sequence:
#
# PCOD9083149 Si02
#       8
#     2   2   2   2   2   2   2   2
#     4  11  22  35  57  78 114 151 201 233 281 323
#     4   9  20  38  53  79 110 150 198 229 271 329
#     4  10  19  34  49  86 124 154 181 220 276 348
#     4  11  20  38  54  79 113 156 193 242 266 335
#     4  12  22  37  55  89 115 158 182 233 285 339
#     4   9  19  32  55  81 112 154 183 225 266 346
#     4  10  21  35  57  79 119 147 189 234 275 336
#     4  10  21  34  55  80 112 151 191 220 282 330
#
# _framework density 20.493863999999999
#
# number of rings (size 3 to 8) (size 9 to 14) (size 15 to 20)
#    0.750    1.000    3.750    0.750    5.250    2.000 
#    2.250    1.875    0.000    0.000    0.000    5.250 
#    0.000    0.000    0.000    0.000    0.000    0.000 
#
# Total GULP energy -89204.529935 kJ/mol
# GULP energy per Si atom -5575.283121 kJ/mol
# Density = 2.044722 g / cm^3
# Si number density = 20.493864 Si / 1000 Ang^3
#
#
#
# Elastic Constant Matrix: (Units=GPa)
#
#
# Indices 1 2 3 4 5 6 
#
# 1 89.8933 38.8004 18.1947 -19.2817 12.9681 -23.4730
# 2 38.8004 88.9605 24.2799 -17.7150 -4.0243 -6.1739
# 3 18.1947 24.2799 84.3686 -35.7814 17.0955 -1.3711
# 4 -19.2817 -17.7150 -35.7814 35.2676 -2.2338 1.3555
# 5 12.9681 -4.0243 17.0955 -2.2338 15.1105 -4.8053
# 6 -23.4730 -6.1739 -1.3711 1.3555 -4.8053 28.9727
#
#
#
# Elastic Compliance Matrix: (Units=1/GPa)
#
#
# Indices 1 2 3 4 5 6 
#
# 1 0.025187 -0.011263 0.011908 0.017719 -0.031488 0.012518
# 2 -0.011263 0.019011 -0.010738 -0.005836 0.025681 -0.001049
# 3 0.011908 -0.010738 0.038423 0.036883 -0.051441 -0.001080
# 4 0.017719 -0.005836 0.036883 0.069407 -0.047017 0.003812
# 5 -0.031488 0.025681 -0.051441 -0.047017 0.152908 0.005088
# 6 0.012518 -0.001049 -0.001080 0.003812 0.005088 0.045048
#
#
# Mechanical properties :
#
#
# Convention : Reuss Voigt Hill
#
# Bulk Modulus (GPa) = 16.01641 47.30806 31.66224
# Shear Modulus (GPa) = 12.78832 27.99996 20.39414
#
# Velocity S-wave (km/s) = 2.50072 3.70031 3.15800
# Velocity P-wave (km/s) = 4.02124 6.43354 5.36474
#
# Compressibility (1/GPa) = 0.06243595
#
# Stress axis : x y z
#
# Youngs Moduli (GPa) = 39.70263 52.60203 26.02590
#
# Poissons Ratio (x) = 0.59244 -0.30992
# Poissons Ratio (y) = 0.44716 0.27946
# Poissons Ratio (z) = -0.47278 0.56484
#
# Static dielectric constant tensor:
#      x y z
#    x 1.722140 -0.014430 -0.026950 
#    y -0.014430 1.838940 0.010640 
#    z -0.026950 0.010640 1.816000 
# 
# From -- ./inp_files/563816.got.cif
#   From: 2010.05.17/outbox.cif.g08.bks.cpg/sg2_282_cif.got.tgz:563816.got - 2010.06.03 11:33:40.
