data_PCOD9083223
_publ_section_title
;
Structure prediction by ZEFSAII (Michael W. Deem and Ramdas Pophale) SiO2 
 PCOD9083223
Probable space group: P -1
;
_chemical_formula_sum "Si O2"
_cell_formula_units_Z 14
_cell_length_a 14.244238
_cell_length_b 5.294992
_cell_length_c 11.341507
_cell_angle_alpha 70.929674
_cell_angle_beta 122.866801
_cell_angle_gamma 113.504110
_cell_volume 652.087685
_symmetry_space_group_name_H-M "P -1"
_symmetry_group_IT_number 2
_symmetry_cell_setting 'triclinic'
loop_
_space_group_symop_operation_xyz
x,y,z
-x,-y,-z
loop_
_atom_site_type_symbol
_atom_site_label
_atom_site_fract_x
_atom_site_fract_y
_atom_site_fract_z
Si Si1 0.383717 0.636789 0.478377
Si Si2 0.448910 0.037076 0.274025
Si Si3 0.983509 0.920328 0.639163
Si Si4 0.399392 0.172516 0.725071
Si Si5 0.400917 0.475584 0.034202
Si Si6 0.218509 0.326219 0.750672
Si Si7 0.844462 0.334799 0.560419
O O1 0.398982 0.728668 0.339072
O O2 0.364805 0.329212 0.564239
O O3 0.275415 0.733751 0.438929
O O4 0.504655 0.785484 0.604598
O O5 0.568314 0.086918 0.271548
O O6 0.369514 0.175910 0.122393
O O7 0.934324 0.587467 0.654083
O O8 0.108993 0.075961 0.753906
O O9 0.000000 0.000000 0.500000
O O10 0.893957 0.075249 0.608784
O O11 0.525948 0.311070 0.851737
O O12 0.304059 0.187593 0.754244
O O13 0.500000 0.500000 0.000000
O O14 0.288830 0.494849 0.883147
O O15 0.176590 0.529620 0.600771
#
# Coordination Sequence:
#
# PCOD9083223 Si02
#       7
#     2   2   2   2   2   2   2
#     4   9  20  33  54  77 106 140 179 231 271 317
#     4  10  19  34  53  78 106 142 181 216 276 331
#     4  10  20  36  54  84 109 141 185 229 275 328
#     4   9  18  33  51  80 106 137 179 220 270 334
#     4   9  19  35  46  79 112 137 179 214 273 334
#     4   9  18  33  52  77 112 140 172 225 278 326
#     4  10  21  37  55  84 109 140 186 232 275 319
#
# _framework density 21.469507
#
# number of rings (size 3 to 8) (size 9 to 14) (size 15 to 20)
#    0.000    2.571    0.000    3.000    6.000    2.286 
#   12.857    0.000    0.000    1.714    0.000    0.000 
#    0.000    0.000    0.000    0.000    0.000    0.000 
#
# Total GULP energy -77972.613877 kJ/mol
# GULP energy per Si atom -5569.472420 kJ/mol
# Density = 2.142064 g / cm^3
# Si number density = 21.469507 Si / 1000 Ang^3
#
#
#
# Elastic Constant Matrix: (Units=GPa)
#
#
# Indices 1 2 3 4 5 6 
#
# 1 76.7195 15.7620 16.4884 0.2872 1.6756 -1.1713
# 2 15.7620 55.9310 21.7756 9.8807 2.7393 3.2413
# 3 16.4884 21.7756 81.8025 3.9322 -5.1230 12.3550
# 4 0.2872 9.8807 3.9322 27.9074 7.0507 10.5236
# 5 1.6756 2.7393 -5.1230 7.0507 26.0177 1.1098
# 6 -1.1713 3.2413 12.3550 10.5236 1.1098 28.3687
#
#
#
# Elastic Compliance Matrix: (Units=1/GPa)
#
#
# Indices 1 2 3 4 5 6 
#
# 1 0.014281 -0.003315 -0.002387 0.001094 -0.001408 0.001657
# 2 -0.003315 0.022160 -0.005320 -0.007729 -0.001182 0.002562
# 3 -0.002387 -0.005320 0.015313 0.001404 0.003640 -0.006823
# 4 0.001094 -0.007729 0.001404 0.047542 -0.011144 -0.016883
# 5 -0.001408 -0.001182 0.003640 -0.011144 0.042346 0.000969
# 6 0.001657 0.002562 -0.006823 -0.016883 0.000969 0.044222
#
#
# Mechanical properties :
#
#
# Convention : Reuss Voigt Hill
#
# Bulk Modulus (GPa) = 33.66058 35.83387 34.74722
# Shear Modulus (GPa) = 22.95572 27.15391 25.05481
#
# Velocity S-wave (km/s) = 3.27345 3.56021 3.41984
# Velocity P-wave (km/s) = 5.47719 5.79888 5.64033
#
# Compressibility (1/GPa) = 0.02970835
#
# Stress axis : x y z
#
# Youngs Moduli (GPa) = 70.02500 45.12720 65.30511
#
# Poissons Ratio (x) = 0.14962 0.15588
# Poissons Ratio (y) = 0.23217 0.34742
# Poissons Ratio (z) = 0.16714 0.24007
#
# Static dielectric constant tensor:
#      x y z
#    x 1.823190 0.006830 0.002650 
#    y 0.006830 2.008930 -0.010900 
#    z 0.002650 -0.010900 1.806100 
# 
# From -- ./inp_files/70323.got.cif
#   From: 2010.05.17/outbox.cif.g08.bks.cpg/sg2_36_cif.got.tgz:70323.got - 2010.06.03 11:33:40.
