data_PCOD9083150
_publ_section_title
;
Structure prediction by ZEFSAII (Michael W. Deem and Ramdas Pophale) SiO2 
 PCOD9083150
Probable space group: P -1
;
_chemical_formula_sum "Si O2"
_cell_formula_units_Z 16
_cell_length_a 19.285584
_cell_length_b 6.059537
_cell_length_c 12.336218
_cell_angle_alpha 42.605053
_cell_angle_beta 54.616977
_cell_angle_gamma 54.969391
_cell_volume 766.581505
_symmetry_space_group_name_H-M "P -1"
_symmetry_group_IT_number 2
_symmetry_cell_setting 'triclinic'
loop_
_space_group_symop_operation_xyz
x,y,z
-x,-y,-z
loop_
_atom_site_type_symbol
_atom_site_label
_atom_site_fract_x
_atom_site_fract_y
_atom_site_fract_z
Si Si1 0.188805 0.647686 0.704254
Si Si2 0.135705 0.718948 0.975037
Si Si3 0.624320 0.268108 0.886250
Si Si4 0.717588 0.164361 0.065436
Si Si5 0.508230 0.014986 0.767879
Si Si6 0.414669 0.074551 0.622004
Si Si7 0.975891 0.525554 0.138943
Si Si8 0.674807 0.247698 0.613492
O O1 0.168485 0.748158 0.811744
O O2 0.096651 0.683994 0.709881
O O3 0.247528 0.846523 0.511905
O O4 0.236932 0.242047 0.819645
O O5 0.216808 0.644420 0.011116
O O6 0.071191 0.471161 0.128830
O O7 0.077020 0.092047 0.924028
O O8 0.560771 0.650693 0.801230
O O9 0.679455 0.151804 0.769662
O O10 0.687791 0.252815 0.937933
O O11 0.556200 0.049225 0.056709
O O12 0.628805 0.220617 0.197317
O O13 0.442863 0.206535 0.663598
O O14 0.584661 0.172838 0.681232
O O15 0.343940 0.347010 0.519230
O O16 0.500000 0.000000 0.500000
O O17 0.000000 0.500000 0.000000
#
# Coordination Sequence:
#
# PCOD9083150 Si02
#       8
#     2   2   2   2   2   2   2   2
#     4   9  19  31  51  81 104 129 167 214 257 298
#     4   9  16  30  53  78 105 131 164 202 253 314
#     4  10  21  37  48  70 104 138 178 220 252 302
#     4   9  20  33  49  73 104 138 171 211 256 302
#     4  10  21  35  51  70  95 141 183 214 266 301
#     4  10  19  34  50  72 103 132 172 229 259 289
#     4   8  15  30  52  81 107 128 156 205 258 302
#     4  11  21  33  53  74 102 137 176 217 259 306
#
# _framework density 20.871884999999999
#
# number of rings (size 3 to 8) (size 9 to 14) (size 15 to 20)
#    0.000    2.500    1.250    0.750    1.750    2.000 
#    0.000    0.000    0.000    0.750    0.000   30.625 
#    0.000    0.000    0.000    0.000    0.000    0.000 
#
# Total GULP energy -89095.641780 kJ/mol
# GULP energy per Si atom -5568.477611 kJ/mol
# Density = 2.082438 g / cm^3
# Si number density = 20.871885 Si / 1000 Ang^3
#
#
#
# Elastic Constant Matrix: (Units=GPa)
#
#
# Indices 1 2 3 4 5 6 
#
# 1 165.2813 -0.9433 56.1659 14.8460 -18.3806 11.9684
# 2 -0.9433 62.9128 26.8446 19.3528 1.5613 -2.9003
# 3 56.1659 26.8446 99.1561 28.1534 2.5340 1.5446
# 4 14.8460 19.3528 28.1534 25.3503 -3.3290 -4.6042
# 5 -18.3806 1.5613 2.5340 -3.3290 18.0896 2.4607
# 6 11.9684 -2.9003 1.5446 -4.6042 2.4607 15.3714
#
#
#
# Elastic Compliance Matrix: (Units=1/GPa)
#
#
# Indices 1 2 3 4 5 6 
#
# 1 0.010377 0.002433 -0.006490 -0.000771 0.012349 -0.009176
# 2 0.002433 0.021869 -0.002812 -0.015553 -0.001628 -0.001883
# 3 -0.006490 -0.002812 0.019966 -0.018011 -0.012340 -0.000903
# 4 -0.000771 -0.015553 -0.018011 0.077377 0.014557 0.020322
# 5 0.012349 -0.001628 -0.012340 0.014557 0.074588 -0.016263
# 6 -0.009176 -0.001883 -0.000903 0.020322 -0.016263 0.080626
#
#
# Mechanical properties :
#
#
# Convention : Reuss Voigt Hill
#
# Bulk Modulus (GPa) = 25.99200 54.60941 40.30071
# Shear Modulus (GPa) = 16.05833 28.11448 22.08640
#
# Velocity S-wave (km/s) = 2.77677 3.67413 3.25651
# Velocity P-wave (km/s) = 4.77082 6.64981 5.78708
#
# Compressibility (1/GPa) = 0.03847337
#
# Stress axis : x y z
#
# Youngs Moduli (GPa) = 96.37023 45.72664 50.08610
#
# Poissons Ratio (x) = -0.11123 0.32506
# Poissons Ratio (y) = -0.23443 0.14082
# Poissons Ratio (z) = 0.62544 0.12857
#
# Static dielectric constant tensor:
#      x y z
#    x 1.813470 -0.019330 -0.034470 
#    y -0.019330 1.822620 -0.009060 
#    z -0.034470 -0.009060 1.779430 
# 
# From -- ./inp_files/124972.got.cif
#   From: 2010.05.17/outbox.cif.g08.bks.cpg/sg2_63_cif.got.tgz:124972.got - 2010.06.03 11:33:40.
