data_PCOD9083531
_publ_section_title
;
Structure prediction by ZEFSAII (Michael W. Deem and Ramdas Pophale) SiO2 
 PCOD9083531
Probable space group: P -1
;
_chemical_formula_sum "Si O2"
_cell_formula_units_Z 16
_cell_length_a 10.419872
_cell_length_b 18.012099
_cell_length_c 7.908068
_cell_angle_alpha 109.788824
_cell_angle_beta 126.277242
_cell_angle_gamma 36.413835
_cell_volume 680.270808
_symmetry_space_group_name_H-M "P -1"
_symmetry_group_IT_number 2
_symmetry_cell_setting 'triclinic'
loop_
_space_group_symop_operation_xyz
x,y,z
-x,-y,-z
loop_
_atom_site_type_symbol
_atom_site_label
_atom_site_fract_x
_atom_site_fract_y
_atom_site_fract_z
Si Si1 0.191583 0.999462 0.163856
Si Si2 0.061434 0.229929 0.951665
Si Si3 0.576551 0.515265 0.745564
Si Si4 0.495778 0.153628 0.369979
Si Si5 0.020156 0.111834 0.590043
Si Si6 0.295544 0.223031 0.794161
Si Si7 0.416757 0.314003 0.190196
Si Si8 0.990894 0.232652 0.356708
O O1 0.367419 0.902562 0.387179
O O2 0.408331 0.922001 0.126863
O O3 0.047677 0.140958 0.192794
O O4 0.000000 0.000000 0.000000
O O5 0.001795 0.165767 0.792039
O O6 0.163697 0.235220 0.865721
O O7 0.790941 0.378858 0.904593
O O8 0.292917 0.161566 0.205485
O O9 0.500000 0.500000 0.500000
O O10 0.690054 0.555274 0.807588
O O11 0.317796 0.632280 0.746288
O O12 0.354876 0.287502 0.290506
O O13 0.742817 0.042724 0.349001
O O14 0.733347 0.201365 0.369374
O O15 0.109342 0.138357 0.536989
O O16 0.126218 0.264302 0.527838
O O17 0.333693 0.297724 0.946839
#
# Coordination Sequence:
#
# PCOD9083531 Si02
#       8
#     2   2   2   2   2   2   2   2
#     4  11  22  39  59  82 120 157 190 234 292 353
#     4  10  20  35  59  87 114 151 191 244 284 331
#     4  11  18  37  61  85 117 149 200 236 284 341
#     4  10  21  33  51  87 121 141 190 238 295 338
#     4   9  16  32  52  80 116 147 175 236 293 338
#     4  10  19  34  56  86 113 147 194 233 284 338
#     4  10  20  33  58  88 115 149 190 242 287 336
#     4   9  19  34  57  86 111 149 194 237 280 337
#
# _framework density 23.520045
#
# number of rings (size 3 to 8) (size 9 to 14) (size 15 to 20)
#    0.000    2.000    3.750    3.375    0.000    4.000 
#    0.000    1.250    0.000    7.500    0.000    0.000 
#    0.000    0.000    0.000    0.000    0.000    0.000 
#
# Total GULP energy -89174.080963 kJ/mol
# GULP energy per Si atom -5573.380060 kJ/mol
# Density = 2.346651 g / cm^3
# Si number density = 23.520045 Si / 1000 Ang^3
#
#
#
# Elastic Constant Matrix: (Units=GPa)
#
#
# Indices 1 2 3 4 5 6 
#
# 1 44.2781 24.2264 10.3413 9.3096 18.4371 -0.7147
# 2 24.2264 92.9101 6.2747 3.9761 -4.5588 -12.4222
# 3 10.3413 6.2747 88.4527 12.8771 13.1184 -10.7258
# 4 9.3096 3.9761 12.8771 41.9352 0.3384 7.0101
# 5 18.4371 -4.5588 13.1184 0.3384 31.8703 0.1619
# 6 -0.7147 -12.4222 -10.7258 7.0101 0.1619 32.0221
#
#
#
# Elastic Compliance Matrix: (Units=1/GPa)
#
#
# Indices 1 2 3 4 5 6 
#
# 1 0.041343 -0.011986 0.000793 -0.007805 -0.025866 -0.001622
# 2 -0.011986 0.015062 -0.000458 0.000415 0.009246 0.005284
# 3 0.000793 -0.000458 0.013575 -0.005180 -0.006085 0.005552
# 4 -0.007805 0.000415 -0.005180 0.028416 0.006446 -0.008001
# 5 -0.025866 0.009246 -0.006085 0.006446 0.050103 -0.000693
# 6 -0.001622 0.005284 0.005552 -0.008001 -0.000693 0.036857
#
#
# Mechanical properties :
#
#
# Convention : Reuss Voigt Hill
#
# Bulk Modulus (GPa) = 21.42378 34.14731 27.78555
# Shear Modulus (GPa) = 22.29985 33.48542 27.89263
#
# Velocity S-wave (km/s) = 3.08250 3.77728 3.44744
# Velocity P-wave (km/s) = 4.66879 5.79429 5.26172
#
# Compressibility (1/GPa) = 0.04667710
#
# Stress axis : x y z
#
# Youngs Moduli (GPa) = 24.18805 66.39370 73.66436
#
# Poissons Ratio (x) = 0.79577 -0.05839
# Poissons Ratio (y) = 0.28991 0.03375
# Poissons Ratio (z) = -0.01917 0.03041
#
# Static dielectric constant tensor:
#      x y z
#    x 2.048500 0.019560 -0.019980 
#    y 0.019560 1.910090 0.054490 
#    z -0.019980 0.054490 1.964300 
# 
# From -- ./inp_files/282185.got.cif
#   From: 2010.05.17/outbox.cif.g08.bks.cpg/sg2_142_cif.got.tgz:282185.got - 2010.06.03 11:33:40.
