data_PCOD9083157
_publ_section_title
;
Structure prediction by ZEFSAII (Michael W. Deem and Ramdas Pophale) SiO2 
 PCOD9083157
Probable space group: P -1
;
_chemical_formula_sum "Si O2"
_cell_formula_units_Z 16
_cell_length_a 16.730191
_cell_length_b 8.735388
_cell_length_c 6.182279
_cell_angle_alpha 121.615984
_cell_angle_beta 115.739627
_cell_angle_gamma 69.756239
_cell_volume 684.767124
_symmetry_space_group_name_H-M "P -1"
_symmetry_group_IT_number 2
_symmetry_cell_setting 'triclinic'
loop_
_space_group_symop_operation_xyz
x,y,z
-x,-y,-z
loop_
_atom_site_type_symbol
_atom_site_label
_atom_site_fract_x
_atom_site_fract_y
_atom_site_fract_z
Si Si1 0.365241 0.691551 0.551461
Si Si2 0.502962 0.842200 0.067746
Si Si3 0.928635 0.358737 0.774207
Si Si4 0.236782 0.846751 0.901234
Si Si5 0.897552 0.585025 0.515831
Si Si6 0.371230 0.996587 0.418519
Si Si7 0.232909 0.541249 0.022890
Si Si8 0.055670 0.073374 0.927438
O O1 0.321112 0.525724 0.269853
O O2 0.375468 0.835256 0.480101
O O3 0.459534 0.677208 0.785835
O O4 0.290919 0.790755 0.705113
O O5 0.599635 0.831345 0.292237
O O6 0.438316 0.923680 0.247754
O O7 0.500000 0.000000 0.000000
O O8 0.878556 0.435671 0.557216
O O9 0.851773 0.362078 0.865314
O O10 0.000000 0.500000 0.000000
O O11 0.992440 0.170014 0.737615
O O12 0.277835 0.007889 0.194314
O O13 0.133427 0.926491 0.816434
O O14 0.252600 0.676349 0.956285
O O15 0.903275 0.767729 0.783521
O O16 0.000000 0.500000 0.500000
O O17 0.818326 0.610122 0.262888
O O18 0.000000 0.000000 0.000000
#
# Coordination Sequence:
#
# PCOD9083157 Si02
#       8
#     2   2   2   2   2   2   2   2
#     4   9  18  29  48  75 111 142 176 221 273 322
#     4   8  13  26  47  76 107 145 173 209 267 327
#     4  10  20  36  55  71  98 141 183 230 279 323
#     4  10  19  34  50  80 110 140 180 235 276 322
#     4  11  21  38  56  71 100 140 187 236 276 331
#     4   8  15  27  48  74 112 141 173 215 272 324
#     4  11  19  35  53  73 104 140 182 229 278 324
#     4  11  21  38  56  79 104 141 189 237 288 324
#
# _framework density 23.365606
#
# number of rings (size 3 to 8) (size 9 to 14) (size 15 to 20)
#    0.000    2.250    3.750    0.750    0.000    0.000 
#    4.500    1.875    0.000    0.000    0.000    0.875 
#    0.000  110.000    0.000   42.250    0.000   10.750 
#
# Total GULP energy -89102.487194 kJ/mol
# GULP energy per Si atom -5568.905450 kJ/mol
# Density = 2.331242 g / cm^3
# Si number density = 23.365606 Si / 1000 Ang^3
#
#
#
# Elastic Constant Matrix: (Units=GPa)
#
#
# Indices 1 2 3 4 5 6 
#
# 1 68.2428 14.5961 15.9490 -10.5894 -4.9135 27.4650
# 2 14.5961 41.7858 12.0237 1.3673 -11.2929 15.6652
# 3 15.9490 12.0237 180.4128 17.0102 49.7513 10.5965
# 4 -10.5894 1.3673 17.0102 33.0947 15.7260 -5.5222
# 5 -4.9135 -11.2929 49.7513 15.7260 58.1130 -10.1039
# 6 27.4650 15.6652 10.5965 -5.5222 -10.1039 23.8925
#
#
#
# Elastic Compliance Matrix: (Units=1/GPa)
#
#
# Indices 1 2 3 4 5 6 
#
# 1 0.028972 0.001421 0.000321 0.005635 -0.005207 -0.035278
# 2 0.001421 0.034338 -0.002412 -0.006612 0.006874 -0.021699
# 3 0.000321 -0.002412 0.008520 -0.001199 -0.008533 -0.006452
# 4 0.005635 -0.006612 -0.001199 0.037950 -0.009506 0.003141
# 5 -0.005207 0.006874 -0.008533 -0.009506 0.030777 0.016082
# 6 -0.035278 -0.021699 -0.006452 0.003141 0.016082 0.107022
#
#
# Mechanical properties :
#
#
# Convention : Reuss Voigt Hill
#
# Bulk Modulus (GPa) = 14.18630 41.73101 27.95866
# Shear Modulus (GPa) = 18.35432 39.54489 28.94961
#
# Velocity S-wave (km/s) = 2.80577 4.11839 3.52374
# Velocity P-wave (km/s) = 4.07198 6.36503 5.34297
#
# Compressibility (1/GPa) = 0.07049054
#
# Stress axis : x y z
#
# Youngs Moduli (GPa) = 34.51630 29.12222 117.36525
#
# Poissons Ratio (x) = -0.04139 -0.03765
# Poissons Ratio (y) = -0.04906 0.28308
# Poissons Ratio (z) = -0.01107 0.07024
#
# Static dielectric constant tensor:
#      x y z
#    x 1.933520 0.064310 0.092550 
#    y 0.064310 1.844570 0.035270 
#    z 0.092550 0.035270 2.036170 
# 
# From -- ./inp_files/107400.got.cif
#   From: 2010.05.17/outbox.cif.g08.bks.cpg/sg2_54_cif.got.tgz:107400.got - 2010.06.03 11:33:40.
