data_PCOD9083199
_publ_section_title
;
Structure prediction by ZEFSAII (Michael W. Deem and Ramdas Pophale) SiO2 
 PCOD9083199
Probable space group: P -1
;
_chemical_formula_sum "Si O2"
_cell_formula_units_Z 16
_cell_length_a 10.491417
_cell_length_b 18.317055
_cell_length_c 9.963216
_cell_angle_alpha 138.033013
_cell_angle_beta 27.811218
_cell_angle_gamma 125.640175
_cell_volume 579.856832
_symmetry_space_group_name_H-M "P -1"
_symmetry_group_IT_number 2
_symmetry_cell_setting 'triclinic'
loop_
_space_group_symop_operation_xyz
x,y,z
-x,-y,-z
loop_
_atom_site_type_symbol
_atom_site_label
_atom_site_fract_x
_atom_site_fract_y
_atom_site_fract_z
Si Si1 0.853581 0.109264 0.375008
Si Si2 0.101071 0.049888 0.652127
Si Si3 0.768497 0.795362 0.017274
Si Si4 0.499427 0.863099 0.764145
Si Si5 0.003581 0.288415 0.760520
Si Si6 0.571154 0.606874 0.651247
Si Si7 0.426409 0.353967 0.797154
Si Si8 0.151847 0.555877 0.622092
O O1 0.525542 0.136775 0.680842
O O2 0.907298 0.061110 0.409478
O O3 0.002551 0.205809 0.314586
O O4 0.000000 0.000000 0.000000
O O5 0.115110 0.141752 0.881184
O O6 0.386164 0.043562 0.296861
O O7 0.836925 0.094777 0.861430
O O8 0.675135 0.692914 0.036516
O O9 0.734532 0.816158 0.593216
O O10 0.533667 0.753009 0.485983
O O11 0.164009 0.365322 0.630790
O O12 0.707858 0.292892 0.967024
O O13 0.893389 0.348211 0.087354
O O14 0.500000 0.500000 0.500000
O O15 0.662998 0.557370 0.642930
O O16 0.699750 0.400297 0.581818
O O17 0.162768 0.449222 0.122093
#
# Coordination Sequence:
#
# PCOD9083199 Si02
#       8
#     2   2   2   2   2   2   2   2
#     4  10  16  23  29  35  41  47  53  59  65  71
#     4  10  16  22  29  35  41  47  53  59  65  71
#     4  10  17  23  29  35  41  47  53  59  65  71
#     4  10  16  22  28  35  41  47  53  59  65  71
#     4  10  17  23  29  35  41  47  53  59  65  71
#     4  10  16  23  29  35  41  47  53  59  65  71
#     4  10  16  22  28  35  41  47  53  59  65  71
#     4  10  16  22  29  35  41  47  53  59  65  71
#
# _framework density 27.593017
#
# number of rings (size 3 to 8) (size 9 to 14) (size 15 to 20)
#    0.000    2.000    0.000   14.250    0.000    0.000 
#    0.000    0.000    0.000    0.000    0.000    0.000 
#    0.000    0.000    0.000    0.000    0.000    0.000 
#
# Total GULP energy -89550.626524 kJ/mol
# GULP energy per Si atom -5596.914158 kJ/mol
# Density = 2.753021 g / cm^3
# Si number density = 27.593017 Si / 1000 Ang^3
#
#
#
# Elastic Constant Matrix: (Units=GPa)
#
#
# Indices 1 2 3 4 5 6 
#
# 1 73.7052 41.5236 53.4337 20.4047 -1.4764 24.5338
# 2 41.5236 150.7939 43.5791 -35.7787 7.0995 -41.2972
# 3 53.4337 43.5791 176.3723 -10.2541 -40.5644 2.5988
# 4 20.4047 -35.7787 -10.2541 54.6055 -6.0366 -9.3569
# 5 -1.4764 7.0995 -40.5644 -6.0366 41.1413 0.9083
# 6 24.5338 -41.2972 2.5988 -9.3569 0.9083 27.5703
#
#
#
# Elastic Compliance Matrix: (Units=1/GPa)
#
#
# Indices 1 2 3 4 5 6 
#
# 1 -0.003692 0.011821 -0.002113 0.012794 -0.002944 0.025629
# 2 0.011821 -0.001455 -0.004694 -0.009424 -0.004998 -0.015289
# 3 -0.002113 -0.004694 0.010006 -0.000350 0.010693 -0.006564
# 4 0.012794 -0.009424 -0.000350 0.003418 0.002781 -0.024400
# 5 -0.002944 -0.004998 0.010693 0.002781 0.036150 -0.006121
# 6 0.025629 -0.015289 -0.006564 -0.024400 -0.006121 -0.016898
#
#
# Mechanical properties :
#
#
# Convention : Reuss Voigt Hill
#
# Bulk Modulus (GPa) = 67.17766 75.32714 71.25240
# Shear Modulus (GPa) = 222.57973 42.15243 132.36608
#
# Velocity S-wave (km/s) = 8.99113 3.91275 6.93361
# Velocity P-wave (km/s) = 11.49721 6.91169 9.48571
#
# Compressibility (1/GPa) = 0.01488590
#
# Stress axis : x y z
#
# Youngs Moduli (GPa) = -270.86835 -687.35602 99.94466
#
# Poissons Ratio (x) = 8.12494 0.21121
# Poissons Ratio (y) = 3.20182 0.46912
# Poissons Ratio (z) = -0.57241 -3.22632
#
# Static dielectric constant tensor:
#      x y z
#    x 2.390040 0.148700 0.152730 
#    y 0.148700 2.216040 0.138740 
#    z 0.152730 0.138740 2.142640 
# 
# From -- ./inp_files/535093.got.cif
#   From: 2010.05.17/outbox.cif.g08.bks.cpg/sg2_268_cif.got.tgz:535093.got - 2010.06.03 11:33:40.
