data_PCOD9083275
_publ_section_title
;
Structure prediction by ZEFSAII (Michael W. Deem and Ramdas Pophale) SiO2 
 PCOD9083275
Probable space group: P -1
;
_chemical_formula_sum "Si O2"
_cell_formula_units_Z 16
_cell_length_a 12.604618
_cell_length_b 7.674724
_cell_length_c 12.865356
_cell_angle_alpha 81.119976
_cell_angle_beta 97.365168
_cell_angle_gamma 148.855815
_cell_volume 635.941996
_symmetry_space_group_name_H-M "P -1"
_symmetry_group_IT_number 2
_symmetry_cell_setting 'triclinic'
loop_
_space_group_symop_operation_xyz
x,y,z
-x,-y,-z
loop_
_atom_site_type_symbol
_atom_site_label
_atom_site_fract_x
_atom_site_fract_y
_atom_site_fract_z
Si Si1 0.068118 0.330648 0.945489
Si Si2 0.786101 0.427171 0.505367
Si Si3 0.862040 0.298762 0.243346
Si Si4 0.846073 0.114167 0.606385
Si Si5 0.638900 0.473991 0.163078
Si Si6 0.674950 0.684385 0.809764
Si Si7 0.502198 0.965841 0.323290
Si Si8 0.963503 0.795772 0.809435
O O1 0.143120 0.617824 0.877900
O O2 0.256178 0.459170 0.933537
O O3 0.863595 0.999996 0.883132
O O4 0.016799 0.250728 0.066409
O O5 0.777567 0.201387 0.539911
O O6 0.637791 0.250006 0.405948
O O7 0.019473 0.799849 0.469737
O O8 0.693597 0.371240 0.604894
O O9 0.636484 0.996245 0.289871
O O10 0.979816 0.283397 0.250607
O O11 0.991254 0.598479 0.311316
O O12 0.683979 0.786323 0.686839
O O13 0.521121 0.495380 0.146024
O O14 0.493988 0.115614 0.225035
O O15 0.850900 0.805019 0.222461
O O16 0.742670 0.578263 0.803894
#
# Coordination Sequence:
#
# PCOD9083275 Si02
#       8
#     2   2   2   2   2   2   2   2
#     4   9  20  35  55  73  97 137 179 215 238 291
#     4   9  15  28  56  81  91 123 177 216 244 284
#     4   9  19  35  50  73 107 133 163 209 261 297
#     4   9  17  31  54  78  98 128 170 217 243 294
#     4  10  19  34  54  77 104 132 172 212 251 295
#     4  10  19  34  54  77 104 132 172 212 251 295
#     4   9  17  31  54  78  98 128 170 217 243 294
#     4  11  21  34  51  75 107 139 165 204 261 310
#
# _framework density 25.159526
#
# number of rings (size 3 to 8) (size 9 to 14) (size 15 to 20)
#    0.000    2.500    1.250    4.125    0.000    2.000 
#    2.250    0.000    0.000   28.500    0.000    0.000 
#    0.000    0.000    0.000    0.000    0.000    0.000 
#
# Total GULP energy -89233.228870 kJ/mol
# GULP energy per Si atom -5577.076804 kJ/mol
# Density = 2.510226 g / cm^3
# Si number density = 25.159526 Si / 1000 Ang^3
#
#
#
# Elastic Constant Matrix: (Units=GPa)
#
#
# Indices 1 2 3 4 5 6 
#
# 1 181.7886 27.7735 23.6345 -5.4812 -28.0679 30.3028
# 2 27.7735 47.1862 14.4709 -8.7391 -9.6788 23.9397
# 3 23.6345 14.4709 100.5143 -17.9138 -8.3682 3.5706
# 4 -5.4812 -8.7391 -17.9138 22.9093 8.0548 1.9380
# 5 -28.0679 -9.6788 -8.3682 8.0548 32.7541 -3.3738
# 6 30.3028 23.9397 3.5706 1.9380 -3.3738 30.8537
#
#
#
# Elastic Compliance Matrix: (Units=1/GPa)
#
#
# Indices 1 2 3 4 5 6 
#
# 1 0.007644 0.000681 -0.001206 -0.000267 0.005762 -0.007249
# 2 0.000681 0.042628 -0.001793 0.016040 0.005279 -0.033967
# 3 -0.001206 -0.001793 0.011939 0.008504 -0.000542 0.000600
# 4 -0.000267 0.016040 0.008504 0.061517 -0.010315 -0.018160
# 5 0.005762 0.005279 -0.000542 -0.010315 0.038933 -0.004787
# 6 -0.007249 -0.033967 0.000600 -0.018160 -0.004787 0.066434
#
#
# Mechanical properties :
#
#
# Convention : Reuss Voigt Hill
#
# Bulk Modulus (GPa) = 17.36799 51.24968 34.30883
# Shear Modulus (GPa) = 19.76889 34.87745 27.32317
#
# Velocity S-wave (km/s) = 2.80615 3.72728 3.29902
# Velocity P-wave (km/s) = 4.17342 6.24000 5.30825
#
# Compressibility (1/GPa) = 0.05757718
#
# Stress axis : x y z
#
# Youngs Moduli (GPa) = 130.82833 23.45870 83.75572
#
# Poissons Ratio (x) = -0.01598 0.10098
# Poissons Ratio (y) = -0.08912 0.15013
# Poissons Ratio (z) = 0.15774 0.04205
#
# Static dielectric constant tensor:
#      x y z
#    x 2.038970 -0.037700 -0.006520 
#    y -0.037700 2.092000 -0.006990 
#    z -0.006520 -0.006990 1.990310 
# 
# From -- ./inp_files/285081.got.cif
#   From: 2010.05.17/outbox.cif.g08.bks.cpg/sg2_143_cif.got.tgz:285081.got - 2010.06.03 11:33:40.
