data_PCOD9083259
_publ_section_title
;
Structure prediction by ZEFSAII (Michael W. Deem and Ramdas Pophale) SiO2 
 PCOD9083259
Probable space group: P -1
;
_chemical_formula_sum "Si O2"
_cell_formula_units_Z 13
_cell_length_a 4.853513
_cell_length_b 10.990329
_cell_length_c 14.384173
_cell_angle_alpha 103.194451
_cell_angle_beta 131.586222
_cell_angle_gamma 88.891832
_cell_volume 549.460832
_symmetry_space_group_name_H-M "P -1"
_symmetry_group_IT_number 2
_symmetry_cell_setting 'triclinic'
loop_
_space_group_symop_operation_xyz
x,y,z
-x,-y,-z
loop_
_atom_site_type_symbol
_atom_site_label
_atom_site_fract_x
_atom_site_fract_y
_atom_site_fract_z
Si Si1 0.049298 0.698308 0.946154
Si Si2 0.871581 0.165719 0.591493
Si Si3 0.042591 0.101296 0.912969
Si Si4 0.890177 0.157471 0.186094
Si Si5 0.840863 0.666849 0.159673
Si Si6 0.994054 0.893609 0.589074
Si Si7 0.000000 0.500000 0.000000
O O1 0.975596 0.720900 0.827776
O O2 0.382366 0.624073 0.045851
O O3 0.171195 0.837711 0.043150
O O4 0.744799 0.610373 0.924737
O O5 0.453236 0.132999 0.531720
O O6 0.057898 0.295208 0.705536
O O7 0.836971 0.164292 0.472230
O O8 0.089311 0.048033 0.639969
O O9 0.062894 0.198076 0.849000
O O10 0.915359 0.958972 0.825835
O O11 0.453427 0.117613 0.054118
O O12 0.925817 0.165270 0.305179
O O13 0.042509 0.572993 0.130256
#
# Coordination Sequence:
#
# PCOD9083259 Si02
#       7
#     2   2   2   2   2   2   1
#     4  10  21  34  58  84 114 151 191 251 302 347
#     4  10  22  37  57  87 121 164 195 238 286 360
#     4   9  19  32  54  87 115 152 184 240 303 359
#     4  10  19  34  53  86 121 152 192 235 301 361
#     4  10  20  37  59  85 115 149 199 245 301 347
#     4  10  22  36  57  86 125 163 195 230 291 363
#     4  10  22  38  58  86 110 150 202 254 300 344
#
# _framework density 23.659557
#
# number of rings (size 3 to 8) (size 9 to 14) (size 15 to 20)
#    0.000    2.154    1.538    0.923    6.462    1.231 
#    0.000    0.000    0.000    1.846    0.000    0.000 
#    0.000    0.000    0.000    0.000    0.000    0.000 
#
# Total GULP energy -72443.111625 kJ/mol
# GULP energy per Si atom -5572.547048 kJ/mol
# Density = 2.360571 g / cm^3
# Si number density = 23.659557 Si / 1000 Ang^3
#
#
#
# Elastic Constant Matrix: (Units=GPa)
#
#
# Indices 1 2 3 4 5 6 
#
# 1 71.4947 16.8820 18.1321 10.5276 -21.0247 -6.0723
# 2 16.8820 100.6418 49.4312 3.4510 -22.2271 9.9735
# 3 18.1321 49.4312 131.0920 5.3661 -37.3096 8.3375
# 4 10.5276 3.4510 5.3661 39.2053 2.0702 -20.2422
# 5 -21.0247 -22.2271 -37.3096 2.0702 42.4820 -3.1959
# 6 -6.0723 9.9735 8.3375 -20.2422 -3.1959 39.2125
#
#
#
# Elastic Compliance Matrix: (Units=1/GPa)
#
#
# Indices 1 2 3 4 5 6 
#
# 1 0.017508 -0.001287 0.000705 -0.004484 0.008927 0.001301
# 2 -0.001287 0.012991 -0.003570 -0.002395 0.002859 -0.003748
# 3 0.000705 -0.003570 0.011622 -0.003149 0.008663 -0.002373
# 4 -0.004484 -0.002395 -0.003149 0.037800 -0.006608 0.019559
# 5 0.008927 0.002859 0.008663 -0.006608 0.037267 -0.001561
# 6 0.001301 -0.003748 -0.002373 0.019559 -0.001561 0.037131
#
#
# Mechanical properties :
#
#
# Convention : Reuss Voigt Hill
#
# Bulk Modulus (GPa) = 29.57064 52.45768 41.01416
# Shear Modulus (GPa) = 28.75301 38.76551 33.75926
#
# Velocity S-wave (km/s) = 3.48987 4.05220 3.78150
# Velocity P-wave (km/s) = 5.36325 6.64182 6.03648
#
# Compressibility (1/GPa) = 0.03381732
#
# Stress axis : x y z
#
# Youngs Moduli (GPa) = 57.11616 76.97847 86.04103
#
# Poissons Ratio (x) = 0.09905 -0.06067
# Poissons Ratio (y) = 0.07350 0.30719
# Poissons Ratio (z) = -0.04027 0.27483
#
# Static dielectric constant tensor:
#      x y z
#    x 2.201040 0.098250 0.008450 
#    y 0.098250 2.055050 0.008250 
#    z 0.008450 0.008250 1.903710 
# 
# From -- ./inp_files/33323.got.cif
#   From: 2010.05.17/outbox.cif.g08.bks.cpg/sg2_17_cif.got.tgz:33323.got - 2010.06.03 11:33:40.
