data_PCOD9083269
_publ_section_title
;
Structure prediction by ZEFSAII (Michael W. Deem and Ramdas Pophale) SiO2 
 PCOD9083269
Probable space group: P -1
;
_chemical_formula_sum "Si O2"
_cell_formula_units_Z 14
_cell_length_a 12.797417
_cell_length_b 6.393930
_cell_length_c 20.686290
_cell_angle_alpha 133.221031
_cell_angle_beta 149.149084
_cell_angle_gamma 55.113469
_cell_volume 631.958195
_symmetry_space_group_name_H-M "P -1"
_symmetry_group_IT_number 2
_symmetry_cell_setting 'triclinic'
loop_
_space_group_symop_operation_xyz
x,y,z
-x,-y,-z
loop_
_atom_site_type_symbol
_atom_site_label
_atom_site_fract_x
_atom_site_fract_y
_atom_site_fract_z
Si Si1 0.513006 0.179430 0.703621
Si Si2 0.690526 0.268603 0.321079
Si Si3 0.074478 0.324454 0.794461
Si Si4 0.145997 0.736152 0.460283
Si Si5 0.712887 0.179324 0.164586
Si Si6 0.283769 0.328966 0.353954
Si Si7 0.530457 0.319581 0.886341
O O1 0.424498 0.434264 0.668688
O O2 0.592797 0.307589 0.841224
O O3 0.328837 0.960424 0.583447
O O4 0.674753 0.992773 0.712302
O O5 0.862904 0.253875 0.465153
O O6 0.747403 0.266868 0.276022
O O7 0.534027 0.996018 0.190627
O O8 0.026628 0.205728 0.671547
O O9 0.880486 0.515329 0.745538
O O10 0.118300 0.055339 0.806988
O O11 0.277070 0.528577 0.944554
O O12 0.203730 0.414074 0.400438
O O13 0.664326 0.479435 0.169762
O O14 0.500000 0.000000 0.000000
O O15 0.500000 0.500000 0.500000
#
# Coordination Sequence:
#
# PCOD9083269 Si02
#       7
#     2   2   2   2   2   2   2
#     4   9  17  34  56  76 104 143 174 207 263 309
#     4  10  19  34  54  75 110 144 164 214 263 310
#     4   9  18  34  55  79 105 132 182 218 251 311
#     4   8  18  34  52  78 102 137 178 211 257 305
#     4   9  19  35  55  77 105 140 173 212 262 309
#     4   8  16  33  57  76 102 139 174 214 263 301
#     4   9  19  35  55  79 107 137 173 214 259 311
#
# _framework density 22.153364
#
# number of rings (size 3 to 8) (size 9 to 14) (size 15 to 20)
#    0.857    2.286    0.000    0.000    0.000    4.000 
#    0.000   12.857    0.000    0.000    0.000    0.000 
#    0.000    0.000    0.000    0.000    0.000    0.000 
#
# Total GULP energy -77950.061661 kJ/mol
# GULP energy per Si atom -5567.861547 kJ/mol
# Density = 2.210294 g / cm^3
# Si number density = 22.153364 Si / 1000 Ang^3
#
#
#
# Elastic Constant Matrix: (Units=GPa)
#
#
# Indices 1 2 3 4 5 6 
#
# 1 20.2141 27.3982 26.3559 1.1933 -3.1923 4.0359
# 2 27.3982 175.2693 32.4321 -11.5617 12.0361 -25.0238
# 3 26.3559 32.4321 127.1451 -16.9176 -19.0233 -2.9675
# 4 1.1933 -11.5617 -16.9176 31.2124 -10.3504 3.1929
# 5 -3.1923 12.0361 -19.0233 -10.3504 27.6101 2.7657
# 6 4.0359 -25.0238 -2.9675 3.1929 2.7657 24.3279
#
#
#
# Elastic Compliance Matrix: (Units=1/GPa)
#
#
# Indices 1 2 3 4 5 6 
#
# 1 0.118319 -0.022441 -0.021176 -0.017638 0.006641 -0.043735
# 2 -0.022441 0.012186 0.000814 0.001198 -0.008618 0.017180
# 3 -0.021176 0.000814 0.015885 0.013718 0.012982 0.003012
# 4 -0.017638 0.001198 0.013718 0.049521 0.025815 -0.003602
# 5 0.006641 -0.008618 0.012982 0.025815 0.061242 -0.018732
# 6 -0.043735 0.017180 0.003012 -0.003602 -0.018732 0.069001
#
#
# Mechanical properties :
#
#
# Convention : Reuss Voigt Hill
#
# Bulk Modulus (GPa) = 16.45144 55.00010 35.72577
# Shear Modulus (GPa) = 11.57352 32.39291 21.98321
#
# Velocity S-wave (km/s) = 2.28815 3.82804 3.15353
# Velocity P-wave (km/s) = 3.79778 6.66478 5.42413
#
# Compressibility (1/GPa) = 0.06078496
#
# Stress axis : x y z
#
# Youngs Moduli (GPa) = 8.45174 82.05867 62.95322
#
# Poissons Ratio (x) = 1.84147 1.33310
# Poissons Ratio (y) = 0.18966 -0.05126
# Poissons Ratio (z) = 0.17897 -0.06682
#
# Static dielectric constant tensor:
#      x y z
#    x 1.854690 -0.015490 -0.018880 
#    y -0.015490 1.887900 -0.003680 
#    z -0.018880 -0.003680 1.824670 
# 
# From -- ./inp_files/369777.got.cif
#   From: 2010.05.17/outbox.cif.g08.bks.cpg/sg2_185_cif.got.tgz:369777.got - 2010.06.03 11:33:40.
