data_PCOD9083825
_publ_section_title
;
Structure prediction by ZEFSAII (Michael W. Deem and Ramdas Pophale) SiO2 
 PCOD9083825
Probable space group: P -1
;
_chemical_formula_sum "Si O2"
_cell_formula_units_Z 14
_cell_length_a 4.856533
_cell_length_b 5.343382
_cell_length_c 20.783817
_cell_angle_alpha 89.352885
_cell_angle_beta 75.432146
_cell_angle_gamma 93.852314
_cell_volume 520.605296
_symmetry_space_group_name_H-M "P -1"
_symmetry_group_IT_number 2
_symmetry_cell_setting 'triclinic'
loop_
_space_group_symop_operation_xyz
x,y,z
-x,-y,-z
loop_
_atom_site_type_symbol
_atom_site_label
_atom_site_fract_x
_atom_site_fract_y
_atom_site_fract_z
Si Si1 0.664219 0.766794 0.348544
Si Si2 0.512686 0.215329 0.789378
Si Si3 0.107996 0.842104 0.865919
Si Si4 0.499985 0.750806 0.957403
Si Si5 0.664880 0.259623 0.513100
Si Si6 0.601418 0.721512 0.755835
Si Si7 0.992354 0.285839 0.375514
O O1 0.601599 0.768782 0.276888
O O2 0.370160 0.747810 0.408031
O O3 0.842133 0.530554 0.358361
O O4 0.828660 0.029052 0.359656
O O5 0.252312 0.129213 0.851536
O O6 0.682954 0.477070 0.788881
O O7 0.718650 0.989182 0.775426
O O8 0.240468 0.732890 0.922996
O O9 0.267919 0.730428 0.794788
O O10 0.779041 0.798296 0.896925
O O11 0.500000 0.500000 0.000000
O O12 0.500000 0.000000 0.000000
O O13 0.500000 0.500000 0.500000
O O14 0.958283 0.276472 0.455047
O O15 0.500000 0.000000 0.500000
O O16 0.700868 0.709828 0.676703
#
# Coordination Sequence:
#
# PCOD9083825 Si02
#       7
#     2   2   2   2   2   2   2
#     4  10  19  34  58  85 120 171 223 278 330 392
#     4  10  23  38  59  91 134 165 220 265 333 381
#     4  10  28  46  74 103 142 176 220 270 330 391
#     4  12  28  48  78 104 140 175 222 265 326 396
#     4   8  16  30  50  80 116 161 221 276 332 382
#     4  10  23  38  59  91 134 165 220 265 333 381
#     4  10  19  34  58  85 120 171 223 278 330 392
#
# _framework density 26.891770999999999
#
# number of rings (size 3 to 8) (size 9 to 14) (size 15 to 20)
#    0.857    1.143    0.000    2.571    6.000    0.000 
#    0.000    1.429    0.000    0.000    0.000    0.000 
#    0.000    0.000    0.000    0.000    0.000    0.000 
#
# Total GULP energy -78344.196036 kJ/mol
# GULP energy per Si atom -5596.014003 kJ/mol
# Density = 2.683056 g / cm^3
# Si number density = 26.891771 Si / 1000 Ang^3
#
#
#
# Elastic Constant Matrix: (Units=GPa)
#
#
# Indices 1 2 3 4 5 6 
#
# 1 69.0535 26.6798 38.0178 9.0217 7.3969 -1.0433
# 2 26.6798 222.6437 46.4692 -3.3255 -2.3220 -15.9791
# 3 38.0178 46.4692 189.2558 -1.1513 -14.1789 -4.3705
# 4 9.0217 -3.3255 -1.1513 51.2974 -7.2410 3.3831
# 5 7.3969 -2.3220 -14.1789 -7.2410 44.4680 -6.1924
# 6 -1.0433 -15.9791 -4.3705 3.3831 -6.1924 25.8317
#
#
#
# Elastic Compliance Matrix: (Units=1/GPa)
#
#
# Indices 1 2 3 4 5 6 
#
# 1 0.018209 -0.001639 -0.003705 -0.004016 -0.005175 -0.001620
# 2 -0.001639 0.005088 -0.000786 0.000511 0.000799 0.003073
# 3 -0.003705 -0.000786 0.006473 0.001096 0.002961 0.001025
# 4 -0.004016 0.000511 0.001096 0.020951 0.004263 -0.001383
# 5 -0.005175 0.000799 0.002961 0.004263 0.025926 0.006443
# 6 -0.001620 0.003073 0.001025 -0.001383 0.006443 0.042447
#
#
# Mechanical properties :
#
#
# Convention : Reuss Voigt Hill
#
# Bulk Modulus (GPa) = 57.10873 78.14296 67.62585
# Shear Modulus (GPa) = 36.44528 48.97183 42.70856
#
# Velocity S-wave (km/s) = 3.68538 4.27203 3.98950
# Velocity P-wave (km/s) = 6.27630 7.31130 6.81348
#
# Compressibility (1/GPa) = 0.01751046
#
# Stress axis : x y z
#
# Youngs Moduli (GPa) = 54.91765 196.52184 154.48009
#
# Poissons Ratio (x) = 0.32209 0.57235
# Poissons Ratio (y) = 0.09001 0.12146
# Poissons Ratio (z) = 0.20347 0.15452
#
# Static dielectric constant tensor:
#      x y z
#    x 2.067230 -0.014930 0.003350 
#    y -0.014930 2.270340 0.054460 
#    z 0.003350 0.054460 2.097160 
# 
# From -- ./inp_files/125816.got.cif
#   From: 2010.05.17/outbox.cif.g08.bks.cpg/sg2_63_cif.got.tgz:125816.got - 2010.06.03 11:33:40.
