data_PCOD9083464
_publ_section_title
;
Structure prediction by ZEFSAII (Michael W. Deem and Ramdas Pophale) SiO2 
 PCOD9083464
Probable space group: P -1
;
_chemical_formula_sum "Si O2"
_cell_formula_units_Z 14
_cell_length_a 10.682490
_cell_length_b 9.234070
_cell_length_c 8.098998
_cell_angle_alpha 46.470902
_cell_angle_beta 87.328593
_cell_angle_gamma 86.320259
_cell_volume 578.030917
_symmetry_space_group_name_H-M "P -1"
_symmetry_group_IT_number 2
_symmetry_cell_setting 'triclinic'
loop_
_space_group_symop_operation_xyz
x,y,z
-x,-y,-z
loop_
_atom_site_type_symbol
_atom_site_label
_atom_site_fract_x
_atom_site_fract_y
_atom_site_fract_z
Si Si1 0.350998 0.971085 0.651251
Si Si2 0.120481 0.520536 0.232456
Si Si3 0.934981 0.753617 0.253961
Si Si4 0.806965 0.063859 0.804468
Si Si5 0.625171 0.292959 0.850488
Si Si6 0.508737 0.356771 0.272471
Si Si7 0.125179 0.115397 0.393533
O O1 0.371151 0.789230 0.660614
O O2 0.410155 0.180378 0.431814
O O3 0.205402 0.031191 0.609940
O O4 0.410842 0.887288 0.884012
O O5 0.122937 0.409888 0.498183
O O6 0.251418 0.624233 0.129782
O O7 0.105622 0.351215 0.231948
O O8 0.000451 0.669288 0.147101
O O9 0.058140 0.829943 0.282350
O O10 0.830236 0.912219 0.074180
O O11 0.686209 0.205813 0.746534
O O12 0.800490 0.944642 0.729511
O O13 0.522781 0.477439 0.714288
O O14 0.500000 0.500000 0.000000
O O15 0.000000 0.000000 0.500000
#
# Coordination Sequence:
#
# PCOD9083464 Si02
#       7
#     2   2   2   2   2   2   2
#     4  10  21  39  64  91 118 152 200 250 294 345
#     4  10  19  34  56  80 119 156 208 237 284 349
#     4   9  19  36  52  77 114 170 205 235 272 361
#     4  10  21  34  54  82 122 157 200 238 298 343
#     4  10  20  37  64  88 111 157 206 244 285 358
#     4   9  19  39  69  90 109 150 210 251 286 346
#     4  12  23  36  54  90 131 159 184 248 302 351
#
# _framework density 24.220154999999998
#
# number of rings (size 3 to 8) (size 9 to 14) (size 15 to 20)
#    0.000    2.000    2.857    0.857    4.000    0.571 
#    0.000    0.714    0.000    7.714    0.000    0.000 
#    0.000    0.000    0.000    0.000    0.000    0.000 
#
# Total GULP energy -78089.875157 kJ/mol
# GULP energy per Si atom -5577.848226 kJ/mol
# Density = 2.416503 g / cm^3
# Si number density = 24.220155 Si / 1000 Ang^3
#
#
#
# Elastic Constant Matrix: (Units=GPa)
#
#
# Indices 1 2 3 4 5 6 
#
# 1 17.3980 -8.4576 8.3062 -2.8091 -2.3627 -16.3699
# 2 -8.4576 176.5363 14.9085 9.6052 2.0176 -28.4251
# 3 8.3062 14.9085 98.4031 -10.3584 -11.2029 3.7614
# 4 -2.8091 9.6052 -10.3584 39.8142 -4.9096 -0.4681
# 5 -2.3627 2.0176 -11.2029 -4.9096 27.3301 -7.2638
# 6 -16.3699 -28.4251 3.7614 -0.4681 -7.2638 34.9140
#
#
#
# Elastic Compliance Matrix: (Units=1/GPa)
#
#
# Indices 1 2 3 4 5 6 
#
# 1 0.256771 0.040403 -0.026936 0.010058 0.054544 0.167669
# 2 0.040403 0.013164 -0.005684 -0.000360 0.008650 0.032068
# 3 -0.026936 -0.005684 0.014259 0.002889 -0.000561 -0.018871
# 4 0.010058 -0.000360 0.002889 0.027819 0.008754 0.006305
# 5 0.054544 0.008650 -0.000561 0.008754 0.053694 0.043965
# 6 0.167669 0.032068 -0.018871 0.006305 0.043965 0.144628
#
#
# Mechanical properties :
#
#
# Convention : Reuss Voigt Hill
#
# Bulk Modulus (GPa) = 3.33599 35.76128 19.54864
# Shear Modulus (GPa) = 8.40775 38.91702 23.66238
#
# Velocity S-wave (km/s) = 1.86519 4.01284 3.12904
# Velocity P-wave (km/s) = 2.45335 6.02227 4.59818
#
# Compressibility (1/GPa) = 0.29976097
#
# Stress axis : x y z
#
# Youngs Moduli (GPa) = 3.89452 75.96192 70.13242
#
# Poissons Ratio (x) = -3.06909 1.88908
# Poissons Ratio (y) = -0.15735 0.39863
# Poissons Ratio (z) = 0.10490 0.43176
#
# Static dielectric constant tensor:
#      x y z
#    x 1.893730 -0.048700 -0.012000 
#    y -0.048700 2.038940 0.019160 
#    z -0.012000 0.019160 1.953030 
# 
# From -- ./inp_files/206187.got.cif
#   From: 2010.05.17/outbox.cif.g08.bks.cpg/sg2_104_cif.got.tgz:206187.got - 2010.06.03 11:33:40.
