data_PCOD9083178
_publ_section_title
;
Structure prediction by ZEFSAII (Michael W. Deem and Ramdas Pophale) SiO2 
 PCOD9083178
Probable space group: P -1
;
_chemical_formula_sum "Si O2"
_cell_formula_units_Z 10
_cell_length_a 9.366486
_cell_length_b 14.641973
_cell_length_c 6.537780
_cell_angle_alpha 70.671188
_cell_angle_beta 144.537083
_cell_angle_gamma 124.675416
_cell_volume 411.002430
_symmetry_space_group_name_H-M "P -1"
_symmetry_group_IT_number 2
_symmetry_cell_setting 'triclinic'
loop_
_space_group_symop_operation_xyz
x,y,z
-x,-y,-z
loop_
_atom_site_type_symbol
_atom_site_label
_atom_site_fract_x
_atom_site_fract_y
_atom_site_fract_z
Si Si1 0.696529 0.170416 0.436428
Si Si2 0.648081 0.433690 0.639539
Si Si3 0.691695 0.096946 0.926399
Si Si4 0.318582 0.253359 0.063549
Si Si5 0.683839 0.820505 0.441771
O O1 0.765522 0.181870 0.755082
O O2 0.490992 0.219986 0.137276
O O3 0.523570 0.034429 0.295188
O O4 0.015380 0.237152 0.655660
O O5 0.500000 0.500000 0.500000
O O6 0.528980 0.379571 0.314511
O O7 0.507487 0.317384 0.696750
O O8 0.000000 0.500000 0.000000
O O9 0.515327 0.127859 0.851768
O O10 0.999898 0.117813 0.338772
O O11 0.237657 0.165647 0.229017
#
# Coordination Sequence:
#
# PCOD9083178 Si02
#       5
#     2   2   2   2   2
#     4   9  13  19  26  32  38  39  39  48  58  64
#     4  10  16  22  25  26  33  42  48  54  54  52
#     4   9  13  19  26  32  38  39  39  48  58  64
#     4   8  15  20  24  32  34  39  48  48  53  64
#     4   8  15  20  24  32  34  39  48  48  53  64
#
# _framework density 24.330756999999998
#
# number of rings (size 3 to 8) (size 9 to 14) (size 15 to 20)
#    1.200    2.000    0.000    3.600    0.000    4.800 
#    0.000    0.000    0.000    0.000    0.000    0.000 
#    0.000    0.000    0.000    0.000    0.000    0.000 
#
# Total GULP energy -55827.015515 kJ/mol
# GULP energy per Si atom -5582.701551 kJ/mol
# Density = 2.427538 g / cm^3
# Si number density = 24.330757 Si / 1000 Ang^3
#
#
#
# Elastic Constant Matrix: (Units=GPa)
#
#
# Indices 1 2 3 4 5 6 
#
# 1 91.4766 57.8070 45.5133 -9.1815 36.3555 -37.0924
# 2 57.8070 115.3707 77.9899 -1.0814 30.7846 -50.2477
# 3 45.5133 77.9899 244.8070 4.4724 73.7751 -40.7510
# 4 -9.1815 -1.0814 4.4724 44.0748 -5.7626 1.5932
# 5 36.3555 30.7846 73.7751 -5.7626 52.8630 -30.0422
# 6 -37.0924 -50.2477 -40.7510 1.5932 -30.0422 58.8110
#
#
#
# Elastic Compliance Matrix: (Units=1/GPa)
#
#
# Indices 1 2 3 4 5 6 
#
# 1 0.020238 -0.007984 0.002509 0.002193 -0.011554 0.001720
# 2 -0.007984 0.019147 -0.005120 -0.000021 0.008318 0.012025
# 3 0.002509 -0.005120 0.008614 -0.002042 -0.012896 -0.003355
# 4 0.002193 -0.000021 -0.002042 0.023942 0.005026 0.001869
# 5 -0.011554 0.008318 -0.012896 0.005026 0.049748 0.016160
# 6 0.001720 0.012025 -0.003355 0.001869 0.016160 0.034242
#
#
# Mechanical properties :
#
#
# Convention : Reuss Voigt Hill
#
# Bulk Modulus (GPa) = 37.29918 90.47498 63.88708
# Shear Modulus (GPa) = 26.87341 49.17269 38.02305
#
# Velocity S-wave (km/s) = 3.32701 4.50044 3.95746
# Velocity P-wave (km/s) = 5.48835 8.01695 6.86999
#
# Compressibility (1/GPa) = 0.02681024
#
# Stress axis : x y z
#
# Youngs Moduli (GPa) = 49.41168 52.22777 116.08346
#
# Poissons Ratio (x) = 0.41698 -0.29127
# Poissons Ratio (y) = 0.39450 0.59434
# Poissons Ratio (z) = -0.12398 0.26740
#
# Static dielectric constant tensor:
#      x y z
#    x 2.082330 -0.011120 -0.052460 
#    y -0.011120 1.865320 -0.071770 
#    z -0.052460 -0.071770 1.994980 
# 
# From -- ./inp_files/631.got.cif
#   From: 2010.05.17/outbox.cif.g08.bks.cpg/sg2_1_cif.got.tgz:631.got - 2010.06.03 11:33:40.
