data_PCOD9083799
_publ_section_title
;
Structure prediction by ZEFSAII (Michael W. Deem and Ramdas Pophale) SiO2 
 PCOD9083799
Probable space group: P -1
;
_chemical_formula_sum "Si O2"
_cell_formula_units_Z 16
_cell_length_a 8.053607
_cell_length_b 11.070394
_cell_length_c 11.332946
_cell_angle_alpha 52.503761
_cell_angle_beta 56.976561
_cell_angle_gamma 62.003244
_cell_volume 657.586812
_symmetry_space_group_name_H-M "P -1"
_symmetry_group_IT_number 2
_symmetry_cell_setting 'triclinic'
loop_
_space_group_symop_operation_xyz
x,y,z
-x,-y,-z
loop_
_atom_site_type_symbol
_atom_site_label
_atom_site_fract_x
_atom_site_fract_y
_atom_site_fract_z
Si Si1 0.837075 0.030876 0.194381
Si Si2 0.805138 0.193442 0.855048
Si Si3 0.596166 0.110930 0.756130
Si Si4 0.230596 0.543033 0.132165
Si Si5 0.290158 0.671285 0.612526
Si Si6 0.524717 0.278547 0.248075
Si Si7 0.231128 0.345225 0.817441
Si Si8 0.890606 0.802009 0.833314
O O1 0.615328 0.098233 0.291510
O O2 0.982999 0.115938 0.168073
O O3 0.815915 0.099673 0.029604
O O4 0.962694 0.854845 0.252398
O O5 0.663175 0.137308 0.848250
O O6 0.720491 0.369794 0.819900
O O7 0.691792 0.220863 0.568408
O O8 0.357608 0.186347 0.806558
O O9 0.702780 0.935760 0.785381
O O10 0.308946 0.360247 0.230707
O O11 0.993110 0.601088 0.176899
O O12 0.337350 0.615652 0.939006
O O13 0.441137 0.700454 0.640173
O O14 0.335142 0.490013 0.672256
O O15 0.062197 0.722998 0.723128
O O16 0.201756 0.320676 0.982876
#
# Coordination Sequence:
#
# PCOD9083799 Si02
#       8
#     2   2   2   2   2   2   2   2
#     4   8  15  31  58  80 104 141 199 235 266 327
#     4   9  16  33  53  80 109 149 185 228 281 340
#     4  11  24  37  59  88 122 156 184 230 304 354
#     4  10  19  34  58  84 108 146 198 244 272 324
#     4  11  22  40  59  86 123 155 185 233 298 355
#     4   9  18  35  57  81 110 150 192 233 286 336
#     4  12  22  38  58  93 116 146 198 247 281 329
#     4  10  20  40  63  85 112 153 200 241 276 337
#
# _framework density 24.331388
#
# number of rings (size 3 to 8) (size 9 to 14) (size 15 to 20)
#    0.000    2.000    3.750    2.250    0.000    0.000 
#    0.000    2.500    0.000    0.000    0.000    7.000 
#    0.000    0.000    0.000    0.000    0.000    0.000 
#
# Total GULP energy -89382.536011 kJ/mol
# GULP energy per Si atom -5586.408501 kJ/mol
# Density = 2.427601 g / cm^3
# Si number density = 24.331388 Si / 1000 Ang^3
#
#
#
# Elastic Constant Matrix: (Units=GPa)
#
#
# Indices 1 2 3 4 5 6 
#
# 1 81.4709 27.6998 -8.5408 3.7768 -2.7356 -24.7326
# 2 27.6998 106.4706 19.7759 2.9144 -1.3107 -32.0254
# 3 -8.5408 19.7759 34.9894 -5.3148 -15.6625 -5.6852
# 4 3.7768 2.9144 -5.3148 18.9951 -7.1888 -2.3930
# 5 -2.7356 -1.3107 -15.6625 -7.1888 5.8914 6.2276
# 6 -24.7326 -32.0254 -5.6852 -2.3930 6.2276 51.0898
#
#
#
# Elastic Compliance Matrix: (Units=1/GPa)
#
#
# Indices 1 2 3 4 5 6 
#
# 1 0.014759 -0.001381 -0.001122 -0.006890 -0.012636 0.007372
# 2 -0.001381 0.010127 0.004831 0.008183 0.020047 0.004157
# 3 -0.001122 0.004831 -0.010502 -0.030183 -0.073573 0.008871
# 4 -0.006890 0.008183 -0.030183 0.021310 -0.063159 0.007132
# 5 -0.012636 0.020047 -0.073573 -0.063159 -0.114068 0.009208
# 6 0.007372 0.004157 0.008871 0.007132 0.009208 0.025947
#
#
# Mechanical properties :
#
#
# Convention : Reuss Voigt Hill
#
# Bulk Modulus (GPa) = 52.51515 33.42229 42.96872
# Shear Modulus (GPa) = -98.54889 27.46166 -35.54362
#
# Velocity S-wave (km/s) = -6.37108 3.36319 -3.82621
# Velocity P-wave (km/s) = 5.70007 5.37098 1.34969
#
# Compressibility (1/GPa) = 0.01904212
#
# Stress axis : x y z
#
# Youngs Moduli (GPa) = 67.75355 98.74236 -95.22101
#
# Poissons Ratio (x) = 0.13637 -0.10681
# Poissons Ratio (y) = 0.09357 0.46004
# Poissons Ratio (z) = 0.07600 -0.47706
#
# Static dielectric constant tensor:
#      x y z
#    x 1.984780 -0.009810 -0.040960 
#    y -0.009810 2.021430 0.022300 
#    z -0.040960 0.022300 1.905350 
# 
# From -- ./inp_files/391949.got.cif
#   From: 2010.05.17/outbox.cif.g08.bks.cpg/sg2_196_cif.got.tgz:391949.got - 2010.06.03 11:33:40.
