data_PCOD9083425
_publ_section_title
;
Structure prediction by ZEFSAII (Michael W. Deem and Ramdas Pophale) SiO2 
 PCOD9083425
Probable space group: P -1
;
_chemical_formula_sum "Si O2"
_cell_formula_units_Z 16
_cell_length_a 10.045531
_cell_length_b 10.874351
_cell_length_c 9.350674
_cell_angle_alpha 100.463556
_cell_angle_beta 122.821259
_cell_angle_gamma 94.680066
_cell_volume 823.847254
_symmetry_space_group_name_H-M "P -1"
_symmetry_group_IT_number 2
_symmetry_cell_setting 'triclinic'
loop_
_space_group_symop_operation_xyz
x,y,z
-x,-y,-z
loop_
_atom_site_type_symbol
_atom_site_label
_atom_site_fract_x
_atom_site_fract_y
_atom_site_fract_z
Si Si1 0.980233 0.985501 0.736391
Si Si2 0.158290 0.444510 0.057355
Si Si3 0.834579 0.113755 0.420668
Si Si4 0.533068 0.224956 0.323553
Si Si5 0.738367 0.489006 0.414663
Si Si6 0.517869 0.393658 0.607685
Si Si7 0.025549 0.397220 0.669024
Si Si8 0.163927 0.177351 0.115831
O O1 0.888136 0.877100 0.768753
O O2 0.120680 0.942029 0.715874
O O3 0.872232 0.029134 0.558119
O O4 0.047454 0.100877 0.910068
O O5 0.323925 0.549954 0.195175
O O6 0.163850 0.326507 0.138685
O O7 0.126365 0.388883 0.867952
O O8 0.000000 0.500000 0.000000
O O9 0.653231 0.134233 0.336303
O O10 0.951080 0.255586 0.535888
O O11 0.601300 0.357157 0.303227
O O12 0.540005 0.271828 0.503887
O O13 0.345346 0.166135 0.178704
O O14 0.648678 0.606317 0.406322
O O15 0.849495 0.515800 0.346571
O O16 0.866810 0.461035 0.603417
O O17 0.500000 0.500000 0.500000
#
# Coordination Sequence:
#
# PCOD9083425 Si02
#       8
#     2   2   2   2   2   2   2   2
#     4  10  24  41  64  86 114 160 211 251 291 351
#     4  12  22  35  60  88 122 156 196 245 300 366
#     4  10  21  41  63  87 114 157 208 252 294 346
#     4  10  21  37  63  84 123 155 195 247 302 359
#     4   9  19  36  56  89 119 158 192 239 309 372
#     4  10  19  34  55  87 118 154 189 235 304 365
#     4  10  21  34  61  86 123 156 199 247 298 369
#     4  11  23  41  62  88 121 158 201 249 302 351
#
# _framework density 19.421075999999999
#
# number of rings (size 3 to 8) (size 9 to 14) (size 15 to 20)
#    0.000    1.750    3.750    2.250    1.750    3.500 
#    0.000    0.000    0.000    0.000    0.000    0.000 
#    0.000    0.000    0.000    0.000    0.000    0.000 
#
# Total GULP energy -89186.341468 kJ/mol
# GULP energy per Si atom -5574.146342 kJ/mol
# Density = 1.937687 g / cm^3
# Si number density = 19.421076 Si / 1000 Ang^3
#
#
#
# Elastic Constant Matrix: (Units=GPa)
#
#
# Indices 1 2 3 4 5 6 
#
# 1 104.3395 22.2280 5.9380 -20.9083 1.3490 -12.4111
# 2 22.2280 47.3159 5.1094 -14.4058 -10.3261 -6.8359
# 3 5.9380 5.1094 44.2669 -7.1779 -0.7351 10.6246
# 4 -20.9083 -14.4058 -7.1779 22.5126 -1.5637 -1.9262
# 5 1.3490 -10.3261 -0.7351 -1.5637 26.2911 -2.8110
# 6 -12.4111 -6.8359 10.6246 -1.9262 -2.8110 36.6671
#
#
#
# Elastic Compliance Matrix: (Units=1/GPa)
#
#
# Indices 1 2 3 4 5 6 
#
# 1 0.012773 -0.002057 -0.000891 0.010643 -0.000349 0.004731
# 2 -0.002057 0.032988 -0.001965 0.020327 0.015098 0.008248
# 3 -0.000891 -0.001965 0.025692 0.005396 -0.000528 -0.007869
# 4 0.010643 0.020327 0.005396 0.070832 0.012928 0.010541
# 5 -0.000349 0.015098 -0.000528 0.012928 0.045488 0.007016
# 6 0.004731 0.008248 -0.007869 0.010541 0.007016 0.033783
#
#
# Mechanical properties :
#
#
# Convention : Reuss Voigt Hill
#
# Bulk Modulus (GPa) = 16.22658 29.16367 22.69512
# Shear Modulus (GPa) = 19.84731 27.93727 23.89229
#
# Velocity S-wave (km/s) = 3.20026 3.79687 3.51126
# Velocity P-wave (km/s) = 4.69349 5.85413 5.30564
#
# Compressibility (1/GPa) = 0.06162728
#
# Stress axis : x y z
#
# Youngs Moduli (GPa) = 78.29090 30.31386 38.92324
#
# Poissons Ratio (x) = 0.06234 0.03470
# Poissons Ratio (y) = 0.16102 0.07647
# Poissons Ratio (z) = 0.06979 0.05956
#
# Static dielectric constant tensor:
#      x y z
#    x 1.740550 -0.031390 -0.023820 
#    y -0.031390 1.700720 0.004770 
#    z -0.023820 0.004770 1.702730 
# 
# From -- ./inp_files/180747.got.cif
#   From: 2010.05.17/outbox.cif.g08.bks.cpg/sg2_91_cif.got.tgz:180747.got - 2010.06.03 11:33:40.
