data_PCOD9083782
_publ_section_title
;
Structure prediction by ZEFSAII (Michael W. Deem and Ramdas Pophale) SiO2 
 PCOD9083782
Probable space group: P -1
;
_chemical_formula_sum "Si O2"
_cell_formula_units_Z 12
_cell_length_a 7.779524
_cell_length_b 20.819625
_cell_length_c 11.637068
_cell_angle_alpha 150.468140
_cell_angle_beta 34.891194
_cell_angle_gamma 123.526149
_cell_volume 435.800565
_symmetry_space_group_name_H-M "P -1"
_symmetry_group_IT_number 2
_symmetry_cell_setting 'triclinic'
loop_
_space_group_symop_operation_xyz
x,y,z
-x,-y,-z
loop_
_atom_site_type_symbol
_atom_site_label
_atom_site_fract_x
_atom_site_fract_y
_atom_site_fract_z
Si Si1 0.993038 0.099111 0.004524
Si Si2 0.842536 0.154463 0.903714
Si Si3 0.687295 0.710587 0.881623
Si Si4 0.000447 0.577246 0.273921
Si Si5 0.590204 0.261811 0.700745
Si Si6 0.862435 0.340714 0.004456
O O1 0.668225 0.223708 0.462872
O O2 0.293846 0.139537 0.920400
O O3 0.893950 0.127336 0.968701
O O4 0.139676 0.921578 0.684555
O O5 0.407087 0.274425 0.306032
O O6 0.029129 0.231552 0.855902
O O7 0.000000 0.000000 0.500000
O O8 0.745874 0.676308 0.930772
O O9 0.982576 0.577042 0.423966
O O10 0.304053 0.734310 0.097378
O O11 0.052517 0.415009 0.952940
O O12 0.276177 0.623615 0.166922
O O13 0.500000 0.500000 0.500000
#
# Coordination Sequence:
#
# PCOD9083782 Si02
#       6
#     2   2   2   2   2   2
#     4  10  20  32  51  82 111 138 177 226 269 315
#     4  10  19  34  58  83 107 140 180 227 272 309
#     4   9  17  34  55  75 104 145 181 212 263 323
#     4   9  20  38  57  79 108 144 183 219 265 322
#     4  10  20  34  54  78 111 149 178 213 270 328
#     4   8  17  36  58  77 105 146 182 217 265 319
#
# _framework density 27.535533000000001
#
# number of rings (size 3 to 8) (size 9 to 14) (size 15 to 20)
#    0.000    3.000    0.000    2.500    0.000    4.000 
#    0.000   16.667    0.000   10.000    0.000    0.000 
#    0.000    0.000    0.000    0.000    0.000    0.000 
#
# Total GULP energy -67046.286688 kJ/mol
# GULP energy per Si atom -5587.190557 kJ/mol
# Density = 2.747286 g / cm^3
# Si number density = 27.535533 Si / 1000 Ang^3
#
#
#
# Elastic Constant Matrix: (Units=GPa)
#
#
# Indices 1 2 3 4 5 6 
#
# 1 157.3600 63.8749 38.3709 9.5265 24.8558 -17.4237
# 2 63.8749 202.7987 36.1358 11.0953 21.1915 -3.2944
# 3 38.3709 36.1358 103.4384 -3.3127 23.4800 0.1319
# 4 9.5265 11.0953 -3.3127 55.5816 -3.1696 17.0355
# 5 24.8558 21.1915 23.4800 -3.1696 47.0674 -3.8753
# 6 -17.4237 -3.2944 0.1319 17.0355 -3.8753 59.0266
#
#
#
# Elastic Compliance Matrix: (Units=1/GPa)
#
#
# Indices 1 2 3 4 5 6 
#
# 1 0.008452 -0.001876 -0.001977 -0.002216 -0.002546 0.002867
# 2 -0.001876 0.005899 -0.001131 -0.000986 -0.001169 -0.000014
# 3 -0.001977 -0.001131 0.011835 0.001443 -0.004367 -0.001376
# 4 -0.002216 -0.000986 0.001443 0.020775 0.001750 -0.006593
# 5 -0.002546 -0.001169 -0.004367 0.001750 0.025443 0.000358
# 6 0.002867 -0.000014 -0.001376 -0.006593 0.000358 0.019716
#
#
# Mechanical properties :
#
#
# Convention : Reuss Voigt Hill
#
# Bulk Modulus (GPa) = 61.65713 82.26225 71.95969
# Shear Modulus (GPa) = 46.51390 54.01616 50.26503
#
# Velocity S-wave (km/s) = 4.11449 4.43390 4.27718
# Velocity P-wave (km/s) = 6.70913 7.49349 7.11213
#
# Compressibility (1/GPa) = 0.01621872
#
# Stress axis : x y z
#
# Youngs Moduli (GPa) = 118.31363 169.51203 84.49287
#
# Poissons Ratio (x) = 0.31802 0.16701
# Poissons Ratio (y) = 0.22197 0.09558
# Poissons Ratio (z) = 0.23387 0.19176
#
# Static dielectric constant tensor:
#      x y z
#    x 2.319490 0.025010 -0.043470 
#    y 0.025010 2.229500 -0.003850 
#    z -0.043470 -0.003850 2.173960 
# 
# From -- ./inp_files/403943.got.cif
#   From: 2010.05.17/outbox.cif.g08.bks.cpg/sg2_202_cif.got.tgz:403943.got - 2010.06.03 11:33:40.
