data_PCOD9083158
_publ_section_title
;
Structure prediction by ZEFSAII (Michael W. Deem and Ramdas Pophale) SiO2 
 PCOD9083158
Probable space group: P -1
;
_chemical_formula_sum "Si O2"
_cell_formula_units_Z 16
_cell_length_a 13.421897
_cell_length_b 5.661028
_cell_length_c 11.764305
_cell_angle_alpha 91.587302
_cell_angle_beta 75.076961
_cell_angle_gamma 114.867894
_cell_volume 780.321157
_symmetry_space_group_name_H-M "P -1"
_symmetry_group_IT_number 2
_symmetry_cell_setting 'triclinic'
loop_
_space_group_symop_operation_xyz
x,y,z
-x,-y,-z
loop_
_atom_site_type_symbol
_atom_site_label
_atom_site_fract_x
_atom_site_fract_y
_atom_site_fract_z
Si Si1 0.786714 0.807129 0.672235
Si Si2 0.923047 0.227307 0.460992
Si Si3 0.281753 0.649945 0.468010
Si Si4 0.572453 0.824415 0.610127
Si Si5 0.653635 0.643281 0.363315
Si Si6 0.837450 0.882832 0.121804
Si Si7 0.130455 0.599288 0.001113
Si Si8 0.060881 0.214184 0.199950
O O1 0.767196 0.520995 0.632029
O O2 0.669067 0.820581 0.669380
O O3 0.838188 0.855097 0.783786
O O4 0.884692 0.002800 0.563213
O O5 0.803424 0.231497 0.465578
O O6 0.000000 0.500000 0.500000
O O7 0.984905 0.197378 0.331433
O O8 0.286441 0.473997 0.566868
O O9 0.404178 0.874569 0.400567
O O10 0.598094 0.768775 0.471658
O O11 0.449046 0.600698 0.670063
O O12 0.745822 0.822154 0.249209
O O13 0.822586 0.601079 0.072194
O O14 0.819666 0.096789 0.048239
O O15 0.967608 0.021113 0.135931
O O16 0.118776 0.505757 0.134253
O O17 0.000000 0.500000 0.000000
#
# Coordination Sequence:
#
# PCOD9083158 Si02
#       8
#     2   2   2   2   2   2   2   2
#     4  10  21  35  51  85 119 149 189 228 295 374
#     4  11  22  31  52  85 125 152 187 230 295 376
#     4  10  19  34  50  86 117 149 188 229 290 377
#     4   9  20  38  54  89 113 151 197 235 301 365
#     4  10  21  35  62  80 117 152 195 251 297 349
#     4  11  24  41  61  91 117 156 208 254 302 347
#     4  10  24  42  58  87 120 157 212 249 294 358
#     4  11  21  37  58  82 119 161 186 248 299 354
#
# _framework density 20.504379
#
# number of rings (size 3 to 8) (size 9 to 14) (size 15 to 20)
#    0.000    1.750    1.250    4.500    7.000    1.000 
#    0.000    0.000    0.000    1.500    0.000    0.000 
#    0.000    0.000    0.000    0.000    0.000    0.000 
#
# Total GULP energy -89149.235391 kJ/mol
# GULP energy per Si atom -5571.827212 kJ/mol
# Density = 2.045771 g / cm^3
# Si number density = 20.504379 Si / 1000 Ang^3
#
#
#
# Elastic Constant Matrix: (Units=GPa)
#
#
# Indices 1 2 3 4 5 6 
#
# 1 70.6046 14.7311 33.7825 -11.0317 15.4221 3.1537
# 2 14.7311 102.4964 32.6999 -15.4513 4.4522 5.9632
# 3 33.7825 32.6999 79.5036 -19.8262 17.4969 -3.2731
# 4 -11.0317 -15.4513 -19.8262 26.6798 -4.7546 -3.7956
# 5 15.4221 4.4522 17.4969 -4.7546 25.1280 -3.5793
# 6 3.1537 5.9632 -3.2731 -3.7956 -3.5793 35.6934
#
#
#
# Elastic Compliance Matrix: (Units=1/GPa)
#
#
# Indices 1 2 3 4 5 6 
#
# 1 0.019152 -0.000053 -0.006188 0.001540 -0.007550 -0.002844
# 2 -0.000053 0.011714 -0.004280 0.003562 0.001350 -0.001831
# 3 -0.006188 -0.004280 0.021320 0.009888 -0.007924 0.003474
# 4 0.001540 0.003562 0.009888 0.048581 0.001513 0.005493
# 5 -0.007550 0.001350 -0.007924 0.001513 0.050701 0.004960
# 6 -0.002844 -0.001831 0.003474 0.005493 0.004960 0.029974
#
#
# Mechanical properties :
#
#
# Convention : Reuss Voigt Hill
#
# Bulk Modulus (GPa) = 32.10706 46.11464 39.11085
# Shear Modulus (GPa) = 23.48908 28.92629 26.20769
#
# Velocity S-wave (km/s) = 3.38829 3.76005 3.57900
# Velocity P-wave (km/s) = 5.56776 6.43348 6.01621
#
# Compressibility (1/GPa) = 0.03114580
#
# Stress axis : x y z
#
# Youngs Moduli (GPa) = 52.21423 85.36565 46.90343
#
# Poissons Ratio (x) = 0.00452 0.29022
# Poissons Ratio (y) = 0.00276 0.20074
# Poissons Ratio (z) = 0.32308 0.36535
#
# Static dielectric constant tensor:
#      x y z
#    x 1.793900 -0.007040 0.006590 
#    y -0.007040 1.852040 0.011710 
#    z 0.006590 0.011710 1.745740 
# 
# From -- ./inp_files/77783.got.cif
#   From: 2010.05.17/outbox.cif.g08.bks.cpg/sg2_39_cif.got.tgz:77783.got - 2010.06.03 11:33:40.
