data_PCOD9083286
_publ_section_title
;
Structure prediction by ZEFSAII (Michael W. Deem and Ramdas Pophale) SiO2 
 PCOD9083286
Probable space group: P -1
;
_chemical_formula_sum "Si O2"
_cell_formula_units_Z 16
_cell_length_a 8.005570
_cell_length_b 19.352277
_cell_length_c 11.162132
_cell_angle_alpha 30.324709
_cell_angle_beta 108.689291
_cell_angle_gamma 86.193614
_cell_volume 576.443400
_symmetry_space_group_name_H-M "P -1"
_symmetry_group_IT_number 2
_symmetry_cell_setting 'triclinic'
loop_
_space_group_symop_operation_xyz
x,y,z
-x,-y,-z
loop_
_atom_site_type_symbol
_atom_site_label
_atom_site_fract_x
_atom_site_fract_y
_atom_site_fract_z
Si Si1 0.754337 0.517135 0.938249
Si Si2 0.162784 0.278546 0.908935
Si Si3 0.530488 0.814660 0.088965
Si Si4 0.479342 0.656615 0.891090
Si Si5 0.327186 0.931041 0.103211
Si Si6 0.965876 0.396192 0.926173
Si Si7 0.945948 0.910764 0.969866
Si Si8 0.264044 0.772599 0.917321
O O1 0.733076 0.536959 0.048811
O O2 0.570686 0.734932 0.517332
O O3 0.983840 0.391007 0.082681
O O4 0.619726 0.443911 0.996062
O O5 0.403475 0.139586 0.084167
O O6 0.000000 0.500000 0.500000
O O7 0.193861 0.261662 0.084083
O O8 0.004648 0.234070 0.897162
O O9 0.381599 0.970835 0.928910
O O10 0.780147 0.617728 0.504448
O O11 0.380153 0.767608 0.072634
O O12 0.463138 0.693109 0.974270
O O13 0.266694 0.871326 0.460651
O O14 0.158130 0.094683 0.920932
O O15 0.174800 0.879106 0.107367
O O16 0.810449 0.343128 0.941335
O O17 0.000000 0.000000 0.500000
#
# Coordination Sequence:
#
# PCOD9083286 Si02
#       8
#     2   2   2   2   2   2   2   2
#     4   8  16  30  51  77 101 128 168 216 266 306
#     4  10  21  34  51  76 110 144 174 212 260 315
#     4  10  20  34  51  75 103 138 177 212 259 312
#     4   9  17  30  49  76 104 131 166 212 263 307
#     4   9  18  33  57  80 101 131 175 224 260 302
#     4   9  18  34  53  73  99 136 177 218 256 305
#     4  10  19  34  54  79 106 134 173 219 262 306
#     4  11  20  31  53  78 104 135 173 221 262 305
#
# _framework density 27.756411
#
# number of rings (size 3 to 8) (size 9 to 14) (size 15 to 20)
#    0.000    2.500    0.000    2.625    0.000    5.500 
#    0.000    2.500    0.000    0.750    0.000    5.250 
#    0.000    0.000    0.000    0.000    0.000    0.125 
#
# Total GULP energy -89541.647119 kJ/mol
# GULP energy per Si atom -5596.352945 kJ/mol
# Density = 2.769324 g / cm^3
# Si number density = 27.756411 Si / 1000 Ang^3
#
#
#
# Elastic Constant Matrix: (Units=GPa)
#
#
# Indices 1 2 3 4 5 6 
#
# 1 114.7218 56.1377 23.8706 3.9935 -9.8805 -37.9184
# 2 56.1377 259.6419 20.9001 1.9857 -3.8822 -48.1488
# 3 23.8706 20.9001 129.2771 10.3020 -7.8452 12.6210
# 4 3.9935 1.9857 10.3020 18.0148 6.3110 -7.4607
# 5 -9.8805 -3.8822 -7.8452 6.3110 23.6238 6.8964
# 6 -37.9184 -48.1488 12.6210 -7.4607 6.8964 86.8890
#
#
#
# Elastic Compliance Matrix: (Units=1/GPa)
#
#
# Indices 1 2 3 4 5 6 
#
# 1 0.011546 -0.001491 -0.002111 -0.000379 0.002738 0.004269
# 2 -0.001491 0.004644 -0.000921 0.001763 -0.001312 0.002312
# 3 -0.002111 -0.000921 0.009700 -0.008634 0.005670 -0.004032
# 4 -0.000379 0.001763 -0.008634 0.073548 -0.025419 0.010398
# 5 0.002738 -0.001312 0.005670 -0.025419 0.053924 -0.006819
# 6 0.004269 0.002312 -0.004032 0.010398 -0.006819 0.016673
#
#
# Mechanical properties :
#
#
# Convention : Reuss Voigt Hill
#
# Bulk Modulus (GPa) = 59.37429 78.38420 68.87924
# Shear Modulus (GPa) = 27.07165 52.55435 39.81300
#
# Velocity S-wave (km/s) = 3.12641 4.35606 3.79142
# Velocity P-wave (km/s) = 5.87114 7.32132 6.63596
#
# Compressibility (1/GPa) = 0.01684231
#
# Stress axis : x y z
#
# Youngs Moduli (GPa) = 86.61292 215.35142 103.09387
#
# Poissons Ratio (x) = 0.32105 0.21767
# Poissons Ratio (y) = 0.12912 0.09497
# Poissons Ratio (z) = 0.18287 0.19839
#
# Static dielectric constant tensor:
#      x y z
#    x 2.309420 -0.070170 -0.002970 
#    y -0.070170 2.208910 -0.032360 
#    z -0.002970 -0.032360 2.003180 
# 
# From -- ./inp_files/223472.got.cif
#   From: 2010.05.17/outbox.cif.g08.bks.cpg/sg2_112_cif.got.tgz:223472.got - 2010.06.03 11:33:40.
