data_PCOD9083867
_publ_section_title
;
Structure prediction by ZEFSAII (Michael W. Deem and Ramdas Pophale) SiO2 
 PCOD9083867
Probable space group: P -1
;
_chemical_formula_sum "Si O2"
_cell_formula_units_Z 16
_cell_length_a 9.555772
_cell_length_b 9.529400
_cell_length_c 11.169228
_cell_angle_alpha 92.168298
_cell_angle_beta 43.518353
_cell_angle_gamma 78.809371
_cell_volume 662.590938
_symmetry_space_group_name_H-M "P -1"
_symmetry_group_IT_number 2
_symmetry_cell_setting 'triclinic'
loop_
_space_group_symop_operation_xyz
x,y,z
-x,-y,-z
loop_
_atom_site_type_symbol
_atom_site_label
_atom_site_fract_x
_atom_site_fract_y
_atom_site_fract_z
Si Si1 0.568639 0.681209 0.017840
Si Si2 0.108617 0.783209 0.703291
Si Si3 0.954943 0.466345 0.390864
Si Si4 0.363200 0.622169 0.930243
Si Si5 0.671154 0.457906 0.287479
Si Si6 0.628441 0.960066 0.043849
Si Si7 0.234225 0.986051 0.792782
Si Si8 0.144498 0.309759 0.754617
O O1 0.807380 0.612604 0.814410
O O2 0.414561 0.727371 0.998773
O O3 0.565160 0.813335 0.110141
O O4 0.518767 0.545508 0.105820
O O5 0.115580 0.667333 0.802169
O O6 0.149391 0.667724 0.563774
O O7 0.877193 0.905577 0.845319
O O8 0.268710 0.864026 0.661341
O O9 0.000000 0.500000 0.500000
O O10 0.848654 0.612859 0.378598
O O11 0.431530 0.616200 0.752213
O O12 0.111823 0.650690 0.074012
O O13 0.500000 0.500000 0.500000
O O14 0.746585 0.599347 0.222860
O O15 0.616951 0.043382 0.180862
O O16 0.500000 0.000000 0.000000
O O17 0.229777 0.137213 0.732783
O O18 0.000000 0.000000 0.000000
#
# Coordination Sequence:
#
# PCOD9083867 Si02
#       8
#     2   2   2   2   2   2   2   2
#     4   9  20  32  54  91 119 153 208 262 323 371
#     4   9  21  38  57  91 122 165 213 255 318 383
#     4   9  19  38  62  88 129 169 213 271 320 383
#     4  10  19  34  58  88 121 152 205 273 315 379
#     4  11  23  38  64  91 122 169 220 259 324 387
#     4  10  20  33  57  90 125 160 202 260 324 368
#     4  10  20  37  63  91 129 166 210 267 319 391
#     4  10  21  38  63  91 121 171 214 264 336 377
#
# _framework density 24.147628999999998
#
# number of rings (size 3 to 8) (size 9 to 14) (size 15 to 20)
#    0.000    2.250    0.000    3.375    8.750    1.000 
#    0.000    1.250    0.000    3.000    0.000    0.000 
#    0.000    0.000    0.000    0.000    0.000    0.000 
#
# Total GULP energy -89094.458818 kJ/mol
# GULP energy per Si atom -5568.403676 kJ/mol
# Density = 2.409267 g / cm^3
# Si number density = 24.147629 Si / 1000 Ang^3
#
#
#
# Elastic Constant Matrix: (Units=GPa)
#
#
# Indices 1 2 3 4 5 6 
#
# 1 174.3575 60.1344 38.1926 7.0036 43.4124 14.7727
# 2 60.1344 130.6968 15.4122 0.6660 23.1599 23.3732
# 3 38.1926 15.4122 56.5571 3.0993 9.4215 5.7747
# 4 7.0036 0.6660 3.0993 18.3755 10.5318 10.9177
# 5 43.4124 23.1599 9.4215 10.5318 42.0423 4.4188
# 6 14.7727 23.3732 5.7747 10.9177 4.4188 56.1112
#
#
#
# Elastic Compliance Matrix: (Units=1/GPa)
#
#
# Indices 1 2 3 4 5 6 
#
# 1 0.009480 -0.002255 -0.004484 0.002384 -0.008042 -0.000926
# 2 -0.002255 0.010226 -0.000432 0.005528 -0.004133 -0.004372
# 3 -0.004484 -0.000432 0.020860 -0.001932 0.000727 -0.000468
# 4 0.002384 0.005528 -0.001932 0.075825 -0.022417 -0.015720
# 5 -0.008042 -0.004133 0.000727 -0.022417 0.039291 0.005032
# 6 -0.000926 -0.004372 -0.000468 -0.015720 0.005032 0.022597
#
#
# Mechanical properties :
#
#
# Convention : Reuss Voigt Hill
#
# Bulk Modulus (GPa) = 38.13267 65.45443 51.79355
# Shear Modulus (GPa) = 24.83106 39.83060 32.33083
#
# Velocity S-wave (km/s) = 3.21019 4.06576 3.66304
# Velocity P-wave (km/s) = 5.43748 7.01465 6.27581
#
# Compressibility (1/GPa) = 0.02622423
#
# Stress axis : x y z
#
# Youngs Moduli (GPa) = 105.48275 97.79296 47.93972
#
# Poissons Ratio (x) = 0.22048 0.21496
# Poissons Ratio (y) = 0.23782 0.02071
# Poissons Ratio (z) = 0.47298 0.04225
#
# Static dielectric constant tensor:
#      x y z
#    x 2.063600 -0.024580 0.017130 
#    y -0.024580 2.032640 0.017630 
#    z 0.017130 0.017630 1.979380 
# 
# From -- ./inp_files/379022.got.cif
#   From: 2010.05.17/outbox.cif.g08.bks.cpg/sg2_190_cif.got.tgz:379022.got - 2010.06.03 11:33:40.
