data_PCOD9083417
_publ_section_title
;
Structure prediction by ZEFSAII (Michael W. Deem and Ramdas Pophale) SiO2 
 PCOD9083417
Probable space group: P -1
;
_chemical_formula_sum "Si O2"
_cell_formula_units_Z 14
_cell_length_a 19.556136
_cell_length_b 8.316348
_cell_length_c 12.619183
_cell_angle_alpha 71.208481
_cell_angle_beta 149.354061
_cell_angle_gamma 128.510588
_cell_volume 691.359384
_symmetry_space_group_name_H-M "P -1"
_symmetry_group_IT_number 2
_symmetry_cell_setting 'triclinic'
loop_
_space_group_symop_operation_xyz
x,y,z
-x,-y,-z
loop_
_atom_site_type_symbol
_atom_site_label
_atom_site_fract_x
_atom_site_fract_y
_atom_site_fract_z
Si Si1 0.886626 0.299590 0.800128
Si Si2 0.848338 0.624123 0.040023
Si Si3 0.204171 0.496993 0.513563
Si Si4 0.229173 0.170130 0.252226
Si Si5 0.877743 0.333919 0.268797
Si Si6 0.772899 0.829736 0.510466
Si Si7 0.449011 0.138034 0.950949
O O1 0.759675 0.314178 0.559063
O O2 0.767612 0.024897 0.734632
O O3 0.000000 0.500000 0.000000
O O4 0.051503 0.382802 0.922657
O O5 0.712545 0.641765 0.799976
O O6 0.779495 0.414852 0.071792
O O7 0.027058 0.883585 0.278648
O O8 0.184587 0.310745 0.457708
O O9 0.018704 0.381765 0.359210
O O10 0.373696 0.631678 0.795235
O O11 0.302307 0.258444 0.450660
O O12 0.000000 0.000000 0.000000
O O13 0.000000 0.500000 0.500000
O O14 0.725236 0.057732 0.160384
O O15 0.623321 0.801657 0.248616
O O16 0.500000 0.000000 0.000000
#
# Coordination Sequence:
#
# PCOD9083417 Si02
#       7
#     2   2   2   2   2   2   2
#     4   9  15  29  55  83 109 145 188 225 278 331
#     4   9  17  32  53  80 113 144 186 232 274 333
#     4  11  22  35  58  86 113 149 186 237 279 332
#     4   8  15  28  51  80 109 143 185 231 272 333
#     4  11  21  39  57  83 112 152 190 227 282 335
#     4  10  19  34  55  85 115 145 190 229 283 333
#     4  12  22  38  59  80 115 151 189 231 281 335
#
# _framework density 20.249959
#
# number of rings (size 3 to 8) (size 9 to 14) (size 15 to 20)
#    0.000    2.286    2.857    4.714    0.000    0.571 
#    0.000    0.000    0.000   11.143    0.000    0.000 
#    0.000    1.143    0.000    0.000    0.000    0.000 
#
# Total GULP energy -78100.959690 kJ/mol
# GULP energy per Si atom -5578.639978 kJ/mol
# Density = 2.020387 g / cm^3
# Si number density = 20.249959 Si / 1000 Ang^3
#
#
#
# Elastic Constant Matrix: (Units=GPa)
#
#
# Indices 1 2 3 4 5 6 
#
# 1 71.5839 53.5608 34.5127 -0.0909 -17.5019 -22.9353
# 2 53.5608 91.8690 50.0077 -36.5055 -13.7842 -9.6994
# 3 34.5127 50.0077 99.8692 -32.9897 -22.3430 1.8747
# 4 -0.0909 -36.5055 -32.9897 46.2234 3.0500 -7.0785
# 5 -17.5019 -13.7842 -22.3430 3.0500 29.6822 5.8964
# 6 -22.9353 -9.6994 1.8747 -7.0785 5.8964 39.1383
#
#
#
# Elastic Compliance Matrix: (Units=1/GPa)
#
#
# Indices 1 2 3 4 5 6 
#
# 1 0.051160 -0.034856 -0.009656 -0.032513 0.007100 0.014854
# 2 -0.034856 0.043846 0.001246 0.035152 -0.002286 -0.002918
# 3 -0.009656 0.001246 0.019240 0.013299 0.009039 -0.005228
# 4 -0.032513 0.035152 0.013299 0.058656 0.001248 -0.000558
# 5 0.007100 -0.002286 0.009039 0.001248 0.044140 -0.003263
# 6 0.014854 -0.002918 -0.005228 -0.000558 -0.003263 0.034173
#
#
# Mechanical properties :
#
#
# Convention : Reuss Voigt Hill
#
# Bulk Modulus (GPa) = 36.08583 59.94271 48.01427
# Shear Modulus (GPa) = 14.40983 31.35815 22.88399
#
# Velocity S-wave (km/s) = 2.67047 3.93944 3.36531
# Velocity P-wave (km/s) = 5.23139 7.09633 6.23399
#
# Compressibility (1/GPa) = 0.02771171
#
# Stress axis : x y z
#
# Youngs Moduli (GPa) = 19.54671 22.80712 51.97515
#
# Poissons Ratio (x) = 0.79497 0.50189
# Poissons Ratio (y) = 0.68133 -0.06475
# Poissons Ratio (z) = 0.18875 -0.02841
#
# Static dielectric constant tensor:
#      x y z
#    x 1.751570 0.013510 0.057720 
#    y 0.013510 1.809520 -0.024070 
#    z 0.057720 -0.024070 1.815480 
# 
# From -- ./inp_files/401314.got.cif
#   From: 2010.05.17/outbox.cif.g08.bks.cpg/sg2_201_cif.got.tgz:401314.got - 2010.06.03 11:33:40.
