data_PCOD9083953
_publ_section_title
;
Structure prediction by ZEFSAII (Michael W. Deem and Ramdas Pophale) SiO2 
 PCOD9083953
Probable space group: P -1
;
_chemical_formula_sum "Si O2"
_cell_formula_units_Z 16
_cell_length_a 7.439451
_cell_length_b 8.688192
_cell_length_c 19.190300
_cell_angle_alpha 50.408183
_cell_angle_beta 136.537405
_cell_angle_gamma 123.678676
_cell_volume 647.532377
_symmetry_space_group_name_H-M "P -1"
_symmetry_group_IT_number 2
_symmetry_cell_setting 'triclinic'
loop_
_space_group_symop_operation_xyz
x,y,z
-x,-y,-z
loop_
_atom_site_type_symbol
_atom_site_label
_atom_site_fract_x
_atom_site_fract_y
_atom_site_fract_z
Si Si1 0.226698 0.762243 0.629869
Si Si2 0.775131 0.116887 0.876001
Si Si3 0.382968 0.691050 0.994523
Si Si4 0.716417 0.897845 0.151536
Si Si5 0.374787 0.216200 0.522613
Si Si6 0.179513 0.392947 0.632253
Si Si7 0.516602 0.729543 0.856599
Si Si8 0.343197 0.580660 0.330757
O O1 0.308619 0.576803 0.665051
O O2 0.280064 0.719742 0.737846
O O3 0.914422 0.766861 0.530965
O O4 0.378604 0.980213 0.585535
O O5 0.563511 0.126357 0.875987
O O6 0.864795 0.335742 0.801546
O O7 0.656628 0.962980 0.825421
O O8 0.000000 0.000000 0.000000
O O9 0.438334 0.703590 0.923482
O O10 0.197643 0.861282 0.904927
O O11 0.630623 0.780360 0.089570
O O12 0.319918 0.451235 0.061893
O O13 0.905632 0.792509 0.284865
O O14 0.361030 0.345332 0.411257
O O15 0.612739 0.331483 0.604300
O O16 0.390001 0.319584 0.662274
O O17 0.000000 0.500000 0.500000
#
# Coordination Sequence:
#
# PCOD9083953 Si02
#       8
#     2   2   2   2   2   2   2   2
#     4  11  21  37  63  89 119 157 203 247 303 357
#     4  10  21  38  59  80 117 163 199 234 303 359
#     4   9  18  33  55  84 112 143 191 247 289 335
#     4   9  19  35  57  84 119 151 191 250 290 348
#     4  10  22  37  61  89 120 155 199 249 301 355
#     4  11  21  37  61  89 122 161 197 242 306 358
#     4  10  19  34  59  85 115 153 199 250 293 351
#     4  10  21  40  59  87 125 156 197 250 295 362
#
# _framework density 24.709188000000001
#
# number of rings (size 3 to 8) (size 9 to 14) (size 15 to 20)
#    0.000    2.000    3.750    0.000    0.000    3.500 
#    0.000    0.625    2.750    0.000    0.000    0.000 
#    0.000    0.000    0.000    0.000    0.000    0.000 
#
# Total GULP energy -89166.804753 kJ/mol
# GULP energy per Si atom -5572.925297 kJ/mol
# Density = 2.465295 g / cm^3
# Si number density = 24.709188 Si / 1000 Ang^3
#
#
#
# Elastic Constant Matrix: (Units=GPa)
#
#
# Indices 1 2 3 4 5 6 
#
# 1 53.0969 10.9565 32.6752 1.7345 0.7837 -10.7828
# 2 10.9565 93.0150 25.2193 -28.1582 -15.1347 -19.7512
# 3 32.6752 25.2193 157.7546 -26.7140 -26.5963 -12.6964
# 4 1.7345 -28.1582 -26.7140 50.7334 1.4214 -10.2190
# 5 0.7837 -15.1347 -26.5963 1.4214 33.7135 -6.2271
# 6 -10.7828 -19.7512 -12.6964 -10.2190 -6.2271 26.3399
#
#
#
# Elastic Compliance Matrix: (Units=1/GPa)
#
#
# Indices 1 2 3 4 5 6 
#
# 1 0.024178 -0.005182 -0.007146 -0.007721 -0.008657 -0.002475
# 2 -0.005182 0.034424 0.010648 0.033972 0.031684 0.049495
# 3 -0.007146 0.010648 0.014431 0.017968 0.019951 0.023703
# 4 -0.007721 0.033972 0.017968 0.059978 0.038789 0.063414
# 5 -0.008657 0.031684 0.019951 0.038789 0.069516 0.061315
# 6 -0.002475 0.049495 0.023703 0.063414 0.061315 0.124590
#
#
# Mechanical properties :
#
#
# Convention : Reuss Voigt Hill
#
# Bulk Modulus (GPa) = 14.35280 49.06315 31.70798
# Shear Modulus (GPa) = 14.13632 37.82506 25.98069
#
# Velocity S-wave (km/s) = 2.39447 3.91680 3.24614
# Velocity P-wave (km/s) = 3.66960 6.35252 5.18751
#
# Compressibility (1/GPa) = 0.06967280
#
# Stress axis : x y z
#
# Youngs Moduli (GPa) = 41.36070 29.04962 69.29639
#
# Poissons Ratio (x) = 0.15054 0.49516
# Poissons Ratio (y) = 0.21434 -0.73787
# Poissons Ratio (z) = 0.29555 -0.30932
#
# Static dielectric constant tensor:
#      x y z
#    x 2.003790 0.045660 -0.000830 
#    y 0.045660 2.002750 -0.000340 
#    z -0.000830 -0.000340 2.105050 
# 
# From -- ./inp_files/207902.got.cif
#   From: 2010.05.17/outbox.cif.g08.bks.cpg/sg2_104_cif.got.tgz:207902.got - 2010.06.03 11:33:40.
