data_PCOD9083145
_publ_section_title
;
Structure prediction by ZEFSAII (Michael W. Deem and Ramdas Pophale) SiO2 
 PCOD9083145
Probable space group: P -1
;
_chemical_formula_sum "Si O2"
_cell_formula_units_Z 16
_cell_length_a 22.775394
_cell_length_b 12.716976
_cell_length_c 14.080185
_cell_angle_alpha 30.944974
_cell_angle_beta 159.288669
_cell_angle_gamma 156.844133
_cell_volume 567.064290
_symmetry_space_group_name_H-M "P -1"
_symmetry_group_IT_number 2
_symmetry_cell_setting 'triclinic'
loop_
_space_group_symop_operation_xyz
x,y,z
-x,-y,-z
loop_
_atom_site_type_symbol
_atom_site_label
_atom_site_fract_x
_atom_site_fract_y
_atom_site_fract_z
Si Si1 0.670647 0.417569 0.626485
Si Si2 0.872543 0.690914 0.035937
Si Si3 0.703848 0.536810 0.378226
Si Si4 0.191827 0.157953 0.872730
Si Si5 0.593849 0.781927 0.326059
Si Si6 0.155854 0.490321 0.675022
Si Si7 0.464692 0.961807 0.136403
Si Si8 0.232461 0.851045 0.321651
O O1 0.785813 0.551477 0.596815
O O2 0.679160 0.640089 0.521571
O O3 0.715051 0.281742 0.879668
O O4 0.435295 0.141169 0.447113
O O5 0.769727 0.593999 0.059390
O O6 0.046522 0.682947 0.252127
O O7 0.652464 0.476691 0.813733
O O8 0.000000 0.000000 0.000000
O O9 0.448596 0.394107 0.101739
O O10 0.710731 0.325657 0.496327
O O11 0.820704 0.808556 0.284457
O O12 0.144760 0.915784 0.048593
O O13 0.061512 0.247111 0.650574
O O14 0.640611 0.939500 0.373236
O O15 0.606689 0.961088 0.121980
O O16 0.382133 0.774676 0.771591
O O17 0.000000 0.500000 0.500000
#
# Coordination Sequence:
#
# PCOD9083145 Si02
#       8
#     2   2   2   2   2   2   2   2
#     4  11  19  33  54  76 108 143 183 228 269 321
#     4  11  18  34  54  79 113 140 175 224 279 327
#     4  10  21  32  51  79 111 146 188 224 272 325
#     4  10  19  34  49  79 116 144 176 227 283 320
#     4  10  22  36  54  80 109 146 179 224 275 331
#     4  11  21  33  56  85 113 141 174 229 282 329
#     4  10  21  36  53  80 111 142 185 218 275 333
#     4  11  20  32  54  82 112 144 180 229 277 322
#
# _framework density 28.215494
#
# number of rings (size 3 to 8) (size 9 to 14) (size 15 to 20)
#    0.000    1.500    2.500    6.375    0.000    3.000 
#    0.000    0.000    0.000    0.750    0.000   28.000 
#    0.000    0.000    0.000    0.000    0.000    0.000 
#
# Total GULP energy -89297.547665 kJ/mol
# GULP energy per Si atom -5581.096729 kJ/mol
# Density = 2.815127 g / cm^3
# Si number density = 28.215494 Si / 1000 Ang^3
#
#
#
# Elastic Constant Matrix: (Units=GPa)
#
#
# Indices 1 2 3 4 5 6 
#
# 1 156.4947 20.8671 20.6854 -11.1666 -11.5569 10.2558
# 2 20.8671 102.8085 26.6815 -17.8870 2.7404 0.1226
# 3 20.6854 26.6815 78.7003 -17.3815 13.8316 0.2168
# 4 -11.1666 -17.8870 -17.3815 40.8484 1.1942 -6.8921
# 5 -11.5569 2.7404 13.8316 1.1942 61.7799 -19.2826
# 6 10.2558 0.1226 0.2168 -6.8921 -19.2826 38.4187
#
#
#
# Elastic Compliance Matrix: (Units=1/GPa)
#
#
# Indices 1 2 3 4 5 6 
#
# 1 0.006938 -0.000921 -0.001618 0.000588 0.001361 -0.001051
# 2 -0.000921 0.011271 -0.002810 0.003647 0.000191 0.000976
# 3 -0.001618 -0.002810 0.015930 0.005092 -0.004089 -0.000788
# 4 0.000588 0.003647 0.005092 0.029245 -0.000215 0.004941
# 5 0.001361 0.000191 -0.004089 -0.000215 0.020435 0.009877
# 6 -0.001051 0.000976 -0.000788 0.004941 0.009877 0.032155
#
#
# Mechanical properties :
#
#
# Convention : Reuss Voigt Hill
#
# Bulk Modulus (GPa) = 42.65984 52.71907 47.68945
# Shear Modulus (GPa) = 37.17866 46.19403 41.68634
#
# Velocity S-wave (km/s) = 3.63391 4.05061 3.84790
# Velocity P-wave (km/s) = 5.72356 6.37193 6.05643
#
# Compressibility (1/GPa) = 0.02344125
#
# Stress axis : x y z
#
# Youngs Moduli (GPa) = 144.13299 88.72071 62.77568
#
# Poissons Ratio (x) = 0.08172 0.10156
# Poissons Ratio (y) = 0.13276 0.17639
# Poissons Ratio (z) = 0.23319 0.24930
#
# Static dielectric constant tensor:
#      x y z
#    x 2.128080 -0.011820 -0.100750 
#    y -0.011820 2.124020 -0.630530 
#    z -0.100750 -0.630530 -0.149610 
# 
# From -- ./inp_files/541069.got.cif
#   From: 2010.05.17/outbox.cif.g08.bks.cpg/sg2_271_cif.got.tgz:541069.got - 2010.06.03 11:33:40.
