data_PCOD9083066
_publ_section_title
;
Structure prediction by ZEFSAII (Michael W. Deem and Ramdas Pophale) SiO2 
 PCOD9083066
Probable space group: P -1
;
_chemical_formula_sum "Si O2"
_cell_formula_units_Z 16
_cell_length_a 20.897301
_cell_length_b 10.415712
_cell_length_c 9.548868
_cell_angle_alpha 46.463875
_cell_angle_beta 38.784956
_cell_angle_gamma 31.880551
_cell_volume 685.329753
_symmetry_space_group_name_H-M "P -1"
_symmetry_group_IT_number 2
_symmetry_cell_setting 'triclinic'
loop_
_space_group_symop_operation_xyz
x,y,z
-x,-y,-z
loop_
_atom_site_type_symbol
_atom_site_label
_atom_site_fract_x
_atom_site_fract_y
_atom_site_fract_z
Si Si1 0.168605 0.178074 0.064816
Si Si2 0.773406 0.254974 0.143522
Si Si3 0.091051 0.742779 0.615593
Si Si4 0.274543 0.044803 0.685339
Si Si5 0.052940 0.041742 0.692215
Si Si6 0.001320 0.526793 0.643453
Si Si7 0.360480 0.615957 0.240149
Si Si8 0.453178 0.389824 0.563234
O O1 0.013864 0.298750 0.180961
O O2 0.128746 0.366242 0.112353
O O3 0.260763 0.907388 0.176448
O O4 0.257261 0.124484 0.815676
O O5 0.670540 0.520503 0.188870
O O6 0.733930 0.162472 0.158028
O O7 0.911845 0.187351 0.910089
O O8 0.820518 0.073535 0.330124
O O9 0.252958 0.580007 0.409945
O O10 0.000000 0.000000 0.500000
O O11 0.090162 0.816368 0.720398
O O12 0.144563 0.284088 0.645503
O O13 0.423672 0.895333 0.467292
O O14 0.015097 0.241254 0.500683
O O15 0.000000 0.500000 0.500000
O O16 0.406745 0.517490 0.394268
O O17 0.500000 0.500000 0.000000
O O18 0.500000 0.500000 0.500000
#
# Coordination Sequence:
#
# PCOD9083066 Si02
#       8
#     2   2   2   2   2   2   2   2
#     4  11  22  39  62  93 122 159 208 254 308 358
#     4  10  20  35  60  89 117 155 202 256 293 355
#     4  10  19  33  61  91 116 150 206 258 292 346
#     4  11  22  37  58  90 124 158 202 247 308 363
#     4  11  19  35  61  88 115 155 206 247 304 345
#     4  12  24  39  59  87 127 162 202 254 307 369
#     4  11  20  36  61  94 125 153 198 260 311 351
#     4  10  21  35  57  90 126 156 199 252 304 358
#
# _framework density 23.346425
#
# number of rings (size 3 to 8) (size 9 to 14) (size 15 to 20)
#    0.000    1.250    7.500    0.375    1.750    0.000 
#    0.000    0.625    0.000    2.250    0.000    0.000 
#    0.000    0.000    0.000    0.000    0.000    0.000 
#
# Total GULP energy -89072.456482 kJ/mol
# GULP energy per Si atom -5567.028530 kJ/mol
# Density = 2.329329 g / cm^3
# Si number density = 23.346425 Si / 1000 Ang^3
#
#
#
# Elastic Constant Matrix: (Units=GPa)
#
#
# Indices 1 2 3 4 5 6 
#
# 1 61.9172 10.3506 12.1150 9.3490 10.9238 -3.3309
# 2 10.3506 123.1121 53.8171 30.8081 7.0958 -9.3178
# 3 12.1150 53.8171 101.9807 54.6202 11.8822 3.7287
# 4 9.3490 30.8081 54.6202 61.8907 -2.5619 1.5797
# 5 10.9238 7.0958 11.8822 -2.5619 41.7150 4.8739
# 6 -3.3309 -9.3178 3.7287 1.5797 4.8739 30.5104
#
#
#
# Elastic Compliance Matrix: (Units=1/GPa)
#
#
# Indices 1 2 3 4 5 6 
#
# 1 0.017669 -0.000301 0.000102 -0.002892 -0.005108 0.002790
# 2 -0.000301 0.011094 -0.005444 -0.000813 -0.000797 0.004190
# 3 0.000102 -0.005444 0.023098 -0.017895 -0.006485 -0.002512
# 4 -0.002892 -0.000813 -0.017895 0.033166 0.008193 -0.001403
# 5 -0.005108 -0.000797 -0.006485 0.008193 0.028376 -0.004966
# 6 0.002790 0.004190 -0.002512 -0.001403 -0.004966 0.035533
#
#
# Mechanical properties :
#
#
# Convention : Reuss Voigt Hill
#
# Bulk Modulus (GPa) = 24.64551 48.84170 36.74360
# Shear Modulus (GPa) = 28.77729 40.87172 34.82451
#
# Velocity S-wave (km/s) = 3.51468 4.18863 3.86637
# Velocity P-wave (km/s) = 5.20096 6.66023 5.97531
#
# Compressibility (1/GPa) = 0.04057535
#
# Stress axis : x y z
#
# Youngs Moduli (GPa) = 56.59641 90.13777 43.29302
#
# Poissons Ratio (x) = 0.02710 -0.00440
# Poissons Ratio (y) = 0.01702 0.23569
# Poissons Ratio (z) = -0.00575 0.49071
#
# Static dielectric constant tensor:
#      x y z
#    x 2.062720 0.004120 0.013020 
#    y 0.004120 1.973270 0.042070 
#    z 0.013020 0.042070 2.087910 
# 
# From -- ./inp_files/353432.got.cif
#   From: 2010.05.17/outbox.cif.g08.bks.cpg/sg2_177_cif.got.tgz:353432.got - 2010.06.03 11:33:40.
