data_PCOD9083460
_publ_section_title
;
Structure prediction by ZEFSAII (Michael W. Deem and Ramdas Pophale) SiO2 
 PCOD9083460
Probable space group: P -1
;
_chemical_formula_sum "Si O2"
_cell_formula_units_Z 14
_cell_length_a 18.949593
_cell_length_b 7.690427
_cell_length_c 7.942335
_cell_angle_alpha 63.845548
_cell_angle_beta 57.597928
_cell_angle_gamma 31.691174
_cell_volume 513.081928
_symmetry_space_group_name_H-M "P -1"
_symmetry_group_IT_number 2
_symmetry_cell_setting 'triclinic'
loop_
_space_group_symop_operation_xyz
x,y,z
-x,-y,-z
loop_
_atom_site_type_symbol
_atom_site_label
_atom_site_fract_x
_atom_site_fract_y
_atom_site_fract_z
Si Si1 0.201705 0.257313 0.297940
Si Si2 0.563171 0.811432 0.175247
Si Si3 0.722453 0.174414 0.043691
Si Si4 0.740689 0.504700 0.660212
Si Si5 0.457432 0.519191 0.354957
Si Si6 0.940733 0.730591 0.228747
Si Si7 0.776484 0.377374 0.319688
O O1 0.200270 0.480457 0.267092
O O2 0.134549 0.270146 0.539538
O O3 0.107512 0.392324 0.197002
O O4 0.359246 0.873383 0.250959
O O5 0.648986 0.462067 0.149820
O O6 0.689957 0.674998 0.175018
O O7 0.415870 0.106086 0.342474
O O8 0.500000 0.000000 0.000000
O O9 0.599918 0.241106 0.179030
O O10 0.868200 0.843070 0.092531
O O11 0.736507 0.288227 0.816347
O O12 0.827093 0.367317 0.435726
O O13 0.500000 0.500000 0.500000
O O14 0.353066 0.529708 0.499901
O O15 0.898535 0.023961 0.225730
#
# Coordination Sequence:
#
# PCOD9083460 Si02
#       7
#     2   2   2   2   2   2   2
#     4  10  19  34  59  80 100 145 190 219 262 320
#     4   9  17  31  51  79 107 135 176 220 255 311
#     4  10  19  34  56  80 108 139 184 224 261 324
#     4  11  21  31  54  84 113 137 173 231 278 312
#     4  11  17  34  60  78 102 144 182 222 263 321
#     4   9  20  37  57  76 101 147 193 214 255 332
#     4  10  20  33  53  81 114 141 174 223 279 315
#
# _framework density 27.286092
#
# number of rings (size 3 to 8) (size 9 to 14) (size 15 to 20)
#    0.000    2.000    5.714    0.429    0.000    1.714 
#    0.000    0.000    0.000    7.714    0.000    0.000 
#    0.000    0.000    0.000    0.000    0.000    0.000 
#
# Total GULP energy -78197.590077 kJ/mol
# GULP energy per Si atom -5585.542148 kJ/mol
# Density = 2.722399 g / cm^3
# Si number density = 27.286092 Si / 1000 Ang^3
#
#
#
# Elastic Constant Matrix: (Units=GPa)
#
#
# Indices 1 2 3 4 5 6 
#
# 1 73.2629 36.3339 25.2613 -7.8823 6.5851 -5.6222
# 2 36.3339 134.1041 19.6112 -24.0432 6.7764 -25.6858
# 3 25.2613 19.6112 92.9193 -20.9596 16.9666 -13.3844
# 4 -7.8823 -24.0432 -20.9596 29.6737 -5.9872 14.8824
# 5 6.5851 6.7764 16.9666 -5.9872 40.3193 -6.0155
# 6 -5.6222 -25.6858 -13.3844 14.8824 -6.0155 47.1087
#
#
#
# Elastic Compliance Matrix: (Units=1/GPa)
#
#
# Indices 1 2 3 4 5 6 
#
# 1 0.017099 -0.004502 -0.004085 -0.001546 -0.000722 -0.001178
# 2 -0.004502 0.010285 0.000909 0.006074 0.000036 0.003414
# 3 -0.004085 0.000909 0.014515 0.008621 -0.004183 0.000874
# 4 -0.001546 0.006074 0.008621 0.049561 0.001488 -0.009890
# 5 -0.000722 0.000036 -0.004183 0.001488 0.027155 0.001742
# 6 -0.001178 0.003414 0.000874 -0.009890 0.001742 0.026544
#
#
# Mechanical properties :
#
#
# Convention : Reuss Voigt Hill
#
# Bulk Modulus (GPa) = 37.67486 51.41102 44.54294
# Shear Modulus (GPa) = 29.52253 38.02567 33.77410
#
# Velocity S-wave (km/s) = 3.29289 3.73713 3.52202
# Velocity P-wave (km/s) = 5.31929 6.12405 5.73580
#
# Compressibility (1/GPa) = 0.02654290
#
# Stress axis : x y z
#
# Youngs Moduli (GPa) = 58.48400 97.23031 68.89334
#
# Poissons Ratio (x) = 0.43769 0.28142
# Poissons Ratio (y) = 0.26327 -0.06259
# Poissons Ratio (z) = 0.23890 -0.08834
#
# Static dielectric constant tensor:
#      x y z
#    x 2.272710 -0.010220 -0.090630 
#    y -0.010220 2.160720 -0.049350 
#    z -0.090630 -0.049350 2.260960 
# 
# From -- ./inp_files/192483.got.cif
#   From: 2010.05.17/outbox.cif.g08.bks.cpg/sg2_97_cif.got.tgz:192483.got - 2010.06.03 11:33:40.
