data_PCOD9083394
_publ_section_title
;
Structure prediction by ZEFSAII (Michael W. Deem and Ramdas Pophale) SiO2 
 PCOD9083394
Probable space group: P -1
;
_chemical_formula_sum "Si O2"
_cell_formula_units_Z 14
_cell_length_a 7.591646
_cell_length_b 15.037712
_cell_length_c 8.885927
_cell_angle_alpha 89.313674
_cell_angle_beta 91.809464
_cell_angle_gamma 33.860880
_cell_volume 563.603865
_symmetry_space_group_name_H-M "P -1"
_symmetry_group_IT_number 2
_symmetry_cell_setting 'triclinic'
loop_
_space_group_symop_operation_xyz
x,y,z
-x,-y,-z
loop_
_atom_site_type_symbol
_atom_site_label
_atom_site_fract_x
_atom_site_fract_y
_atom_site_fract_z
Si Si1 0.508389 0.258206 0.456344
Si Si2 0.785792 0.720815 0.060156
Si Si3 0.436265 0.345983 0.109232
Si Si4 0.975826 0.771973 0.832835
Si Si5 0.328934 0.483202 0.645343
Si Si6 0.222757 0.037683 0.455824
Si Si7 0.013476 0.714508 0.352454
O O1 0.390820 0.331612 0.282449
O O2 0.337924 0.377358 0.591754
O O3 0.865703 0.146826 0.464796
O O4 0.540465 0.140225 0.488877
O O5 0.771728 0.815351 0.958280
O O6 0.538186 0.750990 0.995731
O O7 0.127269 0.530326 0.049298
O O8 0.818514 0.738334 0.230734
O O9 0.727304 0.292015 0.107832
O O10 0.106825 0.629358 0.751299
O O11 0.796868 0.911511 0.710522
O O12 0.208504 0.576001 0.482619
O O13 0.686677 0.357900 0.709166
O O14 0.211042 0.122554 0.572166
#
# Coordination Sequence:
#
# PCOD9083394 Si02
#       7
#     2   2   2   2   2   2   2
#     4   9  15  32  54  77 102 141 177 217 257 312
#     4  11  20  32  54  80 112 137 169 217 268 310
#     4  10  20  32  53  80 108 139 174 212 266 312
#     4  10  19  34  55  82 104 137 175 218 262 311
#     4   9  15  28  54  75 102 136 178 217 258 300
#     4   8  17  30  57  76 101 140 181 213 263 306
#     4   9  15  29  50  77 100 140 176 212 257 315
#
# _framework density 24.840143999999999
#
# number of rings (size 3 to 8) (size 9 to 14) (size 15 to 20)
#    0.000    2.571    2.857    2.143    0.000    0.000 
#    0.000    2.143    3.143    3.429    0.000    0.000 
#    0.000    0.000    0.000    0.000    0.000    0.000 
#
# Total GULP energy -78256.917569 kJ/mol
# GULP energy per Si atom -5589.779826 kJ/mol
# Density = 2.478361 g / cm^3
# Si number density = 24.840144 Si / 1000 Ang^3
#
#
#
# Elastic Constant Matrix: (Units=GPa)
#
#
# Indices 1 2 3 4 5 6 
#
# 1 108.7976 43.2843 52.4519 2.3187 22.4320 30.1804
# 2 43.2843 98.5134 23.7429 1.8415 6.0681 33.1941
# 3 52.4519 23.7429 123.0726 11.8840 18.3173 29.8983
# 4 2.3187 1.8415 11.8840 22.2942 14.2354 4.9140
# 5 22.4320 6.0681 18.3173 14.2354 45.3013 -5.1844
# 6 30.1804 33.1941 29.8983 4.9140 -5.1844 43.9449
#
#
#
# Elastic Compliance Matrix: (Units=1/GPa)
#
#
# Indices 1 2 3 4 5 6 
#
# 1 0.016436 -0.002939 -0.003674 0.008824 -0.010033 -0.008739
# 2 -0.002939 0.014915 0.001177 0.002810 -0.003130 -0.010732
# 3 -0.003674 0.001177 0.011715 -0.002653 -0.002973 -0.006390
# 4 0.008824 0.002810 -0.002653 0.065546 -0.026193 -0.016798
# 5 -0.010033 -0.003130 -0.002973 -0.026193 0.039048 0.018813
# 6 -0.008739 -0.010732 -0.006390 -0.016798 0.018813 0.045310
#
#
# Mechanical properties :
#
#
# Convention : Reuss Voigt Hill
#
# Bulk Modulus (GPa) = 31.06100 63.26021 47.16061
# Shear Modulus (GPa) = 23.30207 36.36837 29.83522
#
# Velocity S-wave (km/s) = 3.06613 3.83050 3.46943
# Velocity P-wave (km/s) = 5.00664 6.71460 5.92251
#
# Compressibility (1/GPa) = 0.03219471
#
# Stress axis : x y z
#
# Youngs Moduli (GPa) = 60.84030 67.04735 85.36008
#
# Poissons Ratio (x) = 0.19702 0.31360
# Poissons Ratio (y) = 0.17878 -0.10044
# Poissons Ratio (z) = 0.22352 -0.07889
#
# Static dielectric constant tensor:
#      x y z
#    x 2.091060 -0.034290 -0.017540 
#    y -0.034290 1.939090 0.046880 
#    z -0.017540 0.046880 1.959420 
# 
# From -- ./inp_files/202617.got.cif
#   From: 2010.05.17/outbox.cif.g08.bks.cpg/sg2_102_cif.got.tgz:202617.got - 2010.06.03 11:33:40.
