data_PCOD9083595
_publ_section_title
;
Structure prediction by ZEFSAII (Michael W. Deem and Ramdas Pophale) SiO2 
 PCOD9083595
Probable space group: P -1
;
_chemical_formula_sum "Si O2"
_cell_formula_units_Z 16
_cell_length_a 10.895400
_cell_length_b 19.006078
_cell_length_c 14.866169
_cell_angle_alpha 159.955684
_cell_angle_beta 140.036724
_cell_angle_gamma 47.260475
_cell_volume 665.639382
_symmetry_space_group_name_H-M "P -1"
_symmetry_group_IT_number 2
_symmetry_cell_setting 'triclinic'
loop_
_space_group_symop_operation_xyz
x,y,z
-x,-y,-z
loop_
_atom_site_type_symbol
_atom_site_label
_atom_site_fract_x
_atom_site_fract_y
_atom_site_fract_z
Si Si1 0.458675 0.263874 0.590853
Si Si2 0.820187 0.729192 0.011860
Si Si3 0.158842 0.658129 0.340901
Si Si4 0.314527 0.284640 0.728598
Si Si5 0.970484 0.714918 0.697889
Si Si6 0.082907 0.872165 0.761165
Si Si7 0.477337 0.995626 0.843035
Si Si8 0.130160 0.049247 0.498849
O O1 0.437946 0.237786 0.655183
O O2 0.250011 0.293272 0.469951
O O3 0.518446 0.070886 0.340138
O O4 0.601034 0.481337 0.911550
O O5 0.023205 0.813394 0.175327
O O6 0.640028 0.820306 0.980352
O O7 0.833481 0.841444 0.252421
O O8 0.795683 0.486463 0.726217
O O9 0.361451 0.777591 0.556623
O O10 0.045728 0.848290 0.517046
O O11 0.000000 0.500000 0.000000
O O12 0.099031 0.285327 0.570155
O O13 0.295262 0.123003 0.606596
O O14 0.000000 0.500000 0.500000
O O15 0.102745 0.785653 0.769902
O O16 0.000877 0.911445 0.018506
O O17 0.299418 0.934968 0.919846
#
# Coordination Sequence:
#
# PCOD9083595 Si02
#       8
#     2   2   2   2   2   2   2   2
#     4   9  19  34  56  82 109 145 180 214 267 325
#     4   9  18  33  55  81 102 135 186 226 262 314
#     4   9  17  32  54  78 104 134 175 227 269 305
#     4  10  19  36  54  77 116 147 170 217 277 321
#     4   9  18  36  56  75 105 147 188 220 253 310
#     4   9  20  35  52  77 109 143 180 219 265 320
#     4  10  19  34  57  81 105 139 182 224 263 318
#     4   9  18  32  53  77 105 140 177 222 269 313
#
# _framework density 24.037039
#
# number of rings (size 3 to 8) (size 9 to 14) (size 15 to 20)
#    0.000    2.750    0.000    3.000    0.000    3.000 
#    0.000   10.000    0.000    1.500    0.000    0.000 
#    0.000    0.000    0.000    0.000    0.000    0.000 
#
# Total GULP energy -89274.701257 kJ/mol
# GULP energy per Si atom -5579.668829 kJ/mol
# Density = 2.398233 g / cm^3
# Si number density = 24.037039 Si / 1000 Ang^3
#
#
#
# Elastic Constant Matrix: (Units=GPa)
#
#
# Indices 1 2 3 4 5 6 
#
# 1 66.6774 15.6735 34.9058 11.5699 20.5924 12.7242
# 2 15.6735 56.0989 41.8398 25.7601 9.8423 -5.7494
# 3 34.9058 41.8398 142.6683 2.6483 31.5317 -4.0831
# 4 11.5699 25.7601 2.6483 47.7644 5.9187 4.3179
# 5 20.5924 9.8423 31.5317 5.9187 42.0265 3.3887
# 6 12.7242 -5.7494 -4.0831 4.3179 3.3887 25.8216
#
#
#
# Elastic Compliance Matrix: (Units=1/GPa)
#
#
# Indices 1 2 3 4 5 6 
#
# 1 0.021731 -0.002635 -0.003413 -0.001902 -0.006341 -0.010685
# 2 -0.002635 0.034980 -0.009396 -0.018899 0.001964 0.010504
# 3 -0.003413 -0.009396 0.011839 0.005860 -0.005937 0.001261
# 4 -0.001902 -0.018899 0.005860 0.032300 -0.002995 -0.007353
# 5 -0.006341 0.001964 -0.005937 -0.002995 0.031398 -0.000997
# 6 -0.010685 0.010504 0.001261 -0.007353 -0.000997 0.047891
#
#
# Mechanical properties :
#
#
# Convention : Reuss Voigt Hill
#
# Bulk Modulus (GPa) = 26.55241 50.03144 38.29193
# Shear Modulus (GPa) = 22.36309 34.65751 28.51030
#
# Velocity S-wave (km/s) = 3.05349 3.80127 3.44771
# Velocity P-wave (km/s) = 4.84790 6.33449 5.64039
#
# Compressibility (1/GPa) = 0.03766136
#
# Stress axis : x y z
#
# Youngs Moduli (GPa) = 46.01716 28.58763 84.46350
#
# Poissons Ratio (x) = 0.07533 0.28828
# Poissons Ratio (y) = 0.12126 0.79365
# Poissons Ratio (z) = 0.15706 0.26862
#
# Static dielectric constant tensor:
#      x y z
#    x 2.136280 0.078110 -0.029100 
#    y 0.078110 1.975120 -0.034030 
#    z -0.029100 -0.034030 1.909320 
# 
# From -- ./inp_files/570630.got.cif
#   From: 2010.05.17/outbox.cif.g08.bks.cpg/sg2_286_cif.got.tgz:570630.got - 2010.06.03 11:33:40.
