data_PCOD9083844
_publ_section_title
;
Structure prediction by ZEFSAII (Michael W. Deem and Ramdas Pophale) SiO2 
 PCOD9083844
Probable space group: P -1
;
_chemical_formula_sum "Si O2"
_cell_formula_units_Z 16
_cell_length_a 4.911582
_cell_length_b 20.428510
_cell_length_c 7.750356
_cell_angle_alpha 121.156109
_cell_angle_beta 67.857760
_cell_angle_gamma 107.547715
_cell_volume 610.808502
_symmetry_space_group_name_H-M "P -1"
_symmetry_group_IT_number 2
_symmetry_cell_setting 'triclinic'
loop_
_space_group_symop_operation_xyz
x,y,z
-x,-y,-z
loop_
_atom_site_type_symbol
_atom_site_label
_atom_site_fract_x
_atom_site_fract_y
_atom_site_fract_z
Si Si1 0.034274 0.829773 0.311777
Si Si2 0.212314 0.169732 0.232245
Si Si3 0.279588 0.557749 0.935755
Si Si4 0.156215 0.340428 0.465089
Si Si5 0.336423 0.917716 0.870149
Si Si6 0.576260 0.917512 0.426236
Si Si7 0.286639 0.559611 0.463760
Si Si8 0.176170 0.341963 0.882281
O O1 0.910702 0.830627 0.540541
O O2 0.909000 0.898983 0.334883
O O3 0.909231 0.745929 0.157858
O O4 0.384675 0.850533 0.271566
O O5 0.168801 0.253108 0.285893
O O6 0.541638 0.149287 0.140920
O O7 0.015596 0.100339 0.083864
O O8 0.501990 0.496855 0.751311
O O9 0.871159 0.376408 0.514689
O O10 0.503912 0.619425 0.075251
O O11 0.000000 0.500000 0.000000
O O12 0.459977 0.393722 0.411583
O O13 0.163749 0.340845 0.673741
O O14 0.451323 0.908716 0.637199
O O15 0.500000 0.000000 0.000000
O O16 0.500000 0.000000 0.500000
O O17 0.000000 0.500000 0.500000
O O18 0.916472 0.391558 0.066220
#
# Coordination Sequence:
#
# PCOD9083844 Si02
#       8
#     2   2   2   2   2   2   2   2
#     4   9  19  35  56  89 120 153 198 250 314 364
#     4   9  19  35  58  89 117 150 201 259 307 358
#     4  12  24  39  62  96 124 157 209 266 321 363
#     4  11  22  39  65  90 120 161 210 263 313 368
#     4  10  19  34  58  89 120 154 201 257 306 357
#     4  10  19  34  58  86 122 161 200 242 304 386
#     4  12  26  42  61  89 126 173 209 249 315 393
#     4  11  22  37  65  93 123 153 206 277 317 352
#
# _framework density 26.194790000000001
#
# number of rings (size 3 to 8) (size 9 to 14) (size 15 to 20)
#    0.000    1.500    1.250    4.500    0.000    4.000 
#    0.000    0.000   11.000    0.000    0.000    0.000 
#    0.000    0.000    0.000    0.000    0.000    0.000 
#
# Total GULP energy -89460.144436 kJ/mol
# GULP energy per Si atom -5591.259027 kJ/mol
# Density = 2.613517 g / cm^3
# Si number density = 26.194790 Si / 1000 Ang^3
#
#
#
# Elastic Constant Matrix: (Units=GPa)
#
#
# Indices 1 2 3 4 5 6 
#
# 1 215.2458 51.1086 33.0102 31.8723 1.5091 -2.0104
# 2 51.1086 90.2815 42.7096 42.3431 2.6434 -18.9693
# 3 33.0102 42.7096 63.7792 23.6951 11.6853 3.9579
# 4 31.8723 42.3431 23.6951 56.8308 10.2202 -3.3926
# 5 1.5091 2.6434 11.6853 10.2202 42.2245 5.5915
# 6 -2.0104 -18.9693 3.9579 -3.3926 5.5915 49.3748
#
#
#
# Elastic Compliance Matrix: (Units=1/GPa)
#
#
# Indices 1 2 3 4 5 6 
#
# 1 0.005493 -0.002314 -0.000941 -0.001112 0.000575 -0.000731
# 2 -0.002314 0.026822 -0.013153 -0.013323 0.003957 0.009901
# 3 -0.000941 -0.013153 0.026434 -0.000086 -0.005565 -0.006586
# 4 -0.001112 -0.013323 -0.000086 0.029077 -0.005809 -0.002501
# 5 0.000575 0.003957 -0.005565 -0.005809 0.026548 -0.001416
# 6 -0.000731 0.009901 -0.006586 -0.002501 -0.001416 0.024544
#
#
# Mechanical properties :
#
#
# Convention : Reuss Voigt Hill
#
# Bulk Modulus (GPa) = 38.55953 69.21818 53.88886
# Shear Modulus (GPa) = 27.71922 45.85123 36.78522
#
# Velocity S-wave (km/s) = 3.25652 4.18831 3.75146
# Velocity P-wave (km/s) = 5.37514 7.06194 6.27548
#
# Compressibility (1/GPa) = 0.02593392
#
# Stress axis : x y z
#
# Youngs Moduli (GPa) = 182.04114 37.28260 37.82937
#
# Poissons Ratio (x) = 0.08627 0.03558
# Poissons Ratio (y) = 0.42124 0.49759
# Poissons Ratio (z) = 0.17122 0.49040
#
# Static dielectric constant tensor:
#      x y z
#    x 1.956970 -0.027960 0.031040 
#    y -0.027960 2.223050 -0.266940 
#    z 0.031040 -0.266940 2.378600 
# 
# From -- ./inp_files/111348.got.cif
#   From: 2010.05.17/outbox.cif.g08.bks.cpg/sg2_56_cif.got.tgz:111348.got - 2010.06.03 11:33:40.
