data_PCOD9083787
_publ_section_title
;
Structure prediction by ZEFSAII (Michael W. Deem and Ramdas Pophale) SiO2 
 PCOD9083787
Probable space group: P -1
;
_chemical_formula_sum "Si O2"
_cell_formula_units_Z 14
_cell_length_a 24.792183
_cell_length_b 10.386628
_cell_length_c 15.013489
_cell_angle_alpha 151.186625
_cell_angle_beta 161.980044
_cell_angle_gamma 28.866773
_cell_volume 552.457471
_symmetry_space_group_name_H-M "P -1"
_symmetry_group_IT_number 2
_symmetry_cell_setting 'triclinic'
loop_
_space_group_symop_operation_xyz
x,y,z
-x,-y,-z
loop_
_atom_site_type_symbol
_atom_site_label
_atom_site_fract_x
_atom_site_fract_y
_atom_site_fract_z
Si Si1 0.110312 0.197181 0.390164
Si Si2 0.495423 0.867195 0.773271
Si Si3 0.309221 0.346486 0.382401
Si Si4 0.019682 0.111358 0.853004
Si Si5 0.587792 0.606395 0.930131
Si Si6 0.707730 0.995984 0.019112
Si Si7 0.938621 0.304219 0.504555
O O1 0.279543 0.940886 0.469348
O O2 0.045396 0.406618 0.334332
O O3 0.986297 0.068716 0.178272
O O4 0.213354 0.373306 0.721331
O O5 0.563904 0.597662 0.780720
O O6 0.534756 0.101567 0.042847
O O7 0.579749 0.934482 0.856447
O O8 0.164423 0.632667 0.292273
O O9 0.505460 0.398716 0.730615
O O10 0.344150 0.117830 0.222112
O O11 0.190456 0.238968 0.202660
O O12 0.029702 0.916692 0.662599
O O13 0.904893 0.802016 0.242064
O O14 0.749259 0.291496 0.245291
#
# Coordination Sequence:
#
# PCOD9083787 Si02
#       7
#     2   2   2   2   2   2   2
#     4  10  19  35  61  83 106 141 192 229 262 318
#     4   9  18  34  60  80 109 141 191 218 268 330
#     4  10  19  34  58  83 112 142 182 224 277 324
#     4  10  19  35  58  81 107 146 186 228 259 324
#     4   9  17  34  58  83 104 143 183 224 269 321
#     4  10  21  35  54  83 109 150 180 223 274 333
#     4  10  21  36  57  79 111 146 192 221 265 324
#
# _framework density 25.341317
#
# number of rings (size 3 to 8) (size 9 to 14) (size 15 to 20)
#    0.857    1.429    1.429    2.143    0.000    2.286 
#    0.000    3.571    3.143    0.000    0.000    0.000 
#    0.000    0.000    0.000    0.000    0.000    0.000 
#
# Total GULP energy -78103.254196 kJ/mol
# GULP energy per Si atom -5578.803871 kJ/mol
# Density = 2.528364 g / cm^3
# Si number density = 25.341317 Si / 1000 Ang^3
#
#
#
# Elastic Constant Matrix: (Units=GPa)
#
#
# Indices 1 2 3 4 5 6 
#
# 1 92.8823 25.3879 30.8290 20.1242 42.8707 27.8755
# 2 25.3879 77.3802 41.2811 2.6548 14.7081 35.8975
# 3 30.8290 41.2811 27.5990 65.2877 19.2124 32.6585
# 4 20.1242 2.6548 65.2877 14.3172 16.9799 9.0635
# 5 42.8707 14.7081 19.2124 16.9799 34.7805 17.6450
# 6 27.8755 35.8975 32.6585 9.0635 17.6450 40.1043
#
#
#
# Elastic Compliance Matrix: (Units=1/GPa)
#
#
# Indices 1 2 3 4 5 6 
#
# 1 0.025750 -0.001168 0.000415 -0.000968 -0.028826 -0.004289
# 2 -0.001168 0.021029 0.002345 -0.004583 0.003951 -0.020624
# 3 0.000415 0.002345 -0.001677 0.017461 -0.008472 -0.001241
# 4 -0.000968 -0.004583 0.017461 0.001013 -0.002705 -0.008483
# 5 -0.028826 0.003951 -0.008472 -0.002705 0.072648 -0.007953
# 6 -0.004289 -0.020624 -0.001241 -0.008483 -0.007953 0.052804
#
#
# Mechanical properties :
#
#
# Convention : Reuss Voigt Hill
#
# Bulk Modulus (GPa) = 20.70909 43.65082 32.17996
# Shear Modulus (GPa) = 27.10360 24.53131 25.81745
#
# Velocity S-wave (km/s) = 3.27393 3.11470 3.19531
# Velocity P-wave (km/s) = 4.74145 5.49525 5.13220
#
# Compressibility (1/GPa) = 0.04828796
#
# Stress axis : x y z
#
# Youngs Moduli (GPa) = 38.83546 47.55285 -596.41511
#
# Poissons Ratio (x) = 0.05552 0.24764
# Poissons Ratio (y) = 0.04534 1.39872
# Poissons Ratio (z) = -0.01612 -0.11152
#
# Static dielectric constant tensor:
#      x y z
#    x 2.051850 0.017680 0.043550 
#    y 0.017680 2.134330 0.025490 
#    z 0.043550 0.025490 2.013860 
# 
# From -- ./inp_files/542621.got.cif
#   From: 2010.05.17/outbox.cif.g08.bks.cpg/sg2_272_cif.got.tgz:542621.got - 2010.06.03 11:33:40.
