data_PCOD9083264
_publ_section_title
;
Structure prediction by ZEFSAII (Michael W. Deem and Ramdas Pophale) SiO2 
 PCOD9083264
Probable space group: P -1
;
_chemical_formula_sum "Si O2"
_cell_formula_units_Z 16
_cell_length_a 11.478630
_cell_length_b 19.363224
_cell_length_c 10.973481
_cell_angle_alpha 42.270616
_cell_angle_beta 47.514404
_cell_angle_gamma 27.477259
_cell_volume 755.540350
_symmetry_space_group_name_H-M "P -1"
_symmetry_group_IT_number 2
_symmetry_cell_setting 'triclinic'
loop_
_space_group_symop_operation_xyz
x,y,z
-x,-y,-z
loop_
_atom_site_type_symbol
_atom_site_label
_atom_site_fract_x
_atom_site_fract_y
_atom_site_fract_z
Si Si1 0.807663 0.126986 0.321049
Si Si2 0.358489 0.514255 0.719648
Si Si3 0.902146 0.518931 0.178863
Si Si4 0.385720 0.355509 0.126092
Si Si5 0.782769 0.955316 0.747745
Si Si6 0.504463 0.894530 0.989666
Si Si7 0.145422 0.796280 0.373333
Si Si8 0.210623 0.983725 0.851998
O O1 0.570244 0.279370 0.207743
O O2 0.937130 0.156985 0.257474
O O3 0.724968 0.078316 0.535648
O O4 0.029539 0.960485 0.298451
O O5 0.173109 0.559068 0.689289
O O6 0.271054 0.675004 0.558039
O O7 0.629564 0.337830 0.708722
O O8 0.335114 0.480302 0.914754
O O9 0.114934 0.440304 0.228014
O O10 0.654773 0.711615 0.122261
O O11 0.000000 0.500000 0.000000
O O12 0.540271 0.197819 0.137731
O O13 0.706843 0.883922 0.837148
O O14 0.619213 0.036524 0.880638
O O15 0.293156 0.998405 0.897458
O O16 0.902388 0.888660 0.342188
O O17 0.000000 0.000000 0.000000
#
# Coordination Sequence:
#
# PCOD9083264 Si02
#       8
#     2   2   2   2   2   2   2   2
#     4  10  22  41  60  85 119 157 213 248 280 348
#     4  10  19  34  53  96 119 148 180 233 336 353
#     4  10  19  34  58  87 120 146 181 249 309 357
#     4  10  20  34  62  86 115 150 191 243 310 349
#     4  10  24  39  60  83 118 169 206 241 283 342
#     4  11  21  39  63  87 121 160 205 235 297 367
#     4  10  21  32  61  91 119 146 189 257 299 353
#     4  11  18  34  60  92 116 152 190 250 301 353
#
# _framework density 21.176897
#
# number of rings (size 3 to 8) (size 9 to 14) (size 15 to 20)
#    0.000    1.750    3.750    2.250    3.500    1.000 
#    0.000    3.750    0.000    0.000    0.000    0.000 
#    0.000    0.000    0.000    0.000    0.000    0.000 
#
# Total GULP energy -89080.080024 kJ/mol
# GULP energy per Si atom -5567.505002 kJ/mol
# Density = 2.112870 g / cm^3
# Si number density = 21.176897 Si / 1000 Ang^3
#
#
#
# Elastic Constant Matrix: (Units=GPa)
#
#
# Indices 1 2 3 4 5 6 
#
# 1 108.7716 20.0216 36.2448 -4.3901 15.7284 -19.0391
# 2 20.0216 46.3840 5.8129 -11.8337 9.0060 -9.7792
# 3 36.2448 5.8129 81.7550 -9.1776 18.4607 -14.5685
# 4 -4.3901 -11.8337 -9.1776 28.8872 -8.0526 9.9917
# 5 15.7284 9.0060 18.4607 -8.0526 30.2438 -4.0828
# 6 -19.0391 -9.7792 -14.5685 9.9917 -4.0828 31.7492
#
#
#
# Elastic Compliance Matrix: (Units=1/GPa)
#
#
# Indices 1 2 3 4 5 6 
#
# 1 0.012505 -0.004159 -0.004054 -0.003728 -0.003090 0.005134
# 2 -0.004159 0.026911 0.002603 0.008657 -0.004640 0.003669
# 3 -0.004054 0.002603 0.016577 0.002086 -0.007645 0.004338
# 4 -0.003728 0.008657 0.002086 0.044603 0.008402 -0.011569
# 5 -0.003090 -0.004640 -0.007645 0.008402 0.042419 -0.003979
# 6 0.005134 0.003669 0.004338 -0.011569 -0.003979 0.040825
#
#
# Mechanical properties :
#
#
# Convention : Reuss Voigt Hill
#
# Bulk Modulus (GPa) = 22.33418 40.11881 31.22650
# Shear Modulus (GPa) = 23.81135 29.83146 26.82140
#
# Velocity S-wave (km/s) = 3.35685 3.75731 3.56271
# Velocity P-wave (km/s) = 5.05905 6.14889 5.63040
#
# Compressibility (1/GPa) = 0.04477442
#
# Stress axis : x y z
#
# Youngs Moduli (GPa) = 79.96893 37.15979 60.32360
#
# Poissons Ratio (x) = 0.15453 0.24456
# Poissons Ratio (y) = 0.33255 -0.15705
# Poissons Ratio (z) = 0.32421 -0.09674
#
# Static dielectric constant tensor:
#      x y z
#    x 1.842050 -0.012170 -0.038120 
#    y -0.012170 1.773570 0.039580 
#    z -0.038120 0.039580 1.862970 
# 
# From -- ./inp_files/438373.got.cif
#   From: 2010.05.17/outbox.cif.g08.bks.cpg/sg2_220_cif.got.tgz:438373.got - 2010.06.03 11:33:40.
