data_PCOD9083427
_publ_section_title
;
Structure prediction by ZEFSAII (Michael W. Deem and Ramdas Pophale) SiO2 
 PCOD9083427
Probable space group: P -1
;
_chemical_formula_sum "Si O2"
_cell_formula_units_Z 16
_cell_length_a 10.276242
_cell_length_b 13.673523
_cell_length_c 7.959051
_cell_angle_alpha 109.307773
_cell_angle_beta 49.225819
_cell_angle_gamma 78.349825
_cell_volume 648.423084
_symmetry_space_group_name_H-M "P -1"
_symmetry_group_IT_number 2
_symmetry_cell_setting 'triclinic'
loop_
_space_group_symop_operation_xyz
x,y,z
-x,-y,-z
loop_
_atom_site_type_symbol
_atom_site_label
_atom_site_fract_x
_atom_site_fract_y
_atom_site_fract_z
Si Si1 0.996582 0.423868 0.618907
Si Si2 0.421872 0.921056 0.107037
Si Si3 0.836524 0.973131 0.054854
Si Si4 0.587879 0.656243 0.618345
Si Si5 0.149312 0.861559 0.459843
Si Si6 0.793420 0.771112 0.953953
Si Si7 0.503036 0.240473 0.599306
Si Si8 0.365677 0.584363 0.998258
O O1 0.792427 0.455870 0.906938
O O2 0.000000 0.500000 0.500000
O O3 0.165781 0.407729 0.597371
O O4 0.073217 0.299949 0.365776
O O5 0.200079 0.956615 0.392597
O O6 0.492324 0.793570 0.869531
O O7 0.564164 0.876616 0.130159
O O8 0.500000 0.000000 0.000000
O O9 0.606014 0.098038 0.356833
O O10 0.873628 0.845256 0.020308
O O11 0.912985 0.939368 0.778256
O O12 0.000000 0.000000 0.000000
O O13 0.511043 0.682755 0.507719
O O14 0.527198 0.571832 0.717188
O O15 0.327196 0.784441 0.417204
O O16 0.212356 0.739731 0.229630
O O17 0.727156 0.702261 0.094640
O O18 0.500000 0.500000 0.000000
#
# Coordination Sequence:
#
# PCOD9083427 Si02
#       8
#     2   2   2   2   2   2   2   2
#     4  11  22  41  69  90 113 157 213 255 312 356
#     4   9  18  34  57  83 114 159 204 239 295 346
#     4  10  19  34  55  87 120 161 197 232 295 368
#     4  10  22  39  58  93 122 156 199 257 302 365
#     4   9  20  38  60  88 121 162 203 249 297 365
#     4  10  20  37  60  82 118 160 197 247 291 367
#     4  10  21  38  59  85 129 158 196 238 311 365
#     4  11  21  41  70  85 119 158 208 262 306 352
#
# _framework density 24.675246000000001
#
# number of rings (size 3 to 8) (size 9 to 14) (size 15 to 20)
#    0.000    2.000    2.500    1.875    0.000    2.000 
#    9.000    3.125    0.000    0.000    0.000    0.000 
#    0.000    0.000    0.000    0.000    0.000    0.000 
#
# Total GULP energy -89150.949114 kJ/mol
# GULP energy per Si atom -5571.934320 kJ/mol
# Density = 2.461908 g / cm^3
# Si number density = 24.675246 Si / 1000 Ang^3
#
#
#
# Elastic Constant Matrix: (Units=GPa)
#
#
# Indices 1 2 3 4 5 6 
#
# 1 68.5864 31.7261 21.1414 -23.7353 -13.0492 13.9640
# 2 31.7261 125.3583 26.2215 -50.6800 -6.0582 19.9116
# 3 21.1414 26.2215 85.2647 -28.5107 -19.3394 17.3362
# 4 -23.7353 -50.6800 -28.5107 49.4760 12.5993 2.3221
# 5 -13.0492 -6.0582 -19.3394 12.5993 33.5527 -10.6555
# 6 13.9640 19.9116 17.3362 2.3221 -10.6555 44.7018
#
#
#
# Elastic Compliance Matrix: (Units=1/GPa)
#
#
# Indices 1 2 3 4 5 6 
#
# 1 0.019345 -0.000480 -0.000169 0.008338 0.002424 -0.005619
# 2 -0.000480 0.018100 0.002754 0.022373 -0.007523 -0.011936
# 3 -0.000169 0.002754 0.017357 0.012244 0.003382 -0.007736
# 4 0.008338 0.022373 0.012244 0.059284 -0.015579 -0.024112
# 5 0.002424 -0.007523 0.003382 -0.015579 0.040952 0.011853
# 6 -0.005619 -0.011936 -0.007736 -0.024112 0.011853 0.036520
#
#
# Mechanical properties :
#
#
# Convention : Reuss Voigt Hill
#
# Bulk Modulus (GPa) = 16.94542 48.59860 32.77201
# Shear Modulus (GPa) = 24.15253 38.88749 31.52001
#
# Velocity S-wave (km/s) = 3.13200 3.97416 3.57794
# Velocity P-wave (km/s) = 4.46783 6.38722 5.51172
#
# Compressibility (1/GPa) = 0.05901299
#
# Stress axis : x y z
#
# Youngs Moduli (GPa) = 51.69335 55.24910 57.61354
#
# Poissons Ratio (x) = 0.02653 0.00972
# Poissons Ratio (y) = 0.02482 -0.15869
# Poissons Ratio (z) = 0.00872 -0.15218
#
# Static dielectric constant tensor:
#      x y z
#    x 2.029460 0.036090 0.042640 
#    y 0.036090 2.087300 0.032630 
#    z 0.042640 0.032630 2.070800 
# 
# From -- ./inp_files/273057.got.cif
#   From: 2010.05.17/outbox.cif.g08.bks.cpg/sg2_137_cif.got.tgz:273057.got - 2010.06.03 11:33:40.
