data_PCOD9083012
_publ_section_title
;
Structure prediction by ZEFSAII (Michael W. Deem and Ramdas Pophale) SiO2 
 PCOD9083012
Probable space group: P -1
;
_chemical_formula_sum "Si O2"
_cell_formula_units_Z 16
_cell_length_a 11.777521
_cell_length_b 11.669784
_cell_length_c 10.542801
_cell_angle_alpha 37.331618
_cell_angle_beta 88.042699
_cell_angle_gamma 65.590678
_cell_volume 676.948480
_symmetry_space_group_name_H-M "P -1"
_symmetry_group_IT_number 2
_symmetry_cell_setting 'triclinic'
loop_
_space_group_symop_operation_xyz
x,y,z
-x,-y,-z
loop_
_atom_site_type_symbol
_atom_site_label
_atom_site_fract_x
_atom_site_fract_y
_atom_site_fract_z
Si Si1 0.735784 0.257540 0.680754
Si Si2 0.459029 0.591604 0.214998
Si Si3 0.192134 0.569449 0.821582
Si Si4 0.292228 0.059137 0.667758
Si Si5 0.351007 0.795231 0.631361
Si Si6 0.977480 0.911312 0.314819
Si Si7 0.862618 0.449763 0.872882
Si Si8 0.197203 0.181039 0.069570
O O1 0.609592 0.443777 0.419962
O O2 0.664620 0.358533 0.730700
O O3 0.886541 0.205549 0.685174
O O4 0.761521 0.005185 0.880696
O O5 0.490407 0.413978 0.254052
O O6 0.412904 0.847094 0.943892
O O7 0.290195 0.647535 0.775196
O O8 0.051038 0.798452 0.549260
O O9 0.163501 0.507284 0.013500
O O10 0.254424 0.333575 0.939871
O O11 0.336526 0.918346 0.654846
O O12 0.140368 0.127453 0.665007
O O13 0.257916 0.311721 0.414876
O O14 0.254583 0.009692 0.342687
O O15 0.890880 0.200268 0.065041
O O16 0.020954 0.379093 0.904670
#
# Coordination Sequence:
#
# PCOD9083012 Si02
#       8
#     2   2   2   2   2   2   2   2
#     4   9  21  44  67  81 114 162 215 239 280 360
#     4  10  22  43  64  81 120 170 195 243 299 350
#     4  12  18  32  60  90 122 154 196 237 291 355
#     4  12  23  36  62  94 126 151 189 251 317 347
#     4  11  21  38  60  88 123 159 198 242 295 358
#     4  11  21  36  65  93 117 156 200 250 291 348
#     4  11  20  32  54  96 128 149 188 246 307 354
#     4  10  19  33  60  91 115 155 201 245 287 349
#
# _framework density 23.635477999999999
#
# number of rings (size 3 to 8) (size 9 to 14) (size 15 to 20)
#    0.000    1.250    7.500    1.875    0.000    0.500 
#    0.000    6.250    2.750    0.000    0.000    0.000 
#    0.000    0.000    0.000    0.000    0.000    0.000 
#
# Total GULP energy -89464.161544 kJ/mol
# GULP energy per Si atom -5591.510097 kJ/mol
# Density = 2.358168 g / cm^3
# Si number density = 23.635478 Si / 1000 Ang^3
#
#
#
# Elastic Constant Matrix: (Units=GPa)
#
#
# Indices 1 2 3 4 5 6 
#
# 1 59.6370 39.0482 33.6721 -8.9683 -16.9735 -5.6105
# 2 39.0482 82.0552 32.8207 -18.4061 5.1256 -23.5053
# 3 33.6721 32.8207 176.4719 -16.2956 -11.5505 -3.4665
# 4 -8.9683 -18.4061 -16.2956 19.4884 10.2338 4.2899
# 5 -16.9735 5.1256 -11.5505 10.2338 29.8618 -3.1317
# 6 -5.6105 -23.5053 -3.4665 4.2899 -3.1317 15.6979
#
#
#
# Elastic Compliance Matrix: (Units=1/GPa)
#
#
# Indices 1 2 3 4 5 6 
#
# 1 0.048869 -0.039404 -0.002836 -0.034095 0.042574 -0.024351
# 2 -0.039404 0.060957 -0.001054 0.050083 -0.044732 0.054347
# 3 -0.002836 -0.001054 0.006702 0.004063 -0.000474 -0.002316
# 4 -0.034095 0.050083 0.004063 0.115692 -0.064027 0.019314
# 5 0.042574 -0.044732 -0.000474 -0.064027 0.085304 -0.017353
# 6 -0.024351 0.054347 -0.002316 0.019314 -0.017353 0.127124
#
#
# Mechanical properties :
#
#
# Convention : Reuss Voigt Hill
#
# Bulk Modulus (GPa) = 33.40036 58.80514 46.10275
# Shear Modulus (GPa) = 9.23845 27.18448 18.21147
#
# Velocity S-wave (km/s) = 1.97919 3.39507 2.77882
# Velocity P-wave (km/s) = 4.40285 6.34844 5.46296
#
# Compressibility (1/GPa) = 0.02993980
#
# Stress axis : x y z
#
# Youngs Moduli (GPa) = 20.46289 16.40513 149.20025
#
# Poissons Ratio (x) = 0.64643 0.42315
# Poissons Ratio (y) = 0.80632 0.15723
# Poissons Ratio (z) = 0.05804 0.01729
#
# Static dielectric constant tensor:
#      x y z
#    x 1.921540 -0.029660 0.010440 
#    y -0.029660 1.926090 -0.008440 
#    z 0.010440 -0.008440 1.887100 
# 
# From -- ./inp_files/454361.got.cif
#   From: 2010.05.17/outbox.cif.g08.bks.cpg/sg2_228_cif.got.tgz:454361.got - 2010.06.03 11:33:40.
