data_PCOD9083289
_publ_section_title
;
Structure prediction by ZEFSAII (Michael W. Deem and Ramdas Pophale) SiO2 
 PCOD9083289
Probable space group: P -1
;
_chemical_formula_sum "Si O2"
_cell_formula_units_Z 16
_cell_length_a 15.575154
_cell_length_b 7.128151
_cell_length_c 7.625628
_cell_angle_alpha 52.454017
_cell_angle_beta 117.207936
_cell_angle_gamma 105.702591
_cell_volume 596.939322
_symmetry_space_group_name_H-M "P -1"
_symmetry_group_IT_number 2
_symmetry_cell_setting 'triclinic'
loop_
_space_group_symop_operation_xyz
x,y,z
-x,-y,-z
loop_
_atom_site_type_symbol
_atom_site_label
_atom_site_fract_x
_atom_site_fract_y
_atom_site_fract_z
Si Si1 0.275002 0.358416 0.016781
Si Si2 0.712900 0.867940 0.491317
Si Si3 0.848897 0.002447 0.270324
Si Si4 0.068186 0.263490 0.836531
Si Si5 0.403823 0.558375 0.720954
Si Si6 0.491014 0.903105 0.840771
Si Si7 0.681627 0.159602 0.813520
Si Si8 0.893991 0.117368 0.613803
O O1 0.162115 0.427332 0.847599
O O2 0.343496 0.504682 0.871740
O O3 0.300846 0.329459 0.261200
O O4 0.287386 0.089274 0.108476
O O5 0.611370 0.978614 0.280903
O O6 0.778844 0.074203 0.526931
O O7 0.780812 0.814122 0.417641
O O8 0.904862 0.896520 0.218003
O O9 0.912685 0.103110 0.430740
O O10 0.767949 0.186247 0.017462
O O11 0.955077 0.317451 0.659107
O O12 0.073688 0.114470 0.108067
O O13 0.471190 0.780772 0.702250
O O14 0.335442 0.630093 0.457623
O O15 0.469450 0.326546 0.886480
O O16 0.574964 0.093740 0.816358
#
# Coordination Sequence:
#
# PCOD9083289 Si02
#       8
#     2   2   2   2   2   2   2   2
#     4   9  18  32  55  82 109 142 181 231 273 323
#     4   9  18  32  50  79 111 144 181 225 275 321
#     4   9  19  31  55  83 112 148 176 228 279 319
#     4   9  15  32  57  86 111 139 185 224 267 341
#     4  10  20  31  56  83 104 151 191 225 278 321
#     4  10  20  32  54  79 110 147 188 232 270 321
#     4  10  19  34  54  79 109 148 186 226 275 325
#     4   8  17  30  55  88 110 140 185 223 273 327
#
# _framework density 26.803393
#
# number of rings (size 3 to 8) (size 9 to 14) (size 15 to 20)
#    0.750    2.000    1.250    0.750    3.500    0.500 
#    0.000    0.625    8.250    1.500    0.000    0.000 
#    0.000    0.000    0.000    0.000    0.000    0.000 
#
# Total GULP energy -89292.459954 kJ/mol
# GULP energy per Si atom -5580.778747 kJ/mol
# Density = 2.674239 g / cm^3
# Si number density = 26.803393 Si / 1000 Ang^3
#
#
#
# Elastic Constant Matrix: (Units=GPa)
#
#
# Indices 1 2 3 4 5 6 
#
# 1 124.7816 32.1005 60.9805 3.9365 3.5059 13.8992
# 2 32.1005 80.3118 53.9240 9.5823 -1.3029 10.7297
# 3 60.9805 53.9240 211.5396 34.3620 2.8068 9.1729
# 4 3.9365 9.5823 34.3620 42.4944 6.6051 -3.8529
# 5 3.5059 -1.3029 2.8068 6.6051 41.8817 7.0096
# 6 13.8992 10.7297 9.1729 -3.8529 7.0096 35.7141
#
#
#
# Elastic Compliance Matrix: (Units=1/GPa)
#
#
# Indices 1 2 3 4 5 6 
#
# 1 0.010012 -0.002231 -0.002440 0.001428 -0.000579 -0.002332
# 2 -0.002231 0.016116 -0.003077 -0.001548 0.001757 -0.003695
# 3 -0.002440 -0.003077 0.007027 -0.004891 0.000502 -0.000557
# 4 0.001428 -0.001548 -0.004891 0.029013 -0.005309 0.005338
# 5 -0.000579 0.001757 0.000502 -0.005309 0.025799 -0.006068
# 6 -0.002332 -0.003695 -0.000557 0.005338 -0.006068 0.031927
#
#
# Mechanical properties :
#
#
# Convention : Reuss Voigt Hill
#
# Bulk Modulus (GPa) = 56.63218 78.96035 67.79627
# Shear Modulus (GPa) = 35.39159 41.99325 38.69242
#
# Velocity S-wave (km/s) = 3.63769 3.96247 3.80355
# Velocity P-wave (km/s) = 6.23044 7.10337 6.68118
#
# Compressibility (1/GPa) = 0.01765780
#
# Stress axis : x y z
#
# Youngs Moduli (GPa) = 99.88471 62.05075 142.30923
#
# Poissons Ratio (x) = 0.13845 0.34729
# Poissons Ratio (y) = 0.22287 0.43783
# Poissons Ratio (z) = 0.24376 0.19091
#
# Static dielectric constant tensor:
#      x y z
#    x 2.177920 0.024580 -0.022380 
#    y 0.024580 2.171770 0.009110 
#    z -0.022380 0.009110 2.129080 
# 
# From -- ./inp_files/330608.got.cif
#   From: 2010.05.17/outbox.cif.g08.bks.cpg/sg2_166_cif.got.tgz:330608.got - 2010.06.03 11:33:40.
