data_PCOD9083945
_publ_section_title
;
Structure prediction by ZEFSAII (Michael W. Deem and Ramdas Pophale) SiO2 
 PCOD9083945
Probable space group: P -1
;
_chemical_formula_sum "Si O2"
_cell_formula_units_Z 14
_cell_length_a 9.439209
_cell_length_b 9.960839
_cell_length_c 15.099195
_cell_angle_alpha 42.285943
_cell_angle_beta 141.385536
_cell_angle_gamma 137.042338
_cell_volume 554.682640
_symmetry_space_group_name_H-M "P -1"
_symmetry_group_IT_number 2
_symmetry_cell_setting 'triclinic'
loop_
_space_group_symop_operation_xyz
x,y,z
-x,-y,-z
loop_
_atom_site_type_symbol
_atom_site_label
_atom_site_fract_x
_atom_site_fract_y
_atom_site_fract_z
Si Si1 0.879477 0.618974 0.070012
Si Si2 0.386908 0.704229 0.759680
Si Si3 0.703205 0.317966 0.988668
Si Si4 0.395719 0.386192 0.660737
Si Si5 0.474669 0.840618 0.433152
Si Si6 0.150303 0.837215 0.428906
Si Si7 0.348278 0.925480 0.089068
O O1 0.635894 0.664005 0.908761
O O2 0.819987 0.469163 0.199479
O O3 0.914271 0.474690 0.075519
O O4 0.113739 0.834129 0.080380
O O5 0.282825 0.696952 0.613700
O O6 0.445713 0.954044 0.693212
O O7 0.500675 0.174444 0.030036
O O8 0.580215 0.444628 0.805532
O O9 0.745845 0.150260 0.022587
O O10 0.423956 0.592510 0.514806
O O11 0.479458 0.208777 0.741403
O O12 0.127159 0.265787 0.627924
O O13 0.234232 0.844686 0.365569
O O14 0.704872 0.930478 0.570491
#
# Coordination Sequence:
#
# PCOD9083945 Si02
#       7
#     2   2   2   2   2   2   2
#     4  11  20  41  56  77 123 142 185 228 272 336
#     4   9  22  37  56  86 108 154 182 219 281 333
#     4   9  21  35  59  88 102 146 187 229 277 316
#     4  10  19  34  59  85 107 136 187 233 279 312
#     4   9  19  33  56  86 106 149 176 226 284 309
#     4   9  19  35  54  84 114 136 188 229 263 338
#     4   9  22  36  58  88 104 148 189 228 276 319
#
# _framework density 25.239660000000001
#
# number of rings (size 3 to 8) (size 9 to 14) (size 15 to 20)
#    1.714    0.857    0.000    1.714    2.000    1.143 
#    2.571    2.857    0.000    0.000    0.000    0.000 
#    0.000    0.000    0.000    0.000    0.000    0.000 
#
# Total GULP energy -78131.088051 kJ/mol
# GULP energy per Si atom -5580.792004 kJ/mol
# Density = 2.518221 g / cm^3
# Si number density = 25.239660 Si / 1000 Ang^3
#
#
#
# Elastic Constant Matrix: (Units=GPa)
#
#
# Indices 1 2 3 4 5 6 
#
# 1 58.2118 34.2178 24.7739 -10.9381 1.1645 12.2059
# 2 34.2178 107.7216 23.9983 -20.9150 -4.3792 30.4145
# 3 24.7739 23.9983 106.3960 -35.2951 -6.8246 19.2139
# 4 -10.9381 -20.9150 -35.2951 35.7694 5.7061 -6.1573
# 5 1.1645 -4.3792 -6.8246 5.7061 31.7274 -11.0944
# 6 12.2059 30.4145 19.2139 -6.1573 -11.0944 48.6510
#
#
#
# Elastic Compliance Matrix: (Units=1/GPa)
#
#
# Indices 1 2 3 4 5 6 
#
# 1 0.022747 -0.006268 -0.004034 -0.000394 -0.002806 -0.000886
# 2 -0.006268 0.014328 0.001910 0.007262 -0.001317 -0.007521
# 3 -0.004034 0.001910 0.015504 0.014466 -0.000456 -0.004578
# 4 -0.000394 0.007262 0.014466 0.046365 -0.006204 -0.005701
# 5 -0.002806 -0.001317 -0.000456 -0.006204 0.035620 0.009045
# 6 -0.000886 -0.007521 -0.004578 -0.005701 0.009045 0.028628
#
#
# Mechanical properties :
#
#
# Convention : Reuss Voigt Hill
#
# Bulk Modulus (GPa) = 27.93497 48.70103 38.31800
# Shear Modulus (GPa) = 26.05427 35.85218 30.95323
#
# Velocity S-wave (km/s) = 3.21639 3.77300 3.50576
# Velocity P-wave (km/s) = 4.98853 6.19016 5.62154
#
# Compressibility (1/GPa) = 0.03579743
#
# Stress axis : x y z
#
# Youngs Moduli (GPa) = 43.96126 69.79164 64.50085
#
# Poissons Ratio (x) = 0.43742 0.26017
# Poissons Ratio (y) = 0.27553 -0.12321
# Poissons Ratio (z) = 0.17732 -0.13332
#
# Static dielectric constant tensor:
#      x y z
#    x 2.107250 -0.079410 -0.071290 
#    y -0.079410 2.001800 0.029130 
#    z -0.071290 0.029130 1.980470 
# 
# From -- ./inp_files/595351.got.cif
#   From: 2010.05.17/outbox.cif.g08.bks.cpg/sg2_298_cif.got.tgz:595351.got - 2010.06.03 11:33:40.
