data_PCOD9083497
_publ_section_title
;
Structure prediction by ZEFSAII (Michael W. Deem and Ramdas Pophale) SiO2 
 PCOD9083497
Probable space group: P -1
;
_chemical_formula_sum "Si O2"
_cell_formula_units_Z 12
_cell_length_a 15.625266
_cell_length_b 12.014957
_cell_length_c 8.362121
_cell_angle_alpha 137.651837
_cell_angle_beta 146.318666
_cell_angle_gamma 36.060698
_cell_volume 501.774938
_symmetry_space_group_name_H-M "P -1"
_symmetry_group_IT_number 2
_symmetry_cell_setting 'triclinic'
loop_
_space_group_symop_operation_xyz
x,y,z
-x,-y,-z
loop_
_atom_site_type_symbol
_atom_site_label
_atom_site_fract_x
_atom_site_fract_y
_atom_site_fract_z
Si Si1 0.697122 0.448963 0.697789
Si Si2 0.302572 0.171419 0.937433
Si Si3 0.696241 0.075762 0.794270
Si Si4 0.293808 0.600501 0.718289
Si Si5 0.158403 0.936184 0.306067
Si Si6 0.715238 0.744718 0.621582
O O1 0.500000 0.500000 0.500000
O O2 0.705624 0.421914 0.492794
O O3 0.821255 0.242155 0.752950
O O4 0.728738 0.626444 0.967368
O O5 0.170906 0.097470 0.596771
O O6 0.280791 0.201301 0.128631
O O7 0.500000 0.000000 0.000000
O O8 0.676810 0.133470 0.640286
O O9 0.496347 0.166798 0.651924
O O10 0.784826 0.850607 0.728664
O O11 0.790366 0.177274 0.133663
O O12 0.204102 0.482165 0.517916
O O13 0.500000 0.500000 0.000000
O O14 0.000000 0.000000 0.000000
#
# Coordination Sequence:
#
# PCOD9083497 Si02
#       6
#     2   2   2   2   2   2
#     4  11  21  37  66  92 120 164 208 256 303 365
#     4  11  20  38  64  89 119 158 212 256 300 361
#     4  10  19  34  56  83 121 156 195 251 305 355
#     4   9  18  32  55  90 118 144 198 257 305 349
#     4  12  26  41  58  92 131 166 204 251 314 372
#     4   9  18  33  58  90 110 150 205 256 297 349
#
# _framework density 23.915103999999999
#
# number of rings (size 3 to 8) (size 9 to 14) (size 15 to 20)
#    0.000    1.667    3.333    3.000    0.000    3.333 
#    0.000    3.333    0.000    4.000    0.000    0.000 
#    0.000    0.000    0.000    0.000    0.000    0.000 
#
# Total GULP energy -66993.327499 kJ/mol
# GULP energy per Si atom -5582.777292 kJ/mol
# Density = 2.386067 g / cm^3
# Si number density = 23.915104 Si / 1000 Ang^3
#
#
#
# Elastic Constant Matrix: (Units=GPa)
#
#
# Indices 1 2 3 4 5 6 
#
# 1 38.6171 33.9530 20.5096 14.7399 6.1760 24.8617
# 2 33.9530 168.8355 97.7761 43.0255 5.0901 53.0284
# 3 20.5096 97.7761 176.9959 40.4686 8.5286 16.3921
# 4 14.7399 43.0255 40.4686 56.4509 -1.3794 12.5450
# 5 6.1760 5.0901 8.5286 -1.3794 29.3403 2.1173
# 6 24.8617 53.0284 16.3921 12.5450 2.1173 42.2194
#
#
#
# Elastic Compliance Matrix: (Units=1/GPa)
#
#
# Indices 1 2 3 4 5 6 
#
# 1 0.046054 0.002433 -0.002345 -0.006394 -0.007789 -0.026975
# 2 0.002433 0.015618 -0.006340 -0.004149 -0.000323 -0.017339
# 3 -0.002345 -0.006340 0.009569 -0.002923 -0.001801 0.006588
# 4 -0.006394 -0.004149 -0.002923 0.024125 0.003851 0.002750
# 5 -0.007789 -0.000323 -0.001801 0.003851 0.036286 0.002727
# 6 -0.026975 -0.017339 0.006588 0.002750 0.002727 0.057837
#
#
# Mechanical properties :
#
#
# Convention : Reuss Voigt Hill
#
# Bulk Modulus (GPa) = 17.02478 76.54733 46.78606
# Shear Modulus (GPa) = 22.56606 41.08275 31.82440
#
# Velocity S-wave (km/s) = 3.07512 4.14920 3.65187
# Velocity P-wave (km/s) = 4.44329 7.41835 6.11452
#
# Compressibility (1/GPa) = 0.05873792
#
# Stress axis : x y z
#
# Youngs Moduli (GPa) = 21.71351 64.02918 104.50576
#
# Poissons Ratio (x) = -0.15581 0.24510
# Poissons Ratio (y) = -0.05284 0.66253
# Poissons Ratio (z) = 0.05093 0.40592
#
# Static dielectric constant tensor:
#      x y z
#    x 2.033260 -0.053880 0.079490 
#    y -0.053880 2.126860 -0.038500 
#    z 0.079490 -0.038500 1.938530 
# 
# From -- ./inp_files/160600.got.cif
#   From: 2010.05.17/outbox.cif.g08.bks.cpg/sg2_81_cif.got.tgz:160600.got - 2010.06.03 11:33:40.
