data_PCOD9083635
_publ_section_title
;
Structure prediction by ZEFSAII (Michael W. Deem and Ramdas Pophale) SiO2 
 PCOD9083635
Probable space group: P -1
;
_chemical_formula_sum "Si O2"
_cell_formula_units_Z 12
_cell_length_a 12.033298
_cell_length_b 7.623743
_cell_length_c 9.993255
_cell_angle_alpha 88.997167
_cell_angle_beta 144.537030
_cell_angle_gamma 99.040420
_cell_volume 515.423349
_symmetry_space_group_name_H-M "P -1"
_symmetry_group_IT_number 2
_symmetry_cell_setting 'triclinic'
loop_
_space_group_symop_operation_xyz
x,y,z
-x,-y,-z
loop_
_atom_site_type_symbol
_atom_site_label
_atom_site_fract_x
_atom_site_fract_y
_atom_site_fract_z
Si Si1 0.513773 0.807595 0.068340
Si Si2 0.297838 0.055343 0.261505
Si Si3 0.093698 0.553402 0.734579
Si Si4 0.558353 0.675405 0.386679
Si Si5 0.898603 0.325939 0.988959
Si Si6 0.652365 0.689652 0.930795
O O1 0.619701 0.800589 0.313974
O O2 0.297433 0.691052 0.892441
O O3 0.598196 0.715978 0.029956
O O4 0.500000 0.000000 0.000000
O O5 0.302966 0.229983 0.358131
O O6 0.315064 0.130604 0.126587
O O7 0.500000 0.000000 0.500000
O O8 0.127505 0.869971 0.102662
O O9 0.000000 0.500000 0.500000
O O10 0.004500 0.648066 0.767044
O O11 0.149945 0.382063 0.862846
O O12 0.332771 0.673065 0.211292
O O13 0.522279 0.466661 0.306930
O O14 0.000000 0.500000 0.000000
#
# Coordination Sequence:
#
# PCOD9083635 Si02
#       6
#     2   2   2   2   2   2
#     4  10  19  36  60  87 113 146 193 241 283 340
#     4  10  19  34  57  83 109 145 191 237 280 332
#     4  10  22  38  56  83 117 155 191 231 284 339
#     4   9  19  33  54  86 111 142 189 237 282 332
#     4   9  19  36  54  79 115 152 187 231 281 338
#     4  10  19  37  60  86 116 148 191 243 282 337
#
# _framework density 23.281832000000001
#
# number of rings (size 3 to 8) (size 9 to 14) (size 15 to 20)
#    0.000    2.667    0.000    5.500    0.000    4.000 
#    0.000   10.000    0.000    4.000    0.000    1.167 
#    0.000    0.000    0.000    0.000    0.000    0.000 
#
# Total GULP energy -66977.927189 kJ/mol
# GULP energy per Si atom -5581.493932 kJ/mol
# Density = 2.322884 g / cm^3
# Si number density = 23.281832 Si / 1000 Ang^3
#
#
#
# Elastic Constant Matrix: (Units=GPa)
#
#
# Indices 1 2 3 4 5 6 
#
# 1 88.6215 22.2913 26.0484 5.8871 -33.6096 7.1275
# 2 22.2913 125.7187 26.3406 -7.3768 -3.9258 19.6424
# 3 26.0484 26.3406 121.7473 7.8134 -20.5532 14.6859
# 4 5.8871 -7.3768 7.8134 35.3543 -5.8151 -14.2668
# 5 -33.6096 -3.9258 -20.5532 -5.8151 37.6390 -4.7913
# 6 7.1275 19.6424 14.6859 -14.2668 -4.7913 39.9204
#
#
#
# Elastic Compliance Matrix: (Units=1/GPa)
#
#
# Indices 1 2 3 4 5 6 
#
# 1 0.018001 -0.002608 -0.000617 -0.000979 0.015286 -0.000219
# 2 -0.002608 0.009254 -0.001495 0.000861 -0.002497 -0.003530
# 3 -0.000617 -0.001495 0.009934 -0.003194 0.003779 -0.003497
# 4 -0.000979 0.000861 -0.003194 0.035920 0.004847 0.014345
# 5 0.015286 -0.002497 0.003779 0.004847 0.043283 0.004036
# 6 -0.000219 -0.003530 -0.003497 0.014345 0.004036 0.033723
#
#
# Mechanical properties :
#
#
# Convention : Reuss Voigt Hill
#
# Bulk Modulus (GPa) = 36.03891 53.93868 44.98879
# Shear Modulus (GPa) = 29.61977 40.00988 34.81482
#
# Velocity S-wave (km/s) = 3.57070 4.14998 3.87119
# Velocity P-wave (km/s) = 5.70201 6.79567 6.27272
#
# Compressibility (1/GPa) = 0.02774779
#
# Stress axis : x y z
#
# Youngs Moduli (GPa) = 55.55145 108.06110 100.66463
#
# Poissons Ratio (x) = 0.28187 0.06214
# Poissons Ratio (y) = 0.14490 0.15049
# Poissons Ratio (z) = 0.03429 0.16155
#
# Static dielectric constant tensor:
#      x y z
#    x 1.972820 -0.117820 0.014320 
#    y -0.117820 1.861370 0.004570 
#    z 0.014320 0.004570 1.961260 
# 
# From -- ./inp_files/167135.got.cif
#   From: 2010.05.17/outbox.cif.g08.bks.cpg/sg2_84_cif.got.tgz:167135.got - 2010.06.03 11:33:40.
