data_PCOD9083807
_publ_section_title
;
Structure prediction by ZEFSAII (Michael W. Deem and Ramdas Pophale) SiO2 
 PCOD9083807
Probable space group: P -1
;
_chemical_formula_sum "Si O2"
_cell_formula_units_Z 14
_cell_length_a 12.984377
_cell_length_b 13.842944
_cell_length_c 9.045086
_cell_angle_alpha 131.418609
_cell_angle_beta 144.179647
_cell_angle_gamma 52.707617
_cell_volume 704.520586
_symmetry_space_group_name_H-M "P -1"
_symmetry_group_IT_number 2
_symmetry_cell_setting 'triclinic'
loop_
_space_group_symop_operation_xyz
x,y,z
-x,-y,-z
loop_
_atom_site_type_symbol
_atom_site_label
_atom_site_fract_x
_atom_site_fract_y
_atom_site_fract_z
Si Si1 0.321622 0.866073 0.942259
Si Si2 0.609683 0.278618 0.437182
Si Si3 0.962121 0.902541 0.727156
Si Si4 0.418972 0.974962 0.716440
Si Si5 0.309842 0.456839 0.131209
Si Si6 0.414381 0.591196 0.862985
Si Si7 0.015773 0.602096 0.489919
O O1 0.331436 0.798578 0.723428
O O2 0.410776 0.747285 0.031208
O O3 0.119922 0.907352 0.797961
O O4 0.435921 0.982486 0.182793
O O5 0.612717 0.174136 0.464602
O O6 0.407902 0.354539 0.259525
O O7 0.724774 0.393698 0.707786
O O8 0.984574 0.752879 0.658201
O O9 0.770126 0.941268 0.464467
O O10 0.000000 0.000000 0.000000
O O11 0.500000 0.000000 0.000000
O O12 0.463065 0.450801 0.177854
O O13 0.138097 0.412167 0.819182
O O14 0.207305 0.576025 0.606500
O O15 0.500000 0.500000 0.000000
O O16 0.000000 0.500000 0.500000
#
# Coordination Sequence:
#
# PCOD9083807 Si02
#       7
#     2   2   2   2   2   2   2
#     4   9  21  41  59  86 123 161 198 259 304 358
#     4   9  20  38  65  87 120 160 204 255 299 361
#     4  11  25  41  61  93 126 160 207 256 304 372
#     4  10  21  40  63  86 120 164 206 246 306 360
#     4  10  20  40  59  90 124 153 203 254 299 364
#     4  10  19  34  58  84 115 158 197 238 307 357
#     4  11  22  37  61  85 122 161 195 247 307 357
#
# _framework density 19.871669000000001
#
# number of rings (size 3 to 8) (size 9 to 14) (size 15 to 20)
#    0.000    2.000    1.429    2.571    2.000    2.857 
#    2.571   15.714    0.000    0.000    0.000    0.000 
#    0.000    0.000    0.000    0.000    0.000    0.000 
#
# Total GULP energy -78055.946255 kJ/mol
# GULP energy per Si atom -5575.424732 kJ/mol
# Density = 1.982644 g / cm^3
# Si number density = 19.871669 Si / 1000 Ang^3
#
#
#
# Elastic Constant Matrix: (Units=GPa)
#
#
# Indices 1 2 3 4 5 6 
#
# 1 49.2015 41.9634 25.4817 0.1849 28.7151 9.6727
# 2 41.9634 102.4007 47.2697 6.4032 17.1986 15.0103
# 3 25.4817 47.2697 103.2979 -1.8498 12.4711 -10.7665
# 4 0.1849 6.4032 -1.8498 34.9093 -1.0825 -0.0181
# 5 28.7151 17.1986 12.4711 -1.0825 28.7452 4.4023
# 6 9.6727 15.0103 -10.7665 -0.0181 4.4023 30.4524
#
#
#
# Elastic Compliance Matrix: (Units=1/GPa)
#
#
# Indices 1 2 3 4 5 6 
#
# 1 0.073924 -0.017311 -0.003757 0.000699 -0.060683 -0.007503
# 2 -0.017311 0.019845 -0.006865 -0.003622 0.009500 -0.008086
# 3 -0.003757 -0.006865 0.014808 0.002069 0.000012 0.009812
# 4 0.000699 -0.003622 0.002069 0.029459 0.001356 0.002116
# 5 -0.060683 0.009500 0.000012 0.001356 0.089517 0.001657
# 6 -0.007503 -0.008086 0.009812 0.002116 0.001657 0.042438
#
#
# Mechanical properties :
#
#
# Convention : Reuss Voigt Hill
#
# Bulk Modulus (GPa) = 18.97219 53.81443 36.39331
# Shear Modulus (GPa) = 14.55914 28.16706 21.36310
#
# Velocity S-wave (km/s) = 2.70970 3.76899 3.28236
# Velocity P-wave (km/s) = 4.39978 6.78823 5.72006
#
# Compressibility (1/GPa) = 0.05270872
#
# Stress axis : x y z
#
# Youngs Moduli (GPa) = 13.52747 50.39077 67.53319
#
# Poissons Ratio (x) = 0.87232 0.25374
# Poissons Ratio (y) = 0.23417 0.46364
# Poissons Ratio (z) = 0.05083 0.34595
#
# Static dielectric constant tensor:
#      x y z
#    x 1.731280 0.024590 -0.034460 
#    y 0.024590 1.736850 0.013900 
#    z -0.034460 0.013900 1.727850 
# 
# From -- ./inp_files/454141.got.cif
#   From: 2010.05.17/outbox.cif.g08.bks.cpg/sg2_228_cif.got.tgz:454141.got - 2010.06.03 11:33:40.
