data_PCOD9083576
_publ_section_title
;
Structure prediction by ZEFSAII (Michael W. Deem and Ramdas Pophale) SiO2 
 PCOD9083576
Probable space group: P -1
;
_chemical_formula_sum "Si O2"
_cell_formula_units_Z 14
_cell_length_a 10.067931
_cell_length_b 13.411961
_cell_length_c 7.618920
_cell_angle_alpha 119.041854
_cell_angle_beta 41.249711
_cell_angle_gamma 130.164057
_cell_volume 518.374856
_symmetry_space_group_name_H-M "P -1"
_symmetry_group_IT_number 2
_symmetry_cell_setting 'triclinic'
loop_
_space_group_symop_operation_xyz
x,y,z
-x,-y,-z
loop_
_atom_site_type_symbol
_atom_site_label
_atom_site_fract_x
_atom_site_fract_y
_atom_site_fract_z
Si Si1 0.007228 0.182604 0.994384
Si Si2 0.693778 0.158734 0.584911
Si Si3 0.569865 0.709521 0.107838
Si Si4 0.857508 0.439976 0.766244
Si Si5 0.283937 0.311597 0.476817
Si Si6 0.706481 0.417704 0.369395
Si Si7 0.019659 0.944570 0.621116
O O1 0.189068 0.264563 0.035366
O O2 0.106191 0.254806 0.772043
O O3 0.005368 0.046682 0.852408
O O4 0.776707 0.158628 0.301863
O O5 0.456779 0.162970 0.804663
O O6 0.833102 0.296481 0.669517
O O7 0.750173 0.061918 0.558741
O O8 0.404371 0.593034 0.039483
O O9 0.419572 0.657442 0.393710
O O10 0.000000 0.500000 0.500000
O O11 0.022231 0.536522 0.833587
O O12 0.531648 0.330450 0.314990
O O13 0.299894 0.447496 0.526668
O O14 0.181098 0.205751 0.332593
O O15 0.000000 0.000000 0.500000
#
# Coordination Sequence:
#
# PCOD9083576 Si02
#       7
#     2   2   2   2   2   2   2
#     4  10  20  34  53  83 103 135 181 214 250 311
#     4  10  19  34  57  76 107 134 173 220 261 297
#     4   8  18  32  54  80 106 132 172 210 265 306
#     4   8  15  30  54  78 102 136 168 212 259 308
#     4   9  17  30  54  79 104 143 174 205 264 309
#     4   9  14  30  56  73 104 141 172 204 258 315
#     4  10  20  34  54  77 105 140 176 212 260 313
#
# _framework density 27.007482
#
# number of rings (size 3 to 8) (size 9 to 14) (size 15 to 20)
#    0.857    2.000    1.429    0.429    0.000    0.571 
#    0.000    7.143    0.000   28.286    0.000    0.000 
#    0.000    0.000    0.000    0.000    0.000    0.000 
#
# Total GULP energy -78109.859820 kJ/mol
# GULP energy per Si atom -5579.275701 kJ/mol
# Density = 2.694601 g / cm^3
# Si number density = 27.007482 Si / 1000 Ang^3
#
#
#
# Elastic Constant Matrix: (Units=GPa)
#
#
# Indices 1 2 3 4 5 6 
#
# 1 84.1112 5.5160 21.3937 0.2727 4.4508 -5.2912
# 2 5.5160 78.7098 -1.5140 9.2423 -12.4318 -16.8339
# 3 21.3937 -1.5140 101.8141 24.3885 9.1291 -22.8037
# 4 0.2727 9.2423 24.3885 24.0737 -0.5332 -3.4019
# 5 4.4508 -12.4318 9.1291 -0.5332 42.7029 3.1730
# 6 -5.2912 -16.8339 -22.8037 -3.4019 3.1730 52.9905
#
#
#
# Elastic Compliance Matrix: (Units=1/GPa)
#
#
# Indices 1 2 3 4 5 6 
#
# 1 0.012979 -0.001763 -0.003829 0.004306 -0.000950 -0.000579
# 2 -0.001763 0.015682 0.003673 -0.008852 0.003436 0.005612
# 3 -0.003829 0.003673 0.016650 -0.017307 -0.002828 0.007008
# 4 0.004306 -0.008852 -0.017307 0.061618 0.001888 -0.005987
# 5 -0.000950 0.003436 -0.002828 0.001888 0.025265 -0.001612
# 6 -0.000579 0.005612 0.007008 -0.005987 -0.001612 0.023324
#
#
# Mechanical properties :
#
#
# Convention : Reuss Voigt Hill
#
# Bulk Modulus (GPa) = 24.11266 35.04739 29.58002
# Shear Modulus (GPa) = 28.87195 39.90272 34.38734
#
# Velocity S-wave (km/s) = 3.27316 3.84796 3.57214
# Velocity P-wave (km/s) = 4.81999 5.72254 5.29054
#
# Compressibility (1/GPa) = 0.04147200
#
# Stress axis : x y z
#
# Youngs Moduli (GPa) = 77.05044 63.76910 60.06093
#
# Poissons Ratio (x) = 0.11240 0.22998
# Poissons Ratio (y) = 0.13582 -0.22060
# Poissons Ratio (z) = 0.29504 -0.23422
#
# Static dielectric constant tensor:
#      x y z
#    x 2.160210 0.028990 0.064280 
#    y 0.028990 2.268870 -0.260580 
#    z 0.064280 -0.260580 2.372760 
# 
# From -- ./inp_files/265623.got.cif
#   From: 2010.05.17/outbox.cif.g08.bks.cpg/sg2_133_cif.got.tgz:265623.got - 2010.06.03 11:33:40.
