data_PCOD9083849
_publ_section_title
;
Structure prediction by ZEFSAII (Michael W. Deem and Ramdas Pophale) SiO2 
 PCOD9083849
Probable space group: P -1
;
_chemical_formula_sum "Si O2"
_cell_formula_units_Z 14
_cell_length_a 9.319591
_cell_length_b 11.621716
_cell_length_c 17.429393
_cell_angle_alpha 134.758176
_cell_angle_beta 49.189624
_cell_angle_gamma 95.549792
_cell_volume 747.373291
_symmetry_space_group_name_H-M "P -1"
_symmetry_group_IT_number 2
_symmetry_cell_setting 'triclinic'
loop_
_space_group_symop_operation_xyz
x,y,z
-x,-y,-z
loop_
_atom_site_type_symbol
_atom_site_label
_atom_site_fract_x
_atom_site_fract_y
_atom_site_fract_z
Si Si1 0.751810 0.257336 0.218786
Si Si2 0.665476 0.098435 0.440619
Si Si3 0.231553 0.590351 0.470615
Si Si4 0.510785 0.143542 0.345118
Si Si5 0.869293 0.683790 0.915077
Si Si6 0.044003 0.476659 0.346355
Si Si7 0.114649 0.358727 0.815958
O O1 0.524257 0.376973 0.292562
O O2 0.620392 0.260196 0.341796
O O3 0.872900 0.364264 0.220687
O O4 0.000000 0.000000 0.000000
O O5 0.781659 0.209343 0.441352
O O6 0.566197 0.087658 0.388365
O O7 0.407534 0.253976 0.654707
O O8 0.859631 0.850284 0.286957
O O9 0.045322 0.626448 0.619411
O O10 0.162762 0.535032 0.391313
O O11 0.218098 0.301462 0.494839
O O12 0.671302 0.922592 0.134929
O O13 0.781311 0.667056 0.855638
O O14 0.953033 0.509666 0.869398
O O15 0.000000 0.500000 0.000000
#
# Coordination Sequence:
#
# PCOD9083849 Si02
#       7
#     2   2   2   2   2   2   2
#     4   9  18  32  57  88 111 142 188 237 285 335
#     4  11  21  36  61  84 111 148 195 243 282 329
#     4  10  20  38  58  86 120 154 185 230 286 351
#     4  10  19  34  58  87 110 146 190 234 291 340
#     4  11  19  36  58  83 115 149 190 242 281 333
#     4  10  21  37  58  84 124 153 181 224 292 351
#     4  11  22  36  58  88 110 147 195 248 286 321
#
# _framework density 18.732272999999999
#
# number of rings (size 3 to 8) (size 9 to 14) (size 15 to 20)
#    0.000    1.714    4.286    0.857    0.000    2.286 
#    0.000   16.429    0.000    1.714    0.000    0.000 
#    0.000    0.000    0.000    0.000    0.000    0.000 
#
# Total GULP energy -78106.781376 kJ/mol
# GULP energy per Si atom -5579.055813 kJ/mol
# Density = 1.868964 g / cm^3
# Si number density = 18.732273 Si / 1000 Ang^3
#
#
#
# Elastic Constant Matrix: (Units=GPa)
#
#
# Indices 1 2 3 4 5 6 
#
# 1 85.7309 43.3831 27.6270 1.3082 21.3062 -8.4684
# 2 43.3831 113.6166 40.1608 20.8570 20.1348 -9.8364
# 3 27.6270 40.1608 102.7722 -0.9867 25.8086 -4.9183
# 4 1.3082 20.8570 -0.9867 32.1408 -7.9280 7.4167
# 5 21.3062 20.1348 25.8086 -7.9280 26.4588 -6.8115
# 6 -8.4684 -9.8364 -4.9183 7.4167 -6.8115 23.7371
#
#
#
# Elastic Compliance Matrix: (Units=1/GPa)
#
#
# Indices 1 2 3 4 5 6 
#
# 1 0.016427 -0.004234 -0.000309 -0.000623 -0.009503 0.001510
# 2 -0.004234 0.016045 -0.002802 -0.013930 -0.008581 0.006448
# 3 -0.000309 -0.002802 0.013709 -0.000196 -0.011479 -0.001663
# 4 -0.000623 -0.013930 -0.000196 0.049099 0.022137 -0.015024
# 5 -0.009503 -0.008581 -0.011479 0.022137 0.070860 0.004092
# 6 0.001510 0.006448 -0.001663 -0.015024 0.004092 0.050862
#
#
# Mechanical properties :
#
#
# Convention : Reuss Voigt Hill
#
# Bulk Modulus (GPa) = 31.75479 58.27351 45.01415
# Shear Modulus (GPa) = 20.64500 29.19726 24.92113
#
# Velocity S-wave (km/s) = 3.32340 3.95227 3.65140
# Velocity P-wave (km/s) = 5.63164 7.21134 6.46988
#
# Compressibility (1/GPa) = 0.03149131
#
# Stress axis : x y z
#
# Youngs Moduli (GPa) = 60.87622 62.32504 72.94380
#
# Poissons Ratio (x) = 0.26390 0.02251
# Poissons Ratio (y) = 0.25777 0.20438
# Poissons Ratio (z) = 0.01878 0.17463
#
# Static dielectric constant tensor:
#      x y z
#    x 1.629700 -0.001920 0.017180 
#    y -0.001920 1.680420 -0.002870 
#    z 0.017180 -0.002870 1.683820 
# 
# From -- ./inp_files/253813.got.cif
#   From: 2010.05.17/outbox.cif.g08.bks.cpg/sg2_127_cif.got.tgz:253813.got - 2010.06.03 11:33:40.
