data_PCOD9083719
_publ_section_title
;
Structure prediction by ZEFSAII (Michael W. Deem and Ramdas Pophale) SiO2 
 PCOD9083719
Probable space group: P -1
;
_chemical_formula_sum "Si O2"
_cell_formula_units_Z 16
_cell_length_a 9.295796
_cell_length_b 19.992245
_cell_length_c 8.098246
_cell_angle_alpha 43.015004
_cell_angle_beta 125.782510
_cell_angle_gamma 144.951339
_cell_volume 589.236075
_symmetry_space_group_name_H-M "P -1"
_symmetry_group_IT_number 2
_symmetry_cell_setting 'triclinic'
loop_
_space_group_symop_operation_xyz
x,y,z
-x,-y,-z
loop_
_atom_site_type_symbol
_atom_site_label
_atom_site_fract_x
_atom_site_fract_y
_atom_site_fract_z
Si Si1 0.924430 0.049562 0.647412
Si Si2 0.729835 0.073131 0.818879
Si Si3 0.503120 0.199580 0.769301
Si Si4 0.413548 0.592572 0.745733
Si Si5 0.873623 0.679070 0.790382
Si Si6 0.675046 0.389591 0.831115
Si Si7 0.245454 0.232829 0.027457
Si Si8 0.872632 0.324039 0.346164
O O1 0.814285 0.047086 0.752344
O O2 0.211557 0.122116 0.720457
O O3 0.951617 0.157210 0.357555
O O4 0.779824 0.896370 0.765371
O O5 0.688845 0.169626 0.570205
O O6 0.969129 0.164641 0.934444
O O7 0.512919 0.922826 0.023475
O O8 0.635131 0.315797 0.507643
O O9 0.629423 0.282796 0.871704
O O10 0.590352 0.609906 0.696800
O O11 0.614983 0.677888 0.876355
O O12 0.182177 0.432802 0.921419
O O13 0.983067 0.674552 0.708202
O O14 0.893574 0.543279 0.632860
O O15 0.410557 0.332958 0.801693
O O16 0.750323 0.370632 0.092881
#
# Coordination Sequence:
#
# PCOD9083719 Si02
#       8
#     2   2   2   2   2   2   2   2
#     4   9  17  32  56  87 113 137 185 243 274 319
#     4  10  19  34  57  89 113 139 187 247 270 322
#     4  10  19  35  55  83 115 146 187 224 285 328
#     4  10  21  34  58  84 116 152 182 227 278 341
#     4   9  19  36  51  81 117 143 184 227 274 327
#     4  11  21  38  59  84 110 151 187 233 284 328
#     4  11  19  35  61  87 113 147 185 229 286 327
#     4  10  23  37  58  85 114 142 193 238 275 329
#
# _framework density 27.153804000000001
#
# number of rings (size 3 to 8) (size 9 to 14) (size 15 to 20)
#    0.000    2.000    3.750    0.750    0.000    8.500 
#    0.000    0.625    2.750    0.750    0.000    0.000 
#    0.000    0.000    0.000    0.000    0.000    0.000 
#
# Total GULP energy -89494.719623 kJ/mol
# GULP energy per Si atom -5593.419976 kJ/mol
# Density = 2.709200 g / cm^3
# Si number density = 27.153804 Si / 1000 Ang^3
#
#
#
# Elastic Constant Matrix: (Units=GPa)
#
#
# Indices 1 2 3 4 5 6 
#
# 1 72.3799 -4.3679 1.5179 -4.5839 8.3021 2.5576
# 2 -4.3679 86.4769 37.5947 -19.2973 3.6491 -7.8848
# 3 1.5179 37.5947 166.9921 -50.7817 1.9977 -5.5682
# 4 -4.5839 -19.2973 -50.7817 56.2121 -4.7906 2.9870
# 5 8.3021 3.6491 1.9977 -4.7906 34.4381 -8.1305
# 6 2.5576 -7.8848 -5.5682 2.9870 -8.1305 31.1679
#
#
#
# Elastic Compliance Matrix: (Units=1/GPa)
#
#
# Indices 1 2 3 4 5 6 
#
# 1 0.014480 0.000991 0.000024 0.001321 -0.003904 -0.002078
# 2 0.000991 0.013372 -0.002156 0.002540 -0.000582 0.002521
# 3 0.000024 -0.002156 0.008645 0.007114 0.000837 0.000533
# 4 0.001321 0.002540 0.007114 0.025411 0.002543 0.000033
# 5 -0.003904 -0.000582 0.000837 0.002543 0.032357 0.008520
# 6 -0.002078 0.002521 0.000533 0.000033 0.008520 0.035207
#
#
# Mechanical properties :
#
#
# Convention : Reuss Voigt Hill
#
# Bulk Modulus (GPa) = 29.22665 43.92649 36.57657
# Shear Modulus (GPa) = 34.92596 43.77056 39.34826
#
# Velocity S-wave (km/s) = 3.59029 4.01926 3.81082
# Velocity P-wave (km/s) = 5.28901 6.14421 5.73258
#
# Compressibility (1/GPa) = 0.03421534
#
# Stress axis : x y z
#
# Youngs Moduli (GPa) = 69.06007 74.78091 115.67779
#
# Poissons Ratio (x) = -0.07409 -0.00282
# Poissons Ratio (y) = -0.06842 0.24941
# Poissons Ratio (z) = -0.00168 0.16123
#
# Static dielectric constant tensor:
#      x y z
#    x 2.213710 0.024360 -0.012530 
#    y 0.024360 2.068380 0.010590 
#    z -0.012530 0.010590 2.200070 
# 
# From -- ./inp_files/206813.got.cif
#   From: 2010.05.17/outbox.cif.g08.bks.cpg/sg2_104_cif.got.tgz:206813.got - 2010.06.03 11:33:40.
