data_PCOD9083490
_publ_section_title
;
Structure prediction by ZEFSAII (Michael W. Deem and Ramdas Pophale) SiO2 
 PCOD9083490
Probable space group: P -1
;
_chemical_formula_sum "Si O2"
_cell_formula_units_Z 16
_cell_length_a 9.895881
_cell_length_b 8.312959
_cell_length_c 17.023389
_cell_angle_alpha 128.914179
_cell_angle_beta 142.617068
_cell_angle_gamma 61.813311
_cell_volume 660.501494
_symmetry_space_group_name_H-M "P -1"
_symmetry_group_IT_number 2
_symmetry_cell_setting 'triclinic'
loop_
_space_group_symop_operation_xyz
x,y,z
-x,-y,-z
loop_
_atom_site_type_symbol
_atom_site_label
_atom_site_fract_x
_atom_site_fract_y
_atom_site_fract_z
Si Si1 0.713893 0.764941 0.035246
Si Si2 0.240017 0.210054 0.643174
Si Si3 0.145354 0.929340 0.665545
Si Si4 0.909653 0.527620 0.663547
Si Si5 0.056697 0.434170 0.121155
Si Si6 0.691284 0.109082 0.860001
Si Si7 0.513158 0.334484 0.321879
Si Si8 0.725618 0.169354 0.075072
O O1 0.888423 0.590688 0.054158
O O2 0.804097 0.910715 0.193876
O O3 0.697384 0.929260 0.008901
O O4 0.460256 0.707784 0.926965
O O5 0.503854 0.221087 0.758783
O O6 0.111597 0.142680 0.483976
O O7 0.092223 0.384692 0.665165
O O8 0.208185 0.034552 0.642750
O O9 0.309098 0.742675 0.682736
O O10 0.925907 0.510518 0.760006
O O11 0.670559 0.462541 0.496205
O O12 0.021611 0.753735 0.766119
O O13 0.316198 0.448708 0.223918
O O14 0.936863 0.204367 0.981244
O O15 0.622810 0.862884 0.757806
O O16 0.672380 0.191664 0.965939
#
# Coordination Sequence:
#
# PCOD9083490 Si02
#       8
#     2   2   2   2   2   2   2   2
#     4  11  20  36  58  81 109 142 184 224 264 319
#     4   9  15  29  54  82 103 134 174 221 274 302
#     4   9  17  31  55  80 109 138 170 223 274 311
#     4  10  19  34  56  83 109 141 181 225 266 318
#     4  11  21  33  57  86 105 140 187 222 262 325
#     4  10  19  35  58  81 112 139 177 226 272 316
#     4  10  20  35  53  82 114 142 171 226 277 316
#     4  10  21  35  57  81 108 144 183 222 268 315
#
# _framework density 24.224017
#
# number of rings (size 3 to 8) (size 9 to 14) (size 15 to 20)
#    0.000    2.000    3.750    2.250    0.000    2.000 
#    0.000    3.750    2.750    0.000    0.000    0.000 
#    0.000    0.000    0.000    0.000    0.000    0.000 
#
# Total GULP energy -89336.508365 kJ/mol
# GULP energy per Si atom -5583.531773 kJ/mol
# Density = 2.416888 g / cm^3
# Si number density = 24.224017 Si / 1000 Ang^3
#
#
#
# Elastic Constant Matrix: (Units=GPa)
#
#
# Indices 1 2 3 4 5 6 
#
# 1 40.2248 13.8364 32.8656 -13.1017 8.4796 -12.3330
# 2 13.8364 71.4668 39.1436 -21.1347 17.6792 -14.3522
# 3 32.8656 39.1436 208.4546 -22.3570 24.3108 -10.6121
# 4 -13.1017 -21.1347 -22.3570 36.7910 -10.5217 3.5081
# 5 8.4796 17.6792 24.3108 -10.5217 34.1660 -5.5851
# 6 -12.3330 -14.3522 -10.6121 3.5081 -5.5851 16.4678
#
#
#
# Elastic Compliance Matrix: (Units=1/GPa)
#
#
# Indices 1 2 3 4 5 6 
#
# 1 0.038971 0.003497 -0.004200 0.010520 -0.000839 0.027001
# 2 0.003497 0.021891 -0.002222 0.009464 -0.004994 0.016556
# 3 -0.004200 -0.002222 0.006094 0.000458 -0.002338 -0.002045
# 4 0.010520 0.009464 0.000458 0.037175 0.005298 0.010299
# 5 -0.000839 -0.004994 -0.002338 0.005298 0.036113 0.004632
# 6 0.027001 0.016556 -0.002045 0.010299 0.004632 0.093435
#
#
# Mechanical properties :
#
#
# Convention : Reuss Voigt Hill
#
# Bulk Modulus (GPa) = 16.36493 54.64859 35.50676
# Shear Modulus (GPa) = 19.23822 33.10501 26.17161
#
# Velocity S-wave (km/s) = 2.82118 3.70079 3.29051
# Velocity P-wave (km/s) = 4.16922 6.39295 5.39686
#
# Compressibility (1/GPa) = 0.06110628
#
# Stress axis : x y z
#
# Youngs Moduli (GPa) = 25.65985 45.67997 164.08962
#
# Poissons Ratio (x) = -0.15972 0.68921
# Poissons Ratio (y) = -0.08972 0.36457
# Poissons Ratio (z) = 0.10778 0.10149
#
# Static dielectric constant tensor:
#      x y z
#    x 1.972450 -0.013750 0.022370 
#    y -0.013750 1.988280 0.023200 
#    z 0.022370 0.023200 1.965650 
# 
# From -- ./inp_files/594219.got.cif
#   From: 2010.05.17/outbox.cif.g08.bks.cpg/sg2_298_cif.got.tgz:594219.got - 2010.06.03 11:33:40.
