data_PCOD9083848
_publ_section_title
;
Structure prediction by ZEFSAII (Michael W. Deem and Ramdas Pophale) SiO2 
 PCOD9083848
Probable space group: P -1
;
_chemical_formula_sum "Si O2"
_cell_formula_units_Z 14
_cell_length_a 17.617061
_cell_length_b 9.211902
_cell_length_c 9.613629
_cell_angle_alpha 31.437334
_cell_angle_beta 120.986018
_cell_angle_gamma 109.050145
_cell_volume 675.014591
_symmetry_space_group_name_H-M "P -1"
_symmetry_group_IT_number 2
_symmetry_cell_setting 'triclinic'
loop_
_space_group_symop_operation_xyz
x,y,z
-x,-y,-z
loop_
_atom_site_type_symbol
_atom_site_label
_atom_site_fract_x
_atom_site_fract_y
_atom_site_fract_z
Si Si1 0.540543 0.645675 0.744836
Si Si2 0.211608 0.857984 0.407152
Si Si3 0.726839 0.783630 0.326337
Si Si4 0.833429 0.122583 0.965870
Si Si5 0.982042 0.195873 0.686524
Si Si6 0.652043 0.976241 0.400979
Si Si7 0.617214 0.609521 0.135881
O O1 0.581809 0.805885 0.534354
O O2 0.436706 0.617339 0.670796
O O3 0.561265 0.752846 0.830951
O O4 0.598525 0.311040 0.066650
O O5 0.123104 0.797580 0.448930
O O6 0.285352 0.557865 0.696322
O O7 0.264315 0.044592 0.395059
O O8 0.187962 0.972746 0.133410
O O9 0.776905 0.004725 0.124110
O O10 0.691714 0.862168 0.383254
O O11 0.640745 0.785325 0.142963
O O12 0.798154 0.467705 0.649315
O O13 0.941008 0.973480 0.208932
O O14 0.000000 0.500000 0.500000
O O15 0.000000 0.000000 0.000000
#
# Coordination Sequence:
#
# PCOD9083848 Si02
#       7
#     2   2   2   2   2   2   2
#     4  10  22  38  57  81 111 145 188 231 271 323
#     4   9  20  37  60  83 110 145 184 227 276 327
#     4  11  22  37  57  81 114 148 183 225 276 329
#     4  10  20  37  58  82 109 144 185 226 270 326
#     4  10  19  34  58  87 110 137 183 231 270 319
#     4  11  23  38  55  82 115 147 182 227 278 326
#     4   9  20  37  59  82 108 146 188 229 274 324
#
# _framework density 20.740293000000001
#
# number of rings (size 3 to 8) (size 9 to 14) (size 15 to 20)
#    0.000    2.000    0.000    4.286    0.000   12.000 
#    0.000    1.429    0.000    0.000    0.000    0.000 
#    0.000    0.000    0.000    0.000    0.000    0.000 
#
# Total GULP energy -78161.542831 kJ/mol
# GULP energy per Si atom -5582.967345 kJ/mol
# Density = 2.069309 g / cm^3
# Si number density = 20.740293 Si / 1000 Ang^3
#
#
#
# Elastic Constant Matrix: (Units=GPa)
#
#
# Indices 1 2 3 4 5 6 
#
# 1 117.0255 25.1223 18.5364 13.2751 -2.9198 2.0104
# 2 25.1223 46.9815 -0.8139 11.9803 4.4410 -18.5631
# 3 18.5364 -0.8139 67.8490 -13.0638 -8.7650 1.3988
# 4 13.2751 11.9803 -13.0638 23.6763 2.3503 -6.8429
# 5 -2.9198 4.4410 -8.7650 2.3503 39.9625 3.0463
# 6 2.0104 -18.5631 1.3988 -6.8429 3.0463 35.1763
#
#
#
# Elastic Compliance Matrix: (Units=1/GPa)
#
#
# Indices 1 2 3 4 5 6 
#
# 1 0.011660 -0.006830 -0.004354 -0.007265 0.001513 -0.005642
# 2 -0.006830 0.034401 -0.000338 -0.008211 -0.005241 0.017414
# 3 -0.004354 -0.000338 0.018807 0.013168 0.002946 0.001629
# 4 -0.007265 -0.008211 0.013168 0.059916 -0.000809 0.007284
# 5 0.001513 -0.005241 0.002946 -0.000809 0.026826 -0.005450
# 6 -0.005642 0.017414 0.001629 0.007284 -0.005450 0.039765
#
#
# Mechanical properties :
#
#
# Convention : Reuss Voigt Hill
#
# Bulk Modulus (GPa) = 23.91083 35.28281 29.59682
# Shear Modulus (GPa) = 21.89528 32.36377 27.12952
#
# Velocity S-wave (km/s) = 3.25266 3.95451 3.62063
# Velocity P-wave (km/s) = 5.06558 6.15626 5.63736
#
# Compressibility (1/GPa) = 0.04182204
#
# Stress axis : x y z
#
# Youngs Moduli (GPa) = 85.76418 29.06886 53.17295
#
# Poissons Ratio (x) = 0.19854 0.23154
# Poissons Ratio (y) = 0.58576 0.01799
# Poissons Ratio (z) = 0.37346 0.00984
#
# Static dielectric constant tensor:
#      x y z
#    x 1.762380 0.039380 0.059720 
#    y 0.039380 1.746110 0.008060 
#    z 0.059720 0.008060 1.809450 
# 
# From -- ./inp_files/35463.got.cif
#   From: 2010.05.17/outbox.cif.g08.bks.cpg/sg2_18_cif.got.tgz:35463.got - 2010.06.03 11:33:40.
