data_PCOD9083822
_publ_section_title
;
Structure prediction by ZEFSAII (Michael W. Deem and Ramdas Pophale) SiO2 
 PCOD9083822
Probable space group: P -1
;
_chemical_formula_sum "Si O2"
_cell_formula_units_Z 16
_cell_length_a 12.532327
_cell_length_b 11.231391
_cell_length_c 7.560253
_cell_angle_alpha 92.150053
_cell_angle_beta 113.325005
_cell_angle_gamma 127.562800
_cell_volume 715.481848
_symmetry_space_group_name_H-M "P -1"
_symmetry_group_IT_number 2
_symmetry_cell_setting 'triclinic'
loop_
_space_group_symop_operation_xyz
x,y,z
-x,-y,-z
loop_
_atom_site_type_symbol
_atom_site_label
_atom_site_fract_x
_atom_site_fract_y
_atom_site_fract_z
Si Si1 0.388363 0.982786 0.276586
Si Si2 0.387522 0.187203 0.759913
Si Si3 0.754976 0.477482 0.113978
Si Si4 0.883637 0.330484 0.095232
Si Si5 0.687497 0.137353 0.307528
Si Si6 0.436330 0.281404 0.415922
Si Si7 0.221985 0.558465 0.457510
Si Si8 0.650400 0.651038 0.988333
O O1 0.500000 0.000000 0.500000
O O2 0.503812 0.052231 0.185544
O O3 0.362944 0.103139 0.301629
O O4 0.224530 0.801692 0.132924
O O5 0.383596 0.262343 0.581687
O O6 0.303029 0.197539 0.865181
O O7 0.319617 0.008519 0.667887
O O8 0.574608 0.307951 0.941216
O O9 0.869468 0.463604 0.094548
O O10 0.776819 0.486998 0.340967
O O11 0.768598 0.622774 0.069900
O O12 0.789237 0.227234 0.204893
O O13 0.062373 0.416244 0.244262
O O14 0.763484 0.288413 0.498283
O O15 0.624374 0.386157 0.535684
O O16 0.394363 0.346362 0.240801
O O17 0.500000 0.500000 0.000000
#
# Coordination Sequence:
#
# PCOD9083822 Si02
#       8
#     2   2   2   2   2   2   2   2
#     4  11  20  35  58  89 121 150 202 249 296 361
#     4  11  20  35  62  91 116 158 202 254 303 336
#     4  10  19  37  55  90 124 151 209 246 296 358
#     4  11  21  36  62  91 123 160 191 247 318 359
#     4  10  19  34  58  85 116 152 200 245 297 356
#     4  11  21  38  62  91 125 153 202 255 296 357
#     4  10  22  36  58  91 127 157 192 248 310 372
#     4  10  21  36  57  91 121 155 210 254 289 352
#
# _framework density 22.362551
#
# number of rings (size 3 to 8) (size 9 to 14) (size 15 to 20)
#    0.000    1.500    5.000    2.625    1.750    2.000 
#    0.000    6.875    0.000    6.750    0.000    4.375 
#    0.000    0.000    0.000    0.000    0.000    0.000 
#
# Total GULP energy -89411.313798 kJ/mol
# GULP energy per Si atom -5588.207112 kJ/mol
# Density = 2.231165 g / cm^3
# Si number density = 22.362551 Si / 1000 Ang^3
#
#
#
# Elastic Constant Matrix: (Units=GPa)
#
#
# Indices 1 2 3 4 5 6 
#
# 1 35.9876 20.6152 30.7124 -1.6880 4.7333 -9.5756
# 2 20.6152 78.8956 60.5289 -13.7434 2.3792 -13.8560
# 3 30.7124 60.5289 133.5314 -10.4786 2.6116 13.1659
# 4 -1.6880 -13.7434 -10.4786 43.8066 6.8749 -2.6029
# 5 4.7333 2.3792 2.6116 6.8749 20.6363 -9.3119
# 6 -9.5756 -13.8560 13.1659 -2.6029 -9.3119 31.2670
#
#
#
# Elastic Compliance Matrix: (Units=1/GPa)
#
#
# Indices 1 2 3 4 5 6 
#
# 1 0.042465 0.001939 -0.012515 0.000366 0.000169 0.019215
# 2 0.001939 0.028485 -0.015193 0.005709 0.006189 0.021933
# 3 -0.012515 -0.015193 0.019391 -0.000752 -0.007003 -0.020879
# 4 0.000366 0.005709 -0.000752 0.025876 -0.008041 0.002718
# 5 0.000169 0.006189 -0.007003 -0.008041 0.061876 0.023502
# 6 0.019215 0.021933 -0.020879 0.002718 0.023502 0.063604
#
#
# Mechanical properties :
#
#
# Convention : Reuss Voigt Hill
#
# Bulk Modulus (GPa) = 25.77230 52.45863 39.11546
# Shear Modulus (GPa) = 16.33081 28.24582 22.28831
#
# Velocity S-wave (km/s) = 2.70529 3.55785 3.16045
# Velocity P-wave (km/s) = 4.61605 6.35507 5.55404
#
# Compressibility (1/GPa) = 0.03880135
#
# Stress axis : x y z
#
# Youngs Moduli (GPa) = 23.54884 35.10676 51.57040
#
# Poissons Ratio (x) = -0.06806 0.64540
# Poissons Ratio (y) = -0.04566 0.78353
# Poissons Ratio (z) = 0.29471 0.53339
#
# Static dielectric constant tensor:
#      x y z
#    x 1.857320 -0.002040 -0.066100 
#    y -0.002040 1.879320 -0.035490 
#    z -0.066100 -0.035490 1.881130 
# 
# From -- ./inp_files/307419.got.cif
#   From: 2010.05.17/outbox.cif.g08.bks.cpg/sg2_154_cif.got.tgz:307419.got - 2010.06.03 11:33:40.
