data_PCOD9083722
_publ_section_title
;
Structure prediction by ZEFSAII (Michael W. Deem and Ramdas Pophale) SiO2 
 PCOD9083722
Probable space group: P -1
;
_chemical_formula_sum "Si O2"
_cell_formula_units_Z 16
_cell_length_a 12.531143
_cell_length_b 8.102177
_cell_length_c 13.373449
_cell_angle_alpha 41.969285
_cell_angle_beta 57.811810
_cell_angle_gamma 76.809224
_cell_volume 733.863704
_symmetry_space_group_name_H-M "P -1"
_symmetry_group_IT_number 2
_symmetry_cell_setting 'triclinic'
loop_
_space_group_symop_operation_xyz
x,y,z
-x,-y,-z
loop_
_atom_site_type_symbol
_atom_site_label
_atom_site_fract_x
_atom_site_fract_y
_atom_site_fract_z
Si Si1 0.527911 0.887199 0.216776
Si Si2 0.121046 0.050152 0.493708
Si Si3 0.661605 0.741799 0.864569
Si Si4 0.302077 0.461456 0.444528
Si Si5 0.740863 0.057727 0.870276
Si Si6 0.401457 0.824704 0.771383
Si Si7 0.682806 0.057209 0.435963
Si Si8 0.024154 0.254074 0.651664
O O1 0.442880 0.093933 0.165071
O O2 0.629446 0.996279 0.207256
O O3 0.418440 0.609140 0.394303
O O4 0.615939 0.908764 0.064748
O O5 0.245638 0.246209 0.284014
O O6 0.198458 0.851999 0.584962
O O7 0.067175 0.118360 0.595339
O O8 0.000000 0.000000 0.500000
O O9 0.752985 0.895543 0.839198
O O10 0.596807 0.450333 0.063107
O O11 0.288451 0.682362 0.273169
O O12 0.329844 0.227688 0.475767
O O13 0.153876 0.346611 0.613716
O O14 0.881043 0.113488 0.830768
O O15 0.543851 0.006638 0.582569
O O16 0.309209 0.773419 0.743140
O O17 0.000000 0.500000 0.500000
#
# Coordination Sequence:
#
# PCOD9083722 Si02
#       8
#     2   2   2   2   2   2   2   2
#     4  11  21  34  60  90 120 153 204 251 295 352
#     4  11  21  38  64  88 114 158 207 248 285 364
#     4  11  21  36  60  94 118 150 205 251 300 346
#     4   9  19  35  56  82 114 157 194 247 291 347
#     4  10  19  34  57  89 121 149 198 257 297 343
#     4  11  23  36  58  89 123 159 189 251 307 357
#     4  10  22  40  57  84 128 153 195 245 311 354
#     4   9  19  32  55  86 118 151 190 246 302 337
#
# _framework density 21.802412
#
# number of rings (size 3 to 8) (size 9 to 14) (size 15 to 20)
#    0.000    1.750    2.500    3.375    5.250    0.500 
#    0.000    0.625    0.000    3.000    0.000    0.000 
#    0.000    0.000    0.000    0.000    0.000    0.000 
#
# Total GULP energy -89077.433039 kJ/mol
# GULP energy per Si atom -5567.339565 kJ/mol
# Density = 2.175279 g / cm^3
# Si number density = 21.802412 Si / 1000 Ang^3
#
#
#
# Elastic Constant Matrix: (Units=GPa)
#
#
# Indices 1 2 3 4 5 6 
#
# 1 100.0348 -5.6537 24.9593 11.0706 -9.0681 6.7026
# 2 -5.6537 44.5869 14.1304 -0.8351 -1.4266 -3.9552
# 3 24.9593 14.1304 48.1446 8.6514 -10.6601 -2.5149
# 4 11.0706 -0.8351 8.6514 22.5879 -1.7453 -6.3721
# 5 -9.0681 -1.4266 -10.6601 -1.7453 31.5594 7.5893
# 6 6.7026 -3.9552 -2.5149 -6.3721 7.5893 18.5582
#
#
#
# Elastic Compliance Matrix: (Units=1/GPa)
#
#
# Indices 1 2 3 4 5 6 
#
# 1 0.013319 0.002927 -0.006321 -0.006153 0.003554 -0.008609
# 2 0.002927 0.026686 -0.010543 0.005089 -0.002687 0.006048
# 3 -0.006321 -0.010543 0.030407 -0.008936 0.008010 -0.002187
# 4 -0.006153 0.005089 -0.008936 0.057321 -0.007346 0.024781
# 5 0.003554 -0.002687 0.008010 -0.007346 0.039569 -0.019474
# 6 -0.008609 0.006048 -0.002187 0.024781 -0.019474 0.074459
#
#
# Mechanical properties :
#
#
# Convention : Reuss Voigt Hill
#
# Bulk Modulus (GPa) = 23.50847 28.84870 26.17858
# Shear Modulus (GPa) = 17.61707 25.16313 21.39010
#
# Velocity S-wave (km/s) = 2.84568 3.40096 3.13563
# Velocity P-wave (km/s) = 4.64791 5.35561 5.01426
#
# Compressibility (1/GPa) = 0.04253787
#
# Stress axis : x y z
#
# Youngs Moduli (GPa) = 75.08070 37.47225 32.88683
#
# Poissons Ratio (x) = -0.10968 0.20788
# Poissons Ratio (y) = -0.21976 0.34674
# Poissons Ratio (z) = 0.47459 0.39508
#
# Static dielectric constant tensor:
#      x y z
#    x 1.968260 0.055400 0.008890 
#    y 0.055400 1.808810 0.000510 
#    z 0.008890 0.000510 1.798800 
# 
# From -- ./inp_files/386710.got.cif
#   From: 2010.05.17/outbox.cif.g08.bks.cpg/sg2_194_cif.got.tgz:386710.got - 2010.06.03 11:33:40.
