data_PCOD9083880
_publ_section_title
;
Structure prediction by ZEFSAII (Michael W. Deem and Ramdas Pophale) SiO2 
 PCOD9083880
Probable space group: P -1
;
_chemical_formula_sum "Si O2"
_cell_formula_units_Z 16
_cell_length_a 13.146268
_cell_length_b 7.739717
_cell_length_c 8.440816
_cell_angle_alpha 106.759286
_cell_angle_beta 100.883308
_cell_angle_gamma 110.691074
_cell_volume 727.680898
_symmetry_space_group_name_H-M "P -1"
_symmetry_group_IT_number 2
_symmetry_cell_setting 'triclinic'
loop_
_space_group_symop_operation_xyz
x,y,z
-x,-y,-z
loop_
_atom_site_type_symbol
_atom_site_label
_atom_site_fract_x
_atom_site_fract_y
_atom_site_fract_z
Si Si1 0.438745 0.654232 0.227792
Si Si2 0.759881 0.197383 0.245234
Si Si3 0.108642 0.976895 0.595315
Si Si4 0.423749 0.693528 0.600209
Si Si5 0.764921 0.467024 0.057686
Si Si6 0.672879 0.695507 0.340271
Si Si7 0.349449 0.182866 0.114286
Si Si8 0.882441 0.847753 0.004555
O O1 0.421978 0.705477 0.415314
O O2 0.573769 0.752042 0.262639
O O3 0.402904 0.415234 0.134035
O O4 0.350982 0.693184 0.101304
O O5 0.667306 0.245202 0.326291
O O6 0.815480 0.357172 0.161435
O O7 0.859457 0.204266 0.396126
O O8 0.686485 0.987254 0.075980
O O9 0.212670 0.108068 0.543751
O O10 0.117376 0.062710 0.798207
O O11 0.000000 0.000000 0.500000
O O12 0.381969 0.459738 0.574696
O O13 0.551830 0.815265 0.740316
O O14 0.715215 0.583384 0.192360
O O15 0.847334 0.616468 0.986915
O O16 0.224048 0.154275 0.129325
O O17 0.000000 0.000000 0.000000
#
# Coordination Sequence:
#
# PCOD9083880 Si02
#       8
#     2   2   2   2   2   2   2   2
#     4  10  19  34  58  90 119 153 196 243 289 345
#     4  10  21  39  58  84 119 156 192 241 302 361
#     4  10  22  39  59  82 109 153 204 243 290 357
#     4  10  20  35  58  91 122 148 191 254 302 333
#     4   9  19  35  57  84 119 159 195 236 294 354
#     4   9  18  35  57  81 114 160 200 229 284 365
#     4   9  18  34  58  83 115 159 197 229 285 357
#     4   9  19  37  60  85 113 156 205 239 277 346
#
# _framework density 21.987660999999999
#
# number of rings (size 3 to 8) (size 9 to 14) (size 15 to 20)
#    0.000    2.500    0.000    3.000    0.000    9.000 
#    0.000   14.375    0.000    0.000    0.000    2.625 
#    0.000    0.000    0.000    0.000    0.000    0.000 
#
# Total GULP energy -89071.801244 kJ/mol
# GULP energy per Si atom -5566.987578 kJ/mol
# Density = 2.193762 g / cm^3
# Si number density = 21.987661 Si / 1000 Ang^3
#
#
#
# Elastic Constant Matrix: (Units=GPa)
#
#
# Indices 1 2 3 4 5 6 
#
# 1 111.1108 61.4822 19.1475 -19.1385 37.2420 13.2303
# 2 61.4822 82.7470 22.9019 -19.5624 7.7377 8.7736
# 3 19.1475 22.9019 54.8750 -24.3356 8.9487 -13.0774
# 4 -19.1385 -19.5624 -24.3356 20.3173 -10.6864 -0.0335
# 5 37.2420 7.7377 8.9487 -10.6864 42.2922 -5.5119
# 6 13.2303 8.7736 -13.0774 -0.0335 -5.5119 33.3929
#
#
#
# Elastic Compliance Matrix: (Units=1/GPa)
#
#
# Indices 1 2 3 4 5 6 
#
# 1 0.027745 -0.017960 -0.006518 -0.011839 -0.024436 -0.012872
# 2 -0.017960 0.027963 0.001949 0.020729 0.015940 0.003184
# 3 -0.006518 0.001949 0.052975 0.066771 0.014337 0.025250
# 4 -0.011839 0.020729 0.066771 0.157162 0.036328 0.031547
# 5 -0.024436 0.015940 0.014337 0.036328 0.050941 0.019553
# 6 -0.012872 0.003184 0.025250 0.031547 0.019553 0.047357
#
#
# Mechanical properties :
#
#
# Convention : Reuss Voigt Hill
#
# Bulk Modulus (GPa) = 15.71744 50.64399 33.18072
# Shear Modulus (GPa) = 11.61684 28.88056 20.24870
#
# Velocity S-wave (km/s) = 2.30105 3.62814 3.03795
# Velocity P-wave (km/s) = 3.77142 6.37449 5.23726
#
# Compressibility (1/GPa) = 0.06362359
#
# Stress axis : x y z
#
# Youngs Moduli (GPa) = 36.04214 35.76188 18.87695
#
# Poissons Ratio (x) = 0.64229 0.12305
# Poissons Ratio (y) = 0.64732 -0.03679
# Poissons Ratio (z) = 0.23494 -0.06970
#
# Static dielectric constant tensor:
#      x y z
#    x 1.874560 -0.054050 0.044120 
#    y -0.054050 1.966950 -0.011070 
#    z 0.044120 -0.011070 1.818480 
# 
# From -- ./inp_files/244655.got.cif
#   From: 2010.05.17/outbox.cif.g08.bks.cpg/sg2_123_cif.got.tgz:244655.got - 2010.06.03 11:33:40.
