data_PCOD9083870
_publ_section_title
;
Structure prediction by ZEFSAII (Michael W. Deem and Ramdas Pophale) SiO2 
 PCOD9083870
Probable space group: P -1
;
_chemical_formula_sum "Si O2"
_cell_formula_units_Z 12
_cell_length_a 10.499232
_cell_length_b 9.676029
_cell_length_c 10.038563
_cell_angle_alpha 136.547169
_cell_angle_beta 58.979710
_cell_angle_gamma 99.205662
_cell_volume 560.012166
_symmetry_space_group_name_H-M "P -1"
_symmetry_group_IT_number 2
_symmetry_cell_setting 'triclinic'
loop_
_space_group_symop_operation_xyz
x,y,z
-x,-y,-z
loop_
_atom_site_type_symbol
_atom_site_label
_atom_site_fract_x
_atom_site_fract_y
_atom_site_fract_z
Si Si1 0.540420 0.745969 0.791583
Si Si2 0.463864 0.727726 0.110833
Si Si3 0.691476 0.736615 0.193421
Si Si4 0.122981 0.729547 0.310483
Si Si5 0.963453 0.877714 0.225922
Si Si6 0.285806 0.525715 0.726853
O O1 0.397044 0.669444 0.768877
O O2 0.677012 0.627863 0.529147
O O3 0.560723 0.684037 0.891746
O O4 0.500000 0.000000 0.000000
O O5 0.535505 0.847051 0.263268
O O6 0.273826 0.803881 0.242282
O O7 0.500000 0.500000 0.000000
O O8 0.797513 0.877867 0.261770
O O9 0.674978 0.622642 0.263301
O O10 0.802982 0.526939 0.900857
O O11 0.000425 0.787351 0.294370
O O12 0.044700 0.877478 0.582421
O O13 0.107926 0.701037 0.947925
#
# Coordination Sequence:
#
# PCOD9083870 Si02
#       6
#     2   2   2   2   2   2
#     4  11  23  38  60  87 120 159 193 239 295 354
#     4  10  19  40  60  88 120 153 195 250 291 335
#     4  10  20  35  62  89 116 150 198 248 292 334
#     4   9  18  32  56  84 119 146 194 243 282 337
#     4  10  19  34  58  89 116 154 197 239 290 351
#     4  10  21  38  58  87 118 157 198 240 286 357
#
# _framework density 21.428106
#
# number of rings (size 3 to 8) (size 9 to 14) (size 15 to 20)
#    0.000    2.000    5.000    2.000    2.333    2.000 
#    0.000    0.833    0.000    5.000    0.000    0.000 
#    0.000    0.000    0.000    0.000    0.000    0.000 
#
# Total GULP energy -66870.927563 kJ/mol
# GULP energy per Si atom -5572.577297 kJ/mol
# Density = 2.137933 g / cm^3
# Si number density = 21.428106 Si / 1000 Ang^3
#
#
#
# Elastic Constant Matrix: (Units=GPa)
#
#
# Indices 1 2 3 4 5 6 
#
# 1 113.7487 -5.8110 25.9352 -10.7471 13.4277 6.0049
# 2 -5.8110 51.8507 32.5583 -1.7771 15.8687 -7.9189
# 3 25.9352 32.5583 168.0524 -6.7555 25.9342 -5.5533
# 4 -10.7471 -1.7771 -6.7555 23.0037 3.8097 7.6434
# 5 13.4277 15.8687 25.9342 3.8097 38.3131 5.0818
# 6 6.0049 -7.9189 -5.5533 7.6434 5.0818 23.2062
#
#
#
# Elastic Compliance Matrix: (Units=1/GPa)
#
#
# Indices 1 2 3 4 5 6 
#
# 1 0.010564 0.003106 -0.001421 0.006537 -0.004248 -0.003237
# 2 0.003106 0.026793 -0.003591 0.001139 -0.011134 0.009543
# 3 -0.001421 -0.003591 0.007484 0.001416 -0.003382 0.001208
# 4 0.006537 0.001139 0.001416 0.053876 -0.006794 -0.017221
# 5 -0.004248 -0.011134 -0.003382 -0.006794 0.036392 -0.009241
# 6 -0.003237 0.009543 0.001208 -0.017221 -0.009241 0.055171
#
#
# Mechanical properties :
#
#
# Convention : Reuss Voigt Hill
#
# Bulk Modulus (GPa) = 24.37269 48.77964 36.57617
# Shear Modulus (GPa) = 24.06540 35.63588 29.85064
#
# Velocity S-wave (km/s) = 3.35487 4.08247 3.73642
# Velocity P-wave (km/s) = 5.13865 6.71087 5.97668
#
# Compressibility (1/GPa) = 0.04102953
#
# Stress axis : x y z
#
# Youngs Moduli (GPa) = 94.66296 37.32326 133.61583
#
# Poissons Ratio (x) = -0.11592 0.18982
# Poissons Ratio (y) = -0.29400 0.47978
# Poissons Ratio (z) = 0.13448 0.13402
#
# Static dielectric constant tensor:
#      x y z
#    x 1.842720 0.040760 -0.002290 
#    y 0.040760 1.763640 0.013440 
#    z -0.002290 0.013440 1.875970 
# 
# From -- ./inp_files/422366.got.cif
#   From: 2010.05.17/outbox.cif.g08.bks.cpg/sg2_212_cif.got.tgz:422366.got - 2010.06.03 11:33:40.
