data_PCOD9083599
_publ_section_title
;
Structure prediction by ZEFSAII (Michael W. Deem and Ramdas Pophale) SiO2 
 PCOD9083599
Probable space group: P -1
;
_chemical_formula_sum "Si O2"
_cell_formula_units_Z 14
_cell_length_a 14.137959
_cell_length_b 5.453423
_cell_length_c 13.562730
_cell_angle_alpha 74.195477
_cell_angle_beta 139.589943
_cell_angle_gamma 79.858208
_cell_volume 514.429035
_symmetry_space_group_name_H-M "P -1"
_symmetry_group_IT_number 2
_symmetry_cell_setting 'triclinic'
loop_
_space_group_symop_operation_xyz
x,y,z
-x,-y,-z
loop_
_atom_site_type_symbol
_atom_site_label
_atom_site_fract_x
_atom_site_fract_y
_atom_site_fract_z
Si Si1 0.815424 0.588053 0.936966
Si Si2 0.994106 0.353566 0.363381
Si Si3 0.393704 0.589778 0.080454
Si Si4 0.995162 0.167182 0.611792
Si Si5 0.443100 0.083488 0.059060
Si Si6 0.168479 0.463536 0.267389
Si Si7 0.320817 0.831048 0.362206
O O1 0.687294 0.512498 0.890424
O O2 0.989371 0.489408 0.151605
O O3 0.874793 0.419054 0.895454
O O4 0.731105 0.948913 0.800363
O O5 0.985253 0.270554 0.480364
O O6 0.777711 0.631370 0.138021
O O7 0.090953 0.520236 0.425070
O O8 0.090542 0.015878 0.424866
O O9 0.515719 0.268087 0.144782
O O10 0.482883 0.758874 0.168982
O O11 0.210947 0.887988 0.842793
O O12 0.500000 0.000000 0.000000
O O13 0.203537 0.704673 0.313937
O O14 0.320393 0.069209 0.414912
O O15 0.500000 0.500000 0.500000
#
# Coordination Sequence:
#
# PCOD9083599 Si02
#       7
#     2   2   2   2   2   2   2
#     4   9  21  33  58  81 112 139 189 226 267 320
#     4   8  14  26  45  62  85 118 153 197 238 298
#     4  10  20  31  54  75  97 133 175 219 262 306
#     4   8  14  26  43  67  85 111 159 198 241 283
#     4  10  20  33  49  73 100 137 171 212 262 322
#     4   9  20  34  56  82 110 147 179 225 263 327
#     4  10  19  34  57  81 109 152 182 211 272 336
#
# _framework density 27.214638000000001
#
# number of rings (size 3 to 8) (size 9 to 14) (size 15 to 20)
#    0.857    2.000    0.000    1.286    2.000    0.000 
#    0.000    0.000    6.286    0.000    0.000    0.000 
#    0.000    0.000    0.000    0.000    0.000    0.000 
#
# Total GULP energy -78010.803379 kJ/mol
# GULP energy per Si atom -5572.200241 kJ/mol
# Density = 2.715270 g / cm^3
# Si number density = 27.214638 Si / 1000 Ang^3
#
#
#
# Elastic Constant Matrix: (Units=GPa)
#
#
# Indices 1 2 3 4 5 6 
#
# 1 93.6737 9.7550 -0.0138 -8.6333 1.8701 21.7238
# 2 9.7550 306.2198 34.0729 -36.9794 -6.2714 22.2718
# 3 -0.0138 34.0729 11.9389 6.7918 45.8677 -4.7238
# 4 -8.6333 -36.9794 6.7918 25.9051 -17.1532 3.0804
# 5 1.8701 -6.2714 45.8677 -17.1532 -7.4511 5.7004
# 6 21.7238 22.2718 -4.7238 3.0804 5.7004 40.1181
#
#
#
# Elastic Compliance Matrix: (Units=1/GPa)
#
#
# Indices 1 2 3 4 5 6 
#
# 1 0.012627 0.000355 0.001516 0.003855 -0.001934 -0.006878
# 2 0.000355 0.003512 0.001135 0.002731 -0.003486 -0.001723
# 3 0.001516 0.001135 0.007684 0.011711 0.016830 -0.003837
# 4 0.003855 0.002731 0.011711 0.034174 -0.010482 -0.003359
# 5 -0.001934 -0.003486 0.016830 -0.010482 0.000349 0.005719
# 6 -0.006878 -0.001723 -0.003837 -0.003359 0.005719 0.028600
#
#
# Mechanical properties :
#
#
# Convention : Reuss Voigt Hill
#
# Bulk Modulus (GPa) = 33.51783 55.49563 44.50673
# Shear Modulus (GPa) = 55.01805 36.24898 45.63352
#
# Velocity S-wave (km/s) = 4.50114 3.65357 4.09932
# Velocity P-wave (km/s) = 6.27347 6.18338 6.22859
#
# Compressibility (1/GPa) = 0.02983486
#
# Stress axis : x y z
#
# Youngs Moduli (GPa) = 79.19228 284.76110 130.14549
#
# Poissons Ratio (x) = -0.10115 -0.19731
# Poissons Ratio (y) = -0.02813 -0.14768
# Poissons Ratio (z) = -0.12006 -0.32312
#
# Static dielectric constant tensor:
#      x y z
#    x 2.186920 -0.023140 -0.021200 
#    y -0.023140 2.237420 0.123370 
#    z -0.021200 0.123370 2.267270 
# 
# From -- ./inp_files/45567.got.cif
#   From: 2010.05.17/outbox.cif.g08.bks.cpg/sg2_23_cif.got.tgz:45567.got - 2010.06.03 11:33:40.
