data_PCOD9083992
_publ_section_title
;
Structure prediction by ZEFSAII (Michael W. Deem and Ramdas Pophale) SiO2 
 PCOD9083992
Probable space group: P -1
;
_chemical_formula_sum "Si O2"
_cell_formula_units_Z 14
_cell_length_a 14.687556
_cell_length_b 8.252463
_cell_length_c 10.009720
_cell_angle_alpha 116.093066
_cell_angle_beta 115.146305
_cell_angle_gamma 117.230361
_cell_volume 601.240086
_symmetry_space_group_name_H-M "P -1"
_symmetry_group_IT_number 2
_symmetry_cell_setting 'triclinic'
loop_
_space_group_symop_operation_xyz
x,y,z
-x,-y,-z
loop_
_atom_site_type_symbol
_atom_site_label
_atom_site_fract_x
_atom_site_fract_y
_atom_site_fract_z
Si Si1 0.703821 0.813688 0.583897
Si Si2 0.816775 0.586440 0.466697
Si Si3 0.153785 0.332512 0.779484
Si Si4 0.819727 0.213969 0.353670
Si Si5 0.585222 0.584025 0.937919
Si Si6 0.952065 0.356144 0.757413
Si Si7 0.077954 0.929330 0.959436
O O1 0.747271 0.680319 0.497238
O O2 0.537066 0.628959 0.338049
O O3 0.835562 0.149402 0.733927
O O4 0.741562 0.835903 0.773347
O O5 0.782712 0.498172 0.259172
O O6 0.745029 0.301207 0.380442
O O7 0.007806 0.856075 0.737962
O O8 0.097370 0.415405 0.869037
O O9 0.290582 0.403664 0.956643
O O10 0.000000 0.000000 0.500000
O O11 0.852306 0.154329 0.488979
O O12 0.000000 0.500000 0.500000
O O13 0.690610 0.911910 0.083612
O O14 0.500000 0.500000 0.000000
O O15 0.996620 0.624570 0.846565
O O16 0.000000 0.000000 0.000000
#
# Coordination Sequence:
#
# PCOD9083992 Si02
#       7
#     2   2   2   2   2   2   2
#     4  11  21  40  58  90 123 162 206 252 304 360
#     4  10  19  34  59  88 121 153 206 251 302 357
#     4  12  19  36  60  94 119 160 200 249 310 369
#     4  11  20  33  58  93 121 158 197 248 315 361
#     4  12  22  37  60  91 133 157 199 260 309 359
#     4  11  20  36  66  88 119 164 212 246 300 373
#     4   9  22  38  59  88 119 165 209 252 292 368
#
# _framework density 23.285208000000001
#
# number of rings (size 3 to 8) (size 9 to 14) (size 15 to 20)
#    0.000    1.143    7.143    0.429    0.000    0.571 
#    0.000    0.714    0.000    7.714    0.000    0.000 
#    0.000    0.000    0.000    0.000    0.000    0.000 
#
# Total GULP energy -77960.903799 kJ/mol
# GULP energy per Si atom -5568.635986 kJ/mol
# Density = 2.323221 g / cm^3
# Si number density = 23.285208 Si / 1000 Ang^3
#
#
#
# Elastic Constant Matrix: (Units=GPa)
#
#
# Indices 1 2 3 4 5 6 
#
# 1 88.2927 41.1988 28.0132 7.3151 3.9499 -33.9579
# 2 41.1988 76.5671 38.7919 -13.5532 16.5146 -19.9592
# 3 28.0132 38.7919 137.8980 -43.9630 16.2477 -11.0961
# 4 7.3151 -13.5532 -43.9630 49.5013 -10.3721 -4.9035
# 5 3.9499 16.5146 16.2477 -10.3721 28.5091 -7.6371
# 6 -33.9579 -19.9592 -11.0961 -4.9035 -7.6371 46.5863
#
#
#
# Elastic Compliance Matrix: (Units=1/GPa)
#
#
# Indices 1 2 3 4 5 6 
#
# 1 0.021140 -0.008948 -0.003610 -0.006714 0.004760 0.010789
# 2 -0.008948 0.021727 -0.001944 0.003906 -0.008456 0.001348
# 3 -0.003610 -0.001944 0.012043 0.010439 -0.001365 0.000279
# 4 -0.006714 0.003906 0.010439 0.033105 0.005752 0.003693
# 5 0.004760 -0.008456 -0.001365 0.005752 0.044159 0.007366
# 6 0.010789 0.001348 0.000279 0.003693 0.007366 0.031570
#
#
# Mechanical properties :
#
#
# Convention : Reuss Voigt Hill
#
# Bulk Modulus (GPa) = 38.60353 57.64062 48.12208
# Shear Modulus (GPa) = 24.82816 37.90295 31.36555
#
# Velocity S-wave (km/s) = 3.26891 4.03894 3.67415
# Velocity P-wave (km/s) = 5.55538 6.82339 6.22177
#
# Compressibility (1/GPa) = 0.02590436
#
# Stress axis : x y z
#
# Youngs Moduli (GPa) = 47.30426 46.02607 83.03394
#
# Poissons Ratio (x) = 0.41185 0.29979
# Poissons Ratio (y) = 0.42329 0.16143
# Poissons Ratio (z) = 0.17079 0.08948
#
# Static dielectric constant tensor:
#      x y z
#    x 1.932620 0.078080 0.009880 
#    y 0.078080 2.054670 -0.022160 
#    z 0.009880 -0.022160 1.974090 
# 
# From -- ./inp_files/448074.got.cif
#   From: 2010.05.17/outbox.cif.g08.bks.cpg/sg2_225_cif.got.tgz:448074.got - 2010.06.03 11:33:40.
