data_PCOD9083097
_publ_section_title
;
Structure prediction by ZEFSAII (Michael W. Deem and Ramdas Pophale) SiO2 
 PCOD9083097
Probable space group: P -1
;
_chemical_formula_sum "Si O2"
_cell_formula_units_Z 16
_cell_length_a 15.080516
_cell_length_b 21.146184
_cell_length_c 9.264385
_cell_angle_alpha 109.194774
_cell_angle_beta 120.689082
_cell_angle_gamma 21.623950
_cell_volume 831.458804
_symmetry_space_group_name_H-M "P -1"
_symmetry_group_IT_number 2
_symmetry_cell_setting 'triclinic'
loop_
_space_group_symop_operation_xyz
x,y,z
-x,-y,-z
loop_
_atom_site_type_symbol
_atom_site_label
_atom_site_fract_x
_atom_site_fract_y
_atom_site_fract_z
Si Si1 0.480270 0.687145 0.461236
Si Si2 0.848363 0.750131 0.229902
Si Si3 0.154256 0.019153 0.383356
Si Si4 0.178195 0.649141 0.926545
Si Si5 0.309227 0.720111 0.046182
Si Si6 0.768720 0.282490 0.539252
Si Si7 0.699253 0.927257 0.511593
Si Si8 0.216110 0.098344 0.941029
O O1 0.339813 0.845956 0.476276
O O2 0.386965 0.718109 0.246019
O O3 0.344408 0.718202 0.488356
O O4 0.835993 0.469864 0.620421
O O5 0.729990 0.874021 0.344238
O O6 0.867810 0.784080 0.130294
O O7 0.569029 0.871206 0.066471
O O8 0.364724 0.954774 0.472608
O O9 0.901747 0.195492 0.422640
O O10 0.993959 0.090925 0.156316
O O11 0.430705 0.439289 0.978342
O O12 0.024053 0.733720 0.707938
O O13 0.308970 0.643853 0.048308
O O14 0.916503 0.806304 0.941339
O O15 0.500000 0.500000 0.500000
O O16 0.039473 0.145404 0.757456
O O17 0.500000 0.000000 0.500000
#
# Coordination Sequence:
#
# PCOD9083097 Si02
#       8
#     2   2   2   2   2   2   2   2
#     4  12  23  41  62  91 132 163 197 257 321 367
#     4  11  23  38  62  91 123 163 206 257 301 366
#     4  11  25  40  60  94 127 159 203 259 316 368
#     4  10  19  33  62  94 115 153 216 256 297 350
#     4  10  21  35  61  92 121 158 202 261 304 364
#     4  12  22  41  68  93 118 165 212 254 300 368
#     4  11  20  39  64  85 118 162 211 256 300 362
#     4  11  21  37  64  92 121 156 216 257 294 354
#
# _framework density 19.243286000000001
#
# number of rings (size 3 to 8) (size 9 to 14) (size 15 to 20)
#    0.000    1.000    6.250    1.500    1.750    0.000 
#    0.000    1.250    2.750    0.000    0.000    0.000 
#    0.000    0.000    0.000    0.000    0.000    0.000 
#
# Total GULP energy -89186.780615 kJ/mol
# GULP energy per Si atom -5574.173788 kJ/mol
# Density = 1.919949 g / cm^3
# Si number density = 19.243286 Si / 1000 Ang^3
#
#
#
# Elastic Constant Matrix: (Units=GPa)
#
#
# Indices 1 2 3 4 5 6 
#
# 1 109.4387 49.4383 21.7136 -17.5566 6.2635 4.1781
# 2 49.4383 69.5441 22.7946 -12.4564 3.6009 3.6919
# 3 21.7136 22.7946 99.2978 -11.4301 11.4986 -2.3004
# 4 -17.5566 -12.4564 -11.4301 23.0295 -8.3329 -2.1595
# 5 6.2635 3.6009 11.4986 -8.3329 28.2386 -2.2129
# 6 4.1781 3.6919 -2.3004 -2.1595 -2.2129 25.3858
#
#
#
# Elastic Compliance Matrix: (Units=1/GPa)
#
#
# Indices 1 2 3 4 5 6 
#
# 1 0.014177 -0.008890 -0.000395 0.005663 -0.000227 -0.000614
# 2 -0.008890 0.022431 -0.002915 0.004281 0.001439 -0.001574
# 3 -0.000395 -0.002915 0.011567 0.002806 -0.003306 0.001488
# 4 0.005663 0.004281 0.002806 0.057062 0.014270 0.004798
# 5 -0.000227 0.001439 -0.003306 0.014270 0.041176 0.004332
# 6 -0.000614 -0.001574 0.001488 0.004798 0.004332 0.040643
#
#
# Mechanical properties :
#
#
# Convention : Reuss Voigt Hill
#
# Bulk Modulus (GPa) = 42.06479 51.79705 46.93092
# Shear Modulus (GPa) = 22.79150 27.61970 25.20560
#
# Velocity S-wave (km/s) = 3.44523 3.79263 3.62310
# Velocity P-wave (km/s) = 6.14272 6.79368 6.47639
#
# Compressibility (1/GPa) = 0.02377285
#
# Stress axis : x y z
#
# Youngs Moduli (GPa) = 70.53719 44.58201 86.45517
#
# Poissons Ratio (x) = 0.39633 0.03418
# Poissons Ratio (y) = 0.62707 0.25205
# Poissons Ratio (z) = 0.02789 0.12997
#
# Static dielectric constant tensor:
#      x y z
#    x 1.718250 -0.035200 0.013940 
#    y -0.035200 1.704510 -0.004450 
#    z 0.013940 -0.004450 1.703020 
# 
# From -- ./inp_files/215518.got.cif
#   From: 2010.05.17/outbox.cif.g08.bks.cpg/sg2_108_cif.got.tgz:215518.got - 2010.06.03 11:33:40.
