data_PCOD9083803
_publ_section_title
;
Structure prediction by ZEFSAII (Michael W. Deem and Ramdas Pophale) SiO2 
 PCOD9083803
Probable space group: P -1
;
_chemical_formula_sum "Si O2"
_cell_formula_units_Z 16
_cell_length_a 12.357991
_cell_length_b 14.016515
_cell_length_c 16.147237
_cell_angle_alpha 137.777921
_cell_angle_beta 22.430302
_cell_angle_gamma 125.930107
_cell_volume 663.042784
_symmetry_space_group_name_H-M "P -1"
_symmetry_group_IT_number 2
_symmetry_cell_setting 'triclinic'
loop_
_space_group_symop_operation_xyz
x,y,z
-x,-y,-z
loop_
_atom_site_type_symbol
_atom_site_label
_atom_site_fract_x
_atom_site_fract_y
_atom_site_fract_z
Si Si1 0.945313 0.208293 0.210654
Si Si2 0.084911 0.193291 0.293155
Si Si3 0.205699 0.832736 0.352901
Si Si4 0.365020 0.487630 0.177520
Si Si5 0.475734 0.983231 0.602980
Si Si6 0.594527 0.518711 0.213640
Si Si7 0.131702 0.270010 0.745125
Si Si8 0.321376 0.094522 0.344153
O O1 0.721988 0.117650 0.292757
O O2 0.747243 0.386870 0.449942
O O3 0.001791 0.174769 0.246000
O O4 0.263380 0.143908 0.896310
O O5 0.860080 0.171168 0.506844
O O6 0.980829 0.381408 0.495062
O O7 0.398930 0.043576 0.985778
O O8 0.196307 0.991600 0.425221
O O9 0.524360 0.697378 0.014199
O O10 0.923303 0.811745 0.490966
O O11 0.539476 0.524045 0.157032
O O12 0.500000 0.500000 0.000000
O O13 0.804760 0.878110 0.338083
O O14 0.500000 0.000000 0.500000
O O15 0.789527 0.614195 0.174051
O O16 0.788174 0.350624 0.003675
O O17 0.342775 0.214494 0.476067
#
# Coordination Sequence:
#
# PCOD9083803 Si02
#       8
#     2   2   2   2   2   2   2   2
#     4   9  19  34  54  82 107 143 188 226 283 335
#     4  10  20  35  59  82 110 150 192 235 280 340
#     4  10  22  36  57  83 116 150 190 239 281 342
#     4   9  18  36  57  83 115 152 191 234 277 338
#     4  10  20  34  55  82 112 143 181 234 284 339
#     4   9  18  35  58  81 113 154 192 230 284 338
#     4  10  19  34  58  84 112 152 188 235 287 341
#     4  11  21  36  56  86 116 147 192 235 295 333
#
# _framework density 24.131173
#
# number of rings (size 3 to 8) (size 9 to 14) (size 15 to 20)
#    0.000    2.250    2.500    0.375    1.750    0.500 
#    0.000    0.625    0.000    3.000    0.000    0.000 
#    0.000    0.000    0.000    0.000    0.000    0.000 
#
# Total GULP energy -89080.744070 kJ/mol
# GULP energy per Si atom -5567.546504 kJ/mol
# Density = 2.407625 g / cm^3
# Si number density = 24.131173 Si / 1000 Ang^3
#
#
#
# Elastic Constant Matrix: (Units=GPa)
#
#
# Indices 1 2 3 4 5 6 
#
# 1 129.8806 28.6313 71.3399 -0.9076 15.3758 -16.3463
# 2 28.6313 35.8423 34.3286 15.2604 -6.5171 -6.3775
# 3 71.3399 34.3286 207.9318 24.5573 -1.4606 -40.5979
# 4 -0.9076 15.2604 24.5573 31.8259 -10.5699 -0.0038
# 5 15.3758 -6.5171 -1.4606 -10.5699 43.1007 11.1532
# 6 -16.3463 -6.3775 -40.5979 -0.0038 11.1532 39.7645
#
#
#
# Elastic Compliance Matrix: (Units=1/GPa)
#
#
# Indices 1 2 3 4 5 6 
#
# 1 0.012454 -0.010203 -0.002930 0.005792 -0.005167 0.001942
# 2 -0.010203 0.047298 -0.002061 -0.019360 0.006083 -0.000421
# 3 -0.002930 -0.002061 0.008417 -0.006444 -0.002575 0.007780
# 4 0.005792 -0.019360 -0.006444 0.048949 0.009360 -0.009923
# 5 -0.005167 0.006083 -0.002575 0.009360 0.031431 -0.012592
# 6 0.001942 -0.000421 0.007780 -0.009923 -0.012592 0.037353
#
#
# Mechanical properties :
#
#
# Convention : Reuss Voigt Hill
#
# Bulk Modulus (GPa) = 26.46790 71.36159 48.91474
# Shear Modulus (GPa) = 21.84530 38.89521 30.37025
#
# Velocity S-wave (km/s) = 3.01204 4.01911 3.55145
# Velocity P-wave (km/s) = 4.80507 7.15362 6.09356
#
# Compressibility (1/GPa) = 0.03778162
#
# Stress axis : x y z
#
# Youngs Moduli (GPa) = 80.29352 21.14258 118.81239
#
# Poissons Ratio (x) = 0.21571 0.34809
# Poissons Ratio (y) = 0.81921 0.24489
# Poissons Ratio (z) = 0.23524 0.04358
#
# Static dielectric constant tensor:
#      x y z
#    x 2.002350 0.130720 0.002310 
#    y 0.130720 2.043830 0.107600 
#    z 0.002310 0.107600 2.047950 
# 
# From -- ./inp_files/522402.got.cif
#   From: 2010.05.17/outbox.cif.g08.bks.cpg/sg2_262_cif.got.tgz:522402.got - 2010.06.03 11:33:40.
