data_PCOD9083739
_publ_section_title
;
Structure prediction by ZEFSAII (Michael W. Deem and Ramdas Pophale) SiO2 
 PCOD9083739
Probable space group: P -1
;
_chemical_formula_sum "Si O2"
_cell_formula_units_Z 14
_cell_length_a 14.301649
_cell_length_b 14.487517
_cell_length_c 8.749511
_cell_angle_alpha 98.229706
_cell_angle_beta 62.977051
_cell_angle_gamma 152.092672
_cell_volume 593.247209
_symmetry_space_group_name_H-M "P -1"
_symmetry_group_IT_number 2
_symmetry_cell_setting 'triclinic'
loop_
_space_group_symop_operation_xyz
x,y,z
-x,-y,-z
loop_
_atom_site_type_symbol
_atom_site_label
_atom_site_fract_x
_atom_site_fract_y
_atom_site_fract_z
Si Si1 0.538873 0.949836 0.084155
Si Si2 0.909488 0.123278 0.383453
Si Si3 0.501721 0.591399 0.913824
Si Si4 0.762600 0.210763 0.472060
Si Si5 0.090359 0.909196 0.273199
Si Si6 0.054417 0.444225 0.017405
Si Si7 0.441708 0.607735 0.637710
O O1 0.287886 0.758418 0.347431
O O2 0.798359 0.177593 0.065563
O O3 0.500000 0.000000 0.000000
O O4 0.656465 0.956047 0.913554
O O5 0.770070 0.110424 0.499275
O O6 0.184669 0.366414 0.132897
O O7 0.981402 0.150263 0.507949
O O8 0.704559 0.871361 0.414900
O O9 0.500000 0.500000 0.000000
O O10 0.763527 0.873575 0.832165
O O11 0.523491 0.606850 0.716563
O O12 0.500000 0.000000 0.500000
O O13 0.028172 0.440607 0.216396
O O14 0.806460 0.643891 0.334467
O O15 0.318398 0.600251 0.808040
O O16 0.000000 0.500000 0.000000
#
# Coordination Sequence:
#
# PCOD9083739 Si02
#       7
#     2   2   2   2   2   2   2
#     4  10  19  34  57  92 134 168 210 263 315 387
#     4  11  22  43  68  94 133 175 219 269 333 396
#     4  11  26  47  70  94 129 174 224 281 335 386
#     4  10  19  34  61  93 131 182 217 253 329 395
#     4  10  24  43  64 102 135 167 222 275 324 400
#     4  10  20  35  57  90 132 177 218 258 316 396
#     4  10  22  42  68  94 134 171 215 275 327 388
#
# _framework density 23.598931
#
# number of rings (size 3 to 8) (size 9 to 14) (size 15 to 20)
#    0.000    1.714    2.857    1.714    2.000    4.000 
#    5.143    2.857    0.000    0.000    0.000    0.000 
#    0.000    0.000    0.000    0.000    0.000    0.000 
#
# Total GULP energy -78116.433794 kJ/mol
# GULP energy per Si atom -5579.745271 kJ/mol
# Density = 2.354522 g / cm^3
# Si number density = 23.598931 Si / 1000 Ang^3
#
#
#
# Elastic Constant Matrix: (Units=GPa)
#
#
# Indices 1 2 3 4 5 6 
#
# 1 96.2503 7.6189 -13.4537 0.5514 15.5393 -10.1557
# 2 7.6189 137.2229 20.5302 -12.1439 12.6097 4.5780
# 3 -13.4537 20.5302 74.4409 -6.5038 19.1114 -1.6903
# 4 0.5514 -12.1439 -6.5038 26.4305 0.8112 6.2695
# 5 15.5393 12.6097 19.1114 0.8112 34.0553 -10.1854
# 6 -10.1557 4.5780 -1.6903 6.2695 -10.1854 29.4662
#
#
#
# Elastic Compliance Matrix: (Units=1/GPa)
#
#
# Indices 1 2 3 4 5 6 
#
# 1 0.012449 -0.000733 0.004376 0.000202 -0.007238 0.002111
# 2 -0.000733 0.008342 -0.001290 0.004509 -0.003245 -0.003704
# 3 0.004376 -0.001290 0.018181 0.004802 -0.012624 -0.002634
# 4 0.000202 0.004509 0.004802 0.044476 -0.009427 -0.013077
# 5 -0.007238 -0.003245 -0.012624 -0.009427 0.045689 0.015084
# 6 0.002111 -0.003704 -0.002634 -0.013077 0.015084 0.043085
#
#
# Mechanical properties :
#
#
# Convention : Reuss Voigt Hill
#
# Bulk Modulus (GPa) = 22.89502 37.47834 30.18668
# Shear Modulus (GPa) = 27.46101 37.53831 32.49966
#
# Velocity S-wave (km/s) = 3.41494 3.99266 3.71505
# Velocity P-wave (km/s) = 5.02711 6.09680 5.58761
#
# Compressibility (1/GPa) = 0.04367762
#
# Stress axis : x y z
#
# Youngs Moduli (GPa) = 80.32457 119.87568 55.00258
#
# Poissons Ratio (x) = 0.08791 -0.24070
# Poissons Ratio (y) = 0.05891 0.07096
# Poissons Ratio (z) = -0.35151 0.15466
#
# Static dielectric constant tensor:
#      x y z
#    x 1.924200 -0.007570 -0.054400 
#    y -0.007570 1.906010 -0.072380 
#    z -0.054400 -0.072380 2.015530 
# 
# From -- ./inp_files/313494.got.cif
#   From: 2010.05.17/outbox.cif.g08.bks.cpg/sg2_157_cif.got.tgz:313494.got - 2010.06.03 11:33:40.
