data_PCOD9083210
_publ_section_title
;
Structure prediction by ZEFSAII (Michael W. Deem and Ramdas Pophale) SiO2 
 PCOD9083210
Probable space group: P -1
;
_chemical_formula_sum "Si O2"
_cell_formula_units_Z 16
_cell_length_a 14.567049
_cell_length_b 13.055339
_cell_length_c 6.266255
_cell_angle_alpha 43.697330
_cell_angle_beta 70.432002
_cell_angle_gamma 51.734057
_cell_volume 632.257428
_symmetry_space_group_name_H-M "P -1"
_symmetry_group_IT_number 2
_symmetry_cell_setting 'triclinic'
loop_
_space_group_symop_operation_xyz
x,y,z
-x,-y,-z
loop_
_atom_site_type_symbol
_atom_site_label
_atom_site_fract_x
_atom_site_fract_y
_atom_site_fract_z
Si Si1 0.452569 0.876560 0.201986
Si Si2 0.193176 0.759076 0.964808
Si Si3 0.910336 0.614484 0.699989
Si Si4 0.368206 0.774538 0.052827
Si Si5 0.230568 0.140075 0.204375
Si Si6 0.003856 0.256287 0.943646
Si Si7 0.705070 0.590868 0.334695
Si Si8 0.371802 0.521620 0.803554
O O1 0.393146 0.899188 0.983671
O O2 0.575826 0.677600 0.415209
O O3 0.500000 0.000000 0.000000
O O4 0.352404 0.946946 0.352391
O O5 0.245148 0.855933 0.899965
O O6 0.208114 0.609587 0.344079
O O7 0.056990 0.850563 0.867671
O O8 0.285033 0.645370 0.873309
O O9 0.957025 0.697146 0.375193
O O10 0.909831 0.457141 0.817886
O O11 0.796643 0.783274 0.651894
O O12 0.000000 0.500000 0.000000
O O13 0.366882 0.654656 0.427454
O O14 0.487512 0.632702 0.036883
O O15 0.120141 0.153901 0.159737
O O16 0.247403 0.285810 0.854015
O O17 0.679059 0.579332 0.124709
#
# Coordination Sequence:
#
# PCOD9083210 Si02
#       8
#     2   2   2   2   2   2   2   2
#     4   9  19  37  56  73 103 140 170 208 254 305
#     4  11  19  31  55  80 106 133 167 217 264 302
#     4   9  17  31  51  73 104 137 172 215 255 293
#     4   9  19  34  52  78 104 132 172 211 254 309
#     4  10  19  34  53  74 108 144 171 207 254 305
#     4  10  20  31  49  80 106 132 173 215 256 303
#     4   9  18  32  53  81 104 132 175 214 255 305
#     4   9  18  33  54  78 105 132 167 218 264 299
#
# _framework density 25.306145999999998
#
# number of rings (size 3 to 8) (size 9 to 14) (size 15 to 20)
#    0.000    2.500    0.000    4.125    0.000    3.000 
#    0.000    4.375    0.000   15.000    0.000    0.000 
#    0.000    0.000    0.000    0.000    0.000    0.000 
#
# Total GULP energy -89425.125732 kJ/mol
# GULP energy per Si atom -5589.070358 kJ/mol
# Density = 2.524855 g / cm^3
# Si number density = 25.306146 Si / 1000 Ang^3
#
#
#
# Elastic Constant Matrix: (Units=GPa)
#
#
# Indices 1 2 3 4 5 6 
#
# 1 186.0820 30.9510 25.2991 2.7600 -2.1999 23.4276
# 2 30.9510 84.8776 5.6597 22.0868 -6.7103 -4.6490
# 3 25.2991 5.6597 62.0105 1.0810 -0.8655 -5.7913
# 4 2.7600 22.0868 1.0810 34.1110 -6.9991 -8.6908
# 5 -2.1999 -6.7103 -0.8655 -6.9991 25.8818 1.7346
# 6 23.4276 -4.6490 -5.7913 -8.6908 1.7346 43.3426
#
#
#
# Elastic Compliance Matrix: (Units=1/GPa)
#
#
# Indices 1 2 3 4 5 6 
#
# 1 0.006726 -0.002511 -0.002915 0.000113 0.000140 -0.004278
# 2 -0.002511 0.015234 -0.000087 -0.009134 0.001190 0.001101
# 3 -0.002915 -0.000087 0.017694 0.000828 0.000272 0.004085
# 4 0.000113 -0.009134 0.000828 0.038406 0.007622 0.006466
# 5 0.000140 0.001190 0.000272 0.007622 0.041030 -0.000026
# 6 -0.004278 0.001101 0.004085 0.006466 -0.000026 0.027346
#
#
# Mechanical properties :
#
#
# Convention : Reuss Voigt Hill
#
# Bulk Modulus (GPa) = 34.92958 50.75439 42.84199
# Shear Modulus (GPa) = 29.93921 38.73775 34.33848
#
# Velocity S-wave (km/s) = 3.44333 3.91674 3.68764
# Velocity P-wave (km/s) = 5.44439 6.36822 5.92434
#
# Compressibility (1/GPa) = 0.02862903
#
# Stress axis : x y z
#
# Youngs Moduli (GPa) = 148.66758 65.64146 56.51545
#
# Poissons Ratio (x) = 0.16483 0.16472
# Poissons Ratio (y) = 0.37331 0.00494
# Poissons Ratio (z) = 0.43330 0.00573
#
# Static dielectric constant tensor:
#      x y z
#    x 2.053680 0.014840 0.017520 
#    y 0.014840 2.024350 -0.004210 
#    z 0.017520 -0.004210 2.014140 
# 
# From -- ./inp_files/94595.got.cif
#   From: 2010.05.17/outbox.cif.g08.bks.cpg/sg2_48_cif.got.tgz:94595.got - 2010.06.03 11:33:40.
