data_PCOD9083572
_publ_section_title
;
Structure prediction by ZEFSAII (Michael W. Deem and Ramdas Pophale) SiO2 
 PCOD9083572
Probable space group: P -1
;
_chemical_formula_sum "Si O2"
_cell_formula_units_Z 14
_cell_length_a 12.893926
_cell_length_b 31.706990
_cell_length_c 15.416134
_cell_angle_alpha 17.956385
_cell_angle_beta 31.325262
_cell_angle_gamma 21.365011
_cell_volume 679.104221
_symmetry_space_group_name_H-M "P -1"
_symmetry_group_IT_number 2
_symmetry_cell_setting 'triclinic'
loop_
_space_group_symop_operation_xyz
x,y,z
-x,-y,-z
loop_
_atom_site_type_symbol
_atom_site_label
_atom_site_fract_x
_atom_site_fract_y
_atom_site_fract_z
Si Si1 0.592448 0.650675 0.658121
Si Si2 0.284346 0.018960 0.052520
Si Si3 0.838678 0.551383 0.924797
Si Si4 0.824590 0.311796 0.029973
Si Si5 0.444246 0.012015 0.251476
Si Si6 0.198266 0.379324 0.829182
Si Si7 0.637912 0.444474 0.720811
O O1 0.382792 0.821286 0.402498
O O2 0.391594 0.707759 0.770400
O O3 0.881694 0.585908 0.607316
O O4 0.742928 0.444056 0.911687
O O5 0.363420 0.005037 0.923931
O O6 0.500000 0.000000 0.000000
O O7 0.933729 0.212459 0.935708
O O8 0.085437 0.413045 0.941995
O O9 0.625054 0.790096 0.590620
O O10 0.640964 0.514519 0.150107
O O11 0.000000 0.500000 0.000000
O O12 0.164064 0.106794 0.206784
O O13 0.742118 0.436204 0.759452
O O14 0.334842 0.174832 0.085438
O O15 0.401681 0.406575 0.606440
#
# Coordination Sequence:
#
# PCOD9083572 Si02
#       7
#     2   2   2   2   2   2   2
#     4  10  19  34  56  99 138 164 205 252 322 399
#     4  12  20  33  62  98 139 171 201 249 324 399
#     4  12  28  49  68  91 126 173 231 281 321 371
#     4  10  20  33  63  97 132 169 204 255 323 400
#     4  11  23  43  66  98 136 171 211 267 327 394
#     4  11  23  44  68  96 132 170 216 269 326 388
#     4  12  23  40  68  99 134 173 212 263 326 389
#
# _framework density 20.615393000000001
#
# number of rings (size 3 to 8) (size 9 to 14) (size 15 to 20)
#    0.000    0.857    5.714    1.714    0.000    4.571 
#    2.571    0.714    0.000    0.000    0.000    0.000 
#    0.000    0.000    0.000    0.000    0.000    0.000 
#
# Total GULP energy -78045.817026 kJ/mol
# GULP energy per Si atom -5574.701216 kJ/mol
# Density = 2.056847 g / cm^3
# Si number density = 20.615393 Si / 1000 Ang^3
#
#
#
# Elastic Constant Matrix: (Units=GPa)
#
#
# Indices 1 2 3 4 5 6 
#
# 1 93.1271 43.3849 17.6710 8.5870 5.4590 15.4630
# 2 43.3849 89.0622 28.9101 27.2218 6.1322 27.3676
# 3 17.6710 28.9101 66.5790 16.0051 -9.3373 9.4513
# 4 8.5870 27.2218 16.0051 35.5618 7.9546 -0.8277
# 5 5.4590 6.1322 -9.3373 7.9546 14.3535 -2.2655
# 6 15.4630 27.3676 9.4513 -0.8277 -2.2655 30.5573
#
#
#
# Elastic Compliance Matrix: (Units=1/GPa)
#
#
# Indices 1 2 3 4 5 6 
#
# 1 0.014606 -0.006852 -0.002916 0.004625 -0.007208 -0.000762
# 2 -0.006852 0.028110 -0.004030 -0.017239 -0.005843 -0.021362
# 3 -0.002916 -0.004030 0.024403 -0.012976 0.025754 -0.000905
# 4 0.004625 -0.017239 -0.012976 0.053054 -0.029656 0.016351
# 5 -0.007208 -0.005843 0.025754 -0.029656 0.109393 0.008222
# 6 -0.000762 -0.021362 -0.000905 0.016351 0.008222 0.053575
#
#
# Mechanical properties :
#
#
# Convention : Reuss Voigt Hill
#
# Bulk Modulus (GPa) = 25.30150 47.63338 36.46744
# Shear Modulus (GPa) = 15.43633 26.68132 21.05883
#
# Velocity S-wave (km/s) = 2.73935 3.60146 3.19957
# Velocity P-wave (km/s) = 4.72283 6.36003 5.60156
#
# Compressibility (1/GPa) = 0.03952335
#
# Stress axis : x y z
#
# Youngs Moduli (GPa) = 68.46574 35.57489 40.97820
#
# Poissons Ratio (x) = 0.24374 0.11949
# Poissons Ratio (y) = 0.46910 0.16515
# Poissons Ratio (z) = 0.19965 0.14337
#
# Static dielectric constant tensor:
#      x y z
#    x 1.758150 -0.012940 -0.060390 
#    y -0.012940 1.818270 0.058460 
#    z -0.060390 0.058460 1.790110 
# 
# From -- ./inp_files/266944.got.cif
#   From: 2010.05.17/outbox.cif.g08.bks.cpg/sg2_134_cif.got.tgz:266944.got - 2010.06.03 11:33:40.
