data_PCOD9083359
_publ_section_title
;
Structure prediction by ZEFSAII (Michael W. Deem and Ramdas Pophale) SiO2 
 PCOD9083359
Probable space group: P -1
;
_chemical_formula_sum "Si O2"
_cell_formula_units_Z 10
_cell_length_a 9.880081
_cell_length_b 5.652527
_cell_length_c 10.050337
_cell_angle_alpha 79.344497
_cell_angle_beta 124.857545
_cell_angle_gamma 67.810275
_cell_volume 362.319198
_symmetry_space_group_name_H-M "P -1"
_symmetry_group_IT_number 2
_symmetry_cell_setting 'triclinic'
loop_
_space_group_symop_operation_xyz
x,y,z
-x,-y,-z
loop_
_atom_site_type_symbol
_atom_site_label
_atom_site_fract_x
_atom_site_fract_y
_atom_site_fract_z
Si Si1 0.048601 0.361899 0.843592
Si Si2 0.177846 0.727972 0.984456
Si Si3 0.390356 0.354879 0.402015
Si Si4 0.243558 0.288592 0.692932
Si Si5 0.757546 0.217035 0.294831
O O1 0.820445 0.502240 0.647217
O O2 0.024156 0.636431 0.877557
O O3 0.223633 0.259689 0.843338
O O4 0.111743 0.047678 0.970087
O O5 0.249690 0.728754 0.873536
O O6 0.318048 0.484447 0.199581
O O7 0.500000 0.500000 0.500000
O O8 0.500000 0.000000 0.500000
O O9 0.338181 0.469843 0.717170
O O10 0.000000 0.500000 0.500000
O O11 0.330182 0.971516 0.710694
O O12 0.000000 0.000000 0.500000
#
# Coordination Sequence:
#
# PCOD9083359 Si02
#       5
#     2   2   2   2   2
#     4  10  19  34  55  77 101 135 179 222 254 300
#     4  10  19  34  55  77 101 135 179 222 254 300
#     4  12  24  36  50  76 112 146 172 208 262 316
#     4   8  14  25  45  75  97 117 158 216 258 287
#     4   8  14  25  45  75  97 117 158 216 258 287
#
# _framework density 27.599972999999999
#
# number of rings (size 3 to 8) (size 9 to 14) (size 15 to 20)
#    0.000    2.400    0.000    3.600    0.000    0.000 
#    0.000    0.000    0.000    0.000    0.000  134.400 
#    0.000    0.000    0.000    0.000    0.000    0.000 
#
# Total GULP energy -55837.580660 kJ/mol
# GULP energy per Si atom -5583.758066 kJ/mol
# Density = 2.753715 g / cm^3
# Si number density = 27.599973 Si / 1000 Ang^3
#
#
#
# Elastic Constant Matrix: (Units=GPa)
#
#
# Indices 1 2 3 4 5 6 
#
# 1 87.5433 39.7447 9.1307 1.4832 2.4616 4.2120
# 2 39.7447 331.1169 38.9037 5.7786 10.6473 59.8423
# 3 9.1307 38.9037 127.9679 2.3664 -10.7935 10.9182
# 4 1.4832 5.7786 2.3664 57.5717 12.3666 4.6489
# 5 2.4616 10.6473 -10.7935 12.3666 35.8952 2.7207
# 6 4.2120 59.8423 10.9182 4.6489 2.7207 42.7586
#
#
#
# Elastic Compliance Matrix: (Units=1/GPa)
#
#
# Indices 1 2 3 4 5 6 
#
# 1 0.012163 -0.001598 -0.000533 -0.000106 -0.000577 0.001222
# 2 -0.001598 0.004372 -0.000828 0.000338 -0.001120 -0.005716
# 3 -0.000533 -0.000828 0.008482 -0.000855 0.003208 -0.001065
# 4 -0.000106 0.000338 -0.000855 0.018974 -0.006745 -0.001879
# 5 -0.000577 -0.001120 0.003208 -0.006745 0.031554 -0.000470
# 6 0.001222 -0.005716 -0.001065 -0.001879 -0.000470 0.031772
#
#
# Mechanical properties :
#
#
# Convention : Reuss Voigt Hill
#
# Bulk Modulus (GPa) = 52.35979 80.24291 66.30135
# Shear Modulus (GPa) = 41.80515 57.83502 49.82009
#
# Velocity S-wave (km/s) = 3.89611 4.58260 4.25323
# Velocity P-wave (km/s) = 6.26512 7.55890 6.94221
#
# Compressibility (1/GPa) = 0.01909863
#
# Stress axis : x y z
#
# Youngs Moduli (GPa) = 82.21555 228.71182 117.90297
#
# Poissons Ratio (x) = 0.36545 0.06285
# Poissons Ratio (y) = 0.13137 0.09765
# Poissons Ratio (z) = 0.04383 0.18943
#
# Static dielectric constant tensor:
#      x y z
#    x 2.264880 -0.069850 -0.056250 
#    y -0.069850 2.156570 0.009100 
#    z -0.056250 0.009100 2.199520 
# 
# From -- ./inp_files/33725.got.cif
#   From: 2010.05.17/outbox.cif.g08.bks.cpg/sg2_17_cif.got.tgz:33725.got - 2010.06.03 11:33:40.
