data_PCOD9083751
_publ_section_title
;
Structure prediction by ZEFSAII (Michael W. Deem and Ramdas Pophale) SiO2 
 PCOD9083751
Probable space group: P -1
;
_chemical_formula_sum "Si O2"
_cell_formula_units_Z 16
_cell_length_a 17.778970
_cell_length_b 8.982883
_cell_length_c 7.318283
_cell_angle_alpha 52.449666
_cell_angle_beta 93.470390
_cell_angle_gamma 58.822801
_cell_volume 659.815615
_symmetry_space_group_name_H-M "P -1"
_symmetry_group_IT_number 2
_symmetry_cell_setting 'triclinic'
loop_
_space_group_symop_operation_xyz
x,y,z
-x,-y,-z
loop_
_atom_site_type_symbol
_atom_site_label
_atom_site_fract_x
_atom_site_fract_y
_atom_site_fract_z
Si Si1 0.939871 0.966022 0.230045
Si Si2 0.250645 0.501180 0.393318
Si Si3 0.532934 0.204254 0.537161
Si Si4 0.030802 0.195633 0.049243
Si Si5 0.537047 0.054714 0.251635
Si Si6 0.863332 0.803428 0.635424
Si Si7 0.334772 0.710765 0.355193
Si Si8 0.712112 0.953637 0.208097
O O1 0.920149 0.858006 0.471907
O O2 0.969324 0.806252 0.168030
O O3 0.021639 0.993233 0.256851
O O4 0.835480 0.264373 0.929110
O O5 0.282136 0.602748 0.470263
O O6 0.224615 0.348357 0.595984
O O7 0.353719 0.255886 0.475535
O O8 0.508625 0.210853 0.315245
O O9 0.437371 0.459631 0.444765
O O10 0.626964 0.189830 0.582586
O O11 0.545712 0.965264 0.792542
O O12 0.129329 0.124241 0.215927
O O13 0.930930 0.494113 0.874839
O O14 0.586741 0.117637 0.070415
O O15 0.752415 0.956439 0.406888
O O16 0.265842 0.932600 0.024285
#
# Coordination Sequence:
#
# PCOD9083751 Si02
#       8
#     2   2   2   2   2   2   2   2
#     4  11  20  39  62  81 119 147 185 237 279 329
#     4   9  19  36  53  77 112 145 170 234 272 325
#     4   9  18  35  55  80 106 141 185 228 273 330
#     4  10  23  37  60  88 113 145 193 231 276 336
#     4   8  18  35  54  74 113 139 176 227 277 316
#     4  11  21  39  59  85 114 152 187 228 283 336
#     4  10  19  34  58  78 104 146 184 221 279 329
#     4  10  20  35  56  77 111 145 178 226 280 322
#
# _framework density 24.249199000000001
#
# number of rings (size 3 to 8) (size 9 to 14) (size 15 to 20)
#    0.750    1.500    2.500    0.750    0.000    2.000 
#    0.000    1.250    0.000    0.000    0.000    0.000 
#    0.000    0.000    0.000    0.000    0.000    0.000 
#
# Total GULP energy -89192.817944 kJ/mol
# GULP energy per Si atom -5574.551121 kJ/mol
# Density = 2.419401 g / cm^3
# Si number density = 24.249199 Si / 1000 Ang^3
#
#
#
# Elastic Constant Matrix: (Units=GPa)
#
#
# Indices 1 2 3 4 5 6 
#
# 1 93.0874 28.5408 14.9054 6.6497 -8.3861 40.3791
# 2 28.5408 122.0999 22.0803 14.8325 10.0863 28.1133
# 3 14.9054 22.0803 56.9684 0.7323 -3.4419 16.6161
# 4 6.6497 14.8325 0.7323 16.2925 1.8007 6.5218
# 5 -8.3861 10.0863 -3.4419 1.8007 25.7027 2.8892
# 6 40.3791 28.1133 16.6161 6.5218 2.8892 52.7898
#
#
#
# Elastic Compliance Matrix: (Units=1/GPa)
#
#
# Indices 1 2 3 4 5 6 
#
# 1 0.017661 -0.001695 0.000324 -0.001372 0.008026 -0.012978
# 2 -0.001695 0.011044 -0.003332 -0.007781 -0.004526 -0.002327
# 3 0.000324 -0.003332 0.020645 0.003745 0.004554 -0.005684
# 4 -0.001372 -0.007781 0.003745 0.070869 -0.001333 -0.004668
# 5 0.008026 -0.004526 0.004554 -0.001333 0.044842 -0.007452
# 6 -0.012978 -0.002327 -0.005684 -0.004668 -0.007452 0.032883
#
#
# Mechanical properties :
#
#
# Convention : Reuss Voigt Hill
#
# Bulk Modulus (GPa) = 25.03488 44.80094 34.91791
# Shear Modulus (GPa) = 22.65899 32.73229 27.69564
#
# Velocity S-wave (km/s) = 3.06015 3.67799 3.38320
# Velocity P-wave (km/s) = 4.77833 6.04584 5.44906
#
# Compressibility (1/GPa) = 0.03994427
#
# Stress axis : x y z
#
# Youngs Moduli (GPa) = 56.62195 90.55019 48.43819
#
# Poissons Ratio (x) = 0.15348 -0.01569
# Poissons Ratio (y) = 0.09597 0.16137
# Poissons Ratio (z) = -0.01834 0.30167
#
# Static dielectric constant tensor:
#      x y z
#    x 2.099210 0.007380 0.007700 
#    y 0.007380 1.923670 0.013530 
#    z 0.007700 0.013530 1.936610 
# 
# From -- ./inp_files/328454.got.cif
#   From: 2010.05.17/outbox.cif.g08.bks.cpg/sg2_165_cif.got.tgz:328454.got - 2010.06.03 11:33:40.
