data_PCOD9083853
_publ_section_title
;
Structure prediction by ZEFSAII (Michael W. Deem and Ramdas Pophale) SiO2 
 PCOD9083853
Probable space group: P -1
;
_chemical_formula_sum "Si O2"
_cell_formula_units_Z 16
_cell_length_a 11.111886
_cell_length_b 11.882310
_cell_length_c 11.871351
_cell_angle_alpha 67.586069
_cell_angle_beta 93.238846
_cell_angle_gamma 35.768715
_cell_volume 623.280216
_symmetry_space_group_name_H-M "P -1"
_symmetry_group_IT_number 2
_symmetry_cell_setting 'triclinic'
loop_
_space_group_symop_operation_xyz
x,y,z
-x,-y,-z
loop_
_atom_site_type_symbol
_atom_site_label
_atom_site_fract_x
_atom_site_fract_y
_atom_site_fract_z
Si Si1 0.036345 0.063066 0.575338
Si Si2 0.644187 0.534820 0.912739
Si Si3 0.168842 0.190275 0.430153
Si Si4 0.925548 0.451228 0.089083
Si Si5 0.075089 0.928280 0.204203
Si Si6 0.068284 0.193819 0.872561
Si Si7 0.402192 0.861249 0.221625
Si Si8 0.728950 0.659437 0.517553
O O1 0.345185 0.779614 0.753568
O O2 0.013765 0.213066 0.457116
O O3 0.000000 0.000000 0.500000
O O4 0.855690 0.190656 0.624974
O O5 0.822685 0.433871 0.860830
O O6 0.640000 0.641649 0.969185
O O7 0.808754 0.262909 0.061197
O O8 0.986527 0.418928 0.234614
O O9 0.230708 0.232534 0.513270
O O10 0.459507 0.887001 0.499784
O O11 0.149224 0.145678 0.177083
O O12 0.000000 0.500000 0.000000
O O13 0.985216 0.896874 0.134467
O O14 0.334770 0.778455 0.240529
O O15 0.989479 0.351470 0.704330
O O16 0.342074 0.963823 0.052904
O O17 0.651541 0.681652 0.381449
#
# Coordination Sequence:
#
# PCOD9083853 Si02
#       8
#     2   2   2   2   2   2   2   2
#     4  12  23  38  56  86 123 155 189 235 294 357
#     4  10  20  36  60  82 114 156 194 242 289 339
#     4  10  20  34  55  88 118 146 195 238 292 342
#     4   9  17  31  56  87 112 141 190 246 293 331
#     4  10  22  38  55  85 119 154 195 237 288 363
#     4  10  19  38  60  87 115 152 198 246 294 339
#     4   9  19  33  54  84 115 145 198 241 285 338
#     4  10  19  34  58  87 113 148 193 250 285 340
#
# _framework density 25.670635000000001
#
# number of rings (size 3 to 8) (size 9 to 14) (size 15 to 20)
#    0.000    2.250    1.250    5.625    3.500    0.500 
#    2.250    0.625    0.000    0.750    0.000    0.000 
#    0.000    0.000    0.000    0.000    0.000    0.000 
#
# Total GULP energy -89462.483209 kJ/mol
# GULP energy per Si atom -5591.405201 kJ/mol
# Density = 2.561221 g / cm^3
# Si number density = 25.670635 Si / 1000 Ang^3
#
#
#
# Elastic Constant Matrix: (Units=GPa)
#
#
# Indices 1 2 3 4 5 6 
#
# 1 86.7185 44.1554 66.2222 16.2815 5.4845 26.6973
# 2 44.1554 81.5699 40.0788 22.0369 19.6985 28.2704
# 3 66.2222 40.0788 199.8915 39.6057 -0.8673 21.9335
# 4 16.2815 22.0369 39.6057 39.0099 10.5129 11.7753
# 5 5.4845 19.6985 -0.8673 10.5129 34.2407 4.3042
# 6 26.6973 28.2704 21.9335 11.7753 4.3042 47.6840
#
#
#
# Elastic Compliance Matrix: (Units=1/GPa)
#
#
# Indices 1 2 3 4 5 6 
#
# 1 0.020418 -0.007554 -0.005124 0.002287 0.000902 -0.005242
# 2 -0.007554 0.022439 -0.000388 -0.004487 -0.009459 -0.006934
# 3 -0.005124 -0.000388 0.008087 -0.006984 0.003291 0.000806
# 4 0.002287 -0.004487 -0.006984 0.037958 -0.009118 -0.003958
# 5 0.000902 -0.009459 0.003291 -0.009118 0.037072 0.002494
# 6 -0.005242 -0.006934 0.000806 -0.003958 0.002494 0.028399
#
#
# Mechanical properties :
#
#
# Convention : Reuss Voigt Hill
#
# Bulk Modulus (GPa) = 40.30019 74.34365 57.32192
# Shear Modulus (GPa) = 26.48665 38.70182 32.59424
#
# Velocity S-wave (km/s) = 3.21563 3.88703 3.56716
# Velocity P-wave (km/s) = 5.43324 7.01205 6.27251
#
# Compressibility (1/GPa) = 0.02481378
#
# Stress axis : x y z
#
# Youngs Moduli (GPa) = 48.97603 44.56583 123.64836
#
# Poissons Ratio (x) = 0.33665 0.63353
# Poissons Ratio (y) = 0.36997 0.04793
# Poissons Ratio (z) = 0.25093 0.01727
#
# Static dielectric constant tensor:
#      x y z
#    x 2.189840 -0.012240 0.060360 
#    y -0.012240 2.054720 -0.063420 
#    z 0.060360 -0.063420 2.133360 
# 
# From -- ./inp_files/518854.got.cif
#   From: 2010.05.17/outbox.cif.g08.bks.cpg/sg2_260_cif.got.tgz:518854.got - 2010.06.03 11:33:40.
