data_PCOD9083922
_publ_section_title
;
Structure prediction by ZEFSAII (Michael W. Deem and Ramdas Pophale) SiO2 
 PCOD9083922
Probable space group: P -1
;
_chemical_formula_sum "Si O2"
_cell_formula_units_Z 16
_cell_length_a 18.236609
_cell_length_b 5.578837
_cell_length_c 26.500601
_cell_angle_alpha 70.779906
_cell_angle_beta 160.150650
_cell_angle_gamma 108.178156
_cell_volume 864.421285
_symmetry_space_group_name_H-M "P -1"
_symmetry_group_IT_number 2
_symmetry_cell_setting 'triclinic'
loop_
_space_group_symop_operation_xyz
x,y,z
-x,-y,-z
loop_
_atom_site_type_symbol
_atom_site_label
_atom_site_fract_x
_atom_site_fract_y
_atom_site_fract_z
Si Si1 0.544448 0.481855 0.588866
Si Si2 0.854164 0.951782 0.958665
Si Si3 0.438945 0.037878 0.623907
Si Si4 0.871730 0.116479 0.151158
Si Si5 0.787629 0.266281 0.573366
Si Si6 0.518389 0.196809 0.045187
Si Si7 0.968710 0.362600 0.091894
Si Si8 0.034262 0.723737 0.687510
O O1 0.500000 0.500000 0.500000
O O2 0.336165 0.603153 0.471124
O O3 0.771059 0.616036 0.738152
O O4 0.544235 0.210512 0.635702
O O5 0.885511 0.651384 0.010244
O O6 0.607589 0.010138 0.779310
O O7 0.914609 0.151122 0.028624
O O8 0.000000 0.000000 0.000000
O O9 0.386192 0.776946 0.579687
O O10 0.199175 0.140787 0.475823
O O11 0.876196 0.274279 0.092212
O O12 0.877926 0.265001 0.198435
O O13 0.101031 0.976846 0.314344
O O14 0.673739 0.913174 0.036736
O O15 0.978975 0.432057 0.661785
O O16 0.769414 0.171845 0.225974
O O17 0.500000 0.500000 0.000000
O O18 0.500000 0.000000 0.000000
#
# Coordination Sequence:
#
# PCOD9083922 Si02
#       8
#     2   2   2   2   2   2   2   2
#     4  11  23  36  56  88 120 156 190 242 310 359
#     4  12  26  44  61  82 115 166 218 248 286 344
#     4  10  22  37  58  83 113 156 206 250 284 353
#     4  10  22  37  58  93 124 154 194 245 308 368
#     4  10  19  34  59  82 121 150 197 237 303 354
#     4  10  19  35  60  92 126 156 186 237 305 373
#     4  12  27  40  63  85 122 163 201 251 297 344
#     4   9  19  35  61  92 121 152 194 243 306 366
#
# _framework density 18.509492000000002
#
# number of rings (size 3 to 8) (size 9 to 14) (size 15 to 20)
#    0.000    1.500    2.500    3.375    7.000    1.000 
#    0.000    0.000    0.000    1.500    0.000    0.000 
#    0.000    0.000    0.000    0.000    0.000    0.000 
#
# Total GULP energy -89069.222240 kJ/mol
# GULP energy per Si atom -5566.826390 kJ/mol
# Density = 1.846736 g / cm^3
# Si number density = 18.509492 Si / 1000 Ang^3
#
#
#
# Elastic Constant Matrix: (Units=GPa)
#
#
# Indices 1 2 3 4 5 6 
#
# 1 37.6710 29.4715 38.0170 8.4984 1.3754 5.6398
# 2 29.4715 103.3663 39.6965 10.9615 -9.1934 5.6700
# 3 38.0170 39.6965 116.2549 18.4690 -3.2595 7.4582
# 4 8.4984 10.9615 18.4690 33.4836 0.4974 3.8579
# 5 1.3754 -9.1934 -3.2595 0.4974 28.3128 9.5318
# 6 5.6398 5.6700 7.4582 3.8579 9.5318 31.3210
#
#
#
# Elastic Compliance Matrix: (Units=1/GPa)
#
#
# Indices 1 2 3 4 5 6 
#
# 1 0.046424 -0.008877 -0.011870 -0.002024 -0.005828 -0.001903
# 2 -0.008877 0.013383 -0.001178 -0.001327 0.005340 -0.002005
# 3 -0.011870 -0.001178 0.013659 -0.004045 0.002199 -0.001073
# 4 -0.002024 -0.001327 -0.004045 0.033325 -0.000590 -0.002357
# 5 -0.005828 0.005340 0.002199 -0.000590 0.042030 -0.013159
# 6 -0.001903 -0.002005 -0.001073 -0.002357 -0.013159 0.037184
#
#
# Mechanical properties :
#
#
# Convention : Reuss Voigt Hill
#
# Bulk Modulus (GPa) = 33.76549 52.40692 43.08620
# Shear Modulus (GPa) = 20.85718 28.63064 24.74391
#
# Velocity S-wave (km/s) = 3.36048 3.93722 3.66023
# Velocity P-wave (km/s) = 5.77399 7.00313 6.41806
#
# Compressibility (1/GPa) = 0.02961603
#
# Stress axis : x y z
#
# Youngs Moduli (GPa) = 21.54076 74.72008 73.21381
#
# Poissons Ratio (x) = 0.66330 0.86904
# Poissons Ratio (y) = 0.19122 0.08623
# Poissons Ratio (z) = 0.25569 0.08800
#
# Static dielectric constant tensor:
#      x y z
#    x 1.662550 -0.029300 0.025480 
#    y -0.029300 1.755000 0.009960 
#    z 0.025480 0.009960 1.666390 
# 
# From -- ./inp_files/38995.got.cif
#   From: 2010.05.17/outbox.cif.g08.bks.cpg/sg2_20_cif.got.tgz:38995.got - 2010.06.03 11:33:40.
