data_PCOD9083578
_publ_section_title
;
Structure prediction by ZEFSAII (Michael W. Deem and Ramdas Pophale) SiO2 
 PCOD9083578
Probable space group: P -1
;
_chemical_formula_sum "Si O2"
_cell_formula_units_Z 16
_cell_length_a 16.171924
_cell_length_b 12.412775
_cell_length_c 11.958826
_cell_angle_alpha 94.828787
_cell_angle_beta 54.732541
_cell_angle_gamma 141.167015
_cell_volume 860.364688
_symmetry_space_group_name_H-M "P -1"
_symmetry_group_IT_number 2
_symmetry_cell_setting 'triclinic'
loop_
_space_group_symop_operation_xyz
x,y,z
-x,-y,-z
loop_
_atom_site_type_symbol
_atom_site_label
_atom_site_fract_x
_atom_site_fract_y
_atom_site_fract_z
Si Si1 0.939041 0.061378 0.512400
Si Si2 0.955485 0.211228 0.082203
Si Si3 0.769495 0.573093 0.503679
Si Si4 0.498045 0.535306 0.730870
Si Si5 0.837891 0.745350 0.235665
Si Si6 0.758969 0.329999 0.198450
Si Si7 0.923075 0.815856 0.820309
Si Si8 0.468810 0.862537 0.397731
O O1 0.001493 0.194525 0.580539
O O2 0.097046 0.233413 0.296869
O O3 0.686561 0.807778 0.635209
O O4 0.000000 0.000000 0.500000
O O5 0.991743 0.204214 0.177535
O O6 0.714898 0.042711 0.250129
O O7 0.963705 0.112264 0.988139
O O8 0.175358 0.492627 0.893342
O O9 0.606842 0.520102 0.652930
O O10 0.803751 0.624324 0.348817
O O11 0.659527 0.351486 0.591731
O O12 0.372157 0.433107 0.700883
O O13 0.311288 0.369556 0.958380
O O14 0.907194 0.920456 0.262928
O O15 0.686470 0.268550 0.380841
O O16 0.548663 0.052289 0.296356
O O17 0.000000 0.500000 0.000000
#
# Coordination Sequence:
#
# PCOD9083578 Si02
#       8
#     2   2   2   2   2   2   2   2
#     4  10  22  36  46  72 112 148 185 212 250 315
#     4  10  20  32  54  84 107 133 178 223 267 311
#     4  11  20  34  53  76 108 147 177 215 260 313
#     4  10  21  34  52  74 110 148 178 217 261 303
#     4  11  19  33  53  80 111 137 182 220 255 311
#     4   9  19  35  52  83 108 129 170 226 273 321
#     4  11  21  34  52  78 110 145 179 217 257 310
#     4  10  19  34  57  77 108 139 167 221 281 305
#
# _framework density 18.596765999999999
#
# number of rings (size 3 to 8) (size 9 to 14) (size 15 to 20)
#    0.000    1.750    3.750    3.375    1.750    2.000 
#    2.250    0.000    0.000    0.750    0.000   14.875 
#    0.000    0.000    0.000    0.000    0.000    0.000 
#
# Total GULP energy -89077.424055 kJ/mol
# GULP energy per Si atom -5567.339003 kJ/mol
# Density = 1.855444 g / cm^3
# Si number density = 18.596766 Si / 1000 Ang^3
#
#
#
# Elastic Constant Matrix: (Units=GPa)
#
#
# Indices 1 2 3 4 5 6 
#
# 1 30.2350 20.5749 3.6527 -3.2998 10.1908 1.6121
# 2 20.5749 101.8149 18.1950 -22.6194 5.9624 -3.8621
# 3 3.6527 18.1950 66.6848 -19.4800 -5.0856 5.9033
# 4 -3.2998 -22.6194 -19.4800 -17.1640 -17.9723 1.1869
# 5 10.1908 5.9624 -5.0856 -17.9723 27.9698 -4.2379
# 6 1.6121 -3.8621 5.9033 1.1869 -4.2379 24.8077
#
#
#
# Elastic Compliance Matrix: (Units=1/GPa)
#
#
# Indices 1 2 3 4 5 6 
#
# 1 0.041699 -0.006639 0.001711 0.008033 -0.009231 -0.006112
# 2 -0.006639 0.011257 -0.004580 -0.004645 -0.003356 0.002923
# 3 0.001711 -0.004580 0.014066 -0.007726 -0.002700 -0.004263
# 4 0.008033 -0.004645 -0.007726 -0.024676 -0.019431 -0.001546
# 5 -0.009231 -0.003356 -0.002700 -0.019431 0.027825 0.006403
# 6 -0.006112 0.002923 -0.004263 -0.001546 0.006403 0.043344
#
#
# Mechanical properties :
#
#
# Convention : Reuss Voigt Hill
#
# Bulk Modulus (GPa) = 20.82993 31.50887 26.16940
# Shear Modulus (GPa) = 33.66247 17.54351 25.60299
#
# Velocity S-wave (km/s) = 4.25917 3.07475 3.71448
# Velocity P-wave (km/s) = 5.95084 5.43925 5.70079
#
# Compressibility (1/GPa) = 0.04800785
#
# Stress axis : x y z
#
# Youngs Moduli (GPa) = 23.98123 88.83305 71.09190
#
# Poissons Ratio (x) = 0.58976 -0.12164
# Poissons Ratio (y) = 0.15921 0.32557
# Poissons Ratio (z) = -0.04103 0.40681
#
# Static dielectric constant tensor:
#      x y z
#    x 1.649350 -0.036880 0.007740 
#    y -0.036880 1.713500 -0.029840 
#    z 0.007740 -0.029840 1.707800 
# 
# From -- ./inp_files/277411.got.cif
#   From: 2010.05.17/outbox.cif.g08.bks.cpg/sg2_139_cif.got.tgz:277411.got - 2010.06.03 11:33:40.
