data_PCOD9083071
_publ_section_title
;
Structure prediction by ZEFSAII (Michael W. Deem and Ramdas Pophale) SiO2 
 PCOD9083071
Probable space group: P -1
;
_chemical_formula_sum "Si O2"
_cell_formula_units_Z 16
_cell_length_a 9.598536
_cell_length_b 20.166480
_cell_length_c 13.893814
_cell_angle_alpha 154.849118
_cell_angle_beta 133.705119
_cell_angle_gamma 46.392368
_cell_volume 808.001486
_symmetry_space_group_name_H-M "P -1"
_symmetry_group_IT_number 2
_symmetry_cell_setting 'triclinic'
loop_
_space_group_symop_operation_xyz
x,y,z
-x,-y,-z
loop_
_atom_site_type_symbol
_atom_site_label
_atom_site_fract_x
_atom_site_fract_y
_atom_site_fract_z
Si Si1 0.694423 0.411107 0.031205
Si Si2 0.713524 0.476647 0.527162
Si Si3 0.019454 0.462703 0.799194
Si Si4 0.946869 0.749836 0.290392
Si Si5 0.785647 0.059696 0.527324
Si Si6 0.357257 0.868804 0.647172
Si Si7 0.749029 0.794291 0.853197
Si Si8 0.135388 0.632349 0.743009
O O1 0.760726 0.227248 0.788953
O O2 0.500000 0.500000 0.000000
O O3 0.849203 0.504630 0.183399
O O4 0.707662 0.411387 0.153185
O O5 0.500000 0.500000 0.500000
O O6 0.755369 0.649474 0.741610
O O7 0.761164 0.370221 0.313993
O O8 0.845385 0.405928 0.587384
O O9 0.112852 0.335131 0.755320
O O10 0.953173 0.627040 0.043310
O O11 0.172069 0.779163 0.448421
O O12 0.792827 0.912789 0.408915
O O13 0.631071 0.090898 0.407305
O O14 0.000000 0.000000 0.500000
O O15 0.567469 0.784340 0.681248
O O16 0.297898 0.037032 0.894395
O O17 0.961508 0.779817 0.884514
O O18 0.000000 0.500000 0.500000
#
# Coordination Sequence:
#
# PCOD9083071 Si02
#       8
#     2   2   2   2   2   2   2   2
#     4  12  24  38  64  95 127 167 217 263 318 389
#     4  11  23  38  62  88 129 162 216 264 324 376
#     4  11  21  38  59  96 122 167 210 266 322 375
#     4  10  21  35  62  90 131 162 211 268 320 366
#     4  10  19  36  61  86 123 166 210 252 313 370
#     4  10  19  33  61  92 122 167 216 260 303 388
#     4  10  20  35  61  93 123 161 222 255 310 385
#     4  10  21  37  60  86 125 166 207 262 314 373
#
# _framework density 19.801943000000001
#
# number of rings (size 3 to 8) (size 9 to 14) (size 15 to 20)
#    0.000    1.500    5.000    3.000    3.500    2.000 
#    0.000    0.625    0.000   15.000    0.000    0.000 
#    0.000    0.000    0.000    0.000    0.000    0.000 
#
# Total GULP energy -89187.661263 kJ/mol
# GULP energy per Si atom -5574.228829 kJ/mol
# Density = 1.975687 g / cm^3
# Si number density = 19.801943 Si / 1000 Ang^3
#
#
#
# Elastic Constant Matrix: (Units=GPa)
#
#
# Indices 1 2 3 4 5 6 
#
# 1 69.7346 10.1379 15.7762 -6.0019 -13.3094 6.1912
# 2 10.1379 95.3578 25.7920 -13.0803 -4.7955 10.5183
# 3 15.7762 25.7920 65.5825 -11.5521 -19.1084 8.1694
# 4 -6.0019 -13.0803 -11.5521 44.0179 4.4498 -0.2182
# 5 -13.3094 -4.7955 -19.1084 4.4498 15.4898 -1.2351
# 6 6.1912 10.5183 8.1694 -0.2182 -1.2351 24.5557
#
#
#
# Elastic Compliance Matrix: (Units=1/GPa)
#
#
# Indices 1 2 3 4 5 6 
#
# 1 0.017622 -0.000922 0.001416 0.000858 0.016060 -0.003703
# 2 -0.000922 0.012490 -0.004959 0.002681 -0.004105 -0.003650
# 3 0.001416 -0.004959 0.027455 0.002627 0.032339 -0.005717
# 4 0.000858 0.002681 0.002627 0.024555 -0.002416 -0.002142
# 5 0.016060 -0.004105 0.032339 -0.002416 0.117103 -0.007181
# 6 -0.003703 -0.003650 -0.005717 -0.002142 -0.007181 0.044743
#
#
# Mechanical properties :
#
#
# Convention : Reuss Voigt Hill
#
# Bulk Modulus (GPa) = 20.56126 37.12078 28.84102
# Shear Modulus (GPa) = 18.57965 28.74393 23.66179
#
# Velocity S-wave (km/s) = 3.06645 3.81408 3.46052
# Velocity P-wave (km/s) = 4.78993 6.17924 5.52840
#
# Compressibility (1/GPa) = 0.04863515
#
# Stress axis : x y z
#
# Youngs Moduli (GPa) = 56.74790 80.06258 36.42299
#
# Poissons Ratio (x) = 0.07385 -0.05156
# Poissons Ratio (y) = 0.05235 0.18063
# Poissons Ratio (z) = -0.08033 0.39704
#
# Static dielectric constant tensor:
#      x y z
#    x 1.754140 -0.023880 -0.027490 
#    y -0.023880 1.694810 0.126890 
#    z -0.027490 0.126890 1.790830 
# 
# From -- ./inp_files/403640.got.cif
#   From: 2010.05.17/outbox.cif.g08.bks.cpg/sg2_202_cif.got.tgz:403640.got - 2010.06.03 11:33:40.
