data_PCOD9083065
_publ_section_title
;
Structure prediction by ZEFSAII (Michael W. Deem and Ramdas Pophale) SiO2 
 PCOD9083065
Probable space group: P -1
;
_chemical_formula_sum "Si O2"
_cell_formula_units_Z 14
_cell_length_a 7.485984
_cell_length_b 9.383294
_cell_length_c 11.852741
_cell_angle_alpha 53.085615
_cell_angle_beta 81.743983
_cell_angle_gamma 108.692252
_cell_volume 565.073359
_symmetry_space_group_name_H-M "P -1"
_symmetry_group_IT_number 2
_symmetry_cell_setting 'triclinic'
loop_
_space_group_symop_operation_xyz
x,y,z
-x,-y,-z
loop_
_atom_site_type_symbol
_atom_site_label
_atom_site_fract_x
_atom_site_fract_y
_atom_site_fract_z
Si Si1 0.892319 0.006721 0.771088
Si Si2 0.347236 0.082482 0.695306
Si Si3 0.077800 0.550831 0.098854
Si Si4 0.709151 0.007901 0.023112
Si Si5 0.370862 0.239679 0.393555
Si Si6 0.937252 0.226169 0.450365
Si Si7 0.545131 0.285430 0.138017
O O1 0.839209 0.003827 0.907647
O O2 0.101823 0.001529 0.731826
O O3 0.901048 0.193051 0.605240
O O4 0.691361 0.805381 0.836451
O O5 0.460162 0.244696 0.507267
O O6 0.409302 0.905867 0.765852
O O7 0.373571 0.155540 0.788172
O O8 0.135136 0.775040 0.031788
O O9 0.943779 0.391815 0.284173
O O10 0.305690 0.578074 0.041172
O O11 0.000000 0.500000 0.000000
O O12 0.500000 0.000000 0.000000
O O13 0.179065 0.280459 0.394559
O O14 0.550540 0.365520 0.225019
O O15 0.240073 0.996385 0.479357
#
# Coordination Sequence:
#
# PCOD9083065 Si02
#       7
#     2   2   2   2   2   2   2
#     4  10  20  38  63  89 113 167 202 244 297 362
#     4  10  19  33  61  91 115 149 213 247 281 356
#     4  11  23  38  60  92 126 154 199 258 301 352
#     4  11  21  40  62  90 119 162 203 244 302 363
#     4   9  18  35  60  87 117 164 198 245 297 360
#     4   9  19  35  57  89 123 152 205 247 298 356
#     4  10  20  36  62  89 125 154 205 243 303 354
#
# _framework density 24.775542999999999
#
# number of rings (size 3 to 8) (size 9 to 14) (size 15 to 20)
#    0.000    2.000    2.857    3.429    0.000    2.286 
#    0.000    0.000    0.000    1.714    0.000    0.000 
#    0.000    0.000    0.000    0.000    0.000    0.000 
#
# Total GULP energy -78075.326686 kJ/mol
# GULP energy per Si atom -5576.809049 kJ/mol
# Density = 2.471915 g / cm^3
# Si number density = 24.775543 Si / 1000 Ang^3
#
#
#
# Elastic Constant Matrix: (Units=GPa)
#
#
# Indices 1 2 3 4 5 6 
#
# 1 84.2036 3.9858 18.0588 10.1670 -2.4051 1.5136
# 2 3.9858 57.5114 37.4027 36.2430 10.2170 -6.0390
# 3 18.0588 37.4027 145.9371 55.2404 2.9457 -9.6241
# 4 10.1670 36.2430 55.2404 49.8508 -3.9750 -5.9866
# 5 -2.4051 10.2170 2.9457 -3.9750 40.6550 13.8148
# 6 1.5136 -6.0390 -9.6241 -5.9866 13.8148 28.7111
#
#
#
# Elastic Compliance Matrix: (Units=1/GPa)
#
#
# Indices 1 2 3 4 5 6 
#
# 1 0.012378 0.000714 -0.001124 -0.001929 0.001053 -0.001788
# 2 0.000714 0.040288 0.003135 -0.032975 -0.017240 0.010907
# 3 -0.001124 0.003135 0.012531 -0.015843 -0.004615 0.003836
# 4 -0.001929 -0.032975 -0.015843 0.062486 0.018087 -0.007819
# 5 0.001053 -0.017240 -0.004615 0.018087 0.037765 -0.019629
# 6 -0.001788 0.010907 0.003836 -0.007819 -0.019629 0.046318
#
#
# Mechanical properties :
#
#
# Convention : Reuss Voigt Hill
#
# Bulk Modulus (GPa) = 14.15483 45.17187 29.66335
# Shear Modulus (GPa) = 21.75186 39.05705 30.40445
#
# Velocity S-wave (km/s) = 2.96625 3.97474 3.50694
# Velocity P-wave (km/s) = 4.17817 6.27191 5.32888
#
# Compressibility (1/GPa) = 0.07064727
#
# Stress axis : x y z
#
# Youngs Moduli (GPa) = 80.78642 24.82139 79.80269
#
# Poissons Ratio (x) = -0.01771 0.08967
# Poissons Ratio (y) = -0.05765 -0.25020
# Poissons Ratio (z) = 0.09078 -0.07782
#
# Static dielectric constant tensor:
#      x y z
#    x 2.045640 0.038540 -0.000150 
#    y 0.038540 1.997310 -0.000090 
#    z -0.000150 -0.000090 2.152020 
# 
# From -- ./inp_files/392098.got.cif
#   From: 2010.05.17/outbox.cif.g08.bks.cpg/sg2_197_cif.got.tgz:392098.got - 2010.06.03 11:33:40.
