data_PCOD9083316
_publ_section_title
;
Structure prediction by ZEFSAII (Michael W. Deem and Ramdas Pophale) SiO2 
 PCOD9083316
Probable space group: P -1
;
_chemical_formula_sum "Si O2"
_cell_formula_units_Z 16
_cell_length_a 11.886820
_cell_length_b 9.918249
_cell_length_c 8.425215
_cell_angle_alpha 60.177937
_cell_angle_beta 51.165695
_cell_angle_gamma 67.377389
_cell_volume 667.374217
_symmetry_space_group_name_H-M "P -1"
_symmetry_group_IT_number 2
_symmetry_cell_setting 'triclinic'
loop_
_space_group_symop_operation_xyz
x,y,z
-x,-y,-z
loop_
_atom_site_type_symbol
_atom_site_label
_atom_site_fract_x
_atom_site_fract_y
_atom_site_fract_z
Si Si1 0.196566 0.524845 0.985818
Si Si2 0.466006 0.679379 0.366774
Si Si3 0.467374 0.672968 0.999176
Si Si4 0.915509 0.657411 0.557785
Si Si5 0.795990 0.343352 0.567672
Si Si6 0.853955 0.645986 0.188840
Si Si7 0.151567 0.070411 0.794872
Si Si8 0.403632 0.799965 0.667075
O O1 0.208511 0.409468 0.193287
O O2 0.029465 0.609054 0.074363
O O3 0.201183 0.416537 0.890447
O O4 0.309633 0.650540 0.826820
O O5 0.500000 0.500000 0.500000
O O6 0.517826 0.692390 0.128355
O O7 0.291839 0.716666 0.466166
O O8 0.494577 0.785507 0.430711
O O9 0.291672 0.697766 0.175594
O O10 0.500000 0.500000 0.000000
O O11 0.494207 0.782883 0.761718
O O12 0.874093 0.794664 0.393972
O O13 0.000000 0.500000 0.500000
O O14 0.036043 0.713727 0.538220
O O15 0.783782 0.531247 0.442633
O O16 0.816553 0.828120 0.139133
O O17 0.283973 0.946747 0.702163
O O18 0.000000 0.000000 0.000000
#
# Coordination Sequence:
#
# PCOD9083316 Si02
#       8
#     2   2   2   2   2   2   2   2
#     4  10  19  34  59  79 112 160 210 226 283 368
#     4  10  21  38  60  90 116 149 214 263 298 355
#     4  10  20  35  63  88 111 150 208 262 302 352
#     4  11  19  35  54  84 122 161 198 231 280 383
#     4   9  18  33  57  84 112 151 202 238 283 349
#     4  10  19  34  54  83 118 160 196 239 280 374
#     4  12  23  35  54  89 135 159 192 245 308 356
#     4  12  21  38  61  92 121 161 191 259 312 345
#
# _framework density 23.974554999999999
#
# number of rings (size 3 to 8) (size 9 to 14) (size 15 to 20)
#    0.750    0.750    6.250    1.500    0.000    0.000 
#    2.250    1.250    0.000    3.000    0.000    3.500 
#    0.000    0.000    0.000    0.000    0.000    0.000 
#
# Total GULP energy -89278.498900 kJ/mol
# GULP energy per Si atom -5579.906181 kJ/mol
# Density = 2.391999 g / cm^3
# Si number density = 23.974555 Si / 1000 Ang^3
#
#
#
# Elastic Constant Matrix: (Units=GPa)
#
#
# Indices 1 2 3 4 5 6 
#
# 1 97.3442 20.2164 41.5400 1.3514 14.5893 1.1123
# 2 20.2164 141.3642 54.6506 12.8781 21.5016 -1.8847
# 3 41.5400 54.6506 121.3117 16.8386 26.7395 9.0121
# 4 1.3514 12.8781 16.8386 35.0224 4.0692 5.1714
# 5 14.5893 21.5016 26.7395 4.0692 49.4162 -2.7349
# 6 1.1123 -1.8847 9.0121 5.1714 -2.7349 30.6182
#
#
#
# Elastic Compliance Matrix: (Units=1/GPa)
#
#
# Indices 1 2 3 4 5 6 
#
# 1 0.012225 -0.000095 -0.004070 0.001642 -0.001482 0.000338
# 2 -0.000095 0.008866 -0.003483 -0.001633 -0.001717 0.001697
# 3 -0.004070 -0.003483 0.012912 -0.003755 -0.004160 -0.003604
# 4 0.001642 -0.001633 -0.003755 0.031621 -0.000593 -0.004449
# 5 -0.001482 -0.001717 -0.004160 -0.000593 0.023909 0.003408
# 6 0.000338 0.001697 -0.003604 -0.004449 0.003408 0.034869
#
#
# Mechanical properties :
#
#
# Convention : Reuss Voigt Hill
#
# Bulk Modulus (GPa) = 53.45148 65.87042 59.66095
# Shear Modulus (GPa) = 34.26228 39.25225 36.75727
#
# Velocity S-wave (km/s) = 3.78446 4.05068 3.91983
# Velocity P-wave (km/s) = 6.43736 7.02938 6.73987
#
# Compressibility (1/GPa) = 0.01870856
#
# Stress axis : x y z
#
# Youngs Moduli (GPa) = 81.80192 112.78463 77.44928
#
# Poissons Ratio (x) = 0.01066 0.31520
# Poissons Ratio (y) = 0.00773 0.26974
# Poissons Ratio (z) = 0.33291 0.39281
#
# Static dielectric constant tensor:
#      x y z
#    x 2.080410 0.006870 0.030570 
#    y 0.006870 1.895530 0.078430 
#    z 0.030570 0.078430 1.997530 
# 
# From -- ./inp_files/294443.got.cif
#   From: 2010.05.17/outbox.cif.g08.bks.cpg/sg2_148_cif.got.tgz:294443.got - 2010.06.03 11:33:40.
