data_PCOD9083280
_publ_section_title
;
Structure prediction by ZEFSAII (Michael W. Deem and Ramdas Pophale) SiO2 
 PCOD9083280
Probable space group: P -1
;
_chemical_formula_sum "Si O2"
_cell_formula_units_Z 16
_cell_length_a 6.850149
_cell_length_b 14.991955
_cell_length_c 11.258005
_cell_angle_alpha 56.736127
_cell_angle_beta 82.308783
_cell_angle_gamma 68.264936
_cell_volume 894.422748
_symmetry_space_group_name_H-M "P -1"
_symmetry_group_IT_number 2
_symmetry_cell_setting 'triclinic'
loop_
_space_group_symop_operation_xyz
x,y,z
-x,-y,-z
loop_
_atom_site_type_symbol
_atom_site_label
_atom_site_fract_x
_atom_site_fract_y
_atom_site_fract_z
Si Si1 0.426490 0.743134 0.432009
Si Si2 0.154280 0.595098 0.490395
Si Si3 0.393477 0.150691 0.298583
Si Si4 0.780549 0.652000 0.660023
Si Si5 0.172273 0.336147 0.991728
Si Si6 0.742678 0.485806 0.988711
Si Si7 0.242760 0.941520 0.487792
Si Si8 0.776023 0.657035 0.297206
O O1 0.287930 0.674934 0.440134
O O2 0.590399 0.670110 0.571366
O O3 0.286760 0.854150 0.437276
O O4 0.585407 0.755530 0.307410
O O5 0.273300 0.458730 0.586440
O O6 0.993623 0.615063 0.598030
O O7 0.002182 0.631562 0.361109
O O8 0.250358 0.231026 0.354730
O O9 0.625276 0.119481 0.360472
O O10 0.338680 0.037735 0.373749
O O11 0.332834 0.228982 0.129124
O O12 0.771511 0.560870 0.822290
O O13 0.200830 0.323251 0.857988
O O14 0.931423 0.364560 0.039429
O O15 0.216931 0.449466 0.946196
O O16 0.500000 0.500000 0.000000
O O17 0.000000 0.000000 0.500000
#
# Coordination Sequence:
#
# PCOD9083280 Si02
#       8
#     2   2   2   2   2   2   2   2
#     4  10  21  33  57  82 105 144 191 229 269 318
#     4  10  19  34  54  77 113 150 184 221 261 320
#     4   9  20  36  58  82 108 140 180 230 283 333
#     4   9  18  33  52  83 111 139 179 219 274 327
#     4  10  21  37  53  79 116 149 179 223 277 327
#     4  10  21  32  52  81 114 149 180 215 271 334
#     4  10  20  38  61  83 105 136 186 239 285 324
#     4  10  21  35  52  79 113 150 187 217 266 328
#
# _framework density 17.888632999999999
#
# number of rings (size 3 to 8) (size 9 to 14) (size 15 to 20)
#    0.000    2.250    1.250    1.125    1.750    5.000 
#    0.000    0.625    0.000    1.500    0.000    0.000 
#    0.000    0.000    0.000    0.000    0.000    0.000 
#
# Total GULP energy -89154.840523 kJ/mol
# GULP energy per Si atom -5572.177533 kJ/mol
# Density = 1.784792 g / cm^3
# Si number density = 17.888633 Si / 1000 Ang^3
#
#
#
# Elastic Constant Matrix: (Units=GPa)
#
#
# Indices 1 2 3 4 5 6 
#
# 1 99.2942 50.2013 38.5715 9.5547 10.9010 -7.8419
# 2 50.2013 96.5943 44.4698 10.5969 12.3916 -10.6457
# 3 38.5715 44.4698 100.8396 20.6133 15.5847 -4.3195
# 4 9.5547 10.5969 20.6133 28.1829 2.6693 0.8967
# 5 10.9010 12.3916 15.5847 2.6693 8.7887 -0.4549
# 6 -7.8419 -10.6457 -4.3195 0.8967 -0.4549 36.8109
#
#
#
# Elastic Compliance Matrix: (Units=1/GPa)
#
#
# Indices 1 2 3 4 5 6 
#
# 1 0.014529 -0.005648 -0.001834 -0.000885 -0.006475 0.001188
# 2 -0.005648 0.016523 -0.003207 -0.001093 -0.010112 0.003101
# 3 -0.001834 -0.003207 0.017045 -0.008693 -0.020754 0.000637
# 4 -0.000885 -0.001093 -0.008693 0.042146 0.005126 -0.002488
# 5 -0.006475 -0.010112 -0.020754 0.005126 0.171070 -0.004750
# 6 0.001188 0.003101 0.000637 -0.002488 -0.004750 0.028392
#
#
# Mechanical properties :
#
#
# Convention : Reuss Voigt Hill
#
# Bulk Modulus (GPa) = 37.42787 62.57927 50.00357
# Shear Modulus (GPa) = 15.62554 25.65554 20.64054
#
# Velocity S-wave (km/s) = 2.95869 3.79117 3.40050
# Velocity P-wave (km/s) = 5.71314 7.36360 6.59024
#
# Compressibility (1/GPa) = 0.02671806
#
# Stress axis : x y z
#
# Youngs Moduli (GPa) = 68.82881 60.52108 58.66938
#
# Poissons Ratio (x) = 0.34181 0.10761
# Poissons Ratio (y) = 0.38873 0.18817
# Poissons Ratio (z) = 0.12625 0.19411
#
# Static dielectric constant tensor:
#      x y z
#    x 1.635260 -0.003240 0.029810 
#    y -0.003240 1.690510 -0.006690 
#    z 0.029810 -0.006690 1.610390 
# 
# From -- ./inp_files/94627.got.cif
#   From: 2010.05.17/outbox.cif.g08.bks.cpg/sg2_48_cif.got.tgz:94627.got - 2010.06.03 11:33:40.
