data_PCOD9083736
_publ_section_title
;
Structure prediction by ZEFSAII (Michael W. Deem and Ramdas Pophale) SiO2 
 PCOD9083736
Probable space group: P -1
;
_chemical_formula_sum "Si O2"
_cell_formula_units_Z 14
_cell_length_a 5.367838
_cell_length_b 10.629131
_cell_length_c 13.156476
_cell_angle_alpha 65.280736
_cell_angle_beta 68.807698
_cell_angle_gamma 51.675425
_cell_volume 529.402291
_symmetry_space_group_name_H-M "P -1"
_symmetry_group_IT_number 2
_symmetry_cell_setting 'triclinic'
loop_
_space_group_symop_operation_xyz
x,y,z
-x,-y,-z
loop_
_atom_site_type_symbol
_atom_site_label
_atom_site_fract_x
_atom_site_fract_y
_atom_site_fract_z
Si Si1 0.304705 0.235767 0.002264
Si Si2 0.758644 0.416634 0.696948
Si Si3 0.812778 0.275347 0.409116
Si Si4 0.191141 0.022307 0.590692
Si Si5 0.399028 0.116399 0.234437
Si Si6 0.453437 0.207035 0.765534
Si Si7 0.664221 0.450743 0.099841
O O1 0.366309 0.164883 0.903978
O O2 0.254758 0.413770 0.929716
O O3 0.515434 0.158189 0.098729
O O4 0.982609 0.273595 0.091817
O O5 0.543551 0.559421 0.597350
O O6 0.650482 0.287995 0.739067
O O7 0.577136 0.527638 0.786782
O O8 0.132429 0.325660 0.703893
O O9 0.813553 0.124275 0.411677
O O10 0.094384 0.262437 0.298094
O O11 0.927487 0.209978 0.528766
O O12 0.294790 0.974321 0.706784
O O13 0.500000 0.000000 0.500000
O O14 0.352192 0.966879 0.263723
O O15 0.500000 0.500000 0.000000
#
# Coordination Sequence:
#
# PCOD9083736 Si02
#       7
#     2   2   2   2   2   2   2
#     4  10  21  36  59  92 133 173 218 257 320 375
#     4  11  24  42  67  93 133 176 216 269 322 382
#     4  10  22  41  71  95 121 167 228 270 327 380
#     4   9  22  41  67  96 123 157 227 282 316 389
#     4  11  23  40  66  93 131 178 211 269 329 383
#     4  11  26  43  60 101 143 171 213 264 323 392
#     4  10  19  34  57  92 125 167 223 269 295 381
#
# _framework density 26.444915999999999
#
# number of rings (size 3 to 8) (size 9 to 14) (size 15 to 20)
#    0.000    1.714    2.857    0.429    8.000    0.000 
#    0.000    3.571    0.000    0.000    0.000    0.000 
#    0.000    0.000    0.000    0.000    0.000    0.000 
#
# Total GULP energy -78087.019915 kJ/mol
# GULP energy per Si atom -5577.644280 kJ/mol
# Density = 2.638473 g / cm^3
# Si number density = 26.444916 Si / 1000 Ang^3
#
#
#
# Elastic Constant Matrix: (Units=GPa)
#
#
# Indices 1 2 3 4 5 6 
#
# 1 95.2746 26.3256 11.9212 -0.0295 13.7856 -0.4174
# 2 26.3256 90.4337 39.0860 0.5151 4.0478 -18.0068
# 3 11.9212 39.0860 116.1037 -14.2993 25.3312 -15.3003
# 4 -0.0295 0.5151 -14.2993 45.2666 -7.4100 5.0359
# 5 13.7856 4.0478 25.3312 -7.4100 39.0256 -9.3131
# 6 -0.4174 -18.0068 -15.3003 5.0359 -9.3131 32.2590
#
#
#
# Elastic Compliance Matrix: (Units=1/GPa)
#
#
# Indices 1 2 3 4 5 6 
#
# 1 0.012364 -0.004435 0.000924 -0.000147 -0.005346 -0.003398
# 2 -0.004435 0.015984 -0.005144 -0.001924 0.004820 0.008116
# 3 0.000924 -0.005144 0.012188 0.002699 -0.007083 0.000455
# 4 -0.000147 -0.001924 0.002699 0.023659 0.002319 -0.002820
# 5 -0.005346 0.004820 -0.007083 0.002319 0.034140 0.008756
# 6 -0.003398 0.008116 0.000455 -0.002820 0.008756 0.038669
#
#
# Mechanical properties :
#
#
# Convention : Reuss Voigt Hill
#
# Bulk Modulus (GPa) = 43.05732 50.71974 46.88853
# Shear Modulus (GPa) = 30.85345 38.27554 34.56449
#
# Velocity S-wave (km/s) = 3.41941 3.80856 3.61922
# Velocity P-wave (km/s) = 5.64864 6.20976 5.93583
#
# Compressibility (1/GPa) = 0.02322486
#
# Stress axis : x y z
#
# Youngs Moduli (GPa) = 80.87680 62.56384 82.05087
#
# Poissons Ratio (x) = 0.27748 -0.07583
# Poissons Ratio (y) = 0.35871 0.42210
# Poissons Ratio (z) = -0.07474 0.32185
#
# Static dielectric constant tensor:
#      x y z
#    x 1.528870 0.041780 -0.340390 
#    y 0.041780 2.122350 0.015270 
#    z -0.340390 0.015270 2.105550 
# 
# From -- ./inp_files/34540.got.cif
#   From: 2010.05.17/outbox.cif.g08.bks.cpg/sg2_18_cif.got.tgz:34540.got - 2010.06.03 11:33:40.
