data_PCOD9083245
_publ_section_title
;
Structure prediction by ZEFSAII (Michael W. Deem and Ramdas Pophale) SiO2 
 PCOD9083245
Probable space group: P -1
;
_chemical_formula_sum "Si O2"
_cell_formula_units_Z 14
_cell_length_a 19.849076
_cell_length_b 5.525169
_cell_length_c 22.366300
_cell_angle_alpha 117.699082
_cell_angle_beta 163.833341
_cell_angle_gamma 61.186637
_cell_volume 598.392861
_symmetry_space_group_name_H-M "P -1"
_symmetry_group_IT_number 2
_symmetry_cell_setting 'triclinic'
loop_
_space_group_symop_operation_xyz
x,y,z
-x,-y,-z
loop_
_atom_site_type_symbol
_atom_site_label
_atom_site_fract_x
_atom_site_fract_y
_atom_site_fract_z
Si Si1 0.688453 0.698773 0.556237
Si Si2 0.397544 0.929132 0.687414
Si Si3 0.287422 0.957396 0.728713
Si Si4 0.937322 0.810933 0.669436
Si Si5 0.699240 0.309078 0.687470
Si Si6 0.533026 0.415826 0.933218
Si Si7 0.080261 0.306346 0.923187
O O1 0.746059 0.677343 0.532330
O O2 0.418696 0.649430 0.342844
O O3 0.912727 0.515716 0.760676
O O4 0.690918 0.002487 0.620574
O O5 0.319614 0.834264 0.674863
O O6 0.194009 0.993640 0.471298
O O7 0.631252 0.726017 0.841111
O O8 0.465070 0.234065 0.797276
O O9 0.581239 0.270149 0.140006
O O10 0.410635 0.241874 0.860562
O O11 0.000000 0.000000 0.500000
O O12 0.172066 0.622095 0.819761
O O13 0.035019 0.010459 0.824288
O O14 0.500000 0.500000 0.500000
O O15 0.965396 0.358354 0.897094
#
# Coordination Sequence:
#
# PCOD9083245 Si02
#       7
#     2   2   2   2   2   2   2
#     4   9  16  28  53  73 104 142 181 228 274 326
#     4   9  21  34  56  82 110 145 183 227 274 332
#     4  10  20  40  62  82 113 148 182 226 276 327
#     4  10  19  34  53  82 109 145 183 225 275 328
#     4   8  15  28  49  75  98 140 185 222 275 325
#     4   9  21  38  60  82 114 147 181 226 274 326
#     4   9  17  33  52  75 108 141 183 227 276 326
#
# _framework density 23.396000999999998
#
# number of rings (size 3 to 8) (size 9 to 14) (size 15 to 20)
#    0.857    2.000    0.000    1.286    0.000    1.143 
#    0.000    2.143    0.000   29.143    0.000    0.000 
#    0.000    0.000    0.000    0.000    0.000    0.000 
#
# Total GULP energy -78003.270145 kJ/mol
# GULP energy per Si atom -5571.662153 kJ/mol
# Density = 2.334275 g / cm^3
# Si number density = 23.396001 Si / 1000 Ang^3
#
#
#
# Elastic Constant Matrix: (Units=GPa)
#
#
# Indices 1 2 3 4 5 6 
#
# 1 144.5372 41.7236 70.7169 -14.7690 29.9134 16.8150
# 2 41.7236 117.5730 48.2874 -26.8447 25.9091 20.5265
# 3 70.7169 48.2874 114.5789 -25.4612 45.9662 2.1724
# 4 -14.7690 -26.8447 -25.4612 40.6018 -15.5188 1.7979
# 5 29.9134 25.9091 45.9662 -15.5188 43.7538 5.4626
# 6 16.8150 20.5265 2.1724 1.7979 5.4626 26.9307
#
#
#
# Elastic Compliance Matrix: (Units=1/GPa)
#
#
# Indices 1 2 3 4 5 6 
#
# 1 0.010879 -0.000068 -0.006743 0.000168 0.000535 -0.006316
# 2 -0.000068 0.013546 -0.003871 0.006903 -0.000162 -0.010398
# 3 -0.006743 -0.003871 0.021024 0.001834 -0.015596 0.008506
# 4 0.000168 0.006903 0.001834 0.033436 0.006871 -0.009140
# 5 0.000535 -0.000162 -0.015596 0.006871 0.042407 -0.008013
# 6 -0.006316 -0.010398 0.008506 -0.009140 -0.008013 0.050551
#
#
# Mechanical properties :
#
#
# Convention : Reuss Voigt Hill
#
# Bulk Modulus (GPa) = 41.52011 77.57167 59.54589
# Shear Modulus (GPa) = 24.84656 36.65467 30.75062
#
# Velocity S-wave (km/s) = 3.26237 3.96246 3.62933
# Velocity P-wave (km/s) = 5.65473 7.35953 6.56272
#
# Compressibility (1/GPa) = 0.02408471
#
# Stress axis : x y z
#
# Youngs Moduli (GPa) = 91.92274 73.82009 47.56540
#
# Poissons Ratio (x) = 0.00502 0.32074
# Poissons Ratio (y) = 0.00625 0.18412
# Poissons Ratio (z) = 0.61985 0.28575
#
# Static dielectric constant tensor:
#      x y z
#    x 1.949870 -0.027530 0.069000 
#    y -0.027530 2.049760 0.072710 
#    z 0.069000 0.072710 1.906340 
# 
# From -- ./inp_files/599038.got.cif
#   From: 2010.05.17/outbox.cif.g08.bks.cpg/sg2_300_cif.got.tgz:599038.got - 2010.06.03 11:33:40.
