data_PCOD9083591
_publ_section_title
;
Structure prediction by ZEFSAII (Michael W. Deem and Ramdas Pophale) SiO2 
 PCOD9083591
Probable space group: P -1
;
_chemical_formula_sum "Si O2"
_cell_formula_units_Z 16
_cell_length_a 8.952095
_cell_length_b 20.829791
_cell_length_c 8.901076
_cell_angle_alpha 125.350297
_cell_angle_beta 131.784246
_cell_angle_gamma 40.714831
_cell_volume 798.026573
_symmetry_space_group_name_H-M "P -1"
_symmetry_group_IT_number 2
_symmetry_cell_setting 'triclinic'
loop_
_space_group_symop_operation_xyz
x,y,z
-x,-y,-z
loop_
_atom_site_type_symbol
_atom_site_label
_atom_site_fract_x
_atom_site_fract_y
_atom_site_fract_z
Si Si1 0.945511 0.089094 0.682494
Si Si2 0.140445 0.558775 0.076694
Si Si3 0.649348 0.767877 0.108421
Si Si4 0.427115 0.276471 0.687553
Si Si5 0.516316 0.384667 0.644564
Si Si6 0.929343 0.456713 0.654505
Si Si7 0.984481 0.182251 0.562759
Si Si8 0.142614 0.944813 0.869290
O O1 0.644322 0.166847 0.619339
O O2 0.027717 0.143727 0.712275
O O3 0.000000 0.000000 0.500000
O O4 0.102097 0.031620 0.857691
O O5 0.343749 0.568133 0.156904
O O6 0.200229 0.537297 0.266692
O O7 0.862447 0.665436 0.029218
O O8 0.111336 0.483050 0.872944
O O9 0.535654 0.742662 0.133583
O O10 0.804081 0.806027 0.327114
O O11 0.430400 0.852885 0.971725
O O12 0.477599 0.341123 0.706679
O O13 0.119769 0.344328 0.565808
O O14 0.262505 0.465650 0.492822
O O15 0.711828 0.291186 0.538311
O O16 0.973662 0.105954 0.353899
O O17 0.000000 0.000000 0.000000
#
# Coordination Sequence:
#
# PCOD9083591 Si02
#       8
#     2   2   2   2   2   2   2   2
#     4   9  19  38  57  80 110 146 182 229 280 321
#     4   9  20  35  55  83 109 144 179 229 269 327
#     4  10  20  37  57  81 113 141 190 223 273 329
#     4  10  20  35  54  81 113 143 180 237 268 319
#     4  10  19  36  57  78 112 147 183 215 280 330
#     4  10  19  34  57  80 110 143 183 223 274 324
#     4   9  21  37  58  81 111 148 180 229 275 328
#     4  11  20  35  60  81 109 144 185 230 278 326
#
# _framework density 20.049455999999999
#
# number of rings (size 3 to 8) (size 9 to 14) (size 15 to 20)
#    0.000    2.250    1.250    1.500    0.000    1.500 
#    0.000    1.250    2.750    0.000    0.000    0.000 
#    0.000    0.000    0.000    0.000    0.000    0.000 
#
# Total GULP energy -89094.064666 kJ/mol
# GULP energy per Si atom -5568.379042 kJ/mol
# Density = 2.000382 g / cm^3
# Si number density = 20.049456 Si / 1000 Ang^3
#
#
#
# Elastic Constant Matrix: (Units=GPa)
#
#
# Indices 1 2 3 4 5 6 
#
# 1 80.9206 33.4292 34.9031 -12.3451 -12.4344 7.5944
# 2 33.4292 124.9379 38.5362 -24.1862 -12.3852 8.0770
# 3 34.9031 38.5362 43.9698 -9.6912 -3.5434 -1.9334
# 4 -12.3451 -24.1862 -9.6912 32.6088 7.1126 -10.5857
# 5 -12.4344 -12.3852 -3.5434 7.1126 15.8227 1.9162
# 6 7.5944 8.0770 -1.9334 -10.5857 1.9162 24.1935
#
#
#
# Elastic Compliance Matrix: (Units=1/GPa)
#
#
# Indices 1 2 3 4 5 6 
#
# 1 0.024060 0.001911 -0.020705 -0.004084 0.019195 -0.013152
# 2 0.001911 0.012850 -0.011588 0.003462 0.008007 -0.004935
# 3 -0.020705 -0.011588 0.050708 0.009794 -0.020854 0.020357
# 4 -0.004084 0.003462 0.009794 0.046992 -0.022244 0.023232
# 5 0.019195 0.008007 -0.020854 -0.022244 0.093209 -0.027480
# 6 -0.013152 -0.004935 0.020357 0.023232 -0.027480 0.061078
#
#
# Mechanical properties :
#
#
# Convention : Reuss Voigt Hill
#
# Bulk Modulus (GPa) = 37.23863 51.50725 44.37294
# Shear Modulus (GPa) = 13.94268 24.05565 18.99916
#
# Velocity S-wave (km/s) = 2.63993 3.46759 3.08168
# Velocity P-wave (km/s) = 5.28262 6.46360 5.90272
#
# Compressibility (1/GPa) = 0.02685383
#
# Stress axis : x y z
#
# Youngs Moduli (GPa) = 41.56309 77.82303 19.72091
#
# Poissons Ratio (x) = -0.14875 0.40833
# Poissons Ratio (y) = -0.07944 0.22852
# Poissons Ratio (z) = 0.86057 0.90179
#
# Static dielectric constant tensor:
#      x y z
#    x 1.784060 0.057340 -0.057320 
#    y 0.057340 1.772800 -0.029140 
#    z -0.057320 -0.029140 1.727590 
# 
# From -- ./inp_files/124709.got.cif
#   From: 2010.05.17/outbox.cif.g08.bks.cpg/sg2_63_cif.got.tgz:124709.got - 2010.06.03 11:33:40.
