data_PCOD9083505
_publ_section_title
;
Structure prediction by ZEFSAII (Michael W. Deem and Ramdas Pophale) SiO2 
 PCOD9083505
Probable space group: P -1
;
_chemical_formula_sum "Si O2"
_cell_formula_units_Z 16
_cell_length_a 8.841671
_cell_length_b 16.095453
_cell_length_c 8.596772
_cell_angle_alpha 44.981529
_cell_angle_beta 45.758159
_cell_angle_gamma 47.810413
_cell_volume 579.973841
_symmetry_space_group_name_H-M "P -1"
_symmetry_group_IT_number 2
_symmetry_cell_setting 'triclinic'
loop_
_space_group_symop_operation_xyz
x,y,z
-x,-y,-z
loop_
_atom_site_type_symbol
_atom_site_label
_atom_site_fract_x
_atom_site_fract_y
_atom_site_fract_z
Si Si1 0.532902 0.040547 0.169690
Si Si2 0.434538 0.393216 0.084519
Si Si3 0.068169 0.613690 0.924829
Si Si4 0.141759 0.032074 0.688708
Si Si5 0.503847 0.184671 0.689324
Si Si6 0.853839 0.183902 0.203453
Si Si7 0.806971 0.534626 0.458211
Si Si8 0.999696 0.307095 0.482419
O O1 0.302907 0.055929 0.407561
O O2 0.701576 0.039885 0.186745
O O3 0.595219 0.906019 0.215669
O O4 0.504976 0.145315 0.919665
O O5 0.647593 0.269213 0.131029
O O6 0.231304 0.331847 0.330746
O O7 0.500000 0.500000 0.000000
O O8 0.304818 0.497114 0.910187
O O9 0.034287 0.720053 0.941589
O O10 0.027585 0.671425 0.710311
O O11 0.894439 0.555035 0.197770
O O12 0.010375 0.166253 0.677671
O O13 0.026283 0.943981 0.805069
O O14 0.748914 0.153006 0.479342
O O15 0.385122 0.333530 0.546187
O O16 0.000000 0.500000 0.500000
O O17 0.793546 0.398713 0.613359
#
# Coordination Sequence:
#
# PCOD9083505 Si02
#       8
#     2   2   2   2   2   2   2   2
#     4   9  18  32  55  83 111 147 197 244 283 337
#     4   9  17  32  55  82 109 140 186 235 276 327
#     4  10  22  38  58  86 118 154 193 237 291 349
#     4  10  19  34  57  84 113 153 197 237 284 345
#     4  10  19  34  56  84 115 149 193 243 291 338
#     4  10  21  38  60  85 116 152 195 243 287 339
#     4  11  21  35  58  86 116 150 190 239 294 348
#     4  11  21  36  58  85 117 154 194 233 286 353
#
# _framework density 27.587448999999999
#
# number of rings (size 3 to 8) (size 9 to 14) (size 15 to 20)
#    0.000    2.000    0.000    6.750    0.000    1.500 
#    0.000    1.875    0.000    3.750    0.000    0.000 
#    0.000    0.000    0.000    0.000    0.000    0.000 
#
# Total GULP energy -89343.652520 kJ/mol
# GULP energy per Si atom -5583.978283 kJ/mol
# Density = 2.752466 g / cm^3
# Si number density = 27.587449 Si / 1000 Ang^3
#
#
#
# Elastic Constant Matrix: (Units=GPa)
#
#
# Indices 1 2 3 4 5 6 
#
# 1 89.5917 51.8884 27.3004 -15.4260 -2.2108 19.8119
# 2 51.8884 184.9724 28.7199 -39.5075 5.7851 40.1653
# 3 27.3004 28.7199 152.9478 -3.8167 13.1085 -4.7180
# 4 -15.4260 -39.5075 -3.8167 40.9746 5.9501 -8.2415
# 5 -2.2108 5.7851 13.1085 5.9501 47.9067 -5.4469
# 6 19.8119 40.1653 -4.7180 -8.2415 -5.4469 37.2665
#
#
#
# Elastic Compliance Matrix: (Units=1/GPa)
#
#
# Indices 1 2 3 4 5 6 
#
# 1 0.014678 -0.002224 -0.002376 0.002014 0.000760 -0.005151
# 2 -0.002224 0.009580 -0.001244 0.007041 -0.002719 -0.008141
# 3 -0.002376 -0.001244 0.007415 -0.000534 -0.001558 0.003197
# 4 0.002014 0.007041 -0.000534 0.032141 -0.004868 -0.002331
# 5 0.000760 -0.002719 -0.001558 -0.004868 0.022790 0.004583
# 6 -0.005151 -0.008141 0.003197 -0.002331 0.004583 0.038905
#
#
# Mechanical properties :
#
#
# Convention : Reuss Voigt Hill
#
# Bulk Modulus (GPa) = 50.03869 71.48104 60.75987
# Shear Modulus (GPa) = 34.75630 46.53645 40.64637
#
# Velocity S-wave (km/s) = 3.55330 4.11161 3.84261
# Velocity P-wave (km/s) = 5.91711 6.96472 6.46218
#
# Compressibility (1/GPa) = 0.01998453
#
# Stress axis : x y z
#
# Youngs Moduli (GPa) = 68.12741 104.38633 134.86469
#
# Poissons Ratio (x) = 0.23212 0.32047
# Poissons Ratio (y) = 0.15149 0.16781
# Poissons Ratio (z) = 0.16189 0.12989
#
# Static dielectric constant tensor:
#      x y z
#    x 2.185800 -0.034160 -0.093070 
#    y -0.034160 2.284830 0.023320 
#    z -0.093070 0.023320 2.166690 
# 
# From -- ./inp_files/214355.got.cif
#   From: 2010.05.17/outbox.cif.g08.bks.cpg/sg2_108_cif.got.tgz:214355.got - 2010.06.03 11:33:40.
