data_PCOD9083909
_publ_section_title
;
Structure prediction by ZEFSAII (Michael W. Deem and Ramdas Pophale) SiO2 
 PCOD9083909
Probable space group: P -1
;
_chemical_formula_sum "Si O2"
_cell_formula_units_Z 14
_cell_length_a 19.779137
_cell_length_b 9.639323
_cell_length_c 5.044123
_cell_angle_alpha 67.494859
_cell_angle_beta 72.152095
_cell_angle_gamma 117.287154
_cell_volume 639.230655
_symmetry_space_group_name_H-M "P -1"
_symmetry_group_IT_number 2
_symmetry_cell_setting 'triclinic'
loop_
_space_group_symop_operation_xyz
x,y,z
-x,-y,-z
loop_
_atom_site_type_symbol
_atom_site_label
_atom_site_fract_x
_atom_site_fract_y
_atom_site_fract_z
Si Si1 0.062030 0.128997 0.581358
Si Si2 0.557542 0.461895 0.136901
Si Si3 0.390030 0.180637 0.947445
Si Si4 0.795081 0.130945 0.906876
Si Si5 0.871591 0.079494 0.361400
Si Si6 0.498874 0.109570 0.174612
Si Si7 0.944494 0.567208 0.404701
O O1 0.077499 0.326885 0.447033
O O2 0.144855 0.121342 0.502843
O O3 0.000000 0.000000 0.500000
O O4 0.000000 0.000000 0.000000
O O5 0.487976 0.316487 0.565162
O O6 0.630749 0.678742 0.025891
O O7 0.574850 0.343158 0.010938
O O8 0.500000 0.500000 0.000000
O O9 0.408700 0.089763 0.229409
O O10 0.309995 0.019102 0.961968
O O11 0.850616 0.092568 0.677389
O O12 0.844110 0.356924 0.611836
O O13 0.812326 0.097979 0.210121
O O14 0.980900 0.270533 0.021425
O O15 0.500000 0.000000 0.500000
O O16 0.500000 0.000000 0.000000
O O17 0.000000 0.500000 0.500000
#
# Coordination Sequence:
#
# PCOD9083909 Si02
#       7
#     2   2   2   2   2   2   2
#     4  10  19  34  59  80 112 153 203 243 282 349
#     4   9  20  39  66  86 118 157 212 238 312 371
#     4  10  22  40  62  94 121 163 205 252 310 364
#     4  11  23  37  60  87 123 150 199 254 289 351
#     4  10  21  37  57  86 118 160 198 240 297 349
#     4  11  21  38  65  92 121 156 200 248 308 375
#     4   9  19  37  59  86 115 160 202 235 291 349
#
# _framework density 21.901325
#
# number of rings (size 3 to 8) (size 9 to 14) (size 15 to 20)
#    0.000    2.000    1.429    3.000    4.000    3.429 
#    0.000    2.857    0.000    0.000    0.000    0.000 
#    0.000    0.000    0.000    0.000    0.000    0.000 
#
# Total GULP energy -77945.589101 kJ/mol
# GULP energy per Si atom -5567.542079 kJ/mol
# Density = 2.185148 g / cm^3
# Si number density = 21.901325 Si / 1000 Ang^3
#
#
#
# Elastic Constant Matrix: (Units=GPa)
#
#
# Indices 1 2 3 4 5 6 
#
# 1 62.9944 38.9657 23.9709 -18.2215 16.6824 -2.5194
# 2 38.9657 174.0527 27.4234 -6.5982 0.9500 -19.9862
# 3 23.9709 27.4234 55.7718 8.4992 17.3171 0.7972
# 4 -18.2215 -6.5982 8.4992 37.9023 1.4626 2.0855
# 5 16.6824 0.9500 17.3171 1.4626 30.5301 -0.2970
# 6 -2.5194 -19.9862 0.7972 2.0855 -0.2970 52.1683
#
#
#
# Elastic Compliance Matrix: (Units=1/GPa)
#
#
# Indices 1 2 3 4 5 6 
#
# 1 0.030184 -0.004682 -0.009497 0.016329 -0.011752 -0.000911
# 2 -0.004682 0.007517 -0.002877 -0.000603 0.004012 0.002745
# 3 -0.009497 -0.002877 0.028303 -0.010928 -0.010267 -0.001615
# 4 0.016329 -0.000603 -0.010928 0.036794 -0.004475 -0.000772
# 5 -0.011752 0.004012 -0.010267 -0.004475 0.045104 0.001562
# 6 -0.000911 0.002745 -0.001615 -0.000772 0.001562 0.020241
#
#
# Mechanical properties :
#
#
# Convention : Reuss Voigt Hill
#
# Bulk Modulus (GPa) = 31.35671 52.61544 41.98608
# Shear Modulus (GPa) = 23.48671 37.61740 30.55205
#
# Velocity S-wave (km/s) = 3.27829 4.14887 3.73900
# Velocity P-wave (km/s) = 5.35517 6.85761 6.15243
#
# Compressibility (1/GPa) = 0.03189110
#
# Stress axis : x y z
#
# Youngs Moduli (GPa) = 33.13068 133.02594 35.33183
#
# Poissons Ratio (x) = 0.62287 0.33555
# Poissons Ratio (y) = 0.15513 0.10165
# Poissons Ratio (z) = 0.31465 0.38270
#
# Static dielectric constant tensor:
#      x y z
#    x 1.862820 -0.022280 -0.013170 
#    y -0.022280 1.923790 -0.019640 
#    z -0.013170 -0.019640 1.870700 
# 
# From -- ./inp_files/115408.got.cif
#   From: 2010.05.17/outbox.cif.g08.bks.cpg/sg2_58_cif.got.tgz:115408.got - 2010.06.03 11:33:40.
