data_PCOD9083641
_publ_section_title
;
Structure prediction by ZEFSAII (Michael W. Deem and Ramdas Pophale) SiO2 
 PCOD9083641
Probable space group: P -1
;
_chemical_formula_sum "Si O2"
_cell_formula_units_Z 14
_cell_length_a 23.113349
_cell_length_b 14.132282
_cell_length_c 5.787935
_cell_angle_alpha 103.345413
_cell_angle_beta 69.147322
_cell_angle_gamma 159.456066
_cell_volume 588.933977
_symmetry_space_group_name_H-M "P -1"
_symmetry_group_IT_number 2
_symmetry_cell_setting 'triclinic'
loop_
_space_group_symop_operation_xyz
x,y,z
-x,-y,-z
loop_
_atom_site_type_symbol
_atom_site_label
_atom_site_fract_x
_atom_site_fract_y
_atom_site_fract_z
Si Si1 0.055952 0.863538 0.091407
Si Si2 0.906121 0.838780 0.290149
Si Si3 0.297567 0.136681 0.509995
Si Si4 0.389717 0.065320 0.921415
Si Si5 0.364678 0.016999 0.438099
Si Si6 0.637827 0.594706 0.704812
Si Si7 0.973055 0.368751 0.738641
O O1 0.897298 0.708799 0.218616
O O2 0.986874 0.655931 0.146384
O O3 0.202289 0.125984 0.206176
O O4 0.175142 0.021282 0.785750
O O5 0.733690 0.653881 0.444292
O O6 0.000000 0.000000 0.500000
O O7 0.000000 0.000000 0.000000
O O8 0.423633 0.399095 0.339949
O O9 0.377390 0.154297 0.511013
O O10 0.146059 0.866331 0.407427
O O11 0.435447 0.081940 0.621439
O O12 0.492836 0.321619 0.906993
O O13 0.435332 0.091382 0.125109
O O14 0.174811 0.770893 0.044996
O O15 0.152927 0.676713 0.547186
#
# Coordination Sequence:
#
# PCOD9083641 Si02
#       7
#     2   2   2   2   2   2   2
#     4  10  20  35  60  84 112 148 189 229 279 329
#     4  10  20  37  58  81 113 148 185 229 272 334
#     4  10  19  34  57  83 114 145 186 228 281 330
#     4  11  23  37  57  83 116 154 179 232 284 334
#     4  11  24  38  57  82 114 153 195 225 273 332
#     4  10  23  36  55  87 119 144 184 228 291 340
#     4  10  22  38  55  85 110 151 196 230 270 332
#
# _framework density 23.771764999999998
#
# number of rings (size 3 to 8) (size 9 to 14) (size 15 to 20)
#    0.000    1.714    2.857    2.143    4.000    5.714 
#    0.000    0.000    0.000    1.714    0.000    0.000 
#    0.000    0.000    0.000    0.000    0.000    0.000 
#
# Total GULP energy -78071.391211 kJ/mol
# GULP energy per Si atom -5576.527944 kJ/mol
# Density = 2.371766 g / cm^3
# Si number density = 23.771765 Si / 1000 Ang^3
#
#
#
# Elastic Constant Matrix: (Units=GPa)
#
#
# Indices 1 2 3 4 5 6 
#
# 1 77.6398 17.5779 31.7535 2.4840 -5.5978 -6.3049
# 2 17.5779 79.6347 30.9374 -24.7776 5.3208 -13.1434
# 3 31.7535 30.9374 150.7932 15.1636 17.0780 2.7062
# 4 2.4840 -24.7776 15.1636 47.3160 -4.0501 9.5972
# 5 -5.5978 5.3208 17.0780 -4.0501 39.6683 -1.6649
# 6 -6.3049 -13.1434 2.7062 9.5972 -1.6649 20.6330
#
#
#
# Elastic Compliance Matrix: (Units=1/GPa)
#
#
# Indices 1 2 3 4 5 6 
#
# 1 0.015372 -0.002103 -0.003175 -0.001533 0.003863 0.004799
# 2 -0.002103 0.019246 -0.004727 0.010222 0.000516 0.007524
# 3 -0.003175 -0.004727 0.009342 -0.005032 -0.004485 -0.003228
# 4 -0.001533 0.010222 -0.005032 0.029870 0.003338 -0.006922
# 5 0.003863 0.000516 -0.004485 0.003338 0.028075 0.002810
# 6 0.004799 0.007524 -0.003228 -0.006922 0.002810 0.058595
#
#
# Mechanical properties :
#
#
# Convention : Reuss Voigt Hill
#
# Bulk Modulus (GPa) = 41.75413 52.06726 46.91070
# Shear Modulus (GPa) = 26.52635 36.71005 31.61820
#
# Velocity S-wave (km/s) = 3.34410 3.93398 3.65097
# Velocity P-wave (km/s) = 5.70205 6.52576 6.12776
#
# Compressibility (1/GPa) = 0.02394972
#
# Stress axis : x y z
#
# Youngs Moduli (GPa) = 65.05382 51.95993 107.04486
#
# Poissons Ratio (x) = 0.10926 0.33987
# Poissons Ratio (y) = 0.13679 0.50601
# Poissons Ratio (z) = 0.20655 0.24562
#
# Static dielectric constant tensor:
#      x y z
#    x 1.599500 -0.088800 -0.439460 
#    y -0.088800 1.919150 -0.180960 
#    z -0.439460 -0.180960 1.157920 
# 
# From -- ./inp_files/43374.got.cif
#   From: 2010.05.17/outbox.cif.g08.bks.cpg/sg2_22_cif.got.tgz:43374.got - 2010.06.03 11:33:40.
