data_PCOD9083281
_publ_section_title
;
Structure prediction by ZEFSAII (Michael W. Deem and Ramdas Pophale) SiO2 
 PCOD9083281
Probable space group: P -1
;
_chemical_formula_sum "Si O2"
_cell_formula_units_Z 16
_cell_length_a 8.723218
_cell_length_b 23.420627
_cell_length_c 6.277442
_cell_angle_alpha 69.181335
_cell_angle_beta 50.544144
_cell_angle_gamma 46.798428
_cell_volume 714.574863
_symmetry_space_group_name_H-M "P -1"
_symmetry_group_IT_number 2
_symmetry_cell_setting 'triclinic'
loop_
_space_group_symop_operation_xyz
x,y,z
-x,-y,-z
loop_
_atom_site_type_symbol
_atom_site_label
_atom_site_fract_x
_atom_site_fract_y
_atom_site_fract_z
Si Si1 0.587518 0.728510 0.030298
Si Si2 0.002917 0.834857 0.492614
Si Si3 0.681186 0.501773 0.118322
Si Si4 0.011929 0.440377 0.279801
Si Si5 0.931931 0.034630 0.765262
Si Si6 0.265028 0.205681 0.535171
Si Si7 0.381073 0.155016 0.926067
Si Si8 0.163744 0.622360 0.172480
O O1 0.785615 0.635048 0.950103
O O2 0.596592 0.767356 0.753993
O O3 0.674124 0.763270 0.075033
O O4 0.305236 0.761598 0.299434
O O5 0.985181 0.910575 0.380760
O O6 0.847543 0.824862 0.473450
O O7 0.864527 0.839465 0.823874
O O8 0.887760 0.511694 0.841926
O O9 0.741005 0.423138 0.074679
O O10 0.415040 0.578601 0.157702
O O11 0.738909 0.492039 0.330957
O O12 0.993209 0.403110 0.552703
O O13 0.621437 0.089711 0.946345
O O14 0.000000 0.000000 0.500000
O O15 0.000000 0.000000 0.000000
O O16 0.015397 0.284417 0.765801
O O17 0.449178 0.141950 0.635148
#
# Coordination Sequence:
#
# PCOD9083281 Si02
#       8
#     2   2   2   2   2   2   2   2
#     4   9  20  38  58  87 123 163 214 268 320 377
#     4  10  23  41  66  94 127 164 214 259 317 380
#     4  10  20  32  51  80 114 157 204 259 317 385
#     4  10  19  34  54  77 114 161 206 257 318 376
#     4  11  28  47  72 103 140 177 212 263 325 391
#     4  10  21  38  64  89 122 164 211 268 317 382
#     4  10  23  41  66  95 126 165 213 260 316 382
#     4  10  20  35  53  82 117 153 204 260 320 372
#
# _framework density 22.390936
#
# number of rings (size 3 to 8) (size 9 to 14) (size 15 to 20)
#    0.000    2.000    0.000    2.250    7.000    2.000 
#    0.000    6.250    0.000    0.000    0.000    0.000 
#    0.000    0.000    0.000    0.000    0.000    0.000 
#
# Total GULP energy -89140.182583 kJ/mol
# GULP energy per Si atom -5571.261411 kJ/mol
# Density = 2.233997 g / cm^3
# Si number density = 22.390936 Si / 1000 Ang^3
#
#
#
# Elastic Constant Matrix: (Units=GPa)
#
#
# Indices 1 2 3 4 5 6 
#
# 1 62.0495 36.3736 36.1023 -4.5896 -8.3031 -10.3876
# 2 36.3736 65.5880 23.8164 7.6379 5.1381 1.4557
# 3 36.1023 23.8164 94.7704 0.1569 -6.6399 -2.2548
# 4 -4.5896 7.6379 0.1569 32.4957 -0.7010 1.5562
# 5 -8.3031 5.1381 -6.6399 -0.7010 33.7497 -2.3128
# 6 -10.3876 1.4557 -2.2548 1.5562 -2.3128 25.3183
#
#
#
# Elastic Compliance Matrix: (Units=1/GPa)
#
#
# Indices 1 2 3 4 5 6 
#
# 1 0.038041 -0.020627 -0.008071 0.009729 0.012250 0.016595
# 2 -0.020627 0.028985 -0.000396 -0.009445 -0.010484 -0.010542
# 3 -0.008071 -0.000396 0.013725 -0.001006 0.000621 -0.001948
# 4 0.009729 -0.009445 -0.001006 0.034339 0.004535 0.002749
# 5 0.012250 -0.010484 0.000621 0.004535 0.035046 0.008607
# 6 0.016595 -0.010542 -0.001948 0.002749 0.008607 0.047356
#
#
# Mechanical properties :
#
#
# Convention : Reuss Voigt Hill
#
# Bulk Modulus (GPa) = 44.32053 46.11028 45.21541
# Shear Modulus (GPa) = 18.99707 26.72045 22.85876
#
# Velocity S-wave (km/s) = 2.91594 3.45825 3.19861
# Velocity P-wave (km/s) = 5.58335 6.04847 5.82056
#
# Compressibility (1/GPa) = 0.02256291
#
# Stress axis : x y z
#
# Youngs Moduli (GPa) = 26.28774 34.50070 72.86167
#
# Poissons Ratio (x) = 0.71164 0.58804
# Poissons Ratio (y) = 0.54223 0.02886
# Poissons Ratio (z) = 0.21216 0.01367
#
# Static dielectric constant tensor:
#      x y z
#    x 1.825320 -0.026070 0.056540 
#    y -0.026070 1.819110 0.031600 
#    z 0.056540 0.031600 1.933850 
# 
# From -- ./inp_files/10728.got.cif
#   From: 2010.05.17/outbox.cif.g08.bks.cpg/sg2_6_cif.got.tgz:10728.got - 2010.06.03 11:33:40.
