data_PCOD9083928
_publ_section_title
;
Structure prediction by ZEFSAII (Michael W. Deem and Ramdas Pophale) SiO2 
 PCOD9083928
Probable space group: P -1
;
_chemical_formula_sum "Si O2"
_cell_formula_units_Z 16
_cell_length_a 14.262956
_cell_length_b 23.471924
_cell_length_c 8.653401
_cell_angle_alpha 50.179408
_cell_angle_beta 54.554879
_cell_angle_gamma 21.520889
_cell_volume 814.944812
_symmetry_space_group_name_H-M "P -1"
_symmetry_group_IT_number 2
_symmetry_cell_setting 'triclinic'
loop_
_space_group_symop_operation_xyz
x,y,z
-x,-y,-z
loop_
_atom_site_type_symbol
_atom_site_label
_atom_site_fract_x
_atom_site_fract_y
_atom_site_fract_z
Si Si1 0.068804 0.376672 0.588674
Si Si2 0.340874 0.430509 0.583195
Si Si3 0.337336 0.735644 0.161042
Si Si4 0.272234 0.912586 0.323197
Si Si5 0.884366 0.051470 0.266335
Si Si6 0.649359 0.407425 0.806293
Si Si7 0.404520 0.977316 0.195403
Si Si8 0.111330 0.669643 0.999402
O O1 0.372258 0.183613 0.628705
O O2 0.000000 0.500000 0.500000
O O3 0.932703 0.437385 0.449791
O O4 0.953519 0.378131 0.809618
O O5 0.404275 0.395765 0.764184
O O6 0.534104 0.263283 0.603571
O O7 0.406921 0.475935 0.390228
O O8 0.288897 0.680481 0.243796
O O9 0.316561 0.800658 0.919112
O O10 0.106776 0.887088 0.236392
O O11 0.216667 0.940029 0.512024
O O12 0.393669 0.922264 0.165705
O O13 0.016594 0.043416 0.245749
O O14 0.394311 0.516000 0.928662
O O15 0.865361 0.295773 0.924226
O O16 0.106458 0.168391 0.182235
O O17 0.500000 0.000000 0.000000
#
# Coordination Sequence:
#
# PCOD9083928 Si02
#       8
#     2   2   2   2   2   2   2   2
#     4  10  19  36  55  81 110 150 197 241 279 321
#     4  10  21  34  55  86 109 157 183 234 285 343
#     4  10  20  35  51  84 124 151 177 225 302 358
#     4  10  19  34  59  83 115 141 194 237 275 342
#     4   9  21  33  55  88 116 148 180 232 299 341
#     4  10  20  34  57  84 121 143 185 231 300 343
#     4  10  20  34  55  86 111 144 190 247 280 319
#     4   9  21  33  57  91 110 143 193 241 283 334
#
# _framework density 19.633233000000001
#
# number of rings (size 3 to 8) (size 9 to 14) (size 15 to 20)
#    0.000    2.250    1.250    1.125   10.500    0.000 
#    0.000    0.000    0.000    3.750    0.000    0.000 
#    0.000    0.000    0.000    0.000    0.000    0.000 
#
# Total GULP energy -89074.302492 kJ/mol
# GULP energy per Si atom -5567.143906 kJ/mol
# Density = 1.958855 g / cm^3
# Si number density = 19.633233 Si / 1000 Ang^3
#
#
#
# Elastic Constant Matrix: (Units=GPa)
#
#
# Indices 1 2 3 4 5 6 
#
# 1 140.6662 38.0485 64.2153 -9.9761 -8.4013 -6.5362
# 2 38.0485 42.6519 33.0463 -16.5909 2.9973 -9.3593
# 3 64.2153 33.0463 74.4631 -21.2228 4.5363 0.3897
# 4 -9.9761 -16.5909 -21.2228 26.7388 -1.7870 5.5290
# 5 -8.4013 2.9973 4.5363 -1.7870 44.0873 -14.4392
# 6 -6.5362 -9.3593 0.3897 5.5290 -14.4392 38.0722
#
#
#
# Elastic Compliance Matrix: (Units=1/GPa)
#
#
# Indices 1 2 3 4 5 6 
#
# 1 0.014434 -0.005852 -0.012768 -0.008956 0.005605 0.004596
# 2 -0.005852 0.044379 -0.010243 0.015621 0.000103 0.007780
# 3 -0.012768 -0.010243 0.034696 0.018104 -0.008099 -0.010766
# 4 -0.008956 0.015621 0.018104 0.059526 -0.004974 -0.008414
# 5 0.005605 0.000103 -0.008099 -0.004974 0.028502 0.012603
# 6 0.004596 0.007780 -0.010766 -0.008414 0.012603 0.035079
#
#
# Mechanical properties :
#
#
# Convention : Reuss Voigt Hill
#
# Bulk Modulus (GPa) = 27.94762 58.71125 43.32944
# Shear Modulus (GPa) = 17.46596 29.94441 23.70518
#
# Velocity S-wave (km/s) = 2.98587 3.90960 3.47854
# Velocity P-wave (km/s) = 5.11400 7.09570 6.18474
#
# Compressibility (1/GPa) = 0.03578122
#
# Stress axis : x y z
#
# Youngs Moduli (GPa) = 69.28065 22.53334 28.82187
#
# Poissons Ratio (x) = 0.13188 0.36801
# Poissons Ratio (y) = 0.40546 0.29522
# Poissons Ratio (z) = 0.88460 0.23080
#
# Static dielectric constant tensor:
#      x y z
#    x 1.806950 -0.043470 -0.042760 
#    y -0.043470 1.732130 -0.034030 
#    z -0.042760 -0.034030 1.780090 
# 
# From -- ./inp_files/282886.got.cif
#   From: 2010.05.17/outbox.cif.g08.bks.cpg/sg2_142_cif.got.tgz:282886.got - 2010.06.03 11:33:40.
