data_PCOD9083564
_publ_section_title
;
Structure prediction by ZEFSAII (Michael W. Deem and Ramdas Pophale) SiO2 
 PCOD9083564
Probable space group: P -1
;
_chemical_formula_sum "Si O2"
_cell_formula_units_Z 16
_cell_length_a 14.306272
_cell_length_b 10.667442
_cell_length_c 7.728203
_cell_angle_alpha 54.232064
_cell_angle_beta 122.150220
_cell_angle_gamma 135.610595
_cell_volume 655.674895
_symmetry_space_group_name_H-M "P -1"
_symmetry_group_IT_number 2
_symmetry_cell_setting 'triclinic'
loop_
_space_group_symop_operation_xyz
x,y,z
-x,-y,-z
loop_
_atom_site_type_symbol
_atom_site_label
_atom_site_fract_x
_atom_site_fract_y
_atom_site_fract_z
Si Si1 0.642305 0.235221 0.553848
Si Si2 0.437683 0.310602 0.197634
Si Si3 0.331189 0.193514 0.552269
Si Si4 0.885892 0.452473 0.068546
Si Si5 0.192117 0.915906 0.177890
Si Si6 0.064623 0.789761 0.476823
Si Si7 0.664539 0.067648 0.011926
Si Si8 0.178970 0.360091 0.398050
O O1 0.535503 0.242108 0.333614
O O2 0.731925 0.176922 0.597798
O O3 0.738964 0.438420 0.581141
O O4 0.576072 0.083135 0.769400
O O5 0.421948 0.323964 0.376634
O O6 0.289098 0.141458 0.119774
O O7 0.500000 0.500000 0.000000
O O8 0.269086 0.284221 0.521392
O O9 0.205808 0.988561 0.514993
O O10 0.402676 0.131451 0.801171
O O11 0.937249 0.395114 0.329378
O O12 0.737888 0.252686 0.053752
O O13 0.861664 0.609175 0.858749
O O14 0.000000 0.500000 0.000000
O O15 0.058174 0.815551 0.243501
O O16 0.205828 0.892327 0.007268
O O17 0.950120 0.772526 0.498120
#
# Coordination Sequence:
#
# PCOD9083564 Si02
#       8
#     2   2   2   2   2   2   2   2
#     4   9  21  37  58  82 114 146 188 232 275 328
#     4  11  24  40  59  82 111 146 188 239 288 327
#     4  10  21  37  60  82 115 151 183 230 278 334
#     4   8  15  31  52  80 111 148 184 220 260 330
#     4   9  20  39  58  81 112 147 191 229 279 327
#     4   9  18  35  60  82 117 152 184 224 276 333
#     4   8  18  36  56  81 109 147 187 224 273 329
#     4  10  19  34  56  90 116 144 190 225 275 336
#
# _framework density 24.402336999999999
#
# number of rings (size 3 to 8) (size 9 to 14) (size 15 to 20)
#    0.750    2.000    0.000    0.750    1.750    2.500 
#    0.000    1.875    2.750    0.000    0.000    0.000 
#    0.000    0.000    0.000    0.000    0.000    0.000 
#
# Total GULP energy -89181.497149 kJ/mol
# GULP energy per Si atom -5573.843572 kJ/mol
# Density = 2.434680 g / cm^3
# Si number density = 24.402337 Si / 1000 Ang^3
#
#
#
# Elastic Constant Matrix: (Units=GPa)
#
#
# Indices 1 2 3 4 5 6 
#
# 1 85.9134 11.1532 48.2112 -23.5873 -18.6031 -3.6406
# 2 11.1532 66.7532 26.7721 -13.4455 -5.3664 -0.7670
# 3 48.2112 26.7721 136.1494 -38.1611 -18.3622 7.3980
# 4 -23.5873 -13.4455 -38.1611 26.5128 0.8389 0.9764
# 5 -18.6031 -5.3664 -18.3622 0.8389 36.6126 -1.9664
# 6 -3.6406 -0.7670 7.3980 0.9764 -1.9664 18.6369
#
#
#
# Elastic Compliance Matrix: (Units=1/GPa)
#
#
# Indices 1 2 3 4 5 6 
#
# 1 0.018384 0.001219 -0.002063 0.013567 0.008424 0.004638
# 2 0.001219 0.017075 -0.001435 0.007556 0.002302 0.001357
# 3 -0.002063 -0.001435 0.014651 0.018603 0.005304 -0.006693
# 4 0.013567 0.007556 0.018603 0.080177 0.015116 -0.007029
# 5 0.008424 0.002302 0.005304 0.015116 0.034377 0.002470
# 6 0.004638 0.001357 -0.006693 -0.007029 0.002470 0.057904
#
#
# Mechanical properties :
#
#
# Convention : Reuss Voigt Hill
#
# Bulk Modulus (GPa) = 21.95259 51.23212 36.59235
# Shear Modulus (GPa) = 20.63478 29.86443 25.24961
#
# Velocity S-wave (km/s) = 2.91109 3.50213 3.22020
# Velocity P-wave (km/s) = 4.50720 6.11503 5.37161
#
# Compressibility (1/GPa) = 0.04555272
#
# Stress axis : x y z
#
# Youngs Moduli (GPa) = 54.39392 58.56568 68.25625
#
# Poissons Ratio (x) = -0.07138 0.14080
# Poissons Ratio (y) = -0.06630 0.09792
# Poissons Ratio (z) = 0.11221 0.08402
#
# Static dielectric constant tensor:
#      x y z
#    x 1.945760 0.016580 -0.024080 
#    y 0.016580 2.022570 0.088670 
#    z -0.024080 0.088670 2.030110 
# 
# From -- ./inp_files/302385.got.cif
#   From: 2010.05.17/outbox.cif.g08.bks.cpg/sg2_152_cif.got.tgz:302385.got - 2010.06.03 11:33:40.
