data_PCOD9083529
_publ_section_title
;
Structure prediction by ZEFSAII (Michael W. Deem and Ramdas Pophale) SiO2 
 PCOD9083529
Probable space group: P -1
;
_chemical_formula_sum "Si O2"
_cell_formula_units_Z 16
_cell_length_a 7.264834
_cell_length_b 8.976742
_cell_length_c 20.476665
_cell_angle_alpha 144.317047
_cell_angle_beta 54.506932
_cell_angle_gamma 116.520562
_cell_volume 633.304152
_symmetry_space_group_name_H-M "P -1"
_symmetry_group_IT_number 2
_symmetry_cell_setting 'triclinic'
loop_
_space_group_symop_operation_xyz
x,y,z
-x,-y,-z
loop_
_atom_site_type_symbol
_atom_site_label
_atom_site_fract_x
_atom_site_fract_y
_atom_site_fract_z
Si Si1 0.928141 0.981657 0.612135
Si Si2 0.475231 0.379417 0.033688
Si Si3 0.859784 0.428061 0.395202
Si Si4 0.401738 0.802526 0.520021
Si Si5 0.180510 0.032878 0.231103
Si Si6 0.530169 0.622233 0.297069
Si Si7 0.125697 0.465588 0.237718
Si Si8 0.173522 0.361442 0.865601
O O1 0.847583 0.733808 0.504213
O O2 0.172396 0.894603 0.560845
O O3 0.773459 0.029064 0.725052
O O4 0.938311 0.241161 0.663179
O O5 0.236089 0.342768 0.105312
O O6 0.593420 0.589702 0.129123
O O7 0.500000 0.500000 0.000000
O O8 0.623803 0.108743 0.902565
O O9 0.660382 0.336869 0.450157
O O10 0.925130 0.344177 0.277464
O O11 0.088515 0.325453 0.350780
O O12 0.531831 0.625968 0.376306
O O13 0.508425 0.075781 0.607046
O O14 0.946562 0.901210 0.212555
O O15 0.334241 0.473113 0.249499
O O16 0.769780 0.541612 0.184394
O O17 0.000000 0.500000 0.000000
#
# Coordination Sequence:
#
# PCOD9083529 Si02
#       8
#     2   2   2   2   2   2   2   2
#     4  11  20  36  59  84 117 161 185 228 293 352
#     4  10  20  37  59  89 110 148 197 246 283 333
#     4  11  22  36  58  88 119 156 188 236 291 342
#     4  10  20  35  60  77 117 152 191 233 279 348
#     4  10  19  37  61  82 113 152 195 231 286 343
#     4  10  19  34  56  86 110 148 195 236 277 345
#     4  11  23  35  60  85 119 149 197 237 291 344
#     4   9  18  33  59  85 107 150 192 235 278 341
#
# _framework density 25.264324999999999
#
# number of rings (size 3 to 8) (size 9 to 14) (size 15 to 20)
#    0.000    1.750    5.000    1.875    0.000    0.500 
#    0.000    0.625    0.000    2.250    0.000    0.000 
#    0.000    0.000    0.000    0.000    0.000    0.000 
#
# Total GULP energy -89219.667460 kJ/mol
# GULP energy per Si atom -5576.229216 kJ/mol
# Density = 2.520682 g / cm^3
# Si number density = 25.264325 Si / 1000 Ang^3
#
#
#
# Elastic Constant Matrix: (Units=GPa)
#
#
# Indices 1 2 3 4 5 6 
#
# 1 44.7086 5.6283 16.9706 -5.7596 -13.6693 -2.7232
# 2 5.6283 140.7617 56.3884 -54.9059 -15.8577 -14.3664
# 3 16.9706 56.3884 148.0940 -47.2809 1.8482 -7.5822
# 4 -5.7596 -54.9059 -47.2809 61.1032 -6.1030 0.6704
# 5 -13.6693 -15.8577 1.8482 -6.1030 24.0631 7.6061
# 6 -2.7232 -14.3664 -7.5822 0.6704 7.6061 20.5279
#
#
#
# Elastic Compliance Matrix: (Units=1/GPa)
#
#
# Indices 1 2 3 4 5 6 
#
# 1 0.031502 0.005822 -0.003786 0.007778 0.024815 -0.002593
# 2 0.005822 0.015630 -0.001898 0.014674 0.016023 0.004593
# 3 -0.003786 -0.001898 0.009722 0.005046 -0.003820 0.003011
# 4 0.007778 0.014674 0.005046 0.036309 0.021661 0.003954
# 5 0.024815 0.016023 -0.003820 0.021661 0.077117 -0.016187
# 6 -0.002593 0.004593 0.003011 0.003954 -0.016187 0.058565
#
#
# Mechanical properties :
#
#
# Convention : Reuss Voigt Hill
#
# Bulk Modulus (GPa) = 17.50401 54.61541 36.05971
# Shear Modulus (GPa) = 20.19287 38.11065 29.15176
#
# Velocity S-wave (km/s) = 2.83019 3.88813 3.40055
# Velocity P-wave (km/s) = 4.19802 6.46693 5.45182
#
# Compressibility (1/GPa) = 0.05712976
#
# Stress axis : x y z
#
# Youngs Moduli (GPa) = 31.74363 63.98111 102.86270
#
# Poissons Ratio (x) = -0.37250 0.38942
# Poissons Ratio (y) = -0.18481 0.19524
# Poissons Ratio (z) = 0.12018 0.12144
#
# Static dielectric constant tensor:
#      x y z
#    x 2.092300 0.064890 -0.063070 
#    y 0.064890 2.124540 -0.074360 
#    z -0.063070 -0.074360 2.107180 
# 
# From -- ./inp_files/588198.got.cif
#   From: 2010.05.17/outbox.cif.g08.bks.cpg/sg2_295_cif.got.tgz:588198.got - 2010.06.03 11:33:40.
