data_PCOD9083871
_publ_section_title
;
Structure prediction by ZEFSAII (Michael W. Deem and Ramdas Pophale) SiO2 
 PCOD9083871
Probable space group: P -1
;
_chemical_formula_sum "Si O2"
_cell_formula_units_Z 14
_cell_length_a 14.021103
_cell_length_b 20.296256
_cell_length_c 11.508344
_cell_angle_alpha 150.687127
_cell_angle_beta 29.463636
_cell_angle_gamma 151.666338
_cell_volume 681.839855
_symmetry_space_group_name_H-M "P -1"
_symmetry_group_IT_number 2
_symmetry_cell_setting 'triclinic'
loop_
_space_group_symop_operation_xyz
x,y,z
-x,-y,-z
loop_
_atom_site_type_symbol
_atom_site_label
_atom_site_fract_x
_atom_site_fract_y
_atom_site_fract_z
Si Si1 0.137530 0.864549 0.370923
Si Si2 0.207668 0.039719 0.155270
Si Si3 0.428847 0.860529 0.613714
Si Si4 0.558400 0.198210 0.216384
Si Si5 0.547920 0.496761 0.747810
Si Si6 0.759822 0.484436 0.742524
Si Si7 0.662227 0.656901 0.640445
O O1 0.029025 0.967829 0.600650
O O2 0.924880 0.717844 0.429499
O O3 0.342168 0.981839 0.416328
O O4 0.244398 0.807739 0.071646
O O5 0.329182 0.080552 0.213259
O O6 0.355809 0.196847 0.163330
O O7 0.227021 0.896346 0.863803
O O8 0.440387 0.839589 0.708382
O O9 0.398434 0.701406 0.352345
O O10 0.574500 0.364048 0.451632
O O11 0.693798 0.533678 0.767573
O O12 0.613843 0.627243 0.782073
O O13 0.296788 0.435846 0.969203
O O14 0.000000 0.500000 0.500000
O O15 0.500000 0.500000 0.500000
#
# Coordination Sequence:
#
# PCOD9083871 Si02
#       7
#     2   2   2   2   2   2   2
#     4   9  20  34  55  88 119 156 179 231 306 341
#     4   9  19  34  54  87 124 147 184 231 294 351
#     4  10  21  37  56  84 118 150 208 239 282 344
#     4  10  19  34  58  89 119 153 187 242 290 350
#     4  10  21  41  60  88 119 147 202 250 280 346
#     4  10  24  43  64  83 108 159 209 248 289 327
#     4  10  20  38  60  90 126 154 185 232 300 362
#
# _framework density 20.532681
#
# number of rings (size 3 to 8) (size 9 to 14) (size 15 to 20)
#    0.857    1.429    1.429    1.714    0.000   10.857 
#    5.143    1.429    0.000    0.000    0.000    0.000 
#    0.000    0.000    0.000    0.000    0.000    0.000 
#
# Total GULP energy -77958.956696 kJ/mol
# GULP energy per Si atom -5568.496907 kJ/mol
# Density = 2.048595 g / cm^3
# Si number density = 20.532681 Si / 1000 Ang^3
#
#
#
# Elastic Constant Matrix: (Units=GPa)
#
#
# Indices 1 2 3 4 5 6 
#
# 1 40.9262 13.4143 34.3001 -8.5337 -8.5169 -12.3820
# 2 13.4143 68.5450 14.2325 -11.0393 3.9868 -4.9589
# 3 34.3001 14.2325 98.6981 -11.9717 -21.6677 -2.1098
# 4 -8.5337 -11.0393 -11.9717 40.6290 0.6914 -11.5407
# 5 -8.5169 3.9868 -21.6677 0.6914 26.8615 -2.1202
# 6 -12.3820 -4.9589 -2.1098 -11.5407 -2.1202 27.4530
#
#
#
# Elastic Compliance Matrix: (Units=1/GPa)
#
#
# Indices 1 2 3 4 5 6 
#
# 1 0.048097 -0.003294 -0.012509 0.012807 0.007378 0.026090
# 2 -0.003294 0.016765 -0.001763 0.004224 -0.004842 0.002808
# 3 -0.012509 -0.001763 0.016836 0.000654 0.009571 -0.003652
# 4 0.012807 0.004224 0.000654 0.034679 0.004768 0.021536
# 5 0.007378 -0.004842 0.009571 0.004768 0.048590 0.008946
# 6 0.026090 0.002808 -0.003652 0.021536 0.008946 0.058164
#
#
# Mechanical properties :
#
#
# Convention : Reuss Voigt Hill
#
# Bulk Modulus (GPa) = 21.47574 36.89591 29.18583
# Shear Modulus (GPa) = 18.26248 28.73686 23.49967
#
# Velocity S-wave (km/s) = 2.98557 3.74514 3.38672
# Velocity P-wave (km/s) = 4.72936 6.05886 5.43492
#
# Compressibility (1/GPa) = 0.04656417
#
# Stress axis : x y z
#
# Youngs Moduli (GPa) = 20.79135 59.64856 59.39744
#
# Poissons Ratio (x) = 0.19651 0.74300
# Poissons Ratio (y) = 0.06850 0.10474
# Poissons Ratio (z) = 0.26008 0.10518
#
# Static dielectric constant tensor:
#      x y z
#    x 1.730440 0.015290 -0.026690 
#    y 0.015290 1.796140 0.023680 
#    z -0.026690 0.023680 1.767320 
# 
# From -- ./inp_files/457523.got.cif
#   From: 2010.05.17/outbox.cif.g08.bks.cpg/sg2_229_cif.got.tgz:457523.got - 2010.06.03 11:33:40.
