data_PCOD9083272
_publ_section_title
;
Structure prediction by ZEFSAII (Michael W. Deem and Ramdas Pophale) SiO2 
 PCOD9083272
Probable space group: P -1
;
_chemical_formula_sum "Si O2"
_cell_formula_units_Z 16
_cell_length_a 10.324195
_cell_length_b 17.394469
_cell_length_c 14.893208
_cell_angle_alpha 21.819335
_cell_angle_beta 43.761133
_cell_angle_gamma 44.822009
_cell_volume 679.685757
_symmetry_space_group_name_H-M "P -1"
_symmetry_group_IT_number 2
_symmetry_cell_setting 'triclinic'
loop_
_space_group_symop_operation_xyz
x,y,z
-x,-y,-z
loop_
_atom_site_type_symbol
_atom_site_label
_atom_site_fract_x
_atom_site_fract_y
_atom_site_fract_z
Si Si1 0.285122 0.635658 0.548424
Si Si2 0.713520 0.024088 0.677151
Si Si3 0.602379 0.257764 0.819800
Si Si4 0.290152 0.929772 0.857863
Si Si5 0.778025 0.077292 0.299791
Si Si6 0.493291 0.272688 0.359185
Si Si7 0.989665 0.336537 0.055030
Si Si8 0.339985 0.327460 0.124438
O O1 0.478360 0.488668 0.645962
O O2 0.313579 0.727553 0.336620
O O3 0.133997 0.478406 0.788384
O O4 0.227261 0.824944 0.439949
O O5 0.636253 0.167437 0.477928
O O6 0.545418 0.909073 0.925525
O O7 0.881613 0.844032 0.758641
O O8 0.752566 0.173792 0.914302
O O9 0.190277 0.893495 0.853392
O O10 0.510845 0.815105 0.858880
O O11 0.304271 0.178300 0.581951
O O12 0.565929 0.174209 0.334482
O O13 0.772924 0.833920 0.590005
O O14 0.900953 0.212132 0.153597
O O15 0.519713 0.511907 0.084306
O O16 0.833853 0.498617 0.008987
#
# Coordination Sequence:
#
# PCOD9083272 Si02
#       8
#     2   2   2   2   2   2   2   2
#     4  10  19  37  60  80 109 140 176 227 271 315
#     4  10  19  35  55  81 112 138 175 225 273 318
#     4   9  20  36  59  86 103 135 185 224 269 320
#     4  10  20  36  55  80 111 140 179 226 266 314
#     4  10  21  35  51  76 113 148 178 218 264 316
#     4   9  19  32  52  80 105 138 179 214 263 325
#     4  10  22  35  53  81 111 146 181 212 268 332
#     4  10  19  34  54  76 109 144 175 216 266 315
#
# _framework density 23.540291
#
# number of rings (size 3 to 8) (size 9 to 14) (size 15 to 20)
#    0.000    2.250    0.000    3.375    0.000    7.500 
#    0.000   18.750    0.000    3.000    0.000    0.000 
#    0.000    0.000    0.000    0.000    0.000    0.000 
#
# Total GULP energy -89206.226853 kJ/mol
# GULP energy per Si atom -5575.389178 kJ/mol
# Density = 2.348671 g / cm^3
# Si number density = 23.540291 Si / 1000 Ang^3
#
#
#
# Elastic Constant Matrix: (Units=GPa)
#
#
# Indices 1 2 3 4 5 6 
#
# 1 43.3123 11.1933 22.9998 2.0902 -14.9989 20.0158
# 2 11.1933 51.4283 42.2306 -13.5937 -1.7300 18.2064
# 3 22.9998 42.2306 160.5247 0.5693 -0.0610 23.8558
# 4 2.0902 -13.5937 0.5693 35.3980 11.2240 2.8667
# 5 -14.9989 -1.7300 -0.0610 11.2240 35.4978 -4.7056
# 6 20.0158 18.2064 23.8558 2.8667 -4.7056 27.2929
#
#
#
# Elastic Compliance Matrix: (Units=1/GPa)
#
#
# Indices 1 2 3 4 5 6 
#
# 1 0.041863 0.001525 -0.002460 -0.004707 0.015753 -0.026359
# 2 0.001525 0.037487 -0.006683 0.018341 -0.006430 -0.023319
# 3 -0.002460 -0.006683 0.008508 -0.002220 -0.000791 -0.001078
# 4 -0.004707 0.018341 -0.002220 0.041881 -0.016201 -0.014035
# 5 0.015753 -0.006430 -0.000791 -0.016201 0.039901 0.002010
# 6 -0.026359 -0.023319 -0.001078 -0.014035 0.002010 0.074289
#
#
# Mechanical properties :
#
#
# Convention : Reuss Voigt Hill
#
# Bulk Modulus (GPa) = 13.76939 45.34583 29.55761
# Shear Modulus (GPa) = 17.64469 31.56052 24.60261
#
# Velocity S-wave (km/s) = 2.74077 3.66553 3.23635
# Velocity P-wave (km/s) = 3.98469 6.10080 5.15255
#
# Compressibility (1/GPa) = 0.07262488
#
# Stress axis : x y z
#
# Youngs Moduli (GPa) = 23.88721 26.67590 117.53927
#
# Poissons Ratio (x) = -0.04069 0.28909
# Poissons Ratio (y) = -0.03644 0.78546
# Poissons Ratio (z) = 0.05875 0.17826
#
# Static dielectric constant tensor:
#      x y z
#    x 2.021510 -0.025200 0.014460 
#    y -0.025200 1.895670 0.003560 
#    z 0.014460 0.003560 1.903900 
# 
# From -- ./inp_files/84360.got.cif
#   From: 2010.05.17/outbox.cif.g08.bks.cpg/sg2_43_cif.got.tgz:84360.got - 2010.06.03 11:33:40.
