data_PCOD9083134
_publ_section_title
;
Structure prediction by ZEFSAII (Michael W. Deem and Ramdas Pophale) SiO2 
 PCOD9083134
Probable space group: P -1
;
_chemical_formula_sum "Si O2"
_cell_formula_units_Z 16
_cell_length_a 12.941021
_cell_length_b 12.106343
_cell_length_c 9.236023
_cell_angle_alpha 115.059161
_cell_angle_beta 33.563556
_cell_angle_gamma 130.572420
_cell_volume 583.000032
_symmetry_space_group_name_H-M "P -1"
_symmetry_group_IT_number 2
_symmetry_cell_setting 'triclinic'
loop_
_space_group_symop_operation_xyz
x,y,z
-x,-y,-z
loop_
_atom_site_type_symbol
_atom_site_label
_atom_site_fract_x
_atom_site_fract_y
_atom_site_fract_z
Si Si1 0.530915 0.524618 0.152761
Si Si2 0.519184 0.144856 0.798530
Si Si3 0.376050 0.237676 0.284130
Si Si4 0.758676 0.119109 0.189645
Si Si5 0.876555 0.826748 0.994261
Si Si6 0.812654 0.297584 0.953004
Si Si7 0.827791 0.089032 0.582970
Si Si8 0.991839 0.431782 0.314884
O O1 0.340638 0.368385 0.375386
O O2 0.500000 0.500000 0.000000
O O3 0.603011 0.688412 0.217472
O O4 0.768020 0.548861 0.940300
O O5 0.604566 0.056742 0.737474
O O6 0.500000 0.000000 0.500000
O O7 0.276187 0.017851 0.940712
O O8 0.479761 0.236180 0.008089
O O9 0.192992 0.058878 0.427165
O O10 0.571976 0.276995 0.192603
O O11 0.993622 0.201781 0.050292
O O12 0.742625 0.268568 0.512672
O O13 0.795250 0.242121 0.103651
O O14 0.974505 0.829824 0.723259
O O15 0.000000 0.000000 0.000000
O O16 0.844905 0.193341 0.749468
O O17 0.997177 0.466094 0.769858
O O18 0.000000 0.500000 0.500000
#
# Coordination Sequence:
#
# PCOD9083134 Si02
#       8
#     2   2   2   2   2   2   2   2
#     4  11  24  43  64  92 130 184 226 264 327 402
#     4  11  18  34  68 102 130 161 216 273 345 381
#     4  10  19  35  69 100 126 159 229 284 317 387
#     4  12  22  41  67  99 137 178 214 276 348 405
#     4  12  28  45  64  94 144 178 220 275 345 398
#     4  10  19  33  67 103 131 167 226 276 328 397
#     4  11  18  40  65  96 131 172 225 273 323 401
#     4  11  18  35  64 104 133 159 217 293 322 374
#
# _framework density 27.444254000000001
#
# number of rings (size 3 to 8) (size 9 to 14) (size 15 to 20)
#    0.000    1.000    8.750    0.750    1.750    0.000 
#    0.000   11.250    0.000    0.000    0.000    0.000 
#    0.000    0.000    0.000    0.000    0.000    0.000 
#
# Total GULP energy -89310.830414 kJ/mol
# GULP energy per Si atom -5581.926901 kJ/mol
# Density = 2.738179 g / cm^3
# Si number density = 27.444254 Si / 1000 Ang^3
#
#
#
# Elastic Constant Matrix: (Units=GPa)
#
#
# Indices 1 2 3 4 5 6 
#
# 1 179.7059 82.8379 35.1542 -27.4972 15.6706 -3.0932
# 2 82.8379 188.1124 17.7363 -45.0198 13.8288 -3.4664
# 3 35.1542 17.7363 43.0255 -16.3603 10.4309 -15.9356
# 4 -27.4972 -45.0198 -16.3603 41.2154 -12.1746 9.0776
# 5 15.6706 13.8288 10.4309 -12.1746 38.8732 -16.8100
# 6 -3.0932 -3.4664 -15.9356 9.0776 -16.8100 52.0147
#
#
#
# Elastic Compliance Matrix: (Units=1/GPa)
#
#
# Indices 1 2 3 4 5 6 
#
# 1 0.008174 -0.003014 -0.005865 -0.000193 -0.001568 -0.001985
# 2 -0.003014 0.008364 0.001880 0.007980 0.000052 -0.000422
# 3 -0.005865 0.001880 0.034206 0.009633 -0.000881 0.008290
# 4 -0.000193 0.007980 0.009633 0.038804 0.006254 -0.001279
# 5 -0.001568 0.000052 -0.000881 0.006254 0.032439 0.009032
# 6 -0.001985 -0.000422 0.008290 -0.001279 0.009032 0.024761
#
#
# Mechanical properties :
#
#
# Convention : Reuss Voigt Hill
#
# Bulk Modulus (GPa) = 27.21281 75.81118 51.51200
# Shear Modulus (GPa) = 28.90268 44.76168 36.83218
#
# Velocity S-wave (km/s) = 3.24873 4.04295 3.66741
# Velocity P-wave (km/s) = 4.89996 7.03403 6.06165
#
# Compressibility (1/GPa) = 0.03674739
#
# Stress axis : x y z
#
# Youngs Moduli (GPa) = 122.33330 119.55668 29.23498
#
# Poissons Ratio (x) = 0.36037 0.17145
# Poissons Ratio (y) = 0.36874 -0.05497
# Poissons Ratio (z) = 0.71744 -0.22481
#
# Static dielectric constant tensor:
#      x y z
#    x 2.294850 -0.108990 0.030410 
#    y -0.108990 2.470150 0.105300 
#    z 0.030410 0.105300 2.232190 
# 
# From -- ./inp_files/262770.got.cif
#   From: 2010.05.17/outbox.cif.g08.bks.cpg/sg2_132_cif.got.tgz:262770.got - 2010.06.03 11:33:40.
