data_PCOD9083014
_publ_section_title
;
Structure prediction by ZEFSAII (Michael W. Deem and Ramdas Pophale) SiO2 
 PCOD9083014
Probable space group: P -1
;
_chemical_formula_sum "Si O2"
_cell_formula_units_Z 14
_cell_length_a 10.956455
_cell_length_b 13.969766
_cell_length_c 6.670915
_cell_angle_alpha 64.990539
_cell_angle_beta 116.190802
_cell_angle_gamma 147.976119
_cell_volume 483.305083
_symmetry_space_group_name_H-M "P -1"
_symmetry_group_IT_number 2
_symmetry_cell_setting 'triclinic'
loop_
_space_group_symop_operation_xyz
x,y,z
-x,-y,-z
loop_
_atom_site_type_symbol
_atom_site_label
_atom_site_fract_x
_atom_site_fract_y
_atom_site_fract_z
Si Si1 0.729603 0.419166 0.936594
Si Si2 0.417036 0.141504 0.438704
Si Si3 0.668686 0.976070 0.988107
Si Si4 0.866832 0.842959 0.881814
Si Si5 0.636239 0.628284 0.279155
Si Si6 0.951928 0.243094 0.422525
Si Si7 0.861624 0.312571 0.705472
O O1 0.515971 0.364045 0.873429
O O2 0.900307 0.587106 0.760318
O O3 0.094766 0.490927 0.834445
O O4 0.578873 0.223076 0.934177
O O5 0.371519 0.080164 0.228932
O O6 0.309263 0.191759 0.339494
O O7 0.687096 0.297970 0.544065
O O8 0.290106 0.966207 0.622174
O O9 0.733533 0.138663 0.889781
O O10 0.912972 0.071831 0.142829
O O11 0.720204 0.666194 0.065435
O O12 0.000000 0.000000 0.000000
O O13 0.500000 0.500000 0.500000
O O14 0.892037 0.763396 0.425694
O O15 0.916924 0.286748 0.561372
#
# Coordination Sequence:
#
# PCOD9083014 Si02
#       7
#     2   2   2   2   2   2   2
#     4  11  23  38  66  97 128 171 214 270 325 382
#     4  10  19  37  63  91 130 172 212 261 327 389
#     4  10  19  40  65  90 130 168 214 272 317 376
#     4  10  15  34  65  91 117 182 208 254 342 371
#     4  10  18  34  64  94 123 166 216 265 323 375
#     4  10  20  40  64  92 131 168 212 276 322 370
#     4  11  24  41  64  98 127 173 220 256 326 399
#
# _framework density 28.967209
#
# number of rings (size 3 to 8) (size 9 to 14) (size 15 to 20)
#    0.000    1.714    7.143    1.714    0.000    1.714 
#    0.000    5.714    0.000    5.143    3.714    0.000 
#    0.000    0.000    0.000    0.000    0.000    0.000 
#
# Total GULP energy -78167.897678 kJ/mol
# GULP energy per Si atom -5583.421263 kJ/mol
# Density = 2.890128 g / cm^3
# Si number density = 28.967209 Si / 1000 Ang^3
#
#
#
# Elastic Constant Matrix: (Units=GPa)
#
#
# Indices 1 2 3 4 5 6 
#
# 1 119.8676 52.0375 69.7423 33.0668 19.4370 18.8971
# 2 52.0375 228.5060 112.4745 7.5701 15.7394 6.4354
# 3 69.7423 112.4745 151.7981 -22.7550 24.9960 23.6527
# 4 33.0668 7.5701 -22.7550 78.6500 24.7061 7.1925
# 5 19.4370 15.7394 24.9960 24.7061 51.1382 7.0519
# 6 18.8971 6.4354 23.6527 7.1925 7.0519 40.4909
#
#
#
# Elastic Compliance Matrix: (Units=1/GPa)
#
#
# Indices 1 2 3 4 5 6 
#
# 1 0.017068 0.002139 -0.012077 -0.012368 0.004716 0.000125
# 2 0.002139 0.008144 -0.008917 -0.005600 0.003284 0.003339
# 3 -0.012077 -0.008917 0.024690 0.017648 -0.012102 -0.008396
# 4 -0.012368 -0.005600 0.017648 0.028937 -0.015339 -0.006116
# 5 0.004716 0.003284 -0.012102 -0.015339 0.029818 0.001878
# 6 0.000125 0.003339 -0.008396 -0.006116 0.001878 0.029772
#
#
# Mechanical properties :
#
#
# Convention : Reuss Voigt Hill
#
# Bulk Modulus (GPa) = 82.02205 107.63115 94.82660
# Shear Modulus (GPa) = 27.74639 51.78364 39.76502
#
# Velocity S-wave (km/s) = 3.09828 4.23266 3.70910
# Velocity P-wave (km/s) = 6.41686 7.81819 7.15193
#
# Compressibility (1/GPa) = 0.01219184
#
# Stress axis : x y z
#
# Youngs Moduli (GPa) = 58.58852 122.79461 40.50219
#
# Poissons Ratio (x) = -0.26263 0.48913
# Poissons Ratio (y) = -0.12531 0.36117
# Poissons Ratio (z) = 0.70755 1.09499
#
# Static dielectric constant tensor:
#      x y z
#    x 2.251250 0.004450 -0.124310 
#    y 0.004450 2.192550 -0.073840 
#    z -0.124310 -0.073840 2.392070 
# 
# From -- ./inp_files/277623.got.cif
#   From: 2010.05.17/outbox.cif.g08.bks.cpg/sg2_139_cif.got.tgz:277623.got - 2010.06.03 11:33:40.
