data_PCOD9083762
_publ_section_title
;
Structure prediction by ZEFSAII (Michael W. Deem and Ramdas Pophale) SiO2 
 PCOD9083762
Probable space group: P -1
;
_chemical_formula_sum "Si O2"
_cell_formula_units_Z 10
_cell_length_a 8.255074
_cell_length_b 13.707474
_cell_length_c 13.515503
_cell_angle_alpha 147.130230
_cell_angle_beta 137.287196
_cell_angle_gamma 34.546882
_cell_volume 466.086855
_symmetry_space_group_name_H-M "P -1"
_symmetry_group_IT_number 2
_symmetry_cell_setting 'triclinic'
loop_
_space_group_symop_operation_xyz
x,y,z
-x,-y,-z
loop_
_atom_site_type_symbol
_atom_site_label
_atom_site_fract_x
_atom_site_fract_y
_atom_site_fract_z
Si Si1 0.484264 0.801177 0.232166
Si Si2 0.001490 0.786298 0.550762
Si Si3 0.341753 0.576263 0.153351
Si Si4 0.298933 0.401103 0.494291
Si Si5 0.187090 0.009212 0.680139
O O1 0.763570 0.801944 0.383632
O O2 0.429378 0.691911 0.209317
O O3 0.199327 0.043483 0.308337
O O4 0.552457 0.652691 0.041644
O O5 0.211296 0.546276 0.480911
O O6 0.164190 0.877848 0.647780
O O7 0.503780 0.559561 0.312364
O O8 0.997183 0.739900 0.156322
O O9 0.482359 0.143171 0.334926
O O10 0.000000 0.500000 0.500000
O O11 0.000000 0.000000 0.500000
#
# Coordination Sequence:
#
# PCOD9083762 Si02
#       5
#     2   2   2   2   2
#     4   9  18  33  58  80 106 142 178 214 264 321
#     4  10  19  34  58  81 106 140 180 217 265 316
#     4   9  18  36  55  80 109 140 175 219 264 315
#     4  11  20  34  57  81 107 140 179 221 266 311
#     4   9  20  36  56  77 108 144 177 217 265 318
#
# _framework density 21.455228999999999
#
# number of rings (size 3 to 8) (size 9 to 14) (size 15 to 20)
#    0.000    2.400    2.000    0.600    2.800    0.800 
#    0.000    5.000    4.400    0.000    0.000    0.000 
#    0.000    0.000    0.000    0.000    0.000    0.000 
#
# Total GULP energy -55805.832302 kJ/mol
# GULP energy per Si atom -5580.583230 kJ/mol
# Density = 2.140640 g / cm^3
# Si number density = 21.455229 Si / 1000 Ang^3
#
#
#
# Elastic Constant Matrix: (Units=GPa)
#
#
# Indices 1 2 3 4 5 6 
#
# 1 64.6226 24.0453 -1.5875 3.8377 -6.1000 -20.9769
# 2 24.0453 110.8053 12.1832 21.7398 -12.8209 -29.6371
# 3 -1.5875 12.1832 67.9709 22.4433 -18.3946 -26.2407
# 4 3.8377 21.7398 22.4433 19.6743 -4.6048 -11.9043
# 5 -6.1000 -12.8209 -18.3946 -4.6048 20.3556 8.7199
# 6 -20.9769 -29.6371 -26.2407 -11.9043 8.7199 39.5268
#
#
#
# Elastic Compliance Matrix: (Units=1/GPa)
#
#
# Indices 1 2 3 4 5 6 
#
# 1 0.021596 0.000100 0.010061 -0.004845 0.008120 0.014965
# 2 0.000100 0.016204 0.011488 -0.021915 0.011035 0.010794
# 3 0.010061 0.011488 0.045048 -0.044529 0.030748 0.023665
# 4 -0.004845 -0.021915 -0.044529 0.115922 -0.025867 -0.007945
# 5 0.008120 0.011035 0.030748 -0.025867 0.076916 0.008238
# 6 0.014965 0.010794 0.023665 -0.007945 0.008238 0.052835
#
#
# Mechanical properties :
#
#
# Convention : Reuss Voigt Hill
#
# Bulk Modulus (GPa) = 7.92738 34.74232 21.33485
# Shear Modulus (GPa) = 15.27775 29.82852 22.55314
#
# Velocity S-wave (km/s) = 2.67137 3.73268 3.24570
# Velocity P-wave (km/s) = 3.63563 5.89960 4.90016
#
# Compressibility (1/GPa) = 0.12614505
#
# Stress axis : x y z
#
# Youngs Moduli (GPa) = 46.30432 61.71438 22.19838
#
# Poissons Ratio (x) = -0.00617 -0.22333
# Poissons Ratio (y) = -0.00463 -0.25501
# Poissons Ratio (z) = -0.46586 -0.70895
#
# Static dielectric constant tensor:
#      x y z
#    x 1.889200 -0.001890 -0.021700 
#    y -0.001890 1.767200 0.031870 
#    z -0.021700 0.031870 1.753880 
# 
# From -- ./inp_files/143972.got.cif
#   From: 2010.05.17/outbox.cif.g08.bks.cpg/sg2_72_cif.got.tgz:143972.got - 2010.06.03 11:33:40.
