data_PCOD9083030
_publ_section_title
;
Structure prediction by ZEFSAII (Michael W. Deem and Ramdas Pophale) SiO2 
 PCOD9083030
Probable space group: P -1
;
_chemical_formula_sum "Si O2"
_cell_formula_units_Z 16
_cell_length_a 22.449261
_cell_length_b 8.114244
_cell_length_c 13.052098
_cell_angle_alpha 133.964348
_cell_angle_beta 153.723656
_cell_angle_gamma 58.124902
_cell_volume 723.577552
_symmetry_space_group_name_H-M "P -1"
_symmetry_group_IT_number 2
_symmetry_cell_setting 'triclinic'
loop_
_space_group_symop_operation_xyz
x,y,z
-x,-y,-z
loop_
_atom_site_type_symbol
_atom_site_label
_atom_site_fract_x
_atom_site_fract_y
_atom_site_fract_z
Si Si1 0.139667 0.592465 0.865177
Si Si2 0.646779 0.946404 0.212196
Si Si3 0.170753 0.736073 0.747463
Si Si4 0.633463 0.517087 0.141915
Si Si5 0.154296 0.046359 0.659239
Si Si6 0.091001 0.247297 0.201063
Si Si7 0.078548 0.313535 0.989413
Si Si8 0.197545 0.693573 0.214939
O O1 0.178392 0.747557 0.888152
O O2 0.967603 0.504833 0.574639
O O3 0.165465 0.327995 0.792279
O O4 0.228737 0.729339 0.159381
O O5 0.625989 0.678345 0.102150
O O6 0.721181 0.993870 0.237247
O O7 0.738750 0.102146 0.515172
O O8 0.500000 0.000000 0.000000
O O9 0.318128 0.703066 0.921330
O O10 0.146162 0.928223 0.709059
O O11 0.767875 0.643044 0.473998
O O12 0.500000 0.500000 0.000000
O O13 0.021676 0.895080 0.322023
O O14 0.123017 0.211583 0.117617
O O15 0.974054 0.387068 0.089490
O O16 0.000000 0.000000 0.000000
O O17 0.212764 0.457303 0.191509
O O18 0.000000 0.500000 0.000000
#
# Coordination Sequence:
#
# PCOD9083030 Si02
#       8
#     2   2   2   2   2   2   2   2
#     4  11  24  40  67 102 145 182 230 286 346 419
#     4  12  26  43  69  98 136 183 235 296 350 414
#     4  11  23  39  66  99 142 183 228 282 343 414
#     4  12  24  42  68 103 140 182 232 289 354 416
#     4  12  21  43  66 104 139 181 231 283 354 410
#     4  11  20  37  64 100 135 167 226 294 342 397
#     4  10  19  33  60  94 133 163 218 288 335 390
#     4  11  22  41  63  99 135 175 230 286 346 404
#
# _framework density 22.112349999999999
#
# number of rings (size 3 to 8) (size 9 to 14) (size 15 to 20)
#    0.000    0.750    7.500    1.875    1.750    0.000 
#    0.000    0.625    0.000    1.500    0.000    0.000 
#    0.000    0.000    0.000    0.000    0.000    0.000 
#
# Total GULP energy -89072.714754 kJ/mol
# GULP energy per Si atom -5567.044672 kJ/mol
# Density = 2.206202 g / cm^3
# Si number density = 22.112350 Si / 1000 Ang^3
#
#
#
# Elastic Constant Matrix: (Units=GPa)
#
#
# Indices 1 2 3 4 5 6 
#
# 1 163.9974 32.6953 35.3916 -16.4669 -25.6132 23.5079
# 2 32.6953 62.4236 13.5168 -15.2121 -17.6812 10.6158
# 3 35.3916 13.5168 52.1890 -17.1164 -7.1915 -6.7220
# 4 -16.4669 -15.2121 -17.1164 24.8450 1.1982 -2.8004
# 5 -25.6132 -17.6812 -7.1915 1.1982 38.8057 -16.5494
# 6 23.5079 10.6158 -6.7220 -2.8004 -16.5494 48.7455
#
#
#
# Elastic Compliance Matrix: (Units=1/GPa)
#
#
# Indices 1 2 3 4 5 6 
#
# 1 0.008547 -0.002030 -0.005387 0.000192 0.002140 -0.003685
# 2 -0.002030 0.022407 0.000842 0.012523 0.008573 -0.000155
# 3 -0.005387 0.000842 0.030993 0.019113 0.006200 0.009891
# 4 0.000192 0.012523 0.019113 0.061486 0.010411 0.006883
# 5 0.002140 0.008573 0.006200 0.010411 0.036598 0.010979
# 6 -0.003685 -0.000155 0.009891 0.006883 0.010979 0.027812
#
#
# Mechanical properties :
#
#
# Convention : Reuss Voigt Hill
#
# Bulk Modulus (GPa) = 20.49336 49.09080 34.79208
# Shear Modulus (GPa) = 23.01417 35.61300 29.31358
#
# Velocity S-wave (km/s) = 3.22962 4.01752 3.64492
# Velocity P-wave (km/s) = 4.81614 6.61585 5.78639
#
# Compressibility (1/GPa) = 0.04879630
#
# Stress axis : x y z
#
# Youngs Moduli (GPa) = 117.00492 44.62920 32.26547
#
# Poissons Ratio (x) = 0.09062 0.17380
# Poissons Ratio (y) = 0.23757 -0.02717
# Poissons Ratio (z) = 0.63027 -0.03758
#
# Static dielectric constant tensor:
#      x y z
#    x 2.030980 0.360810 -0.153160 
#    y 0.360810 3.924120 -0.679930 
#    z -0.153160 -0.679930 2.042570 
# 
# From -- ./inp_files/469622.got.cif
#   From: 2010.05.17/outbox.cif.g08.bks.cpg/sg2_235_cif.got.tgz:469622.got - 2010.06.03 11:33:40.
