data_PCOD9083236
_publ_section_title
;
Structure prediction by ZEFSAII (Michael W. Deem and Ramdas Pophale) SiO2 
 PCOD9083236
Probable space group: P -1
;
_chemical_formula_sum "Si O2"
_cell_formula_units_Z 16
_cell_length_a 11.302923
_cell_length_b 13.407215
_cell_length_c 15.831960
_cell_angle_alpha 24.739636
_cell_angle_beta 109.060077
_cell_angle_gamma 117.833244
_cell_volume 856.530414
_symmetry_space_group_name_H-M "P -1"
_symmetry_group_IT_number 2
_symmetry_cell_setting 'triclinic'
loop_
_space_group_symop_operation_xyz
x,y,z
-x,-y,-z
loop_
_atom_site_type_symbol
_atom_site_label
_atom_site_fract_x
_atom_site_fract_y
_atom_site_fract_z
Si Si1 0.102758 0.668509 0.969408
Si Si2 0.810127 0.970622 0.047679
Si Si3 0.335403 0.178249 0.545076
Si Si4 0.062703 0.820618 0.262033
Si Si5 0.405285 0.535237 0.525066
Si Si6 0.846460 0.817142 0.641295
Si Si7 0.215689 0.517959 0.346878
Si Si8 0.059899 0.020239 0.276380
O O1 0.007706 0.775829 0.916628
O O2 0.228778 0.928550 0.764185
O O3 0.165509 0.470369 0.164775
O O4 0.000000 0.500000 0.000000
O O5 0.672752 0.725071 0.236323
O O6 0.933585 0.896877 0.161679
O O7 0.839516 0.045898 0.897714
O O8 0.805656 0.233315 0.881965
O O9 0.490992 0.241186 0.559790
O O10 0.273994 0.133345 0.471024
O O11 0.310764 0.427248 0.381346
O O12 0.000000 0.500000 0.500000
O O13 0.131111 0.957465 0.260990
O O14 0.500000 0.500000 0.500000
O O15 0.289854 0.579655 0.409082
O O16 0.853491 0.872041 0.700628
O O17 0.000000 0.000000 0.500000
O O18 0.068808 0.262326 0.515980
#
# Coordination Sequence:
#
# PCOD9083236 Si02
#       8
#     2   2   2   2   2   2   2   2
#     4   9  18  32  50  76 111 146 174 230 282 323
#     4  11  22  36  60  80 111 160 190 229 294 335
#     4  10  21  33  51  82 115 151 182 226 285 349
#     4  11  22  38  55  86 117 147 195 240 284 331
#     4  10  22  37  52  82 120 149 192 233 284 342
#     4  11  19  32  53  82 113 146 186 226 285 346
#     4  10  19  35  55  82 118 146 187 232 278 342
#     4  10  19  34  53  80 118 141 176 244 275 331
#
# _framework density 18.680014
#
# number of rings (size 3 to 8) (size 9 to 14) (size 15 to 20)
#    0.000    1.750    6.250    0.000    1.750    3.000 
#    0.000    0.000    0.000    0.750    0.000    7.000 
#    0.000    0.000    0.000    0.000    0.000    0.000 
#
# Total GULP energy -89075.324727 kJ/mol
# GULP energy per Si atom -5567.207795 kJ/mol
# Density = 1.863750 g / cm^3
# Si number density = 18.680014 Si / 1000 Ang^3
#
#
#
# Elastic Constant Matrix: (Units=GPa)
#
#
# Indices 1 2 3 4 5 6 
#
# 1 40.4233 23.2891 31.5987 -4.3569 -4.8615 -7.9661
# 2 23.2891 128.9746 32.1119 5.7321 1.7598 1.0985
# 3 31.5987 32.1119 95.6255 -2.4557 9.7540 0.2285
# 4 -4.3569 5.7321 -2.4557 25.7413 -2.6161 -0.0102
# 5 -4.8615 1.7598 9.7540 -2.6161 32.0159 1.8042
# 6 -7.9661 1.0985 0.2285 -0.0102 1.8042 35.4385
#
#
#
# Elastic Compliance Matrix: (Units=1/GPa)
#
#
# Indices 1 2 3 4 5 6 
#
# 1 0.041667 -0.004853 -0.013048 0.007980 0.010711 0.009058
# 2 -0.004853 0.009152 -0.001446 -0.003097 -0.000978 -0.001316
# 3 -0.013048 -0.001446 0.015916 -0.001049 -0.006687 -0.002651
# 4 0.007980 -0.003097 -0.001049 0.041296 0.004983 0.001655
# 5 0.010711 -0.000978 -0.006687 0.004983 0.035321 0.000684
# 6 0.009058 -0.001316 -0.002651 0.001655 0.000684 0.030277
#
#
# Mechanical properties :
#
#
# Convention : Reuss Voigt Hill
#
# Bulk Modulus (GPa) = 35.66268 48.78030 42.22149
# Shear Modulus (GPa) = 22.55598 30.50739 26.53168
#
# Velocity S-wave (km/s) = 3.47867 4.04562 3.77281
# Velocity P-wave (km/s) = 5.93866 6.92770 6.45216
#
# Compressibility (1/GPa) = 0.02804051
#
# Stress axis : x y z
#
# Youngs Moduli (GPa) = 23.99977 109.26429 62.82890
#
# Poissons Ratio (x) = 0.53028 0.81979
# Poissons Ratio (y) = 0.11648 0.09087
# Poissons Ratio (z) = 0.31315 0.15803
#
# Static dielectric constant tensor:
#      x y z
#    x 1.668120 -0.009060 0.030450 
#    y -0.009060 1.746730 0.032340 
#    z 0.030450 0.032340 1.679550 
# 
# From -- ./inp_files/432305.got.cif
#   From: 2010.05.17/outbox.cif.g08.bks.cpg/sg2_217_cif.got.tgz:432305.got - 2010.06.03 11:33:40.
