data_PCOD9083690
_publ_section_title
;
Structure prediction by ZEFSAII (Michael W. Deem and Ramdas Pophale) SiO2 
 PCOD9083690
Probable space group: P -1
;
_chemical_formula_sum "Si O2"
_cell_formula_units_Z 16
_cell_length_a 13.037859
_cell_length_b 9.202122
_cell_length_c 8.291069
_cell_angle_alpha 111.354620
_cell_angle_beta 113.503024
_cell_angle_gamma 111.296222
_cell_volume 682.657477
_symmetry_space_group_name_H-M "P -1"
_symmetry_group_IT_number 2
_symmetry_cell_setting 'triclinic'
loop_
_space_group_symop_operation_xyz
x,y,z
-x,-y,-z
loop_
_atom_site_type_symbol
_atom_site_label
_atom_site_fract_x
_atom_site_fract_y
_atom_site_fract_z
Si Si1 0.116415 0.413508 0.564704
Si Si2 0.701980 0.741999 0.345573
Si Si3 0.132108 0.681539 0.435746
Si Si4 0.428127 0.538490 0.279361
Si Si5 0.672670 0.293933 0.934598
Si Si6 0.356541 0.160695 0.220638
Si Si7 0.386559 0.084488 0.861818
Si Si8 0.204943 0.876197 0.244582
O O1 0.192400 0.310913 0.583564
O O2 0.112498 0.491230 0.417626
O O3 0.966378 0.292120 0.504548
O O4 0.204822 0.600431 0.815259
O O5 0.554305 0.572871 0.263750
O O6 0.677823 0.798646 0.178787
O O7 0.750313 0.938461 0.546687
O O8 0.108114 0.700757 0.239086
O O9 0.287351 0.865323 0.648653
O O10 0.324581 0.547835 0.106530
O O11 0.352329 0.340603 0.249472
O O12 0.513853 0.728193 0.526689
O O13 0.529625 0.186400 0.897882
O O14 0.687104 0.165374 0.766230
O O15 0.207324 0.972361 0.113955
O O16 0.399112 0.097932 0.066164
#
# Coordination Sequence:
#
# PCOD9083690 Si02
#       8
#     2   2   2   2   2   2   2   2
#     4  11  23  43  68  89 117 165 211 254 304 363
#     4   9  20  38  62  89 122 160 203 253 306 359
#     4  10  25  43  62  89 123 161 209 255 305 366
#     4   9  20  35  58  95 129 157 199 254 310 365
#     4  11  23  39  65  95 125 161 204 254 307 360
#     4  10  19  34  57  86 127 162 198 247 303 359
#     4  10  21  38  63  95 125 159 206 253 301 366
#     4  10  23  38  57  88 126 160 198 248 306 361
#
# _framework density 23.437815000000001
#
# number of rings (size 3 to 8) (size 9 to 14) (size 15 to 20)
#    0.000    2.000    0.000    3.000    0.000   19.500 
#    0.000    0.000    0.000   15.000    0.000    0.000 
#    0.000    0.000    0.000    0.000    0.000    0.000 
#
# Total GULP energy -89190.183082 kJ/mol
# GULP energy per Si atom -5574.386443 kJ/mol
# Density = 2.338447 g / cm^3
# Si number density = 23.437815 Si / 1000 Ang^3
#
#
#
# Elastic Constant Matrix: (Units=GPa)
#
#
# Indices 1 2 3 4 5 6 
#
# 1 75.4444 37.8455 13.5151 -6.5417 -15.9665 -11.7979
# 2 37.8455 142.7253 6.8136 -26.4448 -7.3806 7.0951
# 3 13.5151 6.8136 35.3180 11.0338 -12.4325 0.5173
# 4 -6.5417 -26.4448 11.0338 26.4800 -1.9333 -4.8636
# 5 -15.9665 -7.3806 -12.4325 -1.9333 26.3765 -2.6948
# 6 -11.7979 7.0951 0.5173 -4.8636 -2.6948 38.7218
#
#
#
# Elastic Compliance Matrix: (Units=1/GPa)
#
#
# Indices 1 2 3 4 5 6 
#
# 1 0.020009 -0.003956 -0.005271 0.005417 0.009761 0.008251
# 2 -0.003956 0.010247 -0.004026 0.010549 -0.000832 -0.001762
# 3 -0.005271 -0.004026 0.043272 -0.022942 0.014055 -0.003350
# 4 0.005417 0.010549 -0.022942 0.060657 0.000648 0.007688
# 5 0.009761 -0.000832 0.014055 0.000648 0.050932 0.006565
# 6 0.008251 -0.001762 -0.003350 0.007688 0.006565 0.030129
#
#
# Mechanical properties :
#
#
# Convention : Reuss Voigt Hill
#
# Bulk Modulus (GPa) = 21.26608 41.09291 31.17950
# Shear Modulus (GPa) = 19.42316 31.33657 25.37986
#
# Velocity S-wave (km/s) = 2.88186 3.66048 3.29425
# Velocity P-wave (km/s) = 4.49072 5.95284 5.27271
#
# Compressibility (1/GPa) = 0.04702324
#
# Stress axis : x y z
#
# Youngs Moduli (GPa) = 49.97706 97.59223 23.10957
#
# Poissons Ratio (x) = 0.38606 0.12181
# Poissons Ratio (y) = 0.19770 0.09303
# Poissons Ratio (z) = 0.26343 0.39287
#
# Static dielectric constant tensor:
#      x y z
#    x 1.848940 0.016470 -0.039940 
#    y 0.016470 2.003530 -0.039450 
#    z -0.039940 -0.039450 1.957690 
# 
# From -- ./inp_files/245155.got.cif
#   From: 2010.05.17/outbox.cif.g08.bks.cpg/sg2_123_cif.got.tgz:245155.got - 2010.06.03 11:33:40.
