data_PCOD9083481
_publ_section_title
;
Structure prediction by ZEFSAII (Michael W. Deem and Ramdas Pophale) SiO2 
 PCOD9083481
Probable space group: P -1
;
_chemical_formula_sum "Si O2"
_cell_formula_units_Z 14
_cell_length_a 11.893149
_cell_length_b 8.006803
_cell_length_c 8.885471
_cell_angle_alpha 124.287373
_cell_angle_beta 54.876949
_cell_angle_gamma 114.123228
_cell_volume 567.301800
_symmetry_space_group_name_H-M "P -1"
_symmetry_group_IT_number 2
_symmetry_cell_setting 'triclinic'
loop_
_space_group_symop_operation_xyz
x,y,z
-x,-y,-z
loop_
_atom_site_type_symbol
_atom_site_label
_atom_site_fract_x
_atom_site_fract_y
_atom_site_fract_z
Si Si1 0.144102 0.217403 0.222929
Si Si2 0.146606 0.868191 0.748398
Si Si3 0.338568 0.563260 0.315706
Si Si4 0.684981 0.579280 0.395810
Si Si5 0.594607 0.820237 0.321260
Si Si6 0.025802 0.243560 0.632068
Si Si7 0.793894 0.220803 0.015887
O O1 0.259157 0.399874 0.181347
O O2 0.070821 0.321343 0.472927
O O3 0.007616 0.128902 0.191420
O O4 0.222742 0.024434 0.115458
O O5 0.237642 0.738617 0.505678
O O6 0.250850 0.079493 0.794306
O O7 0.135263 0.757232 0.862357
O O8 0.347473 0.457868 0.422008
O O9 0.494514 0.663536 0.216534
O O10 0.604883 0.723588 0.429503
O O11 0.843419 0.690286 0.329007
O O12 0.675143 0.362468 0.205715
O O13 0.500000 0.000000 0.500000
O O14 0.891493 0.304994 0.847246
O O15 0.000000 0.000000 0.500000
#
# Coordination Sequence:
#
# PCOD9083481 Si02
#       7
#     2   2   2   2   2   2   2
#     4  10  19  35  58  88 114 145 188 235 277 327
#     4  10  20  35  58  86 114 146 187 233 280 329
#     4   9  20  36  57  82 111 148 191 232 277 331
#     4  10  19  34  56  82 112 150 192 230 277 338
#     4  10  20  36  57  82 110 149 192 232 277 337
#     4   9  18  32  54  85 114 145 185 228 277 330
#     4  10  20  34  55  85 117 149 184 230 282 336
#
# _framework density 24.678224
#
# number of rings (size 3 to 8) (size 9 to 14) (size 15 to 20)
#    0.000    2.286    0.000    3.429    0.000    0.000 
#    0.000    2.857    0.000    6.857    0.000    0.000 
#    0.000    0.000    0.000    0.000    0.000    0.000 
#
# Total GULP energy -78076.006688 kJ/mol
# GULP energy per Si atom -5576.857621 kJ/mol
# Density = 2.462206 g / cm^3
# Si number density = 24.678224 Si / 1000 Ang^3
#
#
#
# Elastic Constant Matrix: (Units=GPa)
#
#
# Indices 1 2 3 4 5 6 
#
# 1 118.0165 67.9652 27.2580 12.9646 -14.7172 26.2967
# 2 67.9652 106.7604 26.4227 18.1456 -15.2922 34.3598
# 3 27.2580 26.4227 91.0602 6.2822 -6.9930 14.2102
# 4 12.9646 18.1456 6.2822 34.8702 11.1194 0.3833
# 5 -14.7172 -15.2922 -6.9930 11.1194 24.3743 5.7128
# 6 26.2967 34.3598 14.2102 0.3833 5.7128 65.5133
#
#
#
# Elastic Compliance Matrix: (Units=1/GPa)
#
#
# Indices 1 2 3 4 5 6 
#
# 1 0.014241 -0.006228 -0.001231 -0.003968 0.006793 -0.002752
# 2 -0.006228 0.022314 -0.000360 -0.015387 0.019675 -0.010751
# 3 -0.001231 -0.000360 0.012378 -0.002996 0.004506 -0.002377
# 4 -0.003968 -0.015387 -0.002996 0.051108 -0.039376 0.013447
# 5 0.006793 0.019675 0.004506 -0.039376 0.081629 -0.020911
# 6 -0.002752 -0.010751 -0.002377 0.013447 -0.020911 0.024268
#
#
# Mechanical properties :
#
#
# Convention : Reuss Voigt Hill
#
# Bulk Modulus (GPa) = 30.03458 62.12543 46.08000
# Shear Modulus (GPa) = 21.48923 37.89765 29.69344
#
# Velocity S-wave (km/s) = 2.95409 3.92302 3.47252
# Velocity P-wave (km/s) = 4.88185 6.76379 5.89836
#
# Compressibility (1/GPa) = 0.03329496
#
# Stress axis : x y z
#
# Youngs Moduli (GPa) = 70.22208 44.81406 80.78575
#
# Poissons Ratio (x) = 0.27911 0.09943
# Poissons Ratio (y) = 0.43735 0.02911
# Poissons Ratio (z) = 0.08643 0.01615
#
# Static dielectric constant tensor:
#      x y z
#    x 1.957170 0.038470 0.000850 
#    y 0.038470 2.050390 0.000540 
#    z 0.000850 0.000540 2.028650 
# 
# From -- ./inp_files/245351.got.cif
#   From: 2010.05.17/outbox.cif.g08.bks.cpg/sg2_123_cif.got.tgz:245351.got - 2010.06.03 11:33:40.
