data_PCOD9083228
_publ_section_title
;
Structure prediction by ZEFSAII (Michael W. Deem and Ramdas Pophale) SiO2 
 PCOD9083228
Probable space group: P -1
;
_chemical_formula_sum "Si O2"
_cell_formula_units_Z 16
_cell_length_a 18.158778
_cell_length_b 23.112774
_cell_length_c 11.942866
_cell_angle_alpha 145.373756
_cell_angle_beta 28.275585
_cell_angle_gamma 164.392459
_cell_volume 626.093185
_symmetry_space_group_name_H-M "P -1"
_symmetry_group_IT_number 2
_symmetry_cell_setting 'triclinic'
loop_
_space_group_symop_operation_xyz
x,y,z
-x,-y,-z
loop_
_atom_site_type_symbol
_atom_site_label
_atom_site_fract_x
_atom_site_fract_y
_atom_site_fract_z
Si Si1 0.396949 0.675640 0.234456
Si Si2 0.729988 0.690724 0.345256
Si Si3 0.056339 0.518280 0.654603
Si Si4 0.823703 0.120557 0.745839
Si Si5 0.821784 0.482852 0.137543
Si Si6 0.858656 0.191289 0.461254
Si Si7 0.131629 0.198159 0.288469
Si Si8 0.102615 0.809771 0.851226
O O1 0.251917 0.661117 0.306851
O O2 0.354816 0.700526 0.453298
O O3 0.148189 0.432377 0.183794
O O4 0.747261 0.837254 0.980539
O O5 0.562478 0.702837 0.622728
O O6 0.455517 0.438446 0.300501
O O7 0.989757 0.802386 0.268843
O O8 0.933219 0.803240 0.136107
O O9 0.072039 0.419159 0.536522
O O10 0.940882 0.529174 0.923786
O O11 0.016240 0.316652 0.727264
O O12 0.835492 0.028003 0.505737
O O13 0.500000 0.000000 0.000000
O O14 0.000000 0.500000 0.000000
O O15 0.865947 0.155771 0.267814
O O16 0.025487 0.206168 0.340123
O O17 0.475440 0.999727 0.699178
#
# Coordination Sequence:
#
# PCOD9083228 Si02
#       8
#     2   2   2   2   2   2   2   2
#     4   9  19  34  58  76 102 141 182 221 260 317
#     4  10  20  36  58  79 108 145 186 223 260 325
#     4  10  19  34  53  79 107 140 175 216 271 318
#     4  11  22  38  60  81 106 144 186 226 268 321
#     4  11  22  36  55  81 113 143 177 222 271 325
#     4  10  20  34  58  81 110 138 178 229 269 316
#     4  10  19  34  56  84 104 138 186 224 261 314
#     4   9  19  36  56  81 106 144 184 221 266 313
#
# _framework density 25.555299999999999
#
# number of rings (size 3 to 8) (size 9 to 14) (size 15 to 20)
#    0.000    2.000    0.000    6.000    0.000    5.500 
#    0.000    3.750    0.000   20.250    0.000    0.000 
#    0.000    0.000    0.000    0.000    0.000    0.000 
#
# Total GULP energy -89283.362036 kJ/mol
# GULP energy per Si atom -5580.210127 kJ/mol
# Density = 2.549714 g / cm^3
# Si number density = 25.555300 Si / 1000 Ang^3
#
#
#
# Elastic Constant Matrix: (Units=GPa)
#
#
# Indices 1 2 3 4 5 6 
#
# 1 102.6079 5.6040 65.3452 4.5844 -12.4642 20.4525
# 2 5.6040 31.6654 -0.2273 8.1834 -2.6087 7.3347
# 3 65.3452 -0.2273 268.0530 -11.1020 10.9729 16.2896
# 4 4.5844 8.1834 -11.1020 24.1794 3.1698 -2.6749
# 5 -12.4642 -2.6087 10.9729 3.1698 38.5020 -4.2860
# 6 20.4525 7.3347 16.2896 -2.6749 -4.2860 30.2476
#
#
#
# Elastic Compliance Matrix: (Units=1/GPa)
#
#
# Indices 1 2 3 4 5 6 
#
# 1 0.014456 0.001378 -0.003524 -0.006421 0.005414 -0.008012
# 2 0.001378 0.037941 -0.000394 -0.014890 0.003154 -0.010790
# 3 -0.003524 -0.000394 0.004861 0.003381 -0.002859 -0.000246
# 4 -0.006421 -0.014890 0.003381 0.051176 -0.007191 0.009638
# 5 0.005414 0.003154 -0.002859 -0.007191 0.029418 0.000646
# 6 -0.008012 -0.010790 -0.000246 0.009638 0.000646 0.042171
#
#
# Mechanical properties :
#
#
# Convention : Reuss Voigt Hill
#
# Bulk Modulus (GPa) = 19.16498 60.41887 39.79193
# Shear Modulus (GPa) = 24.69205 40.69276 32.69240
#
# Velocity S-wave (km/s) = 3.11178 3.99474 3.58058
# Velocity P-wave (km/s) = 4.51958 6.70604 5.71829
#
# Compressibility (1/GPa) = 0.05217850
#
# Stress axis : x y z
#
# Youngs Moduli (GPa) = 69.17476 26.35698 205.70893
#
# Poissons Ratio (x) = -0.03631 0.72484
# Poissons Ratio (y) = -0.09530 0.08100
# Poissons Ratio (z) = 0.24374 0.01038
#
# Static dielectric constant tensor:
#      x y z
#    x 1.948570 0.031910 0.018770 
#    y 0.031910 2.279980 -0.190860 
#    z 0.018770 -0.190860 2.319920 
# 
# From -- ./inp_files/405402.got.cif
#   From: 2010.05.17/outbox.cif.g08.bks.cpg/sg2_203_cif.got.tgz:405402.got - 2010.06.03 11:33:40.
