data_PCOD9083049
_publ_section_title
;
Structure prediction by ZEFSAII (Michael W. Deem and Ramdas Pophale) SiO2 
 PCOD9083049
Probable space group: P -1
;
_chemical_formula_sum "Si O2"
_cell_formula_units_Z 14
_cell_length_a 12.163823
_cell_length_b 8.140289
_cell_length_c 12.813075
_cell_angle_alpha 98.985051
_cell_angle_beta 145.527323
_cell_angle_gamma 60.819548
_cell_volume 543.938816
_symmetry_space_group_name_H-M "P -1"
_symmetry_group_IT_number 2
_symmetry_cell_setting 'triclinic'
loop_
_space_group_symop_operation_xyz
x,y,z
-x,-y,-z
loop_
_atom_site_type_symbol
_atom_site_label
_atom_site_fract_x
_atom_site_fract_y
_atom_site_fract_z
Si Si1 0.817069 0.303376 0.422994
Si Si2 0.674261 0.585474 0.530695
Si Si3 0.787453 0.389885 0.803286
Si Si4 0.662232 0.113769 0.447355
Si Si5 0.621121 0.904023 0.223435
Si Si6 0.939040 0.762599 0.782067
Si Si7 0.409131 0.338122 0.984969
O O1 0.725026 0.503861 0.444262
O O2 0.091549 0.205778 0.592074
O O3 0.804122 0.154301 0.478476
O O4 0.637575 0.336851 0.192945
O O5 0.861369 0.389424 0.741860
O O6 0.400275 0.662698 0.347361
O O7 0.713821 0.753981 0.601312
O O8 0.598361 0.647412 0.710008
O O9 0.975652 0.267463 0.034524
O O10 0.599481 0.969664 0.332522
O O11 0.848934 0.976142 0.674602
O O12 0.584494 0.737839 0.135242
O O13 0.446989 0.140402 0.055270
O O14 0.162166 0.558197 0.864470
#
# Coordination Sequence:
#
# PCOD9083049 Si02
#       7
#     2   2   2   2   2   2   2
#     4  10  19  41  60  84 120 161 193 240 291 354
#     4  10  21  39  67  83 117 163 195 239 303 347
#     4  10  22  45  60  85 123 156 195 248 291 355
#     4  10  22  37  63  89 121 153 197 247 293 346
#     4  10  19  38  61  85 118 161 193 239 291 354
#     4  12  21  39  61  92 119 152 200 246 293 354
#     4  10  19  33  61  81 119 152 192 237 292 341
#
# _framework density 25.738187
#
# number of rings (size 3 to 8) (size 9 to 14) (size 15 to 20)
#    0.000    1.714    5.714    2.143    0.000    1.143 
#    0.000   17.857    0.000    0.000    0.000    0.000 
#    0.000    0.000    0.000    0.000    0.000    0.000 
#
# Total GULP energy -78320.357928 kJ/mol
# GULP energy per Si atom -5594.311281 kJ/mol
# Density = 2.567961 g / cm^3
# Si number density = 25.738187 Si / 1000 Ang^3
#
#
#
# Elastic Constant Matrix: (Units=GPa)
#
#
# Indices 1 2 3 4 5 6 
#
# 1 37.3268 20.6967 47.9380 6.3206 -15.0569 -4.4987
# 2 20.6967 114.7905 60.5085 23.7322 -5.6621 -19.2133
# 3 47.9380 60.5085 108.7807 29.7456 -36.0222 2.6590
# 4 6.3206 23.7322 29.7456 45.8646 -5.7196 -1.0571
# 5 -15.0569 -5.6621 -36.0222 -5.7196 40.1198 4.2140
# 6 -4.4987 -19.2133 2.6590 -1.0571 4.2140 44.5241
#
#
#
# Elastic Compliance Matrix: (Units=1/GPa)
#
#
# Indices 1 2 3 4 5 6 
#
# 1 0.078619 0.011306 -0.049657 0.014266 -0.013276 0.017383
# 2 0.011306 0.018028 -0.019233 0.000399 -0.011599 0.011178
# 3 -0.049657 -0.019233 0.056414 -0.016631 0.029013 -0.019827
# 4 0.014266 0.000399 -0.016631 0.029798 -0.005679 0.003852
# 5 -0.013276 -0.011599 0.029013 -0.005679 0.044855 -0.012459
# 6 0.017383 0.011178 -0.019827 0.003852 -0.012459 0.031494
#
#
# Mechanical properties :
#
#
# Convention : Reuss Voigt Hill
#
# Bulk Modulus (GPa) = 26.39083 57.68716 42.03899
# Shear Modulus (GPa) = 12.91962 34.88536 23.90249
#
# Velocity S-wave (km/s) = 2.24288 3.68556 3.05073
# Velocity P-wave (km/s) = 4.12107 6.36968 5.36452
#
# Compressibility (1/GPa) = 0.03789195
#
# Stress axis : x y z
#
# Youngs Moduli (GPa) = 12.71950 55.47051 17.72602
#
# Poissons Ratio (x) = -0.62713 0.88023
# Poissons Ratio (y) = -0.14380 0.34093
# Poissons Ratio (z) = 0.63162 1.06687
#
# Static dielectric constant tensor:
#      x y z
#    x 2.065680 -0.039500 -0.091420 
#    y -0.039500 2.057520 0.008970 
#    z -0.091420 0.008970 2.075720 
# 
# From -- ./inp_files/528746.got.cif
#   From: 2010.05.17/outbox.cif.g08.bks.cpg/sg2_265_cif.got.tgz:528746.got - 2010.06.03 11:33:40.
