data_PCOD9083879
_publ_section_title
;
Structure prediction by ZEFSAII (Michael W. Deem and Ramdas Pophale) SiO2 
 PCOD9083879
Probable space group: P -1
;
_chemical_formula_sum "Si O2"
_cell_formula_units_Z 16
_cell_length_a 9.415413
_cell_length_b 8.301025
_cell_length_c 15.011519
_cell_angle_alpha 100.985544
_cell_angle_beta 49.428573
_cell_angle_gamma 83.090958
_cell_volume 826.616847
_symmetry_space_group_name_H-M "P -1"
_symmetry_group_IT_number 2
_symmetry_cell_setting 'triclinic'
loop_
_space_group_symop_operation_xyz
x,y,z
-x,-y,-z
loop_
_atom_site_type_symbol
_atom_site_label
_atom_site_fract_x
_atom_site_fract_y
_atom_site_fract_z
Si Si1 0.833244 0.925824 0.605709
Si Si2 0.131380 0.890937 0.621725
Si Si3 0.760767 0.392058 0.307545
Si Si4 0.085024 0.450527 0.058429
Si Si5 0.375761 0.592009 0.379445
Si Si6 0.535435 0.270316 0.823468
Si Si7 0.143188 0.404282 0.548805
Si Si8 0.901938 0.291442 0.770617
O O1 0.795434 0.782438 0.543455
O O2 0.938432 0.861843 0.651258
O O3 0.632678 0.077684 0.724564
O O4 0.000000 0.000000 0.500000
O O5 0.191698 0.787859 0.678015
O O6 0.310063 0.783569 0.472190
O O7 0.065370 0.098563 0.678794
O O8 0.559426 0.459701 0.341995
O O9 0.750710 0.537820 0.403291
O O10 0.939462 0.377361 0.166322
O O11 0.085045 0.618522 0.132733
O O12 0.309363 0.323344 0.948445
O O13 0.000000 0.500000 0.000000
O O14 0.438718 0.608420 0.255328
O O15 0.188963 0.525305 0.465832
O O16 0.684892 0.281219 0.841577
O O17 0.945775 0.403037 0.681812
#
# Coordination Sequence:
#
# PCOD9083879 Si02
#       8
#     2   2   2   2   2   2   2   2
#     4  11  19  37  58  92 123 146 189 243 301 354
#     4  10  19  37  61  85 123 149 186 251 298 345
#     4  10  23  39  56  86 123 158 201 242 285 357
#     4  11  23  43  60  82 116 163 210 239 289 348
#     4  11  20  36  59  90 126 151 192 243 298 357
#     4  11  21  39  63  85 122 154 195 247 291 354
#     4  10  19  34  58  90 119 151 188 234 306 348
#     4  10  21  39  61  89 113 157 197 242 300 352
#
# _framework density 19.356006000000001
#
# number of rings (size 3 to 8) (size 9 to 14) (size 15 to 20)
#    0.000    1.500    5.000    1.875    0.000    5.500 
#    4.500    8.125    0.000    0.000    0.000    0.000 
#    0.000    0.000    0.000    0.000    0.000    0.000 
#
# Total GULP energy -89104.352699 kJ/mol
# GULP energy per Si atom -5569.022044 kJ/mol
# Density = 1.931195 g / cm^3
# Si number density = 19.356006 Si / 1000 Ang^3
#
#
#
# Elastic Constant Matrix: (Units=GPa)
#
#
# Indices 1 2 3 4 5 6 
#
# 1 45.6705 16.0106 31.8481 6.0924 -2.0653 -17.7373
# 2 16.0106 55.5824 37.5359 11.7969 -5.7530 -13.1458
# 3 31.8481 37.5359 122.4112 8.0200 -8.9493 -1.8473
# 4 6.0924 11.7969 8.0200 28.0098 -4.0521 4.2328
# 5 -2.0653 -5.7530 -8.9493 -4.0521 37.5079 3.6773
# 6 -17.7373 -13.1458 -1.8473 4.2328 3.6773 33.2428
#
#
#
# Elastic Compliance Matrix: (Units=1/GPa)
#
#
# Indices 1 2 3 4 5 6 
#
# 1 0.037774 0.003085 -0.009977 -0.010520 -0.003171 0.022511
# 2 0.003085 0.028968 -0.008662 -0.012574 -0.000209 0.014244
# 3 -0.009977 -0.008662 0.013231 0.003723 0.002541 -0.008769
# 4 -0.010520 -0.012574 0.003723 0.045459 0.004930 -0.016712
# 5 -0.003171 -0.000209 0.002541 0.004930 0.028120 -0.005371
# 6 0.022511 0.014244 -0.008769 -0.016712 -0.005371 0.049961
#
#
# Mechanical properties :
#
#
# Convention : Reuss Voigt Hill
#
# Bulk Modulus (GPa) = 20.46408 43.82815 32.14612
# Shear Modulus (GPa) = 19.92759 28.97005 24.44882
#
# Velocity S-wave (km/s) = 3.21211 3.87291 3.55789
# Velocity P-wave (km/s) = 4.93480 6.53388 5.78981
#
# Compressibility (1/GPa) = 0.04886610
#
# Stress axis : x y z
#
# Youngs Moduli (GPa) = 26.47295 34.52043 75.58288
#
# Poissons Ratio (x) = -0.10650 0.75408
# Poissons Ratio (y) = -0.08167 0.65470
# Poissons Ratio (z) = 0.26412 0.29901
#
# Static dielectric constant tensor:
#      x y z
#    x 1.715690 -0.017240 0.014520 
#    y -0.017240 1.730090 -0.020760 
#    z 0.014520 -0.020760 1.666540 
# 
# From -- ./inp_files/243610.got.cif
#   From: 2010.05.17/outbox.cif.g08.bks.cpg/sg2_122_cif.got.tgz:243610.got - 2010.06.03 11:33:40.
