data_PCOD9083069
_publ_section_title
;
Structure prediction by ZEFSAII (Michael W. Deem and Ramdas Pophale) SiO2 
 PCOD9083069
Probable space group: P -1
;
_chemical_formula_sum "Si O2"
_cell_formula_units_Z 16
_cell_length_a 19.996333
_cell_length_b 12.574250
_cell_length_c 8.922686
_cell_angle_alpha 131.493937
_cell_angle_beta 28.736768
_cell_angle_gamma 133.349404
_cell_volume 772.484989
_symmetry_space_group_name_H-M "P -1"
_symmetry_group_IT_number 2
_symmetry_cell_setting 'triclinic'
loop_
_space_group_symop_operation_xyz
x,y,z
-x,-y,-z
loop_
_atom_site_type_symbol
_atom_site_label
_atom_site_fract_x
_atom_site_fract_y
_atom_site_fract_z
Si Si1 0.526860 0.024165 0.644044
Si Si2 0.118465 0.638227 0.318162
Si Si3 0.048618 0.939157 0.693073
Si Si4 0.696638 0.539910 0.326143
Si Si5 0.702617 0.836405 0.741415
Si Si6 0.383685 0.348371 0.708093
Si Si7 0.783798 0.914927 0.000108
Si Si8 0.574755 0.163118 0.067390
O O1 0.500000 0.000000 0.500000
O O2 0.692745 0.024898 0.339955
O O3 0.429537 0.877624 0.784954
O O4 0.465041 0.160145 0.933421
O O5 0.044414 0.766728 0.543286
O O6 0.000000 0.500000 0.500000
O O7 0.195515 0.561923 0.968395
O O8 0.266319 0.740780 0.207100
O O9 0.209601 0.038269 0.429206
O O10 0.946934 0.968208 0.787444
O O11 0.000000 0.000000 0.000000
O O12 0.732869 0.685303 0.491563
O O13 0.525575 0.456917 0.609028
O O14 0.701484 0.580125 0.175628
O O15 0.757842 0.884755 0.846870
O O16 0.285742 0.238713 0.917066
O O17 0.460417 0.255308 0.362541
O O18 0.500000 0.000000 0.000000
#
# Coordination Sequence:
#
# PCOD9083069 Si02
#       8
#     2   2   2   2   2   2   2   2
#     4   9  19  36  59  91 123 154 200 259 310 359
#     4  11  23  39  60  88 131 165 203 259 326 377
#     4  12  25  41  64  90 124 166 213 259 314 374
#     4  10  21  39  61  89 126 165 204 255 316 372
#     4  11  21  40  65  92 122 166 207 258 310 379
#     4   9  19  36  58  88 127 155 200 260 312 365
#     4  10  22  38  62  93 126 157 214 258 312 369
#     4  10  19  33  61  92 116 156 211 263 302 362
#
# _framework density 20.712378000000001
#
# number of rings (size 3 to 8) (size 9 to 14) (size 15 to 20)
#    0.000    1.750    1.250    3.375    3.500    0.500 
#    0.000    0.625    0.000    0.000    0.000    0.000 
#    0.000    0.000    0.000    0.000    0.000    0.000 
#
# Total GULP energy -89146.785410 kJ/mol
# GULP energy per Si atom -5571.674088 kJ/mol
# Density = 2.066524 g / cm^3
# Si number density = 20.712378 Si / 1000 Ang^3
#
#
#
# Elastic Constant Matrix: (Units=GPa)
#
#
# Indices 1 2 3 4 5 6 
#
# 1 61.1354 18.6595 36.2643 8.0308 -2.2497 -1.2222
# 2 18.6595 91.2667 44.6718 12.4918 1.2093 15.7066
# 3 36.2643 44.6718 117.7257 21.4258 -11.7185 6.6461
# 4 8.0308 12.4918 21.4258 49.3121 -4.5712 -2.2874
# 5 -2.2497 1.2093 -11.7185 -4.5712 37.0598 -0.3539
# 6 -1.2222 15.7066 6.6461 -2.2874 -0.3539 26.6046
#
#
#
# Elastic Compliance Matrix: (Units=1/GPa)
#
#
# Indices 1 2 3 4 5 6 
#
# 1 0.020451 -0.001915 -0.005782 -0.000220 -0.000518 0.003488
# 2 -0.001915 0.015353 -0.004617 -0.002177 -0.002424 -0.008218
# 3 -0.005782 -0.004617 0.013030 -0.003273 0.003506 -0.001030
# 4 -0.000220 -0.002177 -0.003273 0.022649 0.001855 0.004065
# 5 -0.000518 -0.002424 0.003506 0.001855 0.028379 0.001068
# 6 0.003488 -0.008218 -0.001030 0.004065 0.001068 0.043220
#
#
# Mechanical properties :
#
#
# Convention : Reuss Voigt Hill
#
# Bulk Modulus (GPa) = 41.31079 52.14654 46.72866
# Shear Modulus (GPa) = 28.44520 33.96410 31.20465
#
# Velocity S-wave (km/s) = 3.70988 4.05383 3.88567
# Velocity P-wave (km/s) = 6.19187 6.86605 6.53765
#
# Compressibility (1/GPa) = 0.02420675
#
# Stress axis : x y z
#
# Youngs Moduli (GPa) = 48.89837 65.13584 76.74560
#
# Poissons Ratio (x) = 0.12471 0.44371
# Poissons Ratio (y) = 0.09362 0.35433
# Poissons Ratio (z) = 0.28271 0.30073
#
# Static dielectric constant tensor:
#      x y z
#    x 1.808950 -0.011140 -0.015960 
#    y -0.011140 1.781110 0.018330 
#    z -0.015960 0.018330 1.791860 
# 
# From -- ./inp_files/346319.got.cif
#   From: 2010.05.17/outbox.cif.g08.bks.cpg/sg2_174_cif.got.tgz:346319.got - 2010.06.03 11:33:40.
