data_PCOD9083175
_publ_section_title
;
Structure prediction by ZEFSAII (Michael W. Deem and Ramdas Pophale) SiO2 
 PCOD9083175
Probable space group: P -1
;
_chemical_formula_sum "Si O2"
_cell_formula_units_Z 14
_cell_length_a 7.789199
_cell_length_b 19.148627
_cell_length_c 5.293593
_cell_angle_alpha 104.923850
_cell_angle_beta 55.498827
_cell_angle_gamma 121.581883
_cell_volume 553.450123
_symmetry_space_group_name_H-M "P -1"
_symmetry_group_IT_number 2
_symmetry_cell_setting 'triclinic'
loop_
_space_group_symop_operation_xyz
x,y,z
-x,-y,-z
loop_
_atom_site_type_symbol
_atom_site_label
_atom_site_fract_x
_atom_site_fract_y
_atom_site_fract_z
Si Si1 0.415057 0.776790 0.967896
Si Si2 0.176343 0.164330 0.708222
Si Si3 0.130922 0.619967 0.803014
Si Si4 0.640684 0.475221 0.160330
Si Si5 0.216788 0.979224 0.309910
Si Si6 0.456603 0.324841 0.877577
Si Si7 0.624166 0.923173 0.233120
O O1 0.599113 0.827893 0.638596
O O2 0.178415 0.703552 0.983697
O O3 0.546521 0.728918 0.932462
O O4 0.406642 0.834736 0.251364
O O5 0.251484 0.257090 0.813072
O O6 0.180113 0.108230 0.891794
O O7 0.928666 0.117467 0.724856
O O8 0.242577 0.572957 0.830773
O O9 0.292542 0.648092 0.445687
O O10 0.860513 0.554447 0.933412
O O11 0.500000 0.500000 0.500000
O O12 0.470469 0.408745 0.037281
O O13 0.340242 0.017821 0.506609
O O14 0.356933 0.026926 0.990351
O O15 0.000000 0.000000 0.500000
#
# Coordination Sequence:
#
# PCOD9083175 Si02
#       7
#     2   2   2   2   2   2   2
#     4   9  16  27  43  65  98 140 173 218 269 318
#     4   9  16  24  39  61  98 140 175 216 271 315
#     4   9  19  35  51  77 106 138 178 224 274 329
#     4  10  20  35  56  77 103 137 180 224 276 332
#     4  10  16  21  35  60  98 138 181 220 267 316
#     4   9  18  30  48  70 101 139 174 220 274 325
#     4  10  16  23  36  62  98 142 179 220 269 316
#
# _framework density 25.295866
#
# number of rings (size 3 to 8) (size 9 to 14) (size 15 to 20)
#    0.000    2.571    2.857    2.143    2.000    0.571 
#    0.000    0.000    0.000    0.000    0.000    0.000 
#    0.000    2.286    0.286   85.286    0.000   58.571 
#
# Total GULP energy -78082.420548 kJ/mol
# GULP energy per Si atom -5577.315753 kJ/mol
# Density = 2.523829 g / cm^3
# Si number density = 25.295866 Si / 1000 Ang^3
#
#
#
# Elastic Constant Matrix: (Units=GPa)
#
#
# Indices 1 2 3 4 5 6 
#
# 1 107.3222 45.4102 25.0740 12.6552 18.8667 4.3952
# 2 45.4102 265.1507 88.3690 36.3605 10.1693 55.2559
# 3 25.0740 88.3690 76.8201 24.8706 23.3185 11.0951
# 4 12.6552 36.3605 24.8706 42.4006 -0.9882 29.8944
# 5 18.8667 10.1693 23.3185 -0.9882 33.8886 5.9893
# 6 4.3952 55.2559 11.0951 29.8944 5.9893 2.6467
#
#
#
# Elastic Compliance Matrix: (Units=1/GPa)
#
#
# Indices 1 2 3 4 5 6 
#
# 1 0.010602 -0.000426 -0.001450 0.000943 -0.004001 -0.004234
# 2 -0.000426 0.004338 -0.003601 -0.007297 -0.000256 0.008241
# 3 -0.001450 -0.003601 0.022650 0.002108 -0.010598 -0.017190
# 4 0.000943 -0.007297 0.002108 0.011172 -0.003738 0.024204
# 5 -0.004001 -0.000256 -0.010598 -0.003738 0.035937 0.017312
# 6 -0.004234 0.008241 -0.017190 0.024204 0.017312 -0.027687
#
#
# Mechanical properties :
#
#
# Convention : Reuss Voigt Hill
#
# Bulk Modulus (GPa) = 37.54188 85.22215 61.38202
# Shear Modulus (GPa) = 65.06705 35.14984 50.10844
#
# Velocity S-wave (km/s) = 5.07723 3.73171 4.45555
# Velocity P-wave (km/s) = 7.01743 7.23400 7.12654
#
# Compressibility (1/GPa) = 0.02663692
#
# Stress axis : x y z
#
# Youngs Moduli (GPa) = 94.31903 230.54688 44.14958
#
# Poissons Ratio (x) = 0.09824 0.06400
# Poissons Ratio (y) = 0.04019 0.15897
# Poissons Ratio (z) = 0.13673 0.83015
#
# Static dielectric constant tensor:
#      x y z
#    x 2.038350 0.032440 0.038840 
#    y 0.032440 2.102820 -0.006420 
#    z 0.038840 -0.006420 2.077900 
# 
# From -- ./inp_files/55567.got.cif
#   From: 2010.05.17/outbox.cif.g08.bks.cpg/sg2_28_cif.got.tgz:55567.got - 2010.06.03 11:33:40.
