data_PCOD9083986
_publ_section_title
;
Structure prediction by ZEFSAII (Michael W. Deem and Ramdas Pophale) SiO2 
 PCOD9083986
Probable space group: P -1
;
_chemical_formula_sum "Si O2"
_cell_formula_units_Z 16
_cell_length_a 10.825625
_cell_length_b 15.185767
_cell_length_c 13.948156
_cell_angle_alpha 139.164305
_cell_angle_beta 148.446787
_cell_angle_gamma 41.184129
_cell_volume 744.606452
_symmetry_space_group_name_H-M "P -1"
_symmetry_group_IT_number 2
_symmetry_cell_setting 'triclinic'
loop_
_space_group_symop_operation_xyz
x,y,z
-x,-y,-z
loop_
_atom_site_type_symbol
_atom_site_label
_atom_site_fract_x
_atom_site_fract_y
_atom_site_fract_z
Si Si1 0.585690 0.648647 0.966253
Si Si2 0.051466 0.198612 0.632744
Si Si3 0.107483 0.338794 0.395462
Si Si4 0.068721 0.807986 0.669577
Si Si5 0.644781 0.334526 0.974058
Si Si6 0.638153 0.079805 0.293358
Si Si7 0.357751 0.682401 0.256672
Si Si8 0.862292 0.912823 0.109029
O O1 0.362591 0.722510 0.807133
O O2 0.476549 0.710521 0.049949
O O3 0.630977 0.481177 0.861585
O O4 0.831513 0.691809 0.150127
O O5 0.018259 0.225823 0.519795
O O6 0.785811 0.193483 0.491659
O O7 0.250235 0.042057 0.654234
O O8 0.389527 0.306532 0.521649
O O9 0.000000 0.500000 0.500000
O O10 0.075048 0.240797 0.380817
O O11 0.925066 0.321535 0.177485
O O12 0.043995 0.973318 0.793044
O O13 0.500000 0.500000 0.000000
O O14 0.623650 0.274048 0.806829
O O15 0.738288 0.999009 0.192686
O O16 0.343388 0.128612 0.123782
O O17 0.089256 0.783537 0.189611
#
# Coordination Sequence:
#
# PCOD9083986 Si02
#       8
#     2   2   2   2   2   2   2   2
#     4  10  19  34  59  88 112 149 190 224 282 346
#     4  10  19  35  66  83 100 147 204 231 281 353
#     4  11  19  35  57  86 121 153 186 221 276 339
#     4  10  20  35  62  84 112 154 191 226 276 350
#     4   9  18  33  55  83 117 156 182 217 277 339
#     4   9  20  40  63  79 108 151 192 246 296 333
#     4  11  22  36  58  86 121 153 184 236 279 335
#     4  10  21  41  60  82 114 149 193 242 291 329
#
# _framework density 21.487860000000001
#
# number of rings (size 3 to 8) (size 9 to 14) (size 15 to 20)
#    0.000    2.000    5.000    0.750    1.750    0.500 
#    6.750    3.750    0.000    0.000    0.000    0.000 
#    0.000    0.000    0.000    0.000    0.000    0.000 
#
# Total GULP energy -89320.889292 kJ/mol
# GULP energy per Si atom -5582.555581 kJ/mol
# Density = 2.143895 g / cm^3
# Si number density = 21.487860 Si / 1000 Ang^3
#
#
#
# Elastic Constant Matrix: (Units=GPa)
#
#
# Indices 1 2 3 4 5 6 
#
# 1 34.1008 17.8737 27.3412 -4.7842 9.8725 10.8706
# 2 17.8737 91.5515 53.9236 -13.7136 19.8155 8.7012
# 3 27.3412 53.9236 156.6769 -21.9378 39.7092 11.5242
# 4 -4.7842 -13.7136 -21.9378 25.8609 4.9193 -3.1607
# 5 9.8725 19.8155 39.7092 4.9193 31.8468 -9.3063
# 6 10.8706 8.7012 11.5242 -3.1607 -9.3063 26.6733
#
#
#
# Elastic Compliance Matrix: (Units=1/GPa)
#
#
# Indices 1 2 3 4 5 6 
#
# 1 0.045989 0.000029 0.003132 0.013124 -0.028537 -0.028506
# 2 0.000029 0.016526 0.000411 0.010850 -0.015295 -0.009631
# 3 0.003132 0.000411 0.017794 0.019739 -0.031667 -0.017808
# 4 0.013124 0.010850 0.019739 0.070536 -0.054535 -0.028085
# 5 -0.028537 -0.015295 -0.031667 -0.054535 0.116518 0.064492
# 6 -0.028506 -0.009631 -0.017808 -0.028085 0.064492 0.079117
#
#
# Mechanical properties :
#
#
# Convention : Reuss Voigt Hill
#
# Bulk Modulus (GPa) = 11.43484 53.40068 32.41776
# Shear Modulus (GPa) = 13.56896 29.08890 21.32893
#
# Velocity S-wave (km/s) = 2.51563 3.68331 3.15398
# Velocity P-wave (km/s) = 3.71093 6.55702 5.32755
#
# Compressibility (1/GPa) = 0.08745206
#
# Stress axis : x y z
#
# Youngs Moduli (GPa) = 21.74426 60.51078 56.19830
#
# Poissons Ratio (x) = -0.00173 -0.17599
# Poissons Ratio (y) = -0.00062 -0.02311
# Poissons Ratio (z) = -0.06809 -0.02488
#
# Static dielectric constant tensor:
#      x y z
#    x 1.857990 -0.021150 -0.003010 
#    y -0.021150 1.758560 0.015310 
#    z -0.003010 0.015310 1.805230 
# 
# From -- ./inp_files/423564.got.cif
#   From: 2010.05.17/outbox.cif.g08.bks.cpg/sg2_212_cif.got.tgz:423564.got - 2010.06.03 11:33:40.
