data_PCOD9083614
_publ_section_title
;
Structure prediction by ZEFSAII (Michael W. Deem and Ramdas Pophale) SiO2 
 PCOD9083614
Probable space group: P -1
;
_chemical_formula_sum "Si O2"
_cell_formula_units_Z 16
_cell_length_a 13.979911
_cell_length_b 14.124171
_cell_length_c 9.969472
_cell_angle_alpha 85.537342
_cell_angle_beta 111.901029
_cell_angle_gamma 151.689602
_cell_volume 712.016614
_symmetry_space_group_name_H-M "P -1"
_symmetry_group_IT_number 2
_symmetry_cell_setting 'triclinic'
loop_
_space_group_symop_operation_xyz
x,y,z
-x,-y,-z
loop_
_atom_site_type_symbol
_atom_site_label
_atom_site_fract_x
_atom_site_fract_y
_atom_site_fract_z
Si Si1 0.521490 0.324266 0.955327
Si Si2 0.840216 0.415590 0.597294
Si Si3 0.722632 0.806434 0.923956
Si Si4 0.688564 0.962139 0.553220
Si Si5 0.943770 0.198475 0.947287
Si Si6 0.545042 0.434392 0.466485
Si Si7 0.907412 0.563378 0.348573
Si Si8 0.106016 0.811673 0.786962
O O1 0.373880 0.284684 0.962315
O O2 0.698478 0.426153 0.151658
O O3 0.740240 0.543220 0.939001
O O4 0.330227 0.077563 0.835861
O O5 0.757862 0.387611 0.412709
O O6 0.090829 0.695265 0.725544
O O7 0.917865 0.373089 0.629496
O O8 0.599477 0.235458 0.589166
O O9 0.510639 0.605820 0.718540
O O10 0.805858 0.985968 0.944647
O O11 0.000000 0.000000 0.000000
O O12 0.811200 0.102485 0.744266
O O13 0.900214 0.186439 0.538579
O O14 0.652491 0.817787 0.557783
O O15 0.893099 0.216267 0.050925
O O16 0.500000 0.500000 0.500000
O O17 0.831518 0.634869 0.630837
#
# Coordination Sequence:
#
# PCOD9083614 Si02
#       8
#     2   2   2   2   2   2   2   2
#     4  10  20  36  55  77 109 144 182 220 268 329
#     4  10  20  34  56  82 111 143 185 232 275 318
#     4  10  20  37  59  78 104 143 183 221 268 327
#     4   9  19  36  56  76 108 147 185 225 268 325
#     4   9  19  35  55  76 106 148 181 219 270 320
#     4  10  19  34  57  82 107 139 176 222 276 320
#     4  10  20  36  57  80 106 149 190 223 270 327
#     4  10  20  34  53  80 113 141 175 228 276 316
#
# _framework density 22.471385000000001
#
# number of rings (size 3 to 8) (size 9 to 14) (size 15 to 20)
#    0.000    2.250    0.000    4.875    0.000    3.000 
#    0.000    5.000    0.000   16.500    0.000    0.000 
#    0.000    0.000    0.000    0.000    0.000    0.000 
#
# Total GULP energy -89143.378673 kJ/mol
# GULP energy per Si atom -5571.461167 kJ/mol
# Density = 2.242024 g / cm^3
# Si number density = 22.471385 Si / 1000 Ang^3
#
#
#
# Elastic Constant Matrix: (Units=GPa)
#
#
# Indices 1 2 3 4 5 6 
#
# 1 65.8508 29.8067 6.1647 13.1192 -6.2240 -15.3439
# 2 29.8067 90.7371 17.7897 33.6947 1.0935 -6.8978
# 3 6.1647 17.7897 51.8435 24.6661 -14.9497 -7.5863
# 4 13.1192 33.6947 24.6661 37.0979 -0.2337 -2.2432
# 5 -6.2240 1.0935 -14.9497 -0.2337 26.5447 9.5432
# 6 -15.3439 -6.8978 -7.5863 -2.2432 9.5432 23.7120
#
#
#
# Elastic Compliance Matrix: (Units=1/GPa)
#
#
# Indices 1 2 3 4 5 6 
#
# 1 0.021125 -0.005079 0.004259 -0.004957 0.003289 0.011763
# 2 -0.005079 0.018450 0.001572 -0.015907 -0.001863 0.001828
# 3 0.004259 0.001572 0.038059 -0.027838 0.020504 0.004504
# 4 -0.004957 -0.015907 -0.027838 0.061251 -0.013691 -0.005437
# 5 0.003289 -0.001863 0.020504 -0.013691 0.055517 -0.015493
# 6 0.011763 0.001828 0.004504 -0.005437 -0.015493 0.057478
#
#
# Mechanical properties :
#
#
# Convention : Reuss Voigt Hill
#
# Bulk Modulus (GPa) = 12.63622 35.10595 23.87108
# Shear Modulus (GPa) = 18.06643 27.78227 22.92435
#
# Velocity S-wave (km/s) = 2.83852 3.51998 3.19746
# Velocity P-wave (km/s) = 4.04702 5.67246 4.92723
#
# Compressibility (1/GPa) = 0.07913760
#
# Stress axis : x y z
#
# Youngs Moduli (GPa) = 47.33629 54.20148 26.27473
#
# Poissons Ratio (x) = 0.27530 -0.11190
# Poissons Ratio (y) = 0.24043 -0.04130
# Poissons Ratio (z) = -0.20161 -0.08519
#
# Static dielectric constant tensor:
#      x y z
#    x 1.948820 0.134420 -0.089830 
#    y 0.134420 1.936550 -0.073990 
#    z -0.089830 -0.073990 1.938620 
# 
# From -- ./inp_files/453845.got.cif
#   From: 2010.05.17/outbox.cif.g08.bks.cpg/sg2_227_cif.got.tgz:453845.got - 2010.06.03 11:33:40.
