data_PCOD9083930
_publ_section_title
;
Structure prediction by ZEFSAII (Michael W. Deem and Ramdas Pophale) SiO2 
 PCOD9083930
Probable space group: P -1
;
_chemical_formula_sum "Si O2"
_cell_formula_units_Z 15
_cell_length_a 5.524898
_cell_length_b 19.485408
_cell_length_c 6.934779
_cell_angle_alpha 50.984561
_cell_angle_beta 75.203025
_cell_angle_gamma 80.587764
_cell_volume 560.821268
_symmetry_space_group_name_H-M "P -1"
_symmetry_group_IT_number 2
_symmetry_cell_setting 'triclinic'
loop_
_space_group_symop_operation_xyz
x,y,z
-x,-y,-z
loop_
_atom_site_type_symbol
_atom_site_label
_atom_site_fract_x
_atom_site_fract_y
_atom_site_fract_z
Si Si1 0.074147 0.843991 0.740773
Si Si2 0.662522 0.517472 0.663104
Si Si3 0.758466 0.355492 0.412971
Si Si4 0.000000 0.500000 0.000000
Si Si5 0.429329 0.102912 0.345564
Si Si6 0.488887 0.816174 0.241796
Si Si7 0.052565 0.647859 0.205345
Si Si8 0.013718 0.099004 0.898321
O O1 0.367658 0.856559 0.623807
O O2 0.865067 0.888485 0.572264
O O3 0.025090 0.739876 0.942422
O O4 0.045527 0.889653 0.879082
O O5 0.372935 0.547349 0.688993
O O6 0.813917 0.528304 0.810129
O O7 0.712488 0.416652 0.773215
O O8 0.810874 0.583766 0.372340
O O9 0.538879 0.288194 0.530961
O O10 0.889671 0.322186 0.637954
O O11 0.949426 0.391479 0.154455
O O12 0.500000 0.000000 0.500000
O O13 0.454067 0.156995 0.041717
O O14 0.205157 0.849470 0.259403
O O15 0.709307 0.861308 0.234237
O O16 0.000000 0.000000 0.000000
#
# Coordination Sequence:
#
# PCOD9083930 Si02
#       8
#     2   2   2   1   2   2   2   2
#     4  10  20  36  58  89 117 159 198 256 307 378
#     4  10  21  37  62  92 126 166 207 264 314 388
#     4  11  20  39  64  89 126 169 217 260 324 371
#     4  10  24  38  60  90 128 172 206 266 318 382
#     4  10  19  34  59  83 116 152 196 250 317 369
#     4  10  21  35  63  88 116 161 207 257 312 380
#     4  10  20  36  63  94 121 162 220 255 318 379
#     4  10  19  35  59  87 116 153 204 257 311 372
#
# _framework density 26.746490999999999
#
# number of rings (size 3 to 8) (size 9 to 14) (size 15 to 20)
#    0.000    1.867    2.667    3.200    1.867    0.000 
#    0.000    0.000   17.600    0.000    0.000    0.000 
#    0.000    0.000    0.000    0.000    0.000    0.000 
#
# Total GULP energy -83686.951508 kJ/mol
# GULP energy per Si atom -5579.130101 kJ/mol
# Density = 2.668561 g / cm^3
# Si number density = 26.746491 Si / 1000 Ang^3
#
#
#
# Elastic Constant Matrix: (Units=GPa)
#
#
# Indices 1 2 3 4 5 6 
#
# 1 162.0378 44.3602 33.3655 3.4053 23.8865 25.9318
# 2 44.3602 110.2438 40.5703 -26.4232 -6.6843 9.7988
# 3 33.3655 40.5703 124.9609 -32.0804 -12.2366 14.2297
# 4 3.4053 -26.4232 -32.0804 51.4346 3.1424 -3.8606
# 5 23.8865 -6.6843 -12.2366 3.1424 47.8886 -0.8170
# 6 25.9318 9.7988 14.2297 -3.8606 -0.8170 58.2547
#
#
#
# Elastic Compliance Matrix: (Units=1/GPa)
#
#
# Indices 1 2 3 4 5 6 
#
# 1 0.009091 -0.003772 -0.002387 -0.003932 -0.005467 -0.003166
# 2 -0.003772 0.012613 -0.001369 0.005721 0.002922 0.000312
# 3 -0.002387 -0.001369 0.011093 0.006092 0.003418 -0.000965
# 4 -0.003932 0.005721 0.006092 0.026363 0.002605 0.001084
# 5 -0.005467 0.002922 0.003418 0.002605 0.024747 0.001627
# 6 -0.003166 0.000312 -0.000965 0.001084 0.001627 0.018853
#
#
# Mechanical properties :
#
#
# Convention : Reuss Voigt Hill
#
# Bulk Modulus (GPa) = 56.36507 70.42606 63.39557
# Shear Modulus (GPa) = 40.41104 50.11200 45.26152
#
# Velocity S-wave (km/s) = 3.89124 4.33320 4.11815
# Velocity P-wave (km/s) = 6.42717 7.17102 6.80926
#
# Compressibility (1/GPa) = 0.01774148
#
# Stress axis : x y z
#
# Youngs Moduli (GPa) = 110.00125 79.28462 90.14870
#
# Poissons Ratio (x) = 0.29907 0.21517
# Poissons Ratio (y) = 0.41493 0.12337
# Poissons Ratio (z) = 0.26256 0.10850
#
# Static dielectric constant tensor:
#      x y z
#    x 1.742110 0.040870 0.374240 
#    y 0.040870 2.154140 -0.089270 
#    z 0.374240 -0.089270 1.613180 
# 
# From -- ./inp_files/43302.got.cif
#   From: 2010.05.17/outbox.cif.g08.bks.cpg/sg2_22_cif.got.tgz:43302.got - 2010.06.03 11:33:40.
