data_PCOD9083388
_publ_section_title
;
Structure prediction by ZEFSAII (Michael W. Deem and Ramdas Pophale) SiO2 
 PCOD9083388
Probable space group: P -1
;
_chemical_formula_sum "Si O2"
_cell_formula_units_Z 16
_cell_length_a 10.092207
_cell_length_b 13.858956
_cell_length_c 7.024378
_cell_angle_alpha 140.209762
_cell_angle_beta 87.695814
_cell_angle_gamma 92.946739
_cell_volume 627.935785
_symmetry_space_group_name_H-M "P -1"
_symmetry_group_IT_number 2
_symmetry_cell_setting 'triclinic'
loop_
_space_group_symop_operation_xyz
x,y,z
-x,-y,-z
loop_
_atom_site_type_symbol
_atom_site_label
_atom_site_fract_x
_atom_site_fract_y
_atom_site_fract_z
Si Si1 0.975679 0.617530 0.401422
Si Si2 0.932668 0.796426 0.350357
Si Si3 0.317727 0.840213 0.042536
Si Si4 0.598866 0.346599 0.893491
Si Si5 0.315687 0.393414 0.465919
Si Si6 0.636404 0.831011 0.573394
Si Si7 0.273168 0.555222 0.358123
Si Si8 0.005758 0.879658 0.072993
O O1 0.112460 0.558338 0.382885
O O2 0.988378 0.651413 0.228147
O O3 0.831677 0.553935 0.376983
O O4 0.968496 0.789464 0.750513
O O5 0.781402 0.804446 0.436672
O O6 0.937887 0.793598 0.120923
O O7 0.019931 0.944415 0.634017
O O8 0.346946 0.784057 0.169177
O O9 0.162309 0.871636 0.083777
O O10 0.390371 0.993254 0.195650
O O11 0.334187 0.700337 0.687938
O O12 0.470367 0.272959 0.688571
O O13 0.686141 0.416134 0.818805
O O14 0.586719 0.487546 0.251002
O O15 0.347896 0.231176 0.305857
O O16 0.316156 0.414855 0.272372
#
# Coordination Sequence:
#
# PCOD9083388 Si02
#       8
#     2   2   2   2   2   2   2   2
#     4  10  19  34  55  81 110 141 183 231 276 328
#     4   9  18  32  53  83 112 143 180 224 281 334
#     4   9  20  39  60  86 112 140 189 237 277 332
#     4  11  22  39  59  80 114 155 188 226 276 328
#     4  10  23  39  56  82 114 149 190 230 275 333
#     4  10  21  39  59  82 115 149 187 234 274 325
#     4  10  22  38  59  84 113 149 184 229 284 333
#     4   9  17  32  55  82 113 141 175 229 286 330
#
# _framework density 25.480315000000001
#
# number of rings (size 3 to 8) (size 9 to 14) (size 15 to 20)
#    0.000    2.250    0.000    2.250    0.000    4.500 
#    0.000    6.250    0.000    0.000    0.000    0.000 
#    0.000    0.000    0.000    0.000    0.000    0.000 
#
# Total GULP energy -89527.264293 kJ/mol
# GULP energy per Si atom -5595.454018 kJ/mol
# Density = 2.542232 g / cm^3
# Si number density = 25.480315 Si / 1000 Ang^3
#
#
#
# Elastic Constant Matrix: (Units=GPa)
#
#
# Indices 1 2 3 4 5 6 
#
# 1 91.6467 27.2269 20.3118 -4.6618 21.8203 19.5457
# 2 27.2269 206.7062 63.1089 -18.0982 5.9573 -0.6136
# 3 20.3118 63.1089 75.0810 -3.9179 19.9413 0.7424
# 4 -4.6618 -18.0982 -3.9179 48.7763 6.0211 4.9927
# 5 21.8203 5.9573 19.9413 6.0211 36.5121 -0.8705
# 6 19.5457 -0.6136 0.7424 4.9927 -0.8705 26.4505
#
#
#
# Elastic Compliance Matrix: (Units=1/GPa)
#
#
# Indices 1 2 3 4 5 6 
#
# 1 0.017132 -0.001646 -0.000020 0.003781 -0.010911 -0.013770
# 2 -0.001646 0.006976 -0.006156 0.001424 0.003006 0.001381
# 3 -0.000020 -0.006156 0.021448 0.000908 -0.010877 -0.001259
# 4 0.003781 0.001424 0.000908 0.023080 -0.006970 -0.007373
# 5 -0.010911 0.003006 -0.010877 -0.006970 0.040773 0.011095
# 6 -0.013770 0.001381 -0.001259 -0.007373 0.011095 0.049806
#
#
# Mechanical properties :
#
#
# Convention : Reuss Voigt Hill
#
# Bulk Modulus (GPa) = 33.43177 66.08102 49.75639
# Shear Modulus (GPa) = 27.05204 39.86687 33.45946
#
# Velocity S-wave (km/s) = 3.26188 3.95981 3.62767
# Velocity P-wave (km/s) = 5.22835 6.84816 6.09233
#
# Compressibility (1/GPa) = 0.02991167
#
# Stress axis : x y z
#
# Youngs Moduli (GPa) = 58.37140 143.34238 46.62486
#
# Poissons Ratio (x) = 0.23591 0.00093
# Poissons Ratio (y) = 0.09607 0.28703
# Poissons Ratio (z) = 0.00117 0.88245
#
# Static dielectric constant tensor:
#      x y z
#    x 2.000080 0.001470 -0.037500 
#    y 0.001470 2.038940 0.038850 
#    z -0.037500 0.038850 1.998550 
# 
# From -- ./inp_files/72387.got.cif
#   From: 2010.05.17/outbox.cif.g08.bks.cpg/sg2_37_cif.got.tgz:72387.got - 2010.06.03 11:33:40.
