data_PCOD9083607
_publ_section_title
;
Structure prediction by ZEFSAII (Michael W. Deem and Ramdas Pophale) SiO2 
 PCOD9083607
Probable space group: P -1
;
_chemical_formula_sum "Si O2"
_cell_formula_units_Z 16
_cell_length_a 24.039619
_cell_length_b 11.676401
_cell_length_c 12.824985
_cell_angle_alpha 145.725499
_cell_angle_beta 158.486056
_cell_angle_gamma 32.447040
_cell_volume 692.563196
_symmetry_space_group_name_H-M "P -1"
_symmetry_group_IT_number 2
_symmetry_cell_setting 'triclinic'
loop_
_space_group_symop_operation_xyz
x,y,z
-x,-y,-z
loop_
_atom_site_type_symbol
_atom_site_label
_atom_site_fract_x
_atom_site_fract_y
_atom_site_fract_z
Si Si1 0.466969 0.449669 0.523295
Si Si2 0.018017 0.028568 0.396083
Si Si3 0.140080 0.549741 0.149343
Si Si4 0.231601 0.074983 0.998238
Si Si5 0.523094 0.973134 0.293648
Si Si6 0.955530 0.879912 0.706979
Si Si7 0.116544 0.237725 0.297568
Si Si8 0.403531 0.886310 0.812384
O O1 0.500000 0.500000 0.500000
O O2 0.553000 0.199976 0.514163
O O3 0.501946 0.628946 0.788423
O O4 0.281143 0.495476 0.266930
O O5 0.838147 0.036882 0.118833
O O6 0.114071 0.075193 0.695678
O O7 0.007097 0.186019 0.397768
O O8 0.113643 0.773205 0.334598
O O9 0.189284 0.332089 0.140562
O O10 0.981069 0.599052 0.839414
O O11 0.420540 0.963792 0.210476
O O12 0.696268 0.804615 0.431945
O O13 0.397284 0.977647 0.985282
O O14 0.946957 0.715651 0.658706
O O15 0.768234 0.049166 0.497569
O O16 0.070851 0.017695 0.036181
O O17 0.500000 0.000000 0.000000
#
# Coordination Sequence:
#
# PCOD9083607 Si02
#       8
#     2   2   2   2   2   2   2   2
#     4  11  20  32  54  84 111 145 192 238 271 337
#     4  10  19  37  61  83 115 148 194 247 272 332
#     4  10  21  38  57  80 120 153 187 229 295 347
#     4  10  21  36  62  90 103 149 210 236 271 331
#     4  11  22  35  59  85 112 147 199 238 279 336
#     4  10  19  34  57  81 115 155 182 219 300 341
#     4  10  20  36  58  84 120 160 172 235 304 350
#     4  12  19  35  56  81 116 151 188 236 284 339
#
# _framework density 23.102585000000001
#
# number of rings (size 3 to 8) (size 9 to 14) (size 15 to 20)
#    0.000    1.500    6.250    0.375    1.750    0.000 
#    0.000    5.625    0.000    3.000    0.000    0.000 
#    0.000    0.000    0.000    0.000    0.000    0.000 
#
# Total GULP energy -89203.727789 kJ/mol
# GULP energy per Si atom -5575.232987 kJ/mol
# Density = 2.305000 g / cm^3
# Si number density = 23.102585 Si / 1000 Ang^3
#
#
#
# Elastic Constant Matrix: (Units=GPa)
#
#
# Indices 1 2 3 4 5 6 
#
# 1 69.3916 14.5869 7.6926 -2.7844 20.5059 -13.4425
# 2 14.5869 34.2829 22.8397 11.3589 3.9548 -5.6805
# 3 7.6926 22.8397 73.0363 -5.1985 15.1173 -7.1922
# 4 -2.7844 11.3589 -5.1985 30.3087 -10.1612 1.6497
# 5 20.5059 3.9548 15.1173 -10.1612 42.0207 -4.6109
# 6 -13.4425 -5.6805 -7.1922 1.6497 -4.6109 19.0915
#
#
#
# Elastic Compliance Matrix: (Units=1/GPa)
#
#
# Indices 1 2 3 4 5 6 
#
# 1 0.020794 -0.009419 0.003840 0.002544 -0.008827 0.010933
# 2 -0.009419 0.053086 -0.016912 -0.023770 0.000481 0.004962
# 3 0.003840 -0.016912 0.020603 0.008254 -0.005322 0.003435
# 4 0.002544 -0.023770 0.008254 0.046752 0.008885 -0.004066
# 5 -0.008827 0.000481 -0.005322 0.008885 0.032001 -0.001116
# 6 0.010933 0.004962 0.003435 -0.004066 -0.001116 0.062930
#
#
# Mechanical properties :
#
#
# Convention : Reuss Voigt Hill
#
# Bulk Modulus (GPa) = 20.20113 29.66103 24.93108
# Shear Modulus (GPa) = 16.79840 27.05697 21.92768
#
# Velocity S-wave (km/s) = 2.69945 3.42594 3.08416
# Velocity P-wave (km/s) = 4.29873 5.34005 4.84743
#
# Compressibility (1/GPa) = 0.04950219
#
# Stress axis : x y z
#
# Youngs Moduli (GPa) = 48.09089 18.83735 48.53622
#
# Poissons Ratio (x) = 0.17743 -0.18639
# Poissons Ratio (y) = 0.45298 0.82083
# Poissons Ratio (z) = -0.18468 0.31857
#
# Static dielectric constant tensor:
#      x y z
#    x 1.947840 -0.036080 0.004710 
#    y -0.036080 1.887270 0.010120 
#    z 0.004710 0.010120 1.875160 
# 
# From -- ./inp_files/544211.got.cif
#   From: 2010.05.17/outbox.cif.g08.bks.cpg/sg2_273_cif.got.tgz:544211.got - 2010.06.03 11:33:40.
