data_PCOD9083070
_publ_section_title
;
Structure prediction by ZEFSAII (Michael W. Deem and Ramdas Pophale) SiO2 
 PCOD9083070
Probable space group: P -1
;
_chemical_formula_sum "Si O2"
_cell_formula_units_Z 16
_cell_length_a 9.128223
_cell_length_b 13.483676
_cell_length_c 13.049389
_cell_angle_alpha 116.106861
_cell_angle_beta 34.342078
_cell_angle_gamma 100.078065
_cell_volume 755.305759
_symmetry_space_group_name_H-M "P -1"
_symmetry_group_IT_number 2
_symmetry_cell_setting 'triclinic'
loop_
_space_group_symop_operation_xyz
x,y,z
-x,-y,-z
loop_
_atom_site_type_symbol
_atom_site_label
_atom_site_fract_x
_atom_site_fract_y
_atom_site_fract_z
Si Si1 0.298520 0.962350 0.675415
Si Si2 0.487121 0.427962 0.705801
Si Si3 0.849068 0.375398 0.286458
Si Si4 0.017397 0.428187 0.825640
Si Si5 0.319772 0.137208 0.893432
Si Si6 0.801845 0.177753 0.506101
Si Si7 0.602295 0.937534 0.805081
Si Si8 0.464801 0.237719 0.379125
O O1 0.129270 0.908850 0.673381
O O2 0.455905 0.855627 0.614350
O O3 0.500000 0.000000 0.500000
O O4 0.161769 0.074591 0.880993
O O5 0.673499 0.449299 0.517304
O O6 0.244196 0.394444 0.772524
O O7 0.695321 0.314208 0.593862
O O8 0.296011 0.536554 0.935760
O O9 0.957653 0.455044 0.187661
O O10 0.643103 0.321551 0.324063
O O11 0.105183 0.257765 0.119509
O O12 0.142332 0.322424 0.624611
O O13 0.535748 0.167574 0.711221
O O14 0.498645 0.040694 0.827362
O O15 0.065751 0.129932 0.405720
O O16 0.491777 0.836762 0.783564
O O17 0.500000 0.000000 0.000000
#
# Coordination Sequence:
#
# PCOD9083070 Si02
#       8
#     2   2   2   2   2   2   2   2
#     4   9  19  33  59  92 115 150 204 254 298 358
#     4  10  19  33  61  92 118 152 197 249 312 353
#     4  11  20  36  66  92 125 150 208 260 306 348
#     4  10  20  37  63  93 124 152 205 261 307 346
#     4  10  22  37  61  87 120 158 203 255 306 354
#     4  11  19  39  58  88 122 161 198 246 309 369
#     4  11  25  38  59  85 127 168 200 241 306 376
#     4  10  21  38  59  92 123 159 203 253 302 362
#
# _framework density 21.183475000000001
#
# number of rings (size 3 to 8) (size 9 to 14) (size 15 to 20)
#    0.000    1.750    3.750    2.625    1.750    1.000 
#    0.000    0.625   13.750    3.750    0.000    0.000 
#    0.000    0.000    0.000    0.000    0.000    0.000 
#
# Total GULP energy -89289.329553 kJ/mol
# GULP energy per Si atom -5580.583097 kJ/mol
# Density = 2.113526 g / cm^3
# Si number density = 21.183475 Si / 1000 Ang^3
#
#
#
# Elastic Constant Matrix: (Units=GPa)
#
#
# Indices 1 2 3 4 5 6 
#
# 1 68.4546 19.2965 24.3705 5.9860 -0.6797 -11.4387
# 2 19.2965 72.3287 28.6957 4.0355 1.8855 -14.9630
# 3 24.3705 28.6957 111.0861 7.9272 -0.0652 -8.9970
# 4 5.9860 4.0355 7.9272 30.0003 -6.6764 -5.4686
# 5 -0.6797 1.8855 -0.0652 -6.6764 35.8509 6.2132
# 6 -11.4387 -14.9630 -8.9970 -5.4686 6.2132 22.2089
#
#
#
# Elastic Compliance Matrix: (Units=1/GPa)
#
#
# Indices 1 2 3 4 5 6 
#
# 1 0.017329 -0.002173 -0.002623 -0.001536 -0.000937 0.006283
# 2 -0.002173 0.017949 -0.003329 0.000187 -0.002767 0.010445
# 3 -0.002623 -0.003329 0.010593 -0.001826 -0.000251 0.000318
# 4 -0.001536 0.000187 -0.001826 0.036457 0.005711 0.005975
# 5 -0.000937 -0.002767 -0.000251 0.005711 0.030756 -0.009646
# 6 0.006283 0.010445 0.000318 0.005975 -0.009646 0.059599
#
#
# Mechanical properties :
#
#
# Convention : Reuss Voigt Hill
#
# Bulk Modulus (GPa) = 33.75795 44.06607 38.91201
# Shear Modulus (GPa) = 25.15019 29.57913 27.36466
#
# Velocity S-wave (km/s) = 3.44940 3.74080 3.59805
# Velocity P-wave (km/s) = 5.64225 6.28533 5.97245
#
# Compressibility (1/GPa) = 0.02962265
#
# Stress axis : x y z
#
# Youngs Moduli (GPa) = 57.70585 55.71450 94.40022
#
# Poissons Ratio (x) = 0.12106 0.24757
# Poissons Ratio (y) = 0.12539 0.31424
# Poissons Ratio (z) = 0.15134 0.18546
#
# Static dielectric constant tensor:
#      x y z
#    x 1.798210 -0.001100 0.024470 
#    y -0.001100 1.744170 0.015420 
#    z 0.024470 0.015420 1.833440 
# 
# From -- ./inp_files/399238.got.cif
#   From: 2010.05.17/outbox.cif.g08.bks.cpg/sg2_200_cif.got.tgz:399238.got - 2010.06.03 11:33:40.
