data_PCOD9083300
_publ_section_title
;
Structure prediction by ZEFSAII (Michael W. Deem and Ramdas Pophale) SiO2 
 PCOD9083300
Probable space group: P -1
;
_chemical_formula_sum "Si O2"
_cell_formula_units_Z 14
_cell_length_a 23.152209
_cell_length_b 14.146841
_cell_length_c 13.028969
_cell_angle_alpha 33.299568
_cell_angle_beta 154.349356
_cell_angle_gamma 162.213727
_cell_volume 556.015662
_symmetry_space_group_name_H-M "P -1"
_symmetry_group_IT_number 2
_symmetry_cell_setting 'triclinic'
loop_
_space_group_symop_operation_xyz
x,y,z
-x,-y,-z
loop_
_atom_site_type_symbol
_atom_site_label
_atom_site_fract_x
_atom_site_fract_y
_atom_site_fract_z
Si Si1 0.792235 0.782399 0.211592
Si Si2 0.441748 0.255426 0.748724
Si Si3 0.348598 0.576820 0.873131
Si Si4 0.138834 0.719698 0.420434
Si Si5 0.881411 0.406071 0.090490
Si Si6 0.548658 0.356896 0.588719
Si Si7 0.937541 0.189807 0.228386
O O1 0.812304 0.717607 0.190276
O O2 0.888627 0.750863 0.480599
O O3 0.926179 0.101824 0.173647
O O4 0.500000 0.500000 0.000000
O O5 0.510451 0.319036 0.683332
O O6 0.345376 0.342697 0.541049
O O7 0.254675 0.900425 0.792363
O O8 0.674480 0.478431 0.992249
O O9 0.285719 0.706115 0.632783
O O10 0.641622 0.863977 0.068996
O O11 0.000000 0.500000 0.500000
O O12 0.013797 0.636069 0.189307
O O13 0.293655 0.049990 0.403851
O O14 0.010770 0.451693 0.160384
O O15 0.684785 0.328276 0.807102
#
# Coordination Sequence:
#
# PCOD9083300 Si02
#       7
#     2   2   2   2   2   2   2
#     4   9  17  30  53  89 112 136 191 238 279 349
#     4  10  21  38  57  78 116 157 191 236 286 335
#     4  10  19  34  54  81 114 149 188 235 283 337
#     4  12  21  33  58  84 114 153 193 234 281 331
#     4  11  20  37  58  81 112 153 189 237 288 336
#     4  11  22  39  53  82 118 152 196 240 276 341
#     4   9  17  31  55  83 111 147 187 231 290 339
#
# _framework density 25.179144999999998
#
# number of rings (size 3 to 8) (size 9 to 14) (size 15 to 20)
#    0.000    1.714    5.714    1.286    0.000    0.000 
#    2.571    2.143    0.000    0.857    0.000   14.000 
#    0.000    0.000    0.000    0.000    0.000    0.000 
#
# Total GULP energy -78078.197688 kJ/mol
# GULP energy per Si atom -5577.014121 kJ/mol
# Density = 2.512184 g / cm^3
# Si number density = 25.179145 Si / 1000 Ang^3
#
#
#
# Elastic Constant Matrix: (Units=GPa)
#
#
# Indices 1 2 3 4 5 6 
#
# 1 81.1801 28.6122 -9.6329 18.5114 -15.1203 -39.5004
# 2 28.6122 96.8853 13.1279 11.0241 -4.3489 -35.5421
# 3 -9.6329 13.1279 63.0453 16.1401 15.2208 -6.4961
# 4 18.5114 11.0241 16.1401 42.2850 -25.5650 -13.0240
# 5 -15.1203 -4.3489 15.2208 -25.5650 48.2929 10.0820
# 6 -39.5004 -35.5421 -6.4961 -13.0240 10.0820 58.2833
#
#
#
# Elastic Compliance Matrix: (Units=1/GPa)
#
#
# Indices 1 2 3 4 5 6 
#
# 1 0.022338 -0.001886 0.009564 -0.012090 -0.005363 0.013281
# 2 -0.001886 0.013702 -0.002692 0.000630 0.000395 0.006850
# 3 0.009564 -0.002692 0.030887 -0.027030 -0.022575 0.006148
# 4 -0.012090 0.000630 -0.027030 0.060747 0.037737 -0.003775
# 5 -0.005363 0.000395 -0.022575 0.037737 0.047338 -0.005666
# 6 0.013281 0.006850 0.006148 -0.003775 -0.005666 0.031158
#
#
# Mechanical properties :
#
#
# Convention : Reuss Voigt Hill
#
# Bulk Modulus (GPa) = 13.00396 33.92502 23.46449
# Shear Modulus (GPa) = 22.53972 43.70579 33.12275
#
# Velocity S-wave (km/s) = 2.99519 4.17080 3.63089
# Velocity P-wave (km/s) = 4.13973 6.05779 5.18817
#
# Compressibility (1/GPa) = 0.07689964
#
# Stress axis : x y z
#
# Youngs Moduli (GPa) = 44.76654 72.98108 32.37622
#
# Poissons Ratio (x) = 0.13762 -0.30965
# Poissons Ratio (y) = 0.08442 0.08716
# Poissons Ratio (z) = -0.42815 0.19647
#
# Static dielectric constant tensor:
#      x y z
#    x 2.121990 0.038230 0.048160 
#    y 0.038230 2.003690 -0.006990 
#    z 0.048160 -0.006990 2.036870 
# 
# From -- ./inp_files/315584.got.cif
#   From: 2010.05.17/outbox.cif.g08.bks.cpg/sg2_158_cif.got.tgz:315584.got - 2010.06.03 11:33:40.
