data_PCOD9083450
_publ_section_title
;
Structure prediction by ZEFSAII (Michael W. Deem and Ramdas Pophale) SiO2 
 PCOD9083450
Probable space group: P -1
;
_chemical_formula_sum "Si O2"
_cell_formula_units_Z 16
_cell_length_a 7.744172
_cell_length_b 22.987147
_cell_length_c 11.762989
_cell_angle_alpha 150.621195
_cell_angle_beta 109.655442
_cell_angle_gamma 51.312560
_cell_volume 672.821208
_symmetry_space_group_name_H-M "P -1"
_symmetry_group_IT_number 2
_symmetry_cell_setting 'triclinic'
loop_
_space_group_symop_operation_xyz
x,y,z
-x,-y,-z
loop_
_atom_site_type_symbol
_atom_site_label
_atom_site_fract_x
_atom_site_fract_y
_atom_site_fract_z
Si Si1 0.225065 0.326178 0.493673
Si Si2 0.073833 0.215526 0.751343
Si Si3 0.194425 0.173009 0.043972
Si Si4 0.899146 0.150235 0.809488
Si Si5 0.330142 0.440493 0.494558
Si Si6 0.233066 0.467446 0.938339
Si Si7 0.636862 0.528256 0.781636
Si Si8 0.501331 0.142314 0.865549
O O1 0.304826 0.168464 0.179007
O O2 0.258373 0.409571 0.544605
O O3 0.362656 0.315734 0.618653
O O4 0.923694 0.437175 0.652179
O O5 0.299811 0.201842 0.820266
O O6 0.931765 0.242613 0.882610
O O7 0.214114 0.036763 0.418953
O O8 0.887507 0.370841 0.888002
O O9 0.936210 0.377671 0.307749
O O10 0.414376 0.085921 0.848185
O O11 0.066846 0.104223 0.878712
O O12 0.593491 0.278949 0.986957
O O13 0.000000 0.000000 0.500000
O O14 0.548503 0.441385 0.565588
O O15 0.440045 0.288410 0.175293
O O16 0.382818 0.451799 0.052256
O O17 0.000000 0.500000 0.000000
#
# Coordination Sequence:
#
# PCOD9083450 Si02
#       8
#     2   2   2   2   2   2   2   2
#     4  10  19  34  56  79 108 142 182 235 275 313
#     4  10  20  35  56  82 114 152 185 226 286 336
#     4   9  18  32  54  83 110 141 188 227 276 344
#     4  10  22  35  53  86 118 144 183 231 284 343
#     4  10  19  34  56  84 110 143 187 229 281 337
#     4  10  21  37  58  81 108 148 196 230 269 334
#     4  10  23  37  56  83 112 147 192 232 270 333
#     4   9  18  33  58  83 111 143 178 233 292 330
#
# _framework density 23.780463000000001
#
# number of rings (size 3 to 8) (size 9 to 14) (size 15 to 20)
#    0.000    2.250    0.000    4.500    0.000   13.000 
#    0.000    0.625    0.000   18.750    0.000    0.000 
#    0.000    0.000    0.000    0.000    0.000    0.000 
#
# Total GULP energy -89321.374998 kJ/mol
# GULP energy per Si atom -5582.585937 kJ/mol
# Density = 2.372634 g / cm^3
# Si number density = 23.780463 Si / 1000 Ang^3
#
#
#
# Elastic Constant Matrix: (Units=GPa)
#
#
# Indices 1 2 3 4 5 6 
#
# 1 79.2192 6.0195 16.8039 -5.4368 -2.9669 0.2829
# 2 6.0195 90.5306 40.2440 -32.1245 3.4345 6.4913
# 3 16.8039 40.2440 104.0014 -42.5760 14.8493 -9.5074
# 4 -5.4368 -32.1245 -42.5760 42.5795 -1.3610 -1.8859
# 5 -2.9669 3.4345 14.8493 -1.3610 43.9707 -14.8470
# 6 0.2829 6.4913 -9.5074 -1.8859 -14.8470 25.1921
#
#
#
# Elastic Compliance Matrix: (Units=1/GPa)
#
#
# Indices 1 2 3 4 5 6 
#
# 1 0.013222 -0.000073 -0.002870 -0.001193 0.001736 -0.000279
# 2 -0.000073 0.015916 -0.002701 0.008988 -0.001946 -0.005594
# 3 -0.002870 -0.002701 0.019278 0.017079 -0.003534 0.007200
# 4 -0.001193 0.008988 0.017079 0.047351 -0.003107 0.005857
# 5 0.001736 -0.001946 -0.003534 -0.003107 0.029641 0.016385
# 6 -0.000279 -0.005594 0.007200 0.005857 0.016385 0.053952
#
#
# Mechanical properties :
#
#
# Convention : Reuss Voigt Hill
#
# Bulk Modulus (GPa) = 26.93341 44.43178 35.68260
# Shear Modulus (GPa) = 24.62774 36.39406 30.51090
#
# Velocity S-wave (km/s) = 3.22161 3.91630 3.58582
# Velocity P-wave (km/s) = 5.01885 6.25896 5.67289
#
# Compressibility (1/GPa) = 0.03712861
#
# Stress axis : x y z
#
# Youngs Moduli (GPa) = 75.63371 62.83096 51.87132
#
# Poissons Ratio (x) = 0.00456 0.14887
# Poissons Ratio (y) = 0.00548 0.14011
# Poissons Ratio (z) = 0.21707 0.16971
#
# Static dielectric constant tensor:
#      x y z
#    x 2.030930 0.022450 0.089340 
#    y 0.022450 1.918610 -0.007290 
#    z 0.089340 -0.007290 1.987810 
# 
# From -- ./inp_files/388258.got.cif
#   From: 2010.05.17/outbox.cif.g08.bks.cpg/sg2_195_cif.got.tgz:388258.got - 2010.06.03 11:33:40.
