data_PCOD9083694
_publ_section_title
;
Structure prediction by ZEFSAII (Michael W. Deem and Ramdas Pophale) SiO2 
 PCOD9083694
Probable space group: P -1
;
_chemical_formula_sum "Si O2"
_cell_formula_units_Z 16
_cell_length_a 11.971090
_cell_length_b 21.881565
_cell_length_c 9.747541
_cell_angle_alpha 130.328987
_cell_angle_beta 155.602861
_cell_angle_gamma 45.456944
_cell_volume 751.389011
_symmetry_space_group_name_H-M "P -1"
_symmetry_group_IT_number 2
_symmetry_cell_setting 'triclinic'
loop_
_space_group_symop_operation_xyz
x,y,z
-x,-y,-z
loop_
_atom_site_type_symbol
_atom_site_label
_atom_site_fract_x
_atom_site_fract_y
_atom_site_fract_z
Si Si1 0.136208 0.791229 0.252895
Si Si2 0.386393 0.029911 0.566592
Si Si3 0.958788 0.208546 0.396263
Si Si4 0.567080 0.166118 0.099772
Si Si5 0.315820 0.616147 0.101550
Si Si6 0.699468 0.557001 0.176815
Si Si7 0.177282 0.291572 0.522721
Si Si8 0.508405 0.154610 0.488179
O O1 0.244167 0.836634 0.560752
O O2 0.311847 0.688383 0.310278
O O3 0.254574 0.816603 0.280404
O O4 0.790369 0.819211 0.896028
O O5 0.375058 0.946907 0.509343
O O6 0.500000 0.000000 0.500000
O O7 0.085731 0.110247 0.340551
O O8 0.592006 0.072594 0.935869
O O9 0.981831 0.268260 0.383394
O O10 0.678662 0.216213 0.181153
O O11 0.220179 0.210631 0.792649
O O12 0.510477 0.601694 0.161929
O O13 0.388219 0.519643 0.096549
O O14 0.004493 0.664747 0.752892
O O15 0.716738 0.631018 0.204229
O O16 0.000000 0.500000 0.500000
O O17 0.415196 0.205656 0.602476
#
# Coordination Sequence:
#
# PCOD9083694 Si02
#       8
#     2   2   2   2   2   2   2   2
#     4  11  23  39  59  82 119 152 194 231 281 350
#     4  10  23  40  58  84 117 150 196 243 285 327
#     4  10  23  39  60  81 114 156 194 237 282 334
#     4  10  24  41  55  82 113 161 192 235 283 331
#     4   9  19  32  59  86 116 144 181 234 293 337
#     4   9  17  33  53  91 115 140 179 232 297 334
#     4  10  19  34  57  87 115 144 191 236 288 337
#     4  11  22  35  60  87 111 153 193 238 284 334
#
# _framework density 21.293897000000001
#
# number of rings (size 3 to 8) (size 9 to 14) (size 15 to 20)
#    0.750    1.250    2.500    0.750    3.500    3.500 
#    0.000    0.000    0.000    1.500    0.000    0.000 
#    0.000    0.000    0.000    0.000    0.000    0.000 
#
# Total GULP energy -89155.232522 kJ/mol
# GULP energy per Si atom -5572.202033 kJ/mol
# Density = 2.124543 g / cm^3
# Si number density = 21.293897 Si / 1000 Ang^3
#
#
#
# Elastic Constant Matrix: (Units=GPa)
#
#
# Indices 1 2 3 4 5 6 
#
# 1 38.7426 18.4645 -1.5471 11.1162 13.8912 11.3341
# 2 18.4645 121.8700 11.7760 22.9585 13.4768 14.3019
# 3 -1.5471 11.7760 41.9403 6.6261 0.1907 -3.8335
# 4 11.1162 22.9585 6.6261 28.8801 3.7316 8.1494
# 5 13.8912 13.4768 0.1907 3.7316 31.0725 5.6368
# 6 11.3341 14.3019 -3.8335 8.1494 5.6368 29.0592
#
#
#
# Elastic Compliance Matrix: (Units=1/GPa)
#
#
# Indices 1 2 3 4 5 6 
#
# 1 0.036356 -0.001629 0.002623 -0.009398 -0.013006 -0.007874
# 2 -0.001629 0.010399 -0.002246 -0.006064 -0.002572 -0.002579
# 3 0.002623 -0.002246 0.026137 -0.006707 -0.000555 0.005519
# 4 -0.009398 -0.006064 -0.006707 0.046450 0.002707 -0.007786
# 5 -0.013006 -0.002572 -0.000555 0.002707 0.039170 -0.002092
# 6 -0.007874 -0.002579 0.005519 -0.007786 -0.002092 0.042070
#
#
# Mechanical properties :
#
#
# Convention : Reuss Voigt Hill
#
# Bulk Modulus (GPa) = 14.20706 28.88218 21.54462
# Shear Modulus (GPa) = 22.07022 29.39299 25.73161
#
# Velocity S-wave (km/s) = 3.22290 3.71933 3.47998
# Velocity P-wave (km/s) = 4.53165 5.66018 5.12706
#
# Compressibility (1/GPa) = 0.07038754
#
# Stress axis : x y z
#
# Youngs Moduli (GPa) = 27.50596 96.16502 38.25952
#
# Poissons Ratio (x) = 0.15665 -0.10034
# Poissons Ratio (y) = 0.04481 0.08592
# Poissons Ratio (z) = -0.07214 0.21597
#
# Static dielectric constant tensor:
#      x y z
#    x 1.760080 0.004780 0.028930 
#    y 0.004780 1.857990 0.022900 
#    z 0.028930 0.022900 1.944950 
# 
# From -- ./inp_files/283309.got.cif
#   From: 2010.05.17/outbox.cif.g08.bks.cpg/sg2_142_cif.got.tgz:283309.got - 2010.06.03 11:33:40.
