data_PCOD9083604
_publ_section_title
;
Structure prediction by ZEFSAII (Michael W. Deem and Ramdas Pophale) SiO2 
 PCOD9083604
Probable space group: P -1
;
_chemical_formula_sum "Si O2"
_cell_formula_units_Z 14
_cell_length_a 12.934242
_cell_length_b 12.418502
_cell_length_c 13.063975
_cell_angle_alpha 130.935533
_cell_angle_beta 90.040603
_cell_angle_gamma 130.801936
_cell_volume 793.793263
_symmetry_space_group_name_H-M "P -1"
_symmetry_group_IT_number 2
_symmetry_cell_setting 'triclinic'
loop_
_space_group_symop_operation_xyz
x,y,z
-x,-y,-z
loop_
_atom_site_type_symbol
_atom_site_label
_atom_site_fract_x
_atom_site_fract_y
_atom_site_fract_z
Si Si1 0.642947 0.267704 0.238508
Si Si2 0.019403 0.937074 0.857111
Si Si3 0.856452 0.425477 0.527698
Si Si4 0.336852 0.390152 0.500196
Si Si5 0.403905 0.308354 0.977571
Si Si6 0.122593 0.812963 0.514545
Si Si7 0.211550 0.170105 0.583300
O O1 0.664151 0.230601 0.331203
O O2 0.575594 0.351731 0.301693
O O3 0.878703 0.550618 0.370098
O O4 0.500000 0.000000 0.000000
O O5 0.959907 0.700139 0.724317
O O6 0.861463 0.808713 0.692927
O O7 0.250847 0.220346 0.990527
O O8 0.000000 0.000000 0.000000
O O9 0.835481 0.306126 0.555965
O O10 0.000000 0.500000 0.500000
O O11 0.500000 0.500000 0.500000
O O12 0.260540 0.215503 0.491911
O O13 0.254647 0.017911 0.742201
O O14 0.500000 0.500000 0.000000
O O15 0.601975 0.511291 0.172186
O O16 0.196411 0.001126 0.538509
O O17 0.000000 0.000000 0.500000
#
# Coordination Sequence:
#
# PCOD9083604 Si02
#       7
#     2   2   2   2   2   2   2
#     4  10  20  34  57  85 119 151 196 242 294 337
#     4  11  21  38  59  87 115 154 198 243 293 350
#     4   9  18  34  57  81 115 149 198 240 278 347
#     4  11  22  37  57  89 120 149 196 245 296 350
#     4  10  19  34  57  81 114 154 193 235 287 344
#     4  10  19  36  56  86 115 153 204 238 282 355
#     4  11  21  35  57  88 120 153 192 248 298 346
#
# _framework density 17.636832999999999
#
# number of rings (size 3 to 8) (size 9 to 14) (size 15 to 20)
#    0.000    1.714    5.714    1.714    2.000    2.286 
#    0.000    0.000    0.000   17.143    0.000    0.000 
#    0.000    0.000    0.000    0.000    0.000    0.000 
#
# Total GULP energy -77937.937602 kJ/mol
# GULP energy per Si atom -5566.995543 kJ/mol
# Density = 1.759669 g / cm^3
# Si number density = 17.636833 Si / 1000 Ang^3
#
#
#
# Elastic Constant Matrix: (Units=GPa)
#
#
# Indices 1 2 3 4 5 6 
#
# 1 98.8506 65.1317 43.2416 -0.3281 -4.2560 -7.6061
# 2 65.1317 130.3211 44.3890 -7.6650 -3.3691 -10.6644
# 3 43.2416 44.3890 120.4460 6.6318 -3.2577 9.2837
# 4 -0.3281 -7.6650 6.6318 26.6759 5.3729 5.2440
# 5 -4.2560 -3.3691 -3.2577 5.3729 27.5860 3.7206
# 6 -7.6061 -10.6644 9.2837 5.2440 3.7206 40.0660
#
#
#
# Elastic Compliance Matrix: (Units=1/GPa)
#
#
# Indices 1 2 3 4 5 6 
#
# 1 0.016362 -0.006919 -0.003363 -0.001635 0.001313 0.002136
# 2 -0.006919 0.012348 -0.002465 0.003836 -0.000884 0.002124
# 3 -0.003363 -0.002465 0.010904 -0.003072 0.001547 -0.003563
# 4 -0.001635 0.003836 -0.003072 0.041550 -0.007795 -0.003292
# 5 0.001313 -0.000884 0.001547 -0.007795 0.038436 -0.002894
# 6 0.002136 0.002124 -0.003563 -0.003292 -0.002894 0.027455
#
#
# Mechanical properties :
#
#
# Convention : Reuss Voigt Hill
#
# Bulk Modulus (GPa) = 70.83143 72.79361 71.81252
# Shear Modulus (GPa) = 28.20771 31.98928 30.09849
#
# Velocity S-wave (km/s) = 4.00354 4.26347 4.13555
# Velocity P-wave (km/s) = 7.84980 8.09935 7.97555
#
# Compressibility (1/GPa) = 0.01411803
#
# Stress axis : x y z
#
# Youngs Moduli (GPa) = 61.11741 80.98592 91.70856
#
# Poissons Ratio (x) = 0.56036 0.30844
# Poissons Ratio (y) = 0.42289 0.22610
# Poissons Ratio (z) = 0.20555 0.19967
#
# Static dielectric constant tensor:
#      x y z
#    x 1.627180 -0.039860 0.011930 
#    y -0.039860 1.610710 0.004250 
#    z 0.011930 0.004250 1.657240 
# 
# From -- ./inp_files/341837.got.cif
#   From: 2010.05.17/outbox.cif.g08.bks.cpg/sg2_171_cif.got.tgz:341837.got - 2010.06.03 11:33:40.
