data_PCOD9083193
_publ_section_title
;
Structure prediction by ZEFSAII (Michael W. Deem and Ramdas Pophale) SiO2 
 PCOD9083193
Probable space group: P -1
;
_chemical_formula_sum "Si O2"
_cell_formula_units_Z 14
_cell_length_a 19.640725
_cell_length_b 20.019036
_cell_length_c 5.542631
_cell_angle_alpha 131.890686
_cell_angle_beta 45.039402
_cell_angle_gamma 154.141891
_cell_volume 668.969257
_symmetry_space_group_name_H-M "P -1"
_symmetry_group_IT_number 2
_symmetry_cell_setting 'triclinic'
loop_
_space_group_symop_operation_xyz
x,y,z
-x,-y,-z
loop_
_atom_site_type_symbol
_atom_site_label
_atom_site_fract_x
_atom_site_fract_y
_atom_site_fract_z
Si Si1 0.893353 0.507889 0.818592
Si Si2 0.543644 0.585438 0.348511
Si Si3 0.851010 0.569935 0.574754
Si Si4 0.455464 0.229288 0.748474
Si Si5 0.147582 0.115362 0.221118
Si Si6 0.514708 0.246211 0.134507
Si Si7 0.102579 0.193927 0.128134
O O1 0.916708 0.586839 0.710532
O O2 0.000000 0.500000 0.500000
O O3 0.921463 0.571774 0.167352
O O4 0.696092 0.341966 0.911739
O O5 0.500000 0.500000 0.500000
O O6 0.474241 0.634776 0.619755
O O7 0.500000 0.500000 0.000000
O O8 0.743007 0.741135 0.221532
O O9 0.650064 0.404486 0.679708
O O10 0.889784 0.702297 0.745979
O O11 0.428293 0.160680 0.396727
O O12 0.329378 0.216335 0.051374
O O13 0.427830 0.153809 0.880865
O O14 0.144826 0.212607 0.349514
O O15 0.000000 0.000000 0.500000
O O16 0.072346 0.985653 0.906384
#
# Coordination Sequence:
#
# PCOD9083193 Si02
#       7
#     2   2   2   2   2   2   2
#     4  10  20  37  60  91 120 141 185 255 312 348
#     4  12  22  33  55  80 114 150 186 233 276 342
#     4  10  22  38  62  90 114 153 197 238 297 354
#     4  10  20  38  55  79 113 151 196 231 277 343
#     4  11  25  38  53  80 127 170 199 235 283 335
#     4  10  19  34  52  81 107 145 190 220 285 344
#     4  11  25  37  54  87 123 160 200 238 281 348
#
# _framework density 20.927716
#
# number of rings (size 3 to 8) (size 9 to 14) (size 15 to 20)
#    0.000    1.429    1.429    5.571    6.000    0.000 
#    0.000    0.000    0.000    0.000    0.000   24.000 
#    0.000    0.000    0.000    0.000    0.000    0.000 
#
# Total GULP energy -78063.015906 kJ/mol
# GULP energy per Si atom -5575.929708 kJ/mol
# Density = 2.088008 g / cm^3
# Si number density = 20.927716 Si / 1000 Ang^3
#
#
#
# Elastic Constant Matrix: (Units=GPa)
#
#
# Indices 1 2 3 4 5 6 
#
# 1 114.6407 14.8871 62.7449 -18.3144 19.3327 -12.0940
# 2 14.8871 49.0807 16.1269 -10.4844 -4.1313 -0.1272
# 3 62.7449 16.1269 139.3168 -22.4731 1.9436 -3.9506
# 4 -18.3144 -10.4844 -22.4731 16.3667 -3.2457 7.8697
# 5 19.3327 -4.1313 1.9436 -3.2457 56.7401 -9.5260
# 6 -12.0940 -0.1272 -3.9506 7.8697 -9.5260 28.2615
#
#
#
# Elastic Compliance Matrix: (Units=1/GPa)
#
#
# Indices 1 2 3 4 5 6 
#
# 1 0.013311 -0.001610 -0.004817 0.005427 -0.003804 0.002222
# 2 -0.001610 0.024597 0.000507 0.017305 0.002563 -0.004462
# 3 -0.004817 0.000507 0.011130 0.012135 0.001420 -0.003404
# 4 0.005427 0.017305 0.012135 0.107356 0.000854 -0.025510
# 5 -0.003804 0.002563 0.001420 0.000854 0.019959 0.005072
# 6 0.002222 -0.004462 -0.003404 -0.025510 0.005072 0.044652
#
#
# Mechanical properties :
#
#
# Convention : Reuss Voigt Hill
#
# Bulk Modulus (GPa) = 26.88320 54.50623 40.69472
# Shear Modulus (GPa) = 20.38773 34.22561 27.30667
#
# Velocity S-wave (km/s) = 3.12460 4.04842 3.61613
# Velocity P-wave (km/s) = 5.08833 6.92492 6.07641
#
# Compressibility (1/GPa) = 0.03719795
#
# Stress axis : x y z
#
# Youngs Moduli (GPa) = 75.12307 40.65508 89.84744
#
# Poissons Ratio (x) = 0.06546 0.43283
# Poissons Ratio (y) = 0.12095 -0.04555
# Poissons Ratio (z) = 0.36189 -0.02061
#
# Static dielectric constant tensor:
#      x y z
#    x 1.939780 0.068320 0.155580 
#    y 0.068320 1.773520 0.025100 
#    z 0.155580 0.025100 1.823660 
# 
# From -- ./inp_files/37530.got.cif
#   From: 2010.05.17/outbox.cif.g08.bks.cpg/sg2_19_cif.got.tgz:37530.got - 2010.06.03 11:33:40.
