data_PCOD9083960
_publ_section_title
;
Structure prediction by ZEFSAII (Michael W. Deem and Ramdas Pophale) SiO2 
 PCOD9083960
Probable space group: P -1
;
_chemical_formula_sum "Si O2"
_cell_formula_units_Z 12
_cell_length_a 10.939947
_cell_length_b 6.872480
_cell_length_c 9.997572
_cell_angle_alpha 113.698574
_cell_angle_beta 134.646256
_cell_angle_gamma 49.929386
_cell_volume 407.479097
_symmetry_space_group_name_H-M "P -1"
_symmetry_group_IT_number 2
_symmetry_cell_setting 'triclinic'
loop_
_space_group_symop_operation_xyz
x,y,z
-x,-y,-z
loop_
_atom_site_type_symbol
_atom_site_label
_atom_site_fract_x
_atom_site_fract_y
_atom_site_fract_z
Si Si1 0.270301 0.537228 0.943900
Si Si2 0.309255 0.854690 0.712226
Si Si3 0.195485 0.207443 0.263855
Si Si4 0.837079 0.905227 0.070378
Si Si5 0.716056 0.236661 0.614980
Si Si6 0.209224 0.461216 0.595809
O O1 0.223302 0.813071 0.942817
O O2 0.336660 0.384763 0.810869
O O3 0.052341 0.609702 0.855864
O O4 0.086291 0.743861 0.227735
O O5 0.251411 0.060612 0.839492
O O6 0.544147 0.623082 0.856302
O O7 0.270602 0.929850 0.549458
O O8 0.180775 0.726499 0.605887
O O9 0.285522 0.297432 0.473483
O O10 0.259983 0.927573 0.283847
O O11 0.238722 0.190970 0.135244
O O12 0.500000 0.500000 0.500000
O O13 0.000000 0.500000 0.500000
#
# Coordination Sequence:
#
# PCOD9083960 Si02
#       6
#     2   2   2   2   2   2
#     4   9  18  36  60  84 111 152 194 230 282 354
#     4  11  21  38  63  90 115 150 196 242 289 345
#     4  10  20  38  62  86 114 153 196 240 288 342
#     4  10  19  34  59  86 112 151 195 232 281 351
#     4  11  22  37  58  88 120 155 194 240 287 343
#     4   9  19  35  59  88 118 151 191 240 291 343
#
# _framework density 29.449359999999999
#
# number of rings (size 3 to 8) (size 9 to 14) (size 15 to 20)
#    0.000    2.000    0.000    7.500    0.000    0.000 
#    0.000    9.167    0.000   18.000    0.000    0.000 
#    0.000    0.000    0.000    0.000    0.000    0.000 
#
# Total GULP energy -67404.099500 kJ/mol
# GULP energy per Si atom -5617.008292 kJ/mol
# Density = 2.938233 g / cm^3
# Si number density = 29.449360 Si / 1000 Ang^3
#
#
#
# Elastic Constant Matrix: (Units=GPa)
#
#
# Indices 1 2 3 4 5 6 
#
# 1 116.6897 40.0029 30.4921 -10.9913 7.0686 -15.1545
# 2 40.0029 133.6285 42.1383 0.9532 3.7589 -16.7764
# 3 30.4921 42.1383 252.0847 17.7823 -50.9064 -5.4721
# 4 -10.9913 0.9532 17.7823 58.2329 -12.1802 0.5378
# 5 7.0686 3.7589 -50.9064 -12.1802 54.5451 -9.6741
# 6 -15.1545 -16.7764 -5.4721 0.5378 -9.6741 44.5394
#
#
#
# Elastic Compliance Matrix: (Units=1/GPa)
#
#
# Indices 1 2 3 4 5 6 
#
# 1 0.010267 -0.002391 -0.001243 0.002023 -0.001504 0.002089
# 2 -0.002391 0.008945 -0.001399 -0.000471 -0.001345 0.002097
# 3 -0.001243 -0.001399 0.005514 -0.000776 0.005392 0.000908
# 4 0.002023 -0.000471 -0.000776 0.018489 0.003337 0.000917
# 5 -0.001504 -0.001345 0.005392 0.003337 0.025303 0.005100
# 6 0.002089 0.002097 0.000908 0.000917 0.005100 0.025161
#
#
# Mechanical properties :
#
#
# Convention : Reuss Voigt Hill
#
# Bulk Modulus (GPa) = 68.21464 80.85216 74.53340
# Shear Modulus (GPa) = 46.02673 57.44811 51.73742
#
# Velocity S-wave (km/s) = 3.95766 4.42151 4.19600
# Velocity P-wave (km/s) = 6.64061 7.31988 6.98850
#
# Compressibility (1/GPa) = 0.01465961
#
# Stress axis : x y z
#
# Youngs Moduli (GPa) = 97.39613 111.79488 181.34235
#
# Poissons Ratio (x) = 0.26735 0.22545
# Poissons Ratio (y) = 0.23292 0.25367
# Poissons Ratio (z) = 0.12109 0.15639
#
# Static dielectric constant tensor:
#      x y z
#    x 2.236520 0.007010 0.018580 
#    y 0.007010 2.268240 0.077520 
#    z 0.018580 0.077520 2.237050 
# 
# From -- ./inp_files/192267.got.cif
#   From: 2010.05.17/outbox.cif.g08.bks.cpg/sg2_97_cif.got.tgz:192267.got - 2010.06.03 11:33:40.
