data_PCOD9083962
_publ_section_title
;
Structure prediction by ZEFSAII (Michael W. Deem and Ramdas Pophale) SiO2 
 PCOD9083962
Probable space group: P -1
;
_chemical_formula_sum "Si O2"
_cell_formula_units_Z 12
_cell_length_a 6.770119
_cell_length_b 9.516328
_cell_length_c 11.021664
_cell_angle_alpha 55.471342
_cell_angle_beta 119.562477
_cell_angle_gamma 130.271707
_cell_volume 437.147894
_symmetry_space_group_name_H-M "P -1"
_symmetry_group_IT_number 2
_symmetry_cell_setting 'triclinic'
loop_
_space_group_symop_operation_xyz
x,y,z
-x,-y,-z
loop_
_atom_site_type_symbol
_atom_site_label
_atom_site_fract_x
_atom_site_fract_y
_atom_site_fract_z
Si Si1 0.982262 0.232212 0.185181
Si Si2 0.916715 0.286286 0.523207
Si Si3 0.363614 0.208946 0.693303
Si Si4 0.744220 0.788131 0.057421
Si Si5 0.073567 0.618506 0.156695
Si Si6 0.423634 0.153825 0.266232
O O1 0.027440 0.415927 0.186487
O O2 0.257953 0.241041 0.239033
O O3 0.785528 0.017451 0.284927
O O4 0.875984 0.245703 0.013730
O O5 0.692452 0.225879 0.383640
O O6 0.000000 0.500000 0.500000
O O7 0.185253 0.297364 0.551962
O O8 0.772344 0.085892 0.661714
O O9 0.345542 0.217676 0.830611
O O10 0.671488 0.302174 0.720081
O O11 0.835659 0.628676 0.143555
O O12 0.546750 0.774695 0.899238
O O13 0.000000 0.000000 0.000000
#
# Coordination Sequence:
#
# PCOD9083962 Si02
#       6
#     2   2   2   2   2   2
#     4   9  18  34  54  85 116 153 192 235 296 347
#     4  10  19  34  59  86 112 160 204 229 292 363
#     4  11  21  38  64  87 118 159 196 245 301 347
#     4  11  20  39  62  94 121 151 197 254 303 342
#     4  10  20  35  58  87 123 152 192 245 298 359
#     4   9  19  36  57  83 123 153 190 251 291 344
#
# _framework density 27.450664
#
# number of rings (size 3 to 8) (size 9 to 14) (size 15 to 20)
#    0.000    2.000    5.000    1.500    0.000    0.000 
#    0.000   16.667    0.000    9.000    0.000    0.000 
#    0.000    0.000    0.000    0.000    0.000    0.000 
#
# Total GULP energy -67367.127763 kJ/mol
# GULP energy per Si atom -5613.927314 kJ/mol
# Density = 2.738818 g / cm^3
# Si number density = 27.450664 Si / 1000 Ang^3
#
#
#
# Elastic Constant Matrix: (Units=GPa)
#
#
# Indices 1 2 3 4 5 6 
#
# 1 104.4782 43.9940 61.9781 2.7140 30.4755 -7.7402
# 2 43.9940 147.7677 51.1332 -17.3827 40.3293 -19.9757
# 3 61.9781 51.1332 179.3964 2.5850 43.3866 7.1390
# 4 2.7140 -17.3827 2.5850 56.5838 6.3496 22.5124
# 5 30.4755 40.3293 43.3866 6.3496 60.4332 2.7131
# 6 -7.7402 -19.9757 7.1390 22.5124 2.7131 45.9424
#
#
#
# Elastic Compliance Matrix: (Units=1/GPa)
#
#
# Indices 1 2 3 4 5 6 
#
# 1 0.013614 -0.001786 -0.003554 -0.001977 -0.003059 0.003218
# 2 -0.001786 0.009848 -0.001071 0.002460 -0.005306 0.003255
# 3 -0.003554 -0.001071 0.007967 0.000840 -0.003187 -0.002526
# 4 -0.001977 0.002460 0.000840 0.023014 -0.003196 -0.010482
# 5 -0.003059 -0.005306 -0.003187 -0.003196 0.024353 -0.002200
# 6 0.003218 0.003255 -0.002526 -0.010482 -0.002200 0.029383
#
#
# Mechanical properties :
#
#
# Convention : Reuss Voigt Hill
#
# Bulk Modulus (GPa) = 53.74928 82.87255 68.31091
# Shear Modulus (GPa) = 39.30718 50.89433 45.10075
#
# Velocity S-wave (km/s) = 3.78818 4.31052 4.05776
# Velocity P-wave (km/s) = 6.22548 7.41817 6.84784
#
# Compressibility (1/GPa) = 0.01860490
#
# Stress axis : x y z
#
# Youngs Moduli (GPa) = 73.45534 101.54808 125.52195
#
# Poissons Ratio (x) = 0.18136 0.44612
# Poissons Ratio (y) = 0.13119 0.13449
# Poissons Ratio (z) = 0.26107 0.10881
#
# Static dielectric constant tensor:
#      x y z
#    x 2.150700 0.038410 -0.033300 
#    y 0.038410 2.116550 -0.014500 
#    z -0.033300 -0.014500 2.142300 
# 
# From -- ./inp_files/489018.got.cif
#   From: 2010.05.17/outbox.cif.g08.bks.cpg/sg2_245_cif.got.tgz:489018.got - 2010.06.03 11:33:40.
