data_PCOD9083090
_publ_section_title
;
Structure prediction by ZEFSAII (Michael W. Deem and Ramdas Pophale) SiO2 
 PCOD9083090
Probable space group: P -1
;
_chemical_formula_sum "Si O2"
_cell_formula_units_Z 16
_cell_length_a 13.818384
_cell_length_b 13.678862
_cell_length_c 15.033055
_cell_angle_alpha 148.279966
_cell_angle_beta 152.820258
_cell_angle_gamma 34.198964
_cell_volume 652.461748
_symmetry_space_group_name_H-M "P -1"
_symmetry_group_IT_number 2
_symmetry_cell_setting 'triclinic'
loop_
_space_group_symop_operation_xyz
x,y,z
-x,-y,-z
loop_
_atom_site_type_symbol
_atom_site_label
_atom_site_fract_x
_atom_site_fract_y
_atom_site_fract_z
Si Si1 0.830588 0.798229 0.554271
Si Si2 0.731771 0.413535 0.548075
Si Si3 0.122875 0.002974 0.008284
Si Si4 0.085591 0.271298 0.020096
Si Si5 0.794483 0.757927 0.295712
Si Si6 0.458931 0.181394 0.507520
Si Si7 0.392182 0.457998 0.162720
Si Si8 0.899404 0.113612 0.594267
O O1 0.800188 0.707590 0.365175
O O2 0.725706 0.722161 0.493636
O O3 0.676883 0.025375 0.603924
O O4 0.079258 0.813094 0.780783
O O5 0.544905 0.366099 0.298955
O O6 0.760015 0.312347 0.588829
O O7 0.958737 0.338877 0.617432
O O8 0.718662 0.636808 0.729858
O O9 0.350691 0.042736 0.253648
O O10 0.041956 0.170785 0.997468
O O11 0.000000 0.000000 0.000000
O O12 0.866278 0.446859 0.952964
O O13 0.089677 0.133349 0.832697
O O14 0.764917 0.987473 0.436959
O O15 0.620244 0.686209 0.039608
O O16 0.521573 0.359352 0.652264
O O17 0.000000 0.000000 0.500000
#
# Coordination Sequence:
#
# PCOD9083090 Si02
#       8
#     2   2   2   2   2   2   2   2
#     4  10  20  38  58  86 118 149 194 241 287 337
#     4  10  23  39  60  85 113 153 198 237 287 345
#     4  10  19  33  62  90 111 148 195 236 282 342
#     4  11  20  40  64  85 119 151 190 245 288 333
#     4  10  22  39  58  82 121 155 185 244 293 338
#     4  10  20  35  61  87 113 152 196 237 281 349
#     4  11  22  37  59  87 117 155 193 234 286 347
#     4  10  21  41  62  84 116 153 192 241 295 340
#
# _framework density 24.52251
#
# number of rings (size 3 to 8) (size 9 to 14) (size 15 to 20)
#    0.000    1.750    3.750    0.375    0.000    2.500 
#    0.000    0.625    0.000    0.000    0.000    0.000 
#    0.000    0.000    0.000    0.000    0.000    0.000 
#
# Total GULP energy -89310.026155 kJ/mol
# GULP energy per Si atom -5581.876635 kJ/mol
# Density = 2.446670 g / cm^3
# Si number density = 24.522510 Si / 1000 Ang^3
#
#
#
# Elastic Constant Matrix: (Units=GPa)
#
#
# Indices 1 2 3 4 5 6 
#
# 1 75.6116 12.4162 41.6166 -10.2755 -11.8533 -10.3441
# 2 12.4162 28.9766 13.9553 -9.3287 -6.3094 10.4261
# 3 41.6166 13.9553 175.4797 -16.5297 -25.7470 0.5383
# 4 -10.2755 -9.3287 -16.5297 37.5638 7.7225 -1.6440
# 5 -11.8533 -6.3094 -25.7470 7.7225 45.2691 -11.2651
# 6 -10.3441 10.4261 0.5383 -1.6440 -11.2651 17.2766
#
#
#
# Elastic Compliance Matrix: (Units=1/GPa)
#
#
# Indices 1 2 3 4 5 6 
#
# 1 0.023573 -0.017875 -0.002803 0.000118 0.009893 0.031451
# 2 -0.017875 0.063770 -0.001504 0.010376 -0.012415 -0.056247
# 3 -0.002803 -0.001504 0.007069 0.001378 0.003137 0.001186
# 4 0.000118 0.010376 0.001378 0.030488 -0.004500 -0.006266
# 5 0.009893 -0.012415 0.003137 -0.004500 0.034271 0.035236
# 6 0.031451 -0.056247 0.001186 -0.006266 0.035236 0.132999
#
#
# Mechanical properties :
#
#
# Convention : Reuss Voigt Hill
#
# Bulk Modulus (GPa) = 19.98042 46.22713 33.10378
# Shear Modulus (GPa) = 14.15568 34.16055 24.15811
#
# Velocity S-wave (km/s) = 2.40521 3.73638 3.14210
# Velocity P-wave (km/s) = 3.98483 6.12420 5.16647
#
# Compressibility (1/GPa) = 0.05004899
#
# Stress axis : x y z
#
# Youngs Moduli (GPa) = 42.42138 15.68141 141.45436
#
# Poissons Ratio (x) = 0.28031 0.39646
# Poissons Ratio (y) = 0.75828 0.21272
# Poissons Ratio (z) = 0.11890 0.02358
#
# Static dielectric constant tensor:
#      x y z
#    x 2.020120 -0.061810 -0.015390 
#    y -0.061810 2.063100 0.021720 
#    z -0.015390 0.021720 1.985470 
# 
# From -- ./inp_files/272650.got.cif
#   From: 2010.05.17/outbox.cif.g08.bks.cpg/sg2_137_cif.got.tgz:272650.got - 2010.06.03 11:33:40.
