data_PCOD9083951
_publ_section_title
;
Structure prediction by ZEFSAII (Michael W. Deem and Ramdas Pophale) SiO2 
 PCOD9083951
Probable space group: P -1
;
_chemical_formula_sum "Si O2"
_cell_formula_units_Z 14
_cell_length_a 14.096425
_cell_length_b 22.360158
_cell_length_c 8.234998
_cell_angle_alpha 40.208754
_cell_angle_beta 43.051833
_cell_angle_gamma 19.275018
_cell_volume 552.559025
_symmetry_space_group_name_H-M "P -1"
_symmetry_group_IT_number 2
_symmetry_cell_setting 'triclinic'
loop_
_space_group_symop_operation_xyz
x,y,z
-x,-y,-z
loop_
_atom_site_type_symbol
_atom_site_label
_atom_site_fract_x
_atom_site_fract_y
_atom_site_fract_z
Si Si1 0.252735 0.922937 0.380791
Si Si2 0.696905 0.944738 0.754097
Si Si3 0.735287 0.545490 0.777243
Si Si4 0.952806 0.267947 0.522392
Si Si5 0.164200 0.331822 0.432962
Si Si6 0.444879 0.663072 0.213983
Si Si7 0.439825 0.873773 0.901301
O O1 0.472886 0.743254 0.596676
O O2 0.133533 0.083031 0.288475
O O3 0.421099 0.860389 0.141326
O O4 0.000000 0.000000 0.500000
O O5 0.877077 0.784657 0.730201
O O6 0.477324 0.129030 0.534433
O O7 0.500000 0.000000 0.000000
O O8 0.903500 0.524859 0.718229
O O9 0.948385 0.393060 0.678856
O O10 0.593280 0.565762 0.051533
O O11 0.666170 0.497596 0.420054
O O12 0.827218 0.244972 0.651969
O O13 0.187369 0.096754 0.716002
O O14 0.247857 0.279093 0.247978
O O15 0.377643 0.809794 0.026461
#
# Coordination Sequence:
#
# PCOD9083951 Si02
#       7
#     2   2   2   2   2   2   2
#     4  11  22  36  59  89 122 159 194 243 309 359
#     4  10  20  37  59  82 116 159 201 243 290 353
#     4   9  17  33  56  82 113 149 200 241 281 352
#     4  10  20  35  58  86 115 155 203 242 290 357
#     4   8  17  33  55  81 108 154 200 236 283 346
#     4  10  19  34  59  85 113 156 203 245 289 351
#     4  10  20  36  56  84 122 153 191 249 305 351
#
# _framework density 25.336660999999999
#
# number of rings (size 3 to 8) (size 9 to 14) (size 15 to 20)
#    0.000    2.286    0.000    3.857    0.000    1.714 
#    0.000    5.714    0.000    7.714    0.000    0.000 
#    0.000    0.000    0.000    0.000    0.000    0.000 
#
# Total GULP energy -78115.937793 kJ/mol
# GULP energy per Si atom -5579.709842 kJ/mol
# Density = 2.527899 g / cm^3
# Si number density = 25.336661 Si / 1000 Ang^3
#
#
#
# Elastic Constant Matrix: (Units=GPa)
#
#
# Indices 1 2 3 4 5 6 
#
# 1 85.5198 20.5645 31.2989 11.5278 1.5191 7.1498
# 2 20.5645 69.0856 24.8647 -7.6257 11.4417 -2.0901
# 3 31.2989 24.8647 117.5894 4.3545 19.4430 9.3998
# 4 11.5278 -7.6257 4.3545 58.5761 0.3727 12.1540
# 5 1.5191 11.4417 19.4430 0.3727 33.0676 1.6821
# 6 7.1498 -2.0901 9.3998 12.1540 1.6821 26.3541
#
#
#
# Elastic Compliance Matrix: (Units=1/GPa)
#
#
# Indices 1 2 3 4 5 6 
#
# 1 0.014270 -0.003913 -0.003156 -0.002688 0.002686 -0.001988
# 2 -0.003913 0.017587 -0.002171 0.002784 -0.004775 0.002251
# 3 -0.003156 -0.002171 0.010922 0.000173 -0.005378 -0.002948
# 4 -0.002688 0.002784 0.000173 0.019640 -0.000750 -0.008121
# 5 0.002686 -0.004775 -0.005378 -0.000750 0.034995 -0.001077
# 6 -0.001988 0.002251 -0.002948 -0.008121 -0.001077 0.043528
#
#
# Mechanical properties :
#
#
# Convention : Reuss Voigt Hill
#
# Bulk Modulus (GPa) = 41.15574 47.29455 44.22514
# Shear Modulus (GPa) = 29.84656 36.63067 33.23862
#
# Velocity S-wave (km/s) = 3.43592 3.80644 3.62592
# Velocity P-wave (km/s) = 5.65858 6.16649 5.91799
#
# Compressibility (1/GPa) = 0.02429795
#
# Stress axis : x y z
#
# Youngs Moduli (GPa) = 70.07581 56.85935 91.56025
#
# Poissons Ratio (x) = 0.22251 0.28901
# Poissons Ratio (y) = 0.27423 0.19876
# Poissons Ratio (z) = 0.22119 0.12343
#
# Static dielectric constant tensor:
#      x y z
#    x 2.022000 0.042230 0.035450 
#    y 0.042230 2.059980 0.035410 
#    z 0.035450 0.035410 2.055430 
# 
# From -- ./inp_files/244428.got.cif
#   From: 2010.05.17/outbox.cif.g08.bks.cpg/sg2_123_cif.got.tgz:244428.got - 2010.06.03 11:33:40.
