data_PCOD9083169
_publ_section_title
;
Structure prediction by ZEFSAII (Michael W. Deem and Ramdas Pophale) SiO2 
 PCOD9083169
Probable space group: P -1
;
_chemical_formula_sum "Si O2"
_cell_formula_units_Z 16
_cell_length_a 21.756124
_cell_length_b 8.538451
_cell_length_c 11.828676
_cell_angle_alpha 39.231025
_cell_angle_beta 141.101357
_cell_angle_gamma 117.350813
_cell_volume 813.780745
_symmetry_space_group_name_H-M "P -1"
_symmetry_group_IT_number 2
_symmetry_cell_setting 'triclinic'
loop_
_space_group_symop_operation_xyz
x,y,z
-x,-y,-z
loop_
_atom_site_type_symbol
_atom_site_label
_atom_site_fract_x
_atom_site_fract_y
_atom_site_fract_z
Si Si1 0.918933 0.367925 0.406422
Si Si2 0.979556 0.419136 0.834469
Si Si3 0.738231 0.117669 0.823715
Si Si4 0.480775 0.734241 0.667364
Si Si5 0.787437 0.554454 0.321165
Si Si6 0.067926 0.792847 0.877644
Si Si7 0.365327 0.725251 0.735150
Si Si8 0.177904 0.144968 0.146151
O O1 0.847140 0.355846 0.415942
O O2 0.000000 0.500000 0.500000
O O3 0.990737 0.097591 0.603408
O O4 0.841018 0.566893 0.094375
O O5 0.875487 0.541624 0.544235
O O6 0.032605 0.631700 0.823341
O O7 0.950259 0.320709 0.964532
O O8 0.066498 0.187178 0.018807
O O9 0.617057 0.284077 0.533502
O O10 0.794175 0.034257 0.827289
O O11 0.811549 0.230074 0.938596
O O12 0.742988 0.844005 0.041184
O O13 0.441081 0.769368 0.722293
O O14 0.500000 0.000000 0.500000
O O15 0.574801 0.445911 0.974764
O O16 0.696280 0.465362 0.288291
O O17 0.270912 0.012120 0.442572
#
# Coordination Sequence:
#
# PCOD9083169 Si02
#       8
#     2   2   2   2   2   2   2   2
#     4  11  19  33  52  79 110 149 186 222 266 324
#     4  11  22  33  51  78 115 152 184 220 263 335
#     4  10  19  34  54  79 108 138 184 231 275 323
#     4  10  19  35  54  82 110 134 182 243 284 320
#     4  11  19  32  54  80 110 149 179 222 272 325
#     4  11  22  35  49  78 115 150 187 222 268 320
#     4  10  21  32  55  81 111 144 181 231 283 326
#     4  10  19  34  51  78 107 145 182 221 272 322
#
# _framework density 19.661314999999998
#
# number of rings (size 3 to 8) (size 9 to 14) (size 15 to 20)
#    0.000    1.500    5.000    2.250    0.000    3.500 
#    0.000    0.000    0.000    0.750    0.000    7.000 
#    0.000    0.000    0.000    0.000    0.000    0.000 
#
# Total GULP energy -89154.267654 kJ/mol
# GULP energy per Si atom -5572.141728 kJ/mol
# Density = 1.961656 g / cm^3
# Si number density = 19.661315 Si / 1000 Ang^3
#
#
#
# Elastic Constant Matrix: (Units=GPa)
#
#
# Indices 1 2 3 4 5 6 
#
# 1 57.0672 27.4969 16.7312 3.3292 -14.3859 13.5879
# 2 27.4969 72.3247 53.7701 -1.3783 0.1465 25.0023
# 3 16.7312 53.7701 191.5877 -4.4858 1.2467 3.7416
# 4 3.3292 -1.3783 -4.4858 23.4316 11.1338 1.1255
# 5 -14.3859 0.1465 1.2467 11.1338 30.6074 -2.3750
# 6 13.5879 25.0023 3.7416 1.1255 -2.3750 17.0122
#
#
#
# Elastic Compliance Matrix: (Units=1/GPa)
#
#
# Indices 1 2 3 4 5 6 
#
# 1 0.028501 -0.008312 -0.000424 -0.012575 0.017470 -0.007184
# 2 -0.008312 0.046778 -0.010856 0.010742 -0.012420 -0.062167
# 3 -0.000424 -0.010856 0.008011 -0.000075 0.000689 0.014633
# 4 -0.012575 0.010742 -0.000075 0.059326 -0.028598 -0.013644
# 5 0.017470 -0.012420 0.000689 -0.028598 0.052353 0.013348
# 6 -0.007184 -0.062167 0.014633 -0.013644 0.013348 0.155432
#
#
# Mechanical properties :
#
#
# Convention : Reuss Voigt Hill
#
# Bulk Modulus (GPa) = 22.67262 57.44179 40.05721
# Shear Modulus (GPa) = 12.36743 29.07564 20.72154
#
# Velocity S-wave (km/s) = 2.51076 3.84972 3.24994
# Velocity P-wave (km/s) = 4.46786 7.00282 5.87373
#
# Compressibility (1/GPa) = 0.04410606
#
# Stress axis : x y z
#
# Youngs Moduli (GPa) = 35.08707 21.37740 124.82144
#
# Poissons Ratio (x) = 0.17769 0.05292
# Poissons Ratio (y) = 0.29164 1.35510
# Poissons Ratio (z) = 0.01488 0.23208
#
# Static dielectric constant tensor:
#      x y z
#    x 1.740640 0.034320 -0.000280 
#    y 0.034320 1.698570 -0.023600 
#    z -0.000280 -0.023600 1.773590 
# 
# From -- ./inp_files/474101.got.cif
#   From: 2010.05.17/outbox.cif.g08.bks.cpg/sg2_238_cif.got.tgz:474101.got - 2010.06.03 11:33:40.
