data_PCOD9083128
_publ_section_title
;
Structure prediction by ZEFSAII (Michael W. Deem and Ramdas Pophale) SiO2 
 PCOD9083128
Probable space group: P -1
;
_chemical_formula_sum "Si O2"
_cell_formula_units_Z 16
_cell_length_a 16.588354
_cell_length_b 9.785659
_cell_length_c 8.951594
_cell_angle_alpha 51.667146
_cell_angle_beta 141.319566
_cell_angle_gamma 117.502380
_cell_volume 711.627606
_symmetry_space_group_name_H-M "P -1"
_symmetry_group_IT_number 2
_symmetry_cell_setting 'triclinic'
loop_
_space_group_symop_operation_xyz
x,y,z
-x,-y,-z
loop_
_atom_site_type_symbol
_atom_site_label
_atom_site_fract_x
_atom_site_fract_y
_atom_site_fract_z
Si Si1 0.317030 0.163889 0.955066
Si Si2 0.957249 0.702972 0.614572
Si Si3 0.519923 0.954326 0.232717
Si Si4 0.287973 0.772057 0.550319
Si Si5 0.867323 0.332862 0.843330
Si Si6 0.126961 0.583733 0.694357
Si Si7 0.610726 0.501926 0.346631
Si Si8 0.367577 0.342876 0.225408
O O1 0.164027 0.179497 0.695923
O O2 0.366910 0.306960 0.811488
O O3 0.351502 0.222593 0.133640
O O4 0.392172 0.989055 0.126808
O O5 0.914239 0.500385 0.703174
O O6 0.073738 0.705739 0.666024
O O7 0.018161 0.736805 0.840194
O O8 0.577688 0.763408 0.482178
O O9 0.626140 0.079078 0.368716
O O10 0.500000 0.000000 0.000000
O O11 0.185868 0.814580 0.241274
O O12 0.206094 0.689299 0.617570
O O13 0.377521 0.622578 0.699253
O O14 0.738046 0.422748 0.672882
O O15 0.000000 0.500000 0.500000
O O16 0.228989 0.432909 0.995574
O O17 0.476673 0.477152 0.249561
#
# Coordination Sequence:
#
# PCOD9083128 Si02
#       8
#     2   2   2   2   2   2   2   2
#     4  11  19  40  69  94 127 168 213 266 319 387
#     4  10  19  33  64  99 128 156 211 262 320 373
#     4  12  29  44  59  94 136 172 220 266 316 381
#     4  10  20  42  67  87 134 163 213 272 315 376
#     4   8  17  34  59  93 123 161 203 263 310 377
#     4  12  20  38  67 103 127 157 214 274 321 376
#     4   9  18  37  69  98 111 163 226 265 316 373
#     4  12  22  39  69  91 126 179 209 257 333 385
#
# _framework density 22.48367
#
# number of rings (size 3 to 8) (size 9 to 14) (size 15 to 20)
#    0.750    0.750    5.000    1.500    0.000    4.000 
#    0.000    2.500    0.000    2.250    0.000    0.000 
#    0.000    0.000    0.000    0.000    0.000    0.000 
#
# Total GULP energy -89367.265294 kJ/mol
# GULP energy per Si atom -5585.454081 kJ/mol
# Density = 2.243250 g / cm^3
# Si number density = 22.483670 Si / 1000 Ang^3
#
#
#
# Elastic Constant Matrix: (Units=GPa)
#
#
# Indices 1 2 3 4 5 6 
#
# 1 82.6957 13.5259 53.6747 2.2235 20.7000 4.0713
# 2 13.5259 32.7380 12.5809 7.8031 3.4066 2.6062
# 3 53.6747 12.5809 140.3348 5.3104 6.2348 5.6694
# 4 2.2235 7.8031 5.3104 26.3177 -3.9827 -5.3900
# 5 20.7000 3.4066 6.2348 -3.9827 34.2920 5.8858
# 6 4.0713 2.6062 5.6694 -5.3900 5.8858 18.0965
#
#
#
# Elastic Compliance Matrix: (Units=1/GPa)
#
#
# Indices 1 2 3 4 5 6 
#
# 1 0.019792 -0.004567 -0.006751 -0.000209 -0.010582 0.001699
# 2 -0.004567 0.036183 -0.000722 -0.011798 -0.000841 -0.007198
# 3 -0.006751 -0.000722 0.009815 -0.001349 0.002673 -0.002723
# 4 -0.000209 -0.011798 -0.001349 0.045366 0.004365 0.014262
# 5 -0.010582 -0.000841 0.002673 0.004365 0.037223 -0.009142
# 6 0.001699 -0.007198 -0.002723 0.014262 -0.009142 0.063988
#
#
# Mechanical properties :
#
#
# Convention : Reuss Voigt Hill
#
# Bulk Modulus (GPa) = 23.97593 46.14796 35.06194
# Shear Modulus (GPa) = 19.97192 27.47371 23.72281
#
# Velocity S-wave (km/s) = 2.98365 3.49942 3.25177
# Velocity P-wave (km/s) = 4.74936 6.07434 5.45224
#
# Compressibility (1/GPa) = 0.04170851
#
# Stress axis : x y z
#
# Youngs Moduli (GPa) = 50.52446 27.63760 101.88408
#
# Poissons Ratio (x) = 0.12623 0.68785
# Poissons Ratio (y) = 0.23075 0.07360
# Poissons Ratio (z) = 0.34110 0.01996
#
# Static dielectric constant tensor:
#      x y z
#    x 1.847260 -0.007670 -0.010650 
#    y -0.007670 1.847510 -0.000010 
#    z -0.010650 -0.000010 1.887850 
# 
# From -- ./inp_files/332988.got.cif
#   From: 2010.05.17/outbox.cif.g08.bks.cpg/sg2_167_cif.got.tgz:332988.got - 2010.06.03 11:33:40.
