data_PCOD9083691
_publ_section_title
;
Structure prediction by ZEFSAII (Michael W. Deem and Ramdas Pophale) SiO2 
 PCOD9083691
Probable space group: P -1
;
_chemical_formula_sum "Si O2"
_cell_formula_units_Z 16
_cell_length_a 17.773159
_cell_length_b 9.701118
_cell_length_c 14.244508
_cell_angle_alpha 110.748710
_cell_angle_beta 150.172804
_cell_angle_gamma 50.504661
_cell_volume 808.311487
_symmetry_space_group_name_H-M "P -1"
_symmetry_group_IT_number 2
_symmetry_cell_setting 'triclinic'
loop_
_space_group_symop_operation_xyz
x,y,z
-x,-y,-z
loop_
_atom_site_type_symbol
_atom_site_label
_atom_site_fract_x
_atom_site_fract_y
_atom_site_fract_z
Si Si1 0.115863 0.251805 0.023547
Si Si2 0.735864 0.450092 0.545950
Si Si3 0.845161 0.063536 0.478702
Si Si4 0.485929 0.829522 0.225531
Si Si5 0.271125 0.029020 0.494495
Si Si6 0.082345 0.108885 0.127614
Si Si7 0.453650 0.273960 0.427415
Si Si8 0.335303 0.749136 0.871673
O O1 0.996695 0.271214 0.992027
O O2 0.260937 0.290764 0.216349
O O3 0.271513 0.019457 0.094903
O O4 0.948869 0.391930 0.792923
O O5 0.804599 0.242772 0.535566
O O6 0.612189 0.620661 0.371613
O O7 0.599485 0.554221 0.520340
O O8 0.785029 0.974620 0.462568
O O9 0.700983 0.173194 0.255676
O O10 0.094059 0.877384 0.675386
O O11 0.622561 0.884914 0.379507
O O12 0.424470 0.812108 0.052928
O O13 0.441678 0.791387 0.578727
O O14 0.069839 0.159739 0.235983
O O15 0.339547 0.943156 0.351449
O O16 0.000000 0.000000 0.000000
O O17 0.500000 0.500000 0.000000
#
# Coordination Sequence:
#
# PCOD9083691 Si02
#       8
#     2   2   2   2   2   2   2   2
#     4  11  20  38  59  90 130 174 208 249 296 374
#     4  12  21  35  68  96 120 174 213 244 303 380
#     4  11  24  42  66  94 122 153 218 261 316 371
#     4  11  21  41  67  87 128 166 211 255 317 367
#     4   9  22  41  60  93 133 166 195 259 308 368
#     4  10  19  34  57  86 132 169 200 246 300 352
#     4   9  21  36  58  89 134 167 202 239 305 374
#     4  11  24  45  69  91 115 163 211 270 318 376
#
# _framework density 19.794350999999999
#
# number of rings (size 3 to 8) (size 9 to 14) (size 15 to 20)
#    0.750    0.750    3.750    2.250    0.000    1.000 
#    0.000    3.125    0.000    0.000    0.000    0.000 
#    0.000    0.000    0.000    0.000    0.000    0.000 
#
# Total GULP energy -89145.709883 kJ/mol
# GULP energy per Si atom -5571.606868 kJ/mol
# Density = 1.974930 g / cm^3
# Si number density = 19.794351 Si / 1000 Ang^3
#
#
#
# Elastic Constant Matrix: (Units=GPa)
#
#
# Indices 1 2 3 4 5 6 
#
# 1 87.8862 13.9863 16.0526 3.8277 -17.1290 -0.4736
# 2 13.9863 70.0857 21.2731 0.4766 -5.9895 -9.2706
# 3 16.0526 21.2731 95.1537 7.5595 -28.7754 -0.2854
# 4 3.8277 0.4766 7.5595 38.4278 -7.8598 -1.1514
# 5 -17.1290 -5.9895 -28.7754 -7.8598 20.4733 3.6893
# 6 -0.4736 -9.2706 -0.2854 -1.1514 3.6893 23.1050
#
#
#
# Elastic Compliance Matrix: (Units=1/GPa)
#
#
# Indices 1 2 3 4 5 6 
#
# 1 0.014466 -0.002878 0.003190 0.001314 0.016870 -0.003447
# 2 -0.002878 0.016878 -0.005063 0.000090 -0.005921 0.007600
# 3 0.003190 -0.005063 0.020673 0.002074 0.032258 -0.006758
# 4 0.001314 0.000090 0.002074 0.028558 0.015168 -0.000910
# 5 0.016870 -0.005921 0.032258 0.015168 0.115880 -0.019379
# 6 -0.003447 0.007600 -0.006758 -0.000910 -0.019379 0.049225
#
#
# Mechanical properties :
#
#
# Convention : Reuss Voigt Hill
#
# Bulk Modulus (GPa) = 23.52106 39.52772 31.52439
# Shear Modulus (GPa) = 18.56294 29.85546 24.20920
#
# Velocity S-wave (km/s) = 3.06566 3.88787 3.50099
# Velocity P-wave (km/s) = 4.94363 6.33771 5.68358
#
# Compressibility (1/GPa) = 0.04251509
#
# Stress axis : x y z
#
# Youngs Moduli (GPa) = 69.12799 59.24853 48.37200
#
# Poissons Ratio (x) = 0.17053 -0.15431
# Poissons Ratio (y) = 0.19897 0.24490
# Poissons Ratio (z) = -0.22052 0.29996
#
# Static dielectric constant tensor:
#      x y z
#    x 1.709960 -0.038090 0.004750 
#    y -0.038090 1.707580 -0.030490 
#    z 0.004750 -0.030490 1.732990 
# 
# From -- ./inp_files/537452.got.cif
#   From: 2010.05.17/outbox.cif.g08.bks.cpg/sg2_269_cif.got.tgz:537452.got - 2010.06.03 11:33:40.
