data_PCOD9083361
_publ_section_title
;
Structure prediction by ZEFSAII (Michael W. Deem and Ramdas Pophale) SiO2 
 PCOD9083361
Probable space group: P -1
;
_chemical_formula_sum "Si O2"
_cell_formula_units_Z 16
_cell_length_a 7.579869
_cell_length_b 5.472429
_cell_length_c 16.946803
_cell_angle_alpha 74.469945
_cell_angle_beta 79.093830
_cell_angle_gamma 90.430133
_cell_volume 663.802385
_symmetry_space_group_name_H-M "P -1"
_symmetry_group_IT_number 2
_symmetry_cell_setting 'triclinic'
loop_
_space_group_symop_operation_xyz
x,y,z
-x,-y,-z
loop_
_atom_site_type_symbol
_atom_site_label
_atom_site_fract_x
_atom_site_fract_y
_atom_site_fract_z
Si Si1 0.489433 0.960114 0.254227
Si Si2 0.698145 0.996286 0.022067
Si Si3 0.204064 0.868578 0.167506
Si Si4 0.073842 0.365943 0.171047
Si Si5 0.303930 0.547659 0.735174
Si Si6 0.866657 0.158210 0.603371
Si Si7 0.909676 0.330731 0.407771
Si Si8 0.704559 0.497836 0.017256
O O1 0.397470 0.972186 0.174672
O O2 0.619994 0.729244 0.257606
O O3 0.321439 0.877293 0.332232
O O4 0.567470 0.232324 0.254368
O O5 0.817345 0.079061 0.928205
O O6 0.737631 0.213294 0.062852
O O7 0.724654 0.709085 0.063274
O O8 0.500000 0.000000 0.000000
O O9 0.190696 0.563472 0.201085
O O10 0.077829 0.061006 0.205730
O O11 0.161692 0.421089 0.072747
O O12 0.879981 0.452920 0.200014
O O13 0.246370 0.640855 0.645053
O O14 0.840862 0.242906 0.507500
O O15 0.984522 0.393378 0.613175
O O16 0.965021 0.892278 0.613343
O O17 0.500000 0.500000 0.000000
#
# Coordination Sequence:
#
# PCOD9083361 Si02
#       8
#     2   2   2   2   2   2   2   2
#     4  12  24  36  53  81 115 146 176 218 274 328
#     4   8  14  25  45  75  97 119 164 222 260 293
#     4  10  19  34  55  77 103 139 181 224 261 311
#     4  10  19  34  55  77 103 139 181 224 261 311
#     4  12  24  36  53  81 115 146 176 218 274 328
#     4  10  21  39  61  81 105 142 186 228 267 312
#     4  10  21  39  61  81 105 142 186 228 267 312
#     4   8  14  25  45  75  97 119 164 222 260 293
#
# _framework density 24.103559000000001
#
# number of rings (size 3 to 8) (size 9 to 14) (size 15 to 20)
#    0.000    2.000    0.000    4.500    0.000    1.000 
#    0.000    0.000    0.000    0.000    0.000   84.000 
#    0.000    0.000    0.000    0.000    0.000    0.000 
#
# Total GULP energy -89387.240626 kJ/mol
# GULP energy per Si atom -5586.702539 kJ/mol
# Density = 2.404870 g / cm^3
# Si number density = 24.103559 Si / 1000 Ang^3
#
#
#
# Elastic Constant Matrix: (Units=GPa)
#
#
# Indices 1 2 3 4 5 6 
#
# 1 56.2620 19.8732 12.0541 3.2194 -4.7451 -2.6185
# 2 19.8732 233.5921 8.1609 16.2468 4.6565 -5.8954
# 3 12.0541 8.1609 75.2892 14.4351 -6.8354 -2.2018
# 4 3.2194 16.2468 14.4351 23.5037 -0.0023 -2.8863
# 5 -4.7451 4.6565 -6.8354 -0.0023 49.6394 1.8642
# 6 -2.6185 -5.8954 -2.2018 -2.8863 1.8642 48.1714
#
#
#
# Elastic Compliance Matrix: (Units=1/GPa)
#
#
# Indices 1 2 3 4 5 6 
#
# 1 0.019066 -0.001557 -0.002770 0.000249 0.001562 0.000674
# 2 -0.001557 0.004641 0.000308 -0.003143 -0.000554 0.000331
# 3 -0.002770 0.000308 0.015675 -0.009465 0.001866 -0.000036
# 4 0.000249 -0.003143 -0.009465 0.050778 -0.001068 0.002280
# 5 0.001562 -0.000554 0.001866 -0.001068 0.020632 -0.000760
# 6 0.000674 0.000331 -0.000036 0.002280 -0.000760 0.021001
#
#
# Mechanical properties :
#
#
# Convention : Reuss Voigt Hill
#
# Bulk Modulus (GPa) = 31.90290 49.47996 40.69143
# Shear Modulus (GPa) = 33.27163 45.93326 39.60245
#
# Velocity S-wave (km/s) = 3.71935 4.37013 4.05781
# Velocity P-wave (km/s) = 5.63110 6.78503 6.23482
#
# Compressibility (1/GPa) = 0.03134512
#
# Stress axis : x y z
#
# Youngs Moduli (GPa) = 52.44891 215.48680 63.79488
#
# Poissons Ratio (x) = 0.33546 0.17671
# Poissons Ratio (y) = 0.08165 -0.01966
# Poissons Ratio (z) = 0.14528 -0.06642
#
# Static dielectric constant tensor:
#      x y z
#    x 1.929100 -0.004650 -0.022130 
#    y -0.004650 2.004540 -0.008430 
#    z -0.022130 -0.008430 1.913410 
# 
# From -- ./inp_files/54752.got.cif
#   From: 2010.05.17/outbox.cif.g08.bks.cpg/sg2_28_cif.got.tgz:54752.got - 2010.06.03 11:33:40.
