data_PCOD9083358
_publ_section_title
;
Structure prediction by ZEFSAII (Michael W. Deem and Ramdas Pophale) SiO2 
 PCOD9083358
Probable space group: P -1
;
_chemical_formula_sum "Si O2"
_cell_formula_units_Z 14
_cell_length_a 12.796510
_cell_length_b 15.332164
_cell_length_c 8.095237
_cell_angle_alpha 129.208941
_cell_angle_beta 102.924977
_cell_angle_gamma 121.691957
_cell_volume 563.321407
_symmetry_space_group_name_H-M "P -1"
_symmetry_group_IT_number 2
_symmetry_cell_setting 'triclinic'
loop_
_space_group_symop_operation_xyz
x,y,z
-x,-y,-z
loop_
_atom_site_type_symbol
_atom_site_label
_atom_site_fract_x
_atom_site_fract_y
_atom_site_fract_z
Si Si1 0.736784 0.419039 0.525331
Si Si2 0.193364 0.735611 0.465423
Si Si3 0.665128 0.819161 0.475593
Si Si4 0.808224 0.062581 0.510968
Si Si5 0.979009 0.692745 0.616780
Si Si6 0.040972 0.125665 0.392634
Si Si7 0.447183 0.356623 0.445746
O O1 0.671355 0.244654 0.388591
O O2 0.819859 0.487023 0.448661
O O3 0.542954 0.332464 0.370036
O O4 0.964417 0.679980 0.008225
O O5 0.293713 0.927663 0.617086
O O6 0.077867 0.693586 0.526652
O O7 0.000000 0.500000 0.000000
O O8 0.486135 0.601875 0.286801
O O9 0.808015 0.843395 0.494422
O O10 0.630065 0.850929 0.328351
O O11 0.814865 0.050512 0.908192
O O12 0.916907 0.066621 0.436814
O O13 0.861132 0.681289 0.450974
O O14 0.822533 0.879690 0.917659
O O15 0.500000 0.500000 0.500000
#
# Coordination Sequence:
#
# PCOD9083358 Si02
#       7
#     2   2   2   2   2   2   2
#     4  10  19  34  55  81 106 134 174 222 258 294
#     4   9  18  33  55  79 103 134 177 218 253 303
#     4  10  19  34  55  76 104 145 176 204 259 324
#     4   9  19  36  55  75 103 143 180 207 251 320
#     4   9  17  32  54  76 101 139 176 205 252 319
#     4  10  19  35  55  77 106 143 175 208 258 320
#     4  11  21  34  52  80 108 132 172 226 263 298
#
# _framework density 24.852595999999998
#
# number of rings (size 3 to 8) (size 9 to 14) (size 15 to 20)
#    0.000    2.286    0.000    5.143    0.000    0.000 
#    0.000   14.286    0.000    0.000    0.000    0.000 
#    0.000    0.000    0.000    0.000    0.000    0.000 
#
# Total GULP energy -78184.730535 kJ/mol
# GULP energy per Si atom -5584.623610 kJ/mol
# Density = 2.479603 g / cm^3
# Si number density = 24.852596 Si / 1000 Ang^3
#
#
#
# Elastic Constant Matrix: (Units=GPa)
#
#
# Indices 1 2 3 4 5 6 
#
# 1 148.4619 85.7091 27.0917 2.7757 -17.6459 -32.6787
# 2 85.7091 240.6153 22.9402 4.6703 -0.8907 -19.2792
# 3 27.0917 22.9402 73.4659 3.8088 -13.7804 3.8732
# 4 2.7757 4.6703 3.8088 34.1671 8.8579 -2.4581
# 5 -17.6459 -0.8907 -13.7804 8.8579 23.7708 -5.8305
# 6 -32.6787 -19.2792 3.8732 -2.4581 -5.8305 45.1060
#
#
#
# Elastic Compliance Matrix: (Units=1/GPa)
#
#
# Indices 1 2 3 4 5 6 
#
# 1 0.012397 -0.003440 -0.001725 -0.002616 0.011249 0.008971
# 2 -0.003440 0.005420 -0.001029 0.000458 -0.003236 -0.000481
# 3 -0.001725 -0.001029 0.016653 -0.004156 0.009360 -0.002136
# 4 -0.002616 0.000458 -0.004156 0.034304 -0.017544 -0.001741
# 5 0.011249 -0.003236 0.009360 -0.017544 0.065569 0.013483
# 6 0.008971 -0.000481 -0.002136 -0.001741 0.013483 0.030295
#
#
# Mechanical properties :
#
#
# Convention : Reuss Voigt Hill
#
# Bulk Modulus (GPa) = 45.28585 81.55834 63.42209
# Shear Modulus (GPa) = 27.11684 42.39559 34.75621
#
# Velocity S-wave (km/s) = 3.30677 4.13471 3.74370
# Velocity P-wave (km/s) = 5.73071 7.46207 6.65295
#
# Compressibility (1/GPa) = 0.02208195
#
# Stress axis : x y z
#
# Youngs Moduli (GPa) = 80.66344 184.49395 60.04970
#
# Poissons Ratio (x) = 0.63473 0.10356
# Poissons Ratio (y) = 0.27751 0.06180
# Poissons Ratio (z) = 0.13912 0.18988
#
# Static dielectric constant tensor:
#      x y z
#    x 1.872110 -0.050920 0.000720 
#    y -0.050920 2.066270 -0.062090 
#    z 0.000720 -0.062090 2.114260 
# 
# From -- ./inp_files/171824.got.cif
#   From: 2010.05.17/outbox.cif.g08.bks.cpg/sg2_86_cif.got.tgz:171824.got - 2010.06.03 11:33:40.
