data_PCOD9083964
_publ_section_title
;
Structure prediction by ZEFSAII (Michael W. Deem and Ramdas Pophale) SiO2 
 PCOD9083964
Probable space group: P -1
;
_chemical_formula_sum "Si O2"
_cell_formula_units_Z 14
_cell_length_a 6.626945
_cell_length_b 15.600773
_cell_length_c 9.888004
_cell_angle_alpha 59.550852
_cell_angle_beta 133.434770
_cell_angle_gamma 95.546190
_cell_volume 585.910508
_symmetry_space_group_name_H-M "P -1"
_symmetry_group_IT_number 2
_symmetry_cell_setting 'triclinic'
loop_
_space_group_symop_operation_xyz
x,y,z
-x,-y,-z
loop_
_atom_site_type_symbol
_atom_site_label
_atom_site_fract_x
_atom_site_fract_y
_atom_site_fract_z
Si Si1 0.156230 0.620195 0.042154
Si Si2 0.688547 0.224087 0.154017
Si Si3 0.736987 0.007075 0.975263
Si Si4 0.254596 0.814286 0.480107
Si Si5 0.460728 0.748895 0.211472
Si Si6 0.353097 0.063454 0.519096
Si Si7 0.415527 0.376841 0.366260
O O1 0.562380 0.745816 0.104015
O O2 0.835058 0.616266 0.868619
O O3 0.189351 0.704988 0.098542
O O4 0.387465 0.498328 0.277377
O O5 0.646125 0.201398 0.306207
O O6 0.993405 0.123807 0.320122
O O7 0.764360 0.330922 0.096918
O O8 0.630157 0.126880 0.890046
O O9 0.487464 0.994267 0.772020
O O10 0.918608 0.909996 0.238514
O O11 0.000000 0.000000 0.000000
O O12 0.500675 0.847655 0.489061
O O13 0.278902 0.708522 0.493764
O O14 0.640114 0.672342 0.477955
O O15 0.500000 0.000000 0.500000
#
# Coordination Sequence:
#
# PCOD9083964 Si02
#       7
#     2   2   2   2   2   2   2
#     4   9  22  37  62  88 113 161 200 249 297 351
#     4  10  22  38  58  90 119 156 200 240 306 342
#     4  10  19  34  59  86 116 156 195 236 297 357
#     4  11  22  37  61  88 118 162 192 247 299 356
#     4  10  19  37  59  87 119 153 200 245 293 358
#     4  11  22  38  59  87 127 157 196 247 291 360
#     4  11  19  39  66  82 119 159 204 241 304 352
#
# _framework density 23.894435999999999
#
# number of rings (size 3 to 8) (size 9 to 14) (size 15 to 20)
#    0.857    0.857    4.286    2.143    0.000    3.429 
#    0.000    1.429    0.000    1.714    0.000    0.000 
#    0.000    0.000    0.000    0.000    0.000    0.000 
#
# Total GULP energy -77975.391548 kJ/mol
# GULP energy per Si atom -5569.670825 kJ/mol
# Density = 2.384005 g / cm^3
# Si number density = 23.894436 Si / 1000 Ang^3
#
#
#
# Elastic Constant Matrix: (Units=GPa)
#
#
# Indices 1 2 3 4 5 6 
#
# 1 65.2755 16.5172 21.4987 5.2726 -10.1722 -5.8342
# 2 16.5172 103.6245 53.7103 -1.5589 -3.3254 -2.1723
# 3 21.4987 53.7103 125.2029 5.2110 -23.5555 -8.4513
# 4 5.2726 -1.5589 5.2110 46.6388 -0.3618 -5.7647
# 5 -10.1722 -3.3254 -23.5555 -0.3618 33.2385 14.2518
# 6 -5.8342 -2.1723 -8.4513 -5.7647 14.2518 21.6759
#
#
#
# Elastic Compliance Matrix: (Units=1/GPa)
#
#
# Indices 1 2 3 4 5 6 
#
# 1 0.017027 -0.001948 -0.001259 -0.001692 0.003659 0.001041
# 2 -0.001948 0.012981 -0.005979 0.001488 -0.004208 0.001608
# 3 -0.001259 -0.005979 0.012322 -0.001652 0.008720 -0.002306
# 4 -0.001692 0.001488 -0.001652 0.022858 -0.004860 0.008324
# 5 0.003659 -0.004208 0.008720 -0.004860 0.049807 -0.030078
# 6 0.001041 0.001608 -0.002306 0.008324 -0.030078 0.067666
#
#
# Mechanical properties :
#
#
# Convention : Reuss Voigt Hill
#
# Bulk Modulus (GPa) = 41.74011 53.06172 47.40091
# Shear Modulus (GPa) = 23.92125 33.80242 28.86183
#
# Velocity S-wave (km/s) = 3.16748 3.76527 3.47924
# Velocity P-wave (km/s) = 5.55731 6.41545 6.00174
#
# Compressibility (1/GPa) = 0.02395777
#
# Stress axis : x y z
#
# Youngs Moduli (GPa) = 58.72969 77.03636 81.15680
#
# Poissons Ratio (x) = 0.15004 0.10219
# Poissons Ratio (y) = 0.11438 0.48526
# Poissons Ratio (z) = 0.07395 0.46062
#
# Static dielectric constant tensor:
#      x y z
#    x 1.931930 0.033720 -0.004570 
#    y 0.033720 1.988850 -0.009060 
#    z -0.004570 -0.009060 2.061450 
# 
# From -- ./inp_files/201586.got.cif
#   From: 2010.05.17/outbox.cif.g08.bks.cpg/sg2_101_cif.got.tgz:201586.got - 2010.06.03 11:33:40.
