data_PCOD9083173
_publ_section_title
;
Structure prediction by ZEFSAII (Michael W. Deem and Ramdas Pophale) SiO2 
 PCOD9083173
Probable space group: P -1
;
_chemical_formula_sum "Si O2"
_cell_formula_units_Z 12
_cell_length_a 10.270169
_cell_length_b 5.033832
_cell_length_c 14.002465
_cell_angle_alpha 68.563348
_cell_angle_beta 60.216913
_cell_angle_gamma 76.855036
_cell_volume 583.877636
_symmetry_space_group_name_H-M "P -1"
_symmetry_group_IT_number 2
_symmetry_cell_setting 'triclinic'
loop_
_space_group_symop_operation_xyz
x,y,z
-x,-y,-z
loop_
_atom_site_type_symbol
_atom_site_label
_atom_site_fract_x
_atom_site_fract_y
_atom_site_fract_z
Si Si1 0.918954 0.809546 0.476324
Si Si2 0.484458 0.014907 0.162153
Si Si3 0.950592 0.321820 0.950640
Si Si4 0.066824 0.762646 0.233817
Si Si5 0.290666 0.235253 0.027223
Si Si6 0.329269 0.439363 0.295319
O O1 0.747499 0.756330 0.572529
O O2 0.000000 0.500000 0.500000
O O3 0.958040 0.874561 0.344033
O O4 0.000000 0.000000 0.500000
O O5 0.384897 0.748156 0.263226
O O6 0.411936 0.175193 0.074219
O O7 0.462442 0.252468 0.220165
O O8 0.637880 0.864135 0.086429
O O9 0.010286 0.362578 0.815356
O O10 0.776812 0.440914 0.989128
O O11 0.000000 0.500000 0.000000
O O12 0.000000 0.000000 0.000000
O O13 0.192444 0.527703 0.259533
O O14 0.158893 0.028259 0.129434
#
# Coordination Sequence:
#
# PCOD9083173 Si02
#       6
#     2   2   2   2   2   2
#     4  10  20  32  54  80 113 149 177 220 280 339
#     4  10  21  32  57  79 117 144 173 224 275 347
#     4  12  24  37  54  79 113 152 193 228 269 322
#     4  10  21  35  56  79 119 144 182 232 275 327
#     4  10  21  36  54  82 112 146 182 223 286 325
#     4  10  19  34  51  85 111 146 176 212 284 340
#
# _framework density 20.552249
#
# number of rings (size 3 to 8) (size 9 to 14) (size 15 to 20)
#    0.000    1.667    3.333    3.000    4.667    2.000 
#    0.000    0.000    0.000    0.000    0.000    7.000 
#    0.000    0.000    0.000    0.000    0.000    0.000 
#
# Total GULP energy -66878.888656 kJ/mol
# GULP energy per Si atom -5573.240721 kJ/mol
# Density = 2.050547 g / cm^3
# Si number density = 20.552249 Si / 1000 Ang^3
#
#
#
# Elastic Constant Matrix: (Units=GPa)
#
#
# Indices 1 2 3 4 5 6 
#
# 1 28.4753 20.2557 29.6569 -0.3814 11.3480 12.0483
# 2 20.2557 149.0938 33.5706 15.0516 -0.2707 7.7908
# 3 29.6569 33.5706 130.4256 23.2045 -1.6029 -0.7570
# 4 -0.3814 15.0516 23.2045 32.2776 7.0964 0.3695
# 5 11.3480 -0.2707 -1.6029 7.0964 26.3699 9.0103
# 6 12.0483 7.7908 -0.7570 0.3695 9.0103 33.8620
#
#
#
# Elastic Compliance Matrix: (Units=1/GPa)
#
#
# Indices 1 2 3 4 5 6 
#
# 1 0.097527 -0.009786 -0.026603 0.035176 -0.045905 -0.021213
# 2 -0.009786 0.008396 0.001253 -0.006261 0.006045 0.000038
# 3 -0.026603 0.001253 0.016466 -0.016058 0.014808 0.005780
# 4 0.035176 -0.006261 -0.016058 0.052230 -0.028746 -0.004355
# 5 -0.045905 0.006045 0.014808 -0.028746 0.067155 -0.002282
# 6 -0.021213 0.000038 0.005780 -0.004355 -0.002282 0.037855
#
#
# Mechanical properties :
#
#
# Convention : Reuss Voigt Hill
#
# Bulk Modulus (GPa) = 19.18781 52.77345 35.98063
# Shear Modulus (GPa) = 13.61384 33.46934 23.54159
#
# Velocity S-wave (km/s) = 2.57651 4.03985 3.38812
# Velocity P-wave (km/s) = 4.26703 6.89158 5.73156
#
# Compressibility (1/GPa) = 0.05211643
#
# Stress axis : x y z
#
# Youngs Moduli (GPa) = 10.25358 119.10866 60.72956
#
# Poissons Ratio (x) = 1.16559 1.61559
# Poissons Ratio (y) = 0.10034 -0.07607
# Poissons Ratio (z) = 0.27278 -0.14919
#
# Static dielectric constant tensor:
#      x y z
#    x 1.804980 0.036610 -0.024020 
#    y 0.036610 1.762340 0.006870 
#    z -0.024020 0.006870 1.859220 
# 
# From -- ./inp_files/67650.got.cif
#   From: 2010.05.17/outbox.cif.g08.bks.cpg/sg2_34_cif.got.tgz:67650.got - 2010.06.03 11:33:40.
