data_PCOD9083108
_publ_section_title
;
Structure prediction by ZEFSAII (Michael W. Deem and Ramdas Pophale) SiO2 
 PCOD9083108
Probable space group: P -1
;
_chemical_formula_sum "Si O2"
_cell_formula_units_Z 16
_cell_length_a 21.191534
_cell_length_b 5.553337
_cell_length_c 17.540770
_cell_angle_alpha 101.807549
_cell_angle_beta 18.486215
_cell_angle_gamma 104.707211
_cell_volume 628.669734
_symmetry_space_group_name_H-M "P -1"
_symmetry_group_IT_number 2
_symmetry_cell_setting 'triclinic'
loop_
_space_group_symop_operation_xyz
x,y,z
-x,-y,-z
loop_
_atom_site_type_symbol
_atom_site_label
_atom_site_fract_x
_atom_site_fract_y
_atom_site_fract_z
Si Si1 0.372418 0.068240 0.758607
Si Si2 0.033952 0.761048 0.786108
Si Si3 0.056267 0.994720 0.523562
Si Si4 0.600170 0.889598 0.090686
Si Si5 0.570499 0.384451 0.129830
Si Si6 0.324029 0.629376 0.679577
Si Si7 0.793008 0.653734 0.343485
Si Si8 0.066472 0.541133 0.573726
O O1 0.420302 0.060197 0.792331
O O2 0.274281 0.800467 0.816570
O O3 0.578950 0.170315 0.483506
O O4 0.206135 0.239687 0.943964
O O5 0.095564 0.546951 0.754620
O O6 0.106345 0.693852 0.615830
O O7 0.129547 0.049901 0.714262
O O8 0.138195 0.744785 0.437608
O O9 0.000000 0.000000 0.500000
O O10 0.150951 0.282453 0.455173
O O11 0.840770 0.939920 0.809231
O O12 0.517242 0.094524 0.150181
O O13 0.520538 0.600005 0.147069
O O14 0.435397 0.401746 0.361896
O O15 0.816791 0.447892 0.856500
O O16 0.500000 0.500000 0.500000
O O17 0.191129 0.410073 0.768007
#
# Coordination Sequence:
#
# PCOD9083108 Si02
#       8
#     2   2   2   2   2   2   2   2
#     4  11  24  42  66  87 125 168 213 256 328 371
#     4  12  26  40  63  93 132 169 200 263 323 376
#     4  10  19  33  63 104 129 152 205 267 311 360
#     4  10  19  35  66  88 119 159 209 251 307 367
#     4  10  19  37  62  85 119 158 217 253 289 366
#     4  11  26  44  69  86 121 172 216 273 312 368
#     4  12  26  40  61  95 126 161 222 259 313 375
#     4  10  20  39  62  91 131 170 203 252 320 368
#
# _framework density 25.450564
#
# number of rings (size 3 to 8) (size 9 to 14) (size 15 to 20)
#    0.000    1.250    3.750    2.625    7.000    1.000 
#    0.000    0.000    0.000    0.000    0.000   70.000 
#    0.000    0.000    0.000    0.000    0.000    0.000 
#
# Total GULP energy -89347.150974 kJ/mol
# GULP energy per Si atom -5584.196936 kJ/mol
# Density = 2.539264 g / cm^3
# Si number density = 25.450564 Si / 1000 Ang^3
#
#
#
# Elastic Constant Matrix: (Units=GPa)
#
#
# Indices 1 2 3 4 5 6 
#
# 1 62.9218 40.8712 3.3782 -10.5169 2.0796 -1.3395
# 2 40.8712 221.3760 69.2694 -3.9048 -1.2659 -3.9392
# 3 3.3782 69.2694 -91.5059 -1.6900 -48.5288 -38.2940
# 4 -10.5169 -3.9048 -1.6900 36.0302 -9.1862 -12.0772
# 5 2.0796 -1.2659 -48.5288 -9.1862 19.9862 -3.1351
# 6 -1.3395 -3.9392 -38.2940 -12.0772 -3.1351 40.3061
#
#
#
# Elastic Compliance Matrix: (Units=1/GPa)
#
#
# Indices 1 2 3 4 5 6 
#
# 1 0.018850 -0.003102 -0.000934 0.004830 -0.002092 0.000721
# 2 -0.003102 0.004890 0.000877 0.001206 0.003608 0.001850
# 3 -0.000934 0.000877 -0.002961 -0.004456 -0.009846 -0.004859
# 4 0.004830 0.001206 -0.004456 0.032280 0.004544 0.006071
# 5 -0.002092 0.003608 -0.009846 0.004544 0.027790 -0.005549
# 6 0.000721 0.001850 -0.004859 0.006071 -0.005549 0.021786
#
#
# Mechanical properties :
#
#
# Convention : Reuss Voigt Hill
#
# Bulk Modulus (GPa) = 69.14342 46.64772 57.89557
# Shear Modulus (GPa) = 43.94760 24.54936 34.24848
#
# Velocity S-wave (km/s) = 4.15997 3.10915 3.67234
# Velocity P-wave (km/s) = 7.09228 5.59086 6.38585
#
# Compressibility (1/GPa) = 0.01446269
#
# Stress axis : x y z
#
# Youngs Moduli (GPa) = 53.05173 204.49345 -337.74906
#
# Poissons Ratio (x) = 0.63430 -0.31537
# Poissons Ratio (y) = 0.16456 0.29636
# Poissons Ratio (z) = 0.04954 -0.17944
#
# Static dielectric constant tensor:
#      x y z
#    x 1.948460 0.008310 -0.005990 
#    y 0.008310 2.076020 -0.034790 
#    z -0.005990 -0.034790 2.076980 
# 
# From -- ./inp_files/576804.got.cif
#   From: 2010.05.17/outbox.cif.g08.bks.cpg/sg2_289_cif.got.tgz:576804.got - 2010.06.03 11:33:40.
