data_PCOD9083303
_publ_section_title
;
Structure prediction by ZEFSAII (Michael W. Deem and Ramdas Pophale) SiO2 
 PCOD9083303
Probable space group: P -1
;
_chemical_formula_sum "Si O2"
_cell_formula_units_Z 14
_cell_length_a 14.182700
_cell_length_b 16.324068
_cell_length_c 7.004308
_cell_angle_alpha 90.675055
_cell_angle_beta 90.078893
_cell_angle_gamma 25.803304
_cell_volume 705.661547
_symmetry_space_group_name_H-M "P -1"
_symmetry_group_IT_number 2
_symmetry_cell_setting 'triclinic'
loop_
_space_group_symop_operation_xyz
x,y,z
-x,-y,-z
loop_
_atom_site_type_symbol
_atom_site_label
_atom_site_fract_x
_atom_site_fract_y
_atom_site_fract_z
Si Si1 0.466813 0.763890 0.227088
Si Si2 0.121345 0.099343 0.949188
Si Si3 0.447981 0.753533 0.682211
Si Si4 0.644532 0.920934 0.171211
Si Si5 0.395657 0.494274 0.040960
Si Si6 0.727530 0.683868 0.693785
Si Si7 0.160656 0.401729 0.731954
O O1 0.663399 0.674234 0.184276
O O2 0.249589 0.971380 0.137488
O O3 0.524659 0.634232 0.118820
O O4 0.444055 0.767190 0.454478
O O5 0.192779 0.136373 0.902221
O O6 0.864047 0.295572 0.961226
O O7 0.224927 0.959591 0.782150
O O8 0.519240 0.610407 0.760960
O O9 0.627651 0.677039 0.764119
O O10 0.757320 0.755028 0.257297
O O11 0.479558 0.095546 0.318547
O O12 0.500000 0.000000 0.000000
O O13 0.500000 0.500000 0.000000
O O14 0.832674 0.579097 0.489661
O O15 0.912039 0.589692 0.804410
#
# Coordination Sequence:
#
# PCOD9083303 Si02
#       7
#     2   2   2   2   2   2   2
#     4  10  22  39  62  89 119 156 199 241 294 354
#     4  10  22  41  59  88 123 156 193 246 292 345
#     4   9  21  42  61  87 122 156 194 242 296 352
#     4  11  20  31  53  85 114 150 185 222 277 343
#     4  11  25  43  63  87 115 151 201 255 304 350
#     4   9  20  34  53  81 118 153 187 230 276 338
#     4  10  19  34  54  81 116 155 191 228 275 338
#
# _framework density 19.83954
#
# number of rings (size 3 to 8) (size 9 to 14) (size 15 to 20)
#    0.000    2.000    1.429    1.286    2.000    4.571 
#    0.000    1.429    0.000    0.000    0.000    0.000 
#    0.000    0.000    0.000    0.000    0.000    0.000 
#
# Total GULP energy -78101.331997 kJ/mol
# GULP energy per Si atom -5578.666571 kJ/mol
# Density = 1.979438 g / cm^3
# Si number density = 19.839540 Si / 1000 Ang^3
#
#
#
# Elastic Constant Matrix: (Units=GPa)
#
#
# Indices 1 2 3 4 5 6 
#
# 1 147.7328 62.7104 18.4969 -5.0231 -7.3221 10.3050
# 2 62.7104 74.1125 12.9312 -8.9765 -5.0682 1.9226
# 3 18.4969 12.9312 91.7814 -8.7576 -11.5515 3.8999
# 4 -5.0231 -8.9765 -8.7576 19.4141 5.6372 -3.9139
# 5 -7.3221 -5.0682 -11.5515 5.6372 20.2164 -4.7898
# 6 10.3050 1.9226 3.8999 -3.9139 -4.7898 27.4958
#
#
#
# Elastic Compliance Matrix: (Units=1/GPa)
#
#
# Indices 1 2 3 4 5 6 
#
# 1 0.011079 -0.009404 -0.000895 -0.002932 0.001110 -0.003592
# 2 -0.009404 0.022492 -0.000578 0.008257 0.000376 0.003275
# 3 -0.000895 -0.000578 0.012178 0.003399 0.005566 0.000102
# 4 -0.002932 0.008257 0.003399 0.061058 -0.012524 0.006549
# 5 0.001110 0.000376 0.005566 -0.012524 0.058327 0.007146
# 6 -0.003592 0.003275 0.000102 0.006549 0.007146 0.039649
#
#
# Mechanical properties :
#
#
# Convention : Reuss Voigt Hill
#
# Bulk Modulus (GPa) = 41.67628 55.76706 48.72167
# Shear Modulus (GPa) = 21.31880 28.05780 24.68830
#
# Velocity S-wave (km/s) = 3.28161 3.76471 3.53143
# Velocity P-wave (km/s) = 5.95070 6.86058 6.42177
#
# Compressibility (1/GPa) = 0.02399447
#
# Stress axis : x y z
#
# Youngs Moduli (GPa) = 90.26181 44.46024 82.11706
#
# Poissons Ratio (x) = 0.41811 0.07351
# Poissons Ratio (y) = 0.84884 0.04743
# Poissons Ratio (z) = 0.08080 0.02568
#
# Static dielectric constant tensor:
#      x y z
#    x 1.690590 -0.019030 0.003630 
#    y -0.019030 1.721690 -0.011090 
#    z 0.003630 -0.011090 1.744360 
# 
# From -- ./inp_files/258690.got.cif
#   From: 2010.05.17/outbox.cif.g08.bks.cpg/sg2_130_cif.got.tgz:258690.got - 2010.06.03 11:33:40.
