data_PCOD9083809
_publ_section_title
;
Structure prediction by ZEFSAII (Michael W. Deem and Ramdas Pophale) SiO2 
 PCOD9083809
Probable space group: P -1
;
_chemical_formula_sum "Si O2"
_cell_formula_units_Z 16
_cell_length_a 16.464905
_cell_length_b 13.983986
_cell_length_c 19.196182
_cell_angle_alpha 22.179258
_cell_angle_beta 154.286935
_cell_angle_gamma 144.664327
_cell_volume 719.256597
_symmetry_space_group_name_H-M "P -1"
_symmetry_group_IT_number 2
_symmetry_cell_setting 'triclinic'
loop_
_space_group_symop_operation_xyz
x,y,z
-x,-y,-z
loop_
_atom_site_type_symbol
_atom_site_label
_atom_site_fract_x
_atom_site_fract_y
_atom_site_fract_z
Si Si1 0.724741 0.654018 0.211974
Si Si2 0.778097 0.349549 0.947407
Si Si3 0.219785 0.754108 0.145892
Si Si4 0.338957 0.835382 0.828876
Si Si5 0.161430 0.097126 0.387501
Si Si6 0.620620 0.714812 0.335937
Si Si7 0.024164 0.515359 0.764865
Si Si8 0.893757 0.430293 0.359683
O O1 0.903469 0.530517 0.477378
O O2 0.741916 0.541454 0.223663
O O3 0.526144 0.637577 0.106417
O O4 0.742907 0.955846 0.018342
O O5 0.791279 0.329265 0.886649
O O6 0.781539 0.641027 0.775594
O O7 0.580942 0.248778 0.881919
O O8 0.973793 0.186385 0.228403
O O9 0.376674 0.554533 0.438775
O O10 0.036585 0.702819 0.084375
O O11 0.154119 0.689951 0.790261
O O12 0.317743 0.965405 0.648727
O O13 0.358189 0.065686 0.740298
O O14 0.114972 0.872823 0.452044
O O15 0.820457 0.668873 0.482016
O O16 0.123907 0.451117 0.811442
#
# Coordination Sequence:
#
# PCOD9083809 Si02
#       8
#     2   2   2   2   2   2   2   2
#     4  11  22  38  70  73 113 158 200 225 276 344
#     4  11  18  33  57  90 116 148 190 233 284 337
#     4  10  19  35  60  87 107 156 184 236 278 339
#     4  11  19  37  57  88 113 154 187 234 283 347
#     4  10  20  31  56  84 119 138 189 244 268 329
#     4  10  19  34  58  84 118 152 186 228 290 349
#     4   9  23  34  57  86 125 138 189 237 297 320
#     4  10  22  42  55  89 110 153 194 236 277 342
#
# _framework density 22.245190999999998
#
# number of rings (size 3 to 8) (size 9 to 14) (size 15 to 20)
#    0.750    1.000    3.750    1.500    0.000    2.500 
#    0.000    9.375    0.000    1.500    0.000    0.000 
#    0.000    0.000    0.000    0.000    0.000    0.000 
#
# Total GULP energy -89331.121239 kJ/mol
# GULP energy per Si atom -5583.195077 kJ/mol
# Density = 2.219456 g / cm^3
# Si number density = 22.245191 Si / 1000 Ang^3
#
#
#
# Elastic Constant Matrix: (Units=GPa)
#
#
# Indices 1 2 3 4 5 6 
#
# 1 72.2619 21.6839 -0.4029 -16.8669 6.7338 -1.0721
# 2 21.6839 89.3834 4.3122 5.6683 7.3277 17.8094
# 3 -0.4029 4.3122 30.5078 6.2894 2.0330 -4.0089
# 4 -16.8669 5.6683 6.2894 24.3497 2.3789 10.8776
# 5 6.7338 7.3277 2.0330 2.3789 24.7989 -4.0634
# 6 -1.0721 17.8094 -4.0089 10.8776 -4.0634 31.2960
#
#
#
# Elastic Compliance Matrix: (Units=1/GPa)
#
#
# Indices 1 2 3 4 5 6 
#
# 1 0.019918 -0.004471 -0.002986 0.018132 -0.006282 -0.004273
# 2 -0.004471 0.014603 -0.002713 -0.001429 -0.004193 -0.008858
# 3 -0.002986 -0.002713 0.038157 -0.017118 0.002185 0.012563
# 4 0.018132 -0.001429 -0.017118 0.072200 -0.014570 -0.027745
# 5 -0.006282 -0.004193 0.002185 -0.014570 0.046713 0.013580
# 6 -0.004273 -0.008858 0.012563 -0.027745 0.013580 0.049863
#
#
# Mechanical properties :
#
#
# Convention : Reuss Voigt Hill
#
# Bulk Modulus (GPa) = 19.10705 27.03771 23.07238
# Shear Modulus (GPa) = 17.90583 27.19291 22.54937
#
# Velocity S-wave (km/s) = 2.84021 3.50010 3.18728
# Velocity P-wave (km/s) = 4.40041 5.33995 4.89279
#
# Compressibility (1/GPa) = 0.05233671
#
# Stress axis : x y z
#
# Youngs Moduli (GPa) = 50.20642 68.48056 26.20763
#
# Poissons Ratio (x) = 0.30619 0.07825
# Poissons Ratio (y) = 0.22449 0.07110
# Poissons Ratio (z) = 0.14991 0.18580
#
# Static dielectric constant tensor:
#      x y z
#    x 1.853700 0.031940 -0.004180 
#    y 0.031940 1.821610 0.048070 
#    z -0.004180 0.048070 1.840910 
# 
# From -- ./inp_files/613784.got.cif
#   From: 2010.05.17/outbox.cif.g08.bks.cpg/sg2_307_cif.got.tgz:613784.got - 2010.06.03 11:33:40.
