data_PCOD9083544
_publ_section_title
;
Structure prediction by ZEFSAII (Michael W. Deem and Ramdas Pophale) SiO2 
 PCOD9083544
Probable space group: P -1
;
_chemical_formula_sum "Si O2"
_cell_formula_units_Z 16
_cell_length_a 10.604522
_cell_length_b 11.089897
_cell_length_c 5.481777
_cell_angle_alpha 99.326546
_cell_angle_beta 81.048016
_cell_angle_gamma 80.990687
_cell_volume 617.374931
_symmetry_space_group_name_H-M "P -1"
_symmetry_group_IT_number 2
_symmetry_cell_setting 'triclinic'
loop_
_space_group_symop_operation_xyz
x,y,z
-x,-y,-z
loop_
_atom_site_type_symbol
_atom_site_label
_atom_site_fract_x
_atom_site_fract_y
_atom_site_fract_z
Si Si1 0.249093 0.192948 0.797545
Si Si2 0.134890 0.044879 0.442195
Si Si3 0.777222 0.166012 0.019031
Si Si4 0.401806 0.706961 0.532741
Si Si5 0.545387 0.357447 0.002446
Si Si6 0.964518 0.332684 0.969230
Si Si7 0.168478 0.555138 0.462246
Si Si8 0.752438 0.739980 0.680549
O O1 0.120394 0.302029 0.895643
O O2 0.318552 0.217427 0.535949
O O3 0.192694 0.071272 0.697401
O O4 0.316941 0.200710 0.035515
O O5 0.221128 0.945199 0.205294
O O6 0.129334 0.180323 0.360679
O O7 0.000000 0.000000 0.500000
O O8 0.696639 0.296812 0.977666
O O9 0.695285 0.171838 0.295210
O O10 0.918272 0.201143 0.998484
O O11 0.474901 0.712914 0.261185
O O12 0.300128 0.612066 0.484316
O O13 0.497612 0.660674 0.714397
O O14 0.500000 0.500000 0.000000
O O15 0.911990 0.414113 0.249925
O O16 0.907609 0.387050 0.741135
O O17 0.205146 0.406973 0.369855
#
# Coordination Sequence:
#
# PCOD9083544 Si02
#       8
#     2   2   2   2   2   2   2   2
#     4  10  22  36  47  76  98 143 188 221 267 290
#     4  10  21  39  52  74 109 149 188 223 254 311
#     4   9  19  34  54  80 107 142 175 216 267 317
#     4   9  19  33  55  82 107 140 162 210 282 317
#     4  10  19  34  56  87 111 128 165 214 278 334
#     4  11  20  33  54  73 102 142 178 227 268 305
#     4  11  20  35  53  73 108 135 184 219 267 319
#     4  10  23  36  49  74  99 146 186 228 258 301
#
# _framework density 25.916177000000001
#
# number of rings (size 3 to 8) (size 9 to 14) (size 15 to 20)
#    1.500    0.500    2.500    1.875    0.000    4.500 
#    0.000    0.000    0.000    0.000    0.000    1.750 
#    0.000    0.000    0.000    0.000    0.000    0.000 
#
# Total GULP energy -89169.880303 kJ/mol
# GULP energy per Si atom -5573.117519 kJ/mol
# Density = 2.585719 g / cm^3
# Si number density = 25.916177 Si / 1000 Ang^3
#
#
#
# Elastic Constant Matrix: (Units=GPa)
#
#
# Indices 1 2 3 4 5 6 
#
# 1 68.2690 32.8368 41.7562 -0.1610 10.1089 13.8633
# 2 32.8368 97.3814 44.0985 18.4055 -6.6674 -4.9876
# 3 41.7562 44.0985 267.7689 -0.8496 7.4124 3.9866
# 4 -0.1610 18.4055 -0.8496 54.9549 -2.9156 -2.9188
# 5 10.1089 -6.6674 7.4124 -2.9156 43.3861 0.4615
# 6 13.8633 -4.9876 3.9866 -2.9188 0.4615 23.5999
#
#
#
# Elastic Compliance Matrix: (Units=1/GPa)
#
#
# Indices 1 2 3 4 5 6 
#
# 1 0.024136 -0.008855 -0.001894 0.001852 -0.006373 -0.015376
# 2 -0.008855 0.015469 -0.001420 -0.004573 0.004290 0.008061
# 3 -0.001894 -0.001420 0.004276 0.000520 -0.000474 0.000164
# 4 0.001852 -0.004573 0.000520 0.019763 0.000102 0.000300
# 5 -0.006373 0.004290 -0.000474 0.000102 0.025236 0.004249
# 6 -0.015376 0.008061 0.000164 0.000300 0.004249 0.053035
#
#
# Mechanical properties :
#
#
# Convention : Reuss Voigt Hill
#
# Bulk Modulus (GPa) = 51.16984 74.53358 62.85171
# Shear Modulus (GPa) = 28.94070 45.37003 37.15537
#
# Velocity S-wave (km/s) = 3.34534 4.18861 3.79050
# Velocity P-wave (km/s) = 5.89143 7.22596 6.59255
#
# Compressibility (1/GPa) = 0.01954276
#
# Stress axis : x y z
#
# Youngs Moduli (GPa) = 41.43184 64.64710 233.85506
#
# Poissons Ratio (x) = 0.57243 0.44300
# Poissons Ratio (y) = 0.36687 0.33207
# Poissons Ratio (z) = 0.07849 0.09180
#
# Static dielectric constant tensor:
#      x y z
#    x 1.910370 0.171770 0.008380 
#    y 0.171770 1.978090 -0.086340 
#    z 0.008380 -0.086340 2.154420 
# 
# From -- ./inp_files/93909.got.cif
#   From: 2010.05.17/outbox.cif.g08.bks.cpg/sg2_47_cif.got.tgz:93909.got - 2010.06.03 11:33:40.
