data_PCOD9083723
_publ_section_title
;
Structure prediction by ZEFSAII (Michael W. Deem and Ramdas Pophale) SiO2 
 PCOD9083723
Probable space group: P -1
;
_chemical_formula_sum "Si O2"
_cell_formula_units_Z 14
_cell_length_a 13.464684
_cell_length_b 16.333891
_cell_length_c 10.753916
_cell_angle_alpha 149.286619
_cell_angle_beta 144.007746
_cell_angle_gamma 28.601554
_cell_volume 563.844826
_symmetry_space_group_name_H-M "P -1"
_symmetry_group_IT_number 2
_symmetry_cell_setting 'triclinic'
loop_
_space_group_symop_operation_xyz
x,y,z
-x,-y,-z
loop_
_atom_site_type_symbol
_atom_site_label
_atom_site_fract_x
_atom_site_fract_y
_atom_site_fract_z
Si Si1 0.242525 0.895508 0.561705
Si Si2 0.318581 0.390012 0.957467
Si Si3 0.766421 0.561395 0.351233
Si Si4 0.271353 0.791368 0.720153
Si Si5 0.153219 0.834673 0.125127
Si Si6 0.013734 0.313556 0.816295
Si Si7 0.411406 0.984177 0.521134
O O1 0.228449 0.090395 0.764315
O O2 0.360142 0.793503 0.676563
O O3 0.267145 0.786283 0.314361
O O4 0.000000 0.000000 0.500000
O O5 0.528665 0.345364 0.168794
O O6 0.109926 0.600944 0.066680
O O7 0.322065 0.395933 0.822129
O O8 0.317214 0.206085 0.764191
O O9 0.602825 0.787460 0.535194
O O10 0.000000 0.500000 0.500000
O O11 0.785347 0.362357 0.143781
O O12 0.133751 0.711226 0.453829
O O13 0.098001 0.011361 0.894486
O O14 0.232498 0.949132 0.284374
O O15 0.000000 0.500000 0.000000
O O16 0.500000 0.000000 0.500000
#
# Coordination Sequence:
#
# PCOD9083723 Si02
#       7
#     2   2   2   2   2   2   2
#     4   8  17  34  58  86 115 153 189 227 291 363
#     4  11  21  39  58  84 123 156 194 252 299 351
#     4  11  23  41  61  83 113 157 206 253 301 354
#     4  10  20  36  61  90 120 158 192 238 304 366
#     4  10  19  40  63  85 119 157 195 248 302 357
#     4  10  19  34  57  89 121 155 195 234 290 365
#     4  10  23  40  59  85 116 156 207 252 294 350
#
# _framework density 24.829525
#
# number of rings (size 3 to 8) (size 9 to 14) (size 15 to 20)
#    0.000    2.286    0.000    6.000    0.000    0.000 
#    0.000   24.286    0.000    0.000    0.000    0.000 
#    0.000    0.000    0.000    0.000    0.000    0.000 
#
# Total GULP energy -78109.809577 kJ/mol
# GULP energy per Si atom -5579.272113 kJ/mol
# Density = 2.477301 g / cm^3
# Si number density = 24.829525 Si / 1000 Ang^3
#
#
#
# Elastic Constant Matrix: (Units=GPa)
#
#
# Indices 1 2 3 4 5 6 
#
# 1 80.0925 -0.1616 14.8899 2.1252 18.2643 10.4583
# 2 -0.1616 58.6437 31.2404 16.5310 2.8683 4.2512
# 3 14.8899 31.2404 115.1374 41.3554 27.9103 5.3098
# 4 2.1252 16.5310 41.3554 55.8946 8.9142 -13.1114
# 5 18.2643 2.8683 27.9103 8.9142 39.7046 9.2688
# 6 10.4583 4.2512 5.3098 -13.1114 9.2688 26.0626
#
#
#
# Elastic Compliance Matrix: (Units=1/GPa)
#
#
# Indices 1 2 3 4 5 6 
#
# 1 0.014339 0.001037 -0.000406 -0.000747 -0.005198 -0.004367
# 2 0.001037 0.021336 -0.004759 -0.005114 0.004099 -0.006958
# 3 -0.000406 -0.004759 0.015593 -0.010127 -0.007029 -0.004832
# 4 -0.000747 -0.005114 -0.010127 0.032597 -0.004429 0.021171
# 5 -0.005198 0.004099 -0.007029 -0.004429 0.036066 -0.012205
# 6 -0.004367 -0.006958 -0.004832 0.021171 -0.012205 0.057232
#
#
# Mechanical properties :
#
#
# Convention : Reuss Voigt Hill
#
# Bulk Modulus (GPa) = 23.24943 38.42344 30.83643
# Shear Modulus (GPa) = 25.03067 38.19268 31.61167
#
# Velocity S-wave (km/s) = 3.17850 3.92624 3.57199
# Velocity P-wave (km/s) = 4.78064 6.00519 5.42756
#
# Compressibility (1/GPa) = 0.04301182
#
# Stress axis : x y z
#
# Youngs Moduli (GPa) = 69.74172 46.86974 64.13079
#
# Poissons Ratio (x) = -0.04861 0.02603
# Poissons Ratio (y) = -0.07234 0.30521
# Poissons Ratio (z) = 0.02831 0.22306
#
# Static dielectric constant tensor:
#      x y z
#    x 2.108580 -0.005680 -0.039710 
#    y -0.005680 2.046780 0.133530 
#    z -0.039710 0.133530 2.103580 
# 
# From -- ./inp_files/456562.got.cif
#   From: 2010.05.17/outbox.cif.g08.bks.cpg/sg2_229_cif.got.tgz:456562.got - 2010.06.03 11:33:40.
