data_PCOD9083402
_publ_section_title
;
Structure prediction by ZEFSAII (Michael W. Deem and Ramdas Pophale) SiO2 
 PCOD9083402
Probable space group: P -1
;
_chemical_formula_sum "Si O2"
_cell_formula_units_Z 16
_cell_length_a 10.844614
_cell_length_b 15.206578
_cell_length_c 13.841405
_cell_angle_alpha 137.661745
_cell_angle_beta 33.705632
_cell_angle_gamma 139.681485
_cell_volume 783.825173
_symmetry_space_group_name_H-M "P -1"
_symmetry_group_IT_number 2
_symmetry_cell_setting 'triclinic'
loop_
_space_group_symop_operation_xyz
x,y,z
-x,-y,-z
loop_
_atom_site_type_symbol
_atom_site_label
_atom_site_fract_x
_atom_site_fract_y
_atom_site_fract_z
Si Si1 0.636387 0.505547 0.167405
Si Si2 0.307577 0.216102 0.922709
Si Si3 0.139805 0.258287 0.263240
Si Si4 0.848098 0.379795 0.758100
Si Si5 0.989191 0.371893 0.281136
Si Si6 0.446718 0.227009 0.510336
Si Si7 0.267668 0.377984 0.602814
Si Si8 0.741266 0.992043 0.380546
O O1 0.392349 0.365364 0.227201
O O2 0.558754 0.639848 0.313063
O O3 0.778591 0.547534 0.209476
O O4 0.773662 0.469909 0.961188
O O5 0.595184 0.270303 0.791561
O O6 0.207117 0.107124 0.813494
O O7 0.198463 0.171630 0.065429
O O8 0.216323 0.342666 0.067269
O O9 0.022074 0.351850 0.356842
O O10 0.955755 0.146070 0.362677
O O11 0.993103 0.485446 0.664687
O O12 0.033673 0.326838 0.647078
O O13 0.725133 0.253903 0.334351
O O14 0.335645 0.253240 0.503348
O O15 0.312399 0.085820 0.544633
O O16 0.500000 0.500000 0.500000
O O17 0.500000 0.000000 0.500000
#
# Coordination Sequence:
#
# PCOD9083402 Si02
#       8
#     2   2   2   2   2   2   2   2
#     4   9  21  36  56  86 109 144 188 231 267 326
#     4   9  22  34  55  84 115 144 181 223 284 326
#     4   9  21  35  55  81 115 143 178 222 280 326
#     4  11  18  36  58  84 114 142 187 228 274 322
#     4  10  19  34  55  83 118 141 177 229 282 325
#     4  10  22  35  55  83 115 143 189 222 279 319
#     4  10  21  36  55  80 114 146 186 229 272 320
#     4  12  21  36  55  83 114 148 180 228 276 336
#
# _framework density 20.412716
#
# number of rings (size 3 to 8) (size 9 to 14) (size 15 to 20)
#    1.500    0.500    2.500    1.875    1.750    2.500 
#    0.000    0.000    0.000    7.500    0.000    0.000 
#    0.000    0.000    0.000    0.000    0.000    0.000 
#
# Total GULP energy -89118.339881 kJ/mol
# GULP energy per Si atom -5569.896243 kJ/mol
# Density = 2.036626 g / cm^3
# Si number density = 20.412716 Si / 1000 Ang^3
#
#
#
# Elastic Constant Matrix: (Units=GPa)
#
#
# Indices 1 2 3 4 5 6 
#
# 1 116.5080 55.4889 26.6388 -6.6054 -15.8659 -7.6660
# 2 55.4889 111.6964 7.6791 -33.2596 -2.4681 -27.2791
# 3 26.6388 7.6791 49.7227 -10.0431 -0.5380 -6.1257
# 4 -6.6054 -33.2596 -10.0431 25.5128 4.9717 3.6090
# 5 -15.8659 -2.4681 -0.5380 4.9717 31.0848 -0.8318
# 6 -7.6660 -27.2791 -6.1257 3.6090 -0.8318 26.0155
#
#
#
# Elastic Compliance Matrix: (Units=1/GPa)
#
#
# Indices 1 2 3 4 5 6 
#
# 1 0.022319 -0.022925 -0.016571 -0.030967 0.013792 -0.016627
# 2 -0.022925 0.045271 0.021707 0.059556 -0.016265 0.037043
# 3 -0.016571 0.021707 0.035606 0.037343 -0.011536 0.020714
# 4 -0.030967 0.059556 0.037343 0.122907 -0.028907 0.044142
# 5 0.013792 -0.016265 -0.011536 -0.028907 0.042065 -0.010352
# 6 -0.016627 0.037043 0.020714 0.044142 -0.010352 0.070805
#
#
# Mechanical properties :
#
#
# Convention : Reuss Voigt Hill
#
# Bulk Modulus (GPa) = 14.78867 50.83784 32.81325
# Shear Modulus (GPa) = 12.59161 29.06397 20.82779
#
# Velocity S-wave (km/s) = 2.48634 3.77744 3.19773
# Velocity P-wave (km/s) = 3.93740 6.63208 5.45379
#
# Compressibility (1/GPa) = 0.06761935
#
# Stress axis : x y z
#
# Youngs Moduli (GPa) = 44.80498 22.08929 28.08490
#
# Poissons Ratio (x) = 0.50640 0.46538
# Poissons Ratio (y) = 1.02717 -0.60965
# Poissons Ratio (z) = 0.74244 -0.47950
#
# Static dielectric constant tensor:
#      x y z
#    x 1.723870 -0.008790 0.017780 
#    y -0.008790 1.723910 0.035200 
#    z 0.017780 0.035200 1.811870 
# 
# From -- ./inp_files/521723.got.cif
#   From: 2010.05.17/outbox.cif.g08.bks.cpg/sg2_261_cif.got.tgz:521723.got - 2010.06.03 11:33:40.
