data_PCOD9083447
_publ_section_title
;
Structure prediction by ZEFSAII (Michael W. Deem and Ramdas Pophale) SiO2 
 PCOD9083447
Probable space group: P -1
;
_chemical_formula_sum "Si O2"
_cell_formula_units_Z 16
_cell_length_a 23.879983
_cell_length_b 10.441221
_cell_length_c 20.829641
_cell_angle_alpha 152.158835
_cell_angle_beta 16.409586
_cell_angle_gamma 144.676129
_cell_volume 664.321566
_symmetry_space_group_name_H-M "P -1"
_symmetry_group_IT_number 2
_symmetry_cell_setting 'triclinic'
loop_
_space_group_symop_operation_xyz
x,y,z
-x,-y,-z
loop_
_atom_site_type_symbol
_atom_site_label
_atom_site_fract_x
_atom_site_fract_y
_atom_site_fract_z
Si Si1 0.877020 0.262496 0.206693
Si Si2 0.416542 0.334407 0.923186
Si Si3 0.428317 0.319906 0.194367
Si Si4 0.969014 0.773944 0.112773
Si Si5 0.167044 0.643961 0.445997
Si Si6 0.172218 0.660694 0.087552
Si Si7 0.559340 0.695011 0.465070
Si Si8 0.977230 0.702852 0.451023
O O1 0.657766 0.422585 0.547033
O O2 0.007001 0.495678 0.174084
O O3 0.877653 0.200412 0.102572
O O4 0.000000 0.000000 0.000000
O O5 0.415518 0.570788 0.974840
O O6 0.628415 0.340717 0.731531
O O7 0.422920 0.016599 0.751751
O O8 0.242138 0.441035 0.214525
O O9 0.226733 0.309952 0.370349
O O10 0.500000 0.000000 0.000000
O O11 0.765489 0.769927 0.295901
O O12 0.934382 0.033275 0.314559
O O13 0.000000 0.500000 0.000000
O O14 0.012783 0.534379 0.612782
O O15 0.157584 0.662535 0.182288
O O16 0.084632 0.988624 0.312387
O O17 0.378685 0.500254 0.753110
O O18 0.500000 0.500000 0.500000
#
# Coordination Sequence:
#
# PCOD9083447 Si02
#       8
#     2   2   2   2   2   2   2   2
#     4  10  19  36  58  77 104 150 194 223 266 338
#     4   9  18  31  51  77 105 138 182 219 263 328
#     4  10  20  32  53  80 112 141 176 227 284 322
#     4  10  21  34  55  82 111 139 182 235 278 322
#     4   9  17  31  52  77 102 137 180 222 261 325
#     4   9  17  30  54  78 101 134 192 223 253 316
#     4  10  19  34  56  78 109 148 185 220 273 337
#     4   9  17  32  53  80 102 141 186 221 262 324
#
# _framework density 24.084720999999998
#
# number of rings (size 3 to 8) (size 9 to 14) (size 15 to 20)
#    0.000    2.500    0.000    4.500    1.750    1.000 
#    0.000    0.000   11.000    3.750    0.000    0.000 
#    0.000    0.000    0.000    0.000    0.000    0.000 
#
# Total GULP energy -89312.936427 kJ/mol
# GULP energy per Si atom -5582.058527 kJ/mol
# Density = 2.402990 g / cm^3
# Si number density = 24.084721 Si / 1000 Ang^3
#
#
#
# Elastic Constant Matrix: (Units=GPa)
#
#
# Indices 1 2 3 4 5 6 
#
# 1 71.9186 16.7255 38.2105 12.9901 11.1179 -6.0222
# 2 16.7255 137.1503 84.1881 20.9550 28.6103 -28.3769
# 3 38.2105 84.1881 166.1698 27.3886 44.2718 -25.2943
# 4 12.9901 20.9550 27.3886 48.5577 6.3788 -4.5635
# 5 11.1179 28.6103 44.2718 6.3788 40.9520 -2.4125
# 6 -6.0222 -28.3769 -25.2943 -4.5635 -2.4125 42.7430
#
#
#
# Elastic Compliance Matrix: (Units=1/GPa)
#
#
# Indices 1 2 3 4 5 6 
#
# 1 0.016161 0.000775 -0.003389 -0.002593 -0.000834 0.000462
# 2 0.000775 0.011813 -0.004161 -0.002041 -0.003347 0.005082
# 3 -0.003389 -0.004161 0.012154 -0.002712 -0.008703 0.003171
# 4 -0.002593 -0.002041 -0.002712 0.023449 0.001365 -0.000744
# 5 -0.000834 -0.003347 -0.008703 0.001365 0.035866 -0.005320
# 6 0.000462 0.005082 0.003171 -0.000744 -0.005320 0.028332
#
#
# Mechanical properties :
#
#
# Convention : Reuss Voigt Hill
#
# Bulk Modulus (GPa) = 37.62554 72.60964 55.11759
# Shear Modulus (GPa) = 33.29278 42.19153 37.74216
#
# Velocity S-wave (km/s) = 3.72199 4.18999 3.96290
# Velocity P-wave (km/s) = 5.84183 7.32264 6.62375
#
# Compressibility (1/GPa) = 0.02657769
#
# Stress axis : x y z
#
# Youngs Moduli (GPa) = 61.87765 84.65493 82.27917
#
# Poissons Ratio (x) = -0.06564 0.27884
# Poissons Ratio (y) = -0.04798 0.34239
# Poissons Ratio (z) = 0.20970 0.35227
#
# Static dielectric constant tensor:
#      x y z
#    x 1.947880 0.011380 -0.035450 
#    y 0.011380 1.850800 -0.032500 
#    z -0.035450 -0.032500 2.003340 
# 
# From -- ./inp_files/262105.got.cif
#   From: 2010.05.17/outbox.cif.g08.bks.cpg/sg2_132_cif.got.tgz:262105.got - 2010.06.03 11:33:40.
