data_PCOD9083441
_publ_section_title
;
Structure prediction by ZEFSAII (Michael W. Deem and Ramdas Pophale) SiO2 
 PCOD9083441
Probable space group: P -1
;
_chemical_formula_sum "Si O2"
_cell_formula_units_Z 16
_cell_length_a 17.856048
_cell_length_b 12.143376
_cell_length_c 12.140617
_cell_angle_alpha 109.984798
_cell_angle_beta 137.237627
_cell_angle_gamma 37.268337
_cell_volume 874.031602
_symmetry_space_group_name_H-M "P -1"
_symmetry_group_IT_number 2
_symmetry_cell_setting 'triclinic'
loop_
_space_group_symop_operation_xyz
x,y,z
-x,-y,-z
loop_
_atom_site_type_symbol
_atom_site_label
_atom_site_fract_x
_atom_site_fract_y
_atom_site_fract_z
Si Si1 0.222295 0.841825 0.089888
Si Si2 0.021551 0.601426 0.413958
Si Si3 0.562952 0.651912 0.241765
Si Si4 0.401629 0.866598 0.908064
Si Si5 0.436162 0.609044 0.587879
Si Si6 0.128093 0.516103 0.760604
Si Si7 0.100836 0.041318 0.264348
Si Si8 0.239504 0.758595 0.643577
O O1 0.380152 0.781121 0.172902
O O2 0.346390 0.612281 0.187843
O O3 0.150617 0.976809 0.167026
O O4 0.034617 0.954284 0.855722
O O5 0.972021 0.510782 0.307052
O O6 0.234182 0.457443 0.536385
O O7 0.073901 0.565700 0.588501
O O8 0.810726 0.867509 0.252536
O O9 0.667243 0.431308 0.248029
O O10 0.456187 0.811167 0.077370
O O11 0.361481 0.769550 0.794950
O O12 0.616819 0.717051 0.032315
O O13 0.500000 0.500000 0.500000
O O14 0.277362 0.691357 0.532977
O O15 0.312780 0.839039 0.499044
O O16 0.024798 0.727173 0.768672
O O17 0.000000 0.000000 0.500000
#
# Coordination Sequence:
#
# PCOD9083441 Si02
#       8
#     2   2   2   2   2   2   2   2
#     4   9  20  35  52  80 106 134 173 212 261 324
#     4  10  21  37  51  77 106 136 177 222 257 312
#     4  10  21  34  51  77 108 137 170 212 273 316
#     4  11  21  34  54  75 106 141 170 216 272 313
#     4   9  19  33  50  74 107 141 167 206 267 318
#     4  10  21  35  56  76 101 138 181 217 261 309
#     4  10  19  34  56  76 104 137 174 218 256 310
#     4  11  20  31  52  81 109 132 173 221 263 320
#
# _framework density 18.305973000000002
#
# number of rings (size 3 to 8) (size 9 to 14) (size 15 to 20)
#    0.000    2.000    1.250    3.000    3.500    0.000 
#    0.000    0.625    0.000    0.750    0.000    0.000 
#    0.000    0.000    0.000    0.000    0.000    0.000 
#
# Total GULP energy -89067.391627 kJ/mol
# GULP energy per Si atom -5566.711977 kJ/mol
# Density = 1.826431 g / cm^3
# Si number density = 18.305973 Si / 1000 Ang^3
#
#
#
# Elastic Constant Matrix: (Units=GPa)
#
#
# Indices 1 2 3 4 5 6 
#
# 1 79.1755 34.2385 35.4384 -1.7936 32.6801 0.3016
# 2 34.2385 54.0088 20.9959 -1.5025 14.8973 -6.8975
# 3 35.4384 20.9959 83.8318 -11.4291 14.3885 3.2309
# 4 -1.7936 -1.5025 -11.4291 24.6200 7.8987 5.2796
# 5 32.6801 14.8973 14.3885 7.8987 33.5452 -4.3586
# 6 0.3016 -6.8975 3.2309 5.2796 -4.3586 27.9039
#
#
#
# Elastic Compliance Matrix: (Units=1/GPa)
#
#
# Indices 1 2 3 4 5 6 
#
# 1 0.030433 -0.011356 -0.003739 0.010185 -0.026540 -0.008776
# 2 -0.011356 0.027319 -0.003110 -0.002995 0.002025 0.008119
# 3 -0.003739 -0.003110 0.016794 0.010193 -0.005285 -0.005427
# 4 0.010185 -0.002995 0.010193 0.059082 -0.029185 -0.017768
# 5 -0.026540 0.002025 -0.005285 -0.029185 0.066147 0.017254
# 6 -0.008776 0.008119 -0.005427 -0.017768 0.017254 0.044624
#
#
# Mechanical properties :
#
#
# Convention : Reuss Voigt Hill
#
# Bulk Modulus (GPa) = 26.22247 44.26242 35.24244
# Shear Modulus (GPa) = 17.03447 25.63669 21.33558
#
# Velocity S-wave (km/s) = 3.05379 3.74633 3.41764
# Velocity P-wave (km/s) = 5.17589 6.55324 5.90486
#
# Compressibility (1/GPa) = 0.03813523
#
# Stress axis : x y z
#
# Youngs Moduli (GPa) = 32.85886 36.60499 59.54460
#
# Poissons Ratio (x) = 0.41570 0.22263
# Poissons Ratio (y) = 0.37315 0.18519
# Poissons Ratio (z) = 0.12286 0.11385
#
# Static dielectric constant tensor:
#      x y z
#    x 1.666740 -0.019960 -0.002470 
#    y -0.019960 1.621930 -0.016750 
#    z -0.002470 -0.016750 1.674810 
# 
# From -- ./inp_files/431337.got.cif
#   From: 2010.05.17/outbox.cif.g08.bks.cpg/sg2_216_cif.got.tgz:431337.got - 2010.06.03 11:33:40.
