data_PCOD9083139
_publ_section_title
;
Structure prediction by ZEFSAII (Michael W. Deem and Ramdas Pophale) SiO2 
 PCOD9083139
Probable space group: P -1
;
_chemical_formula_sum "Si O2"
_cell_formula_units_Z 15
_cell_length_a 6.712805
_cell_length_b 18.327200
_cell_length_c 8.851552
_cell_angle_alpha 130.237438
_cell_angle_beta 99.908305
_cell_angle_gamma 48.800188
_cell_volume 561.315851
_symmetry_space_group_name_H-M "P -1"
_symmetry_group_IT_number 2
_symmetry_cell_setting 'triclinic'
loop_
_space_group_symop_operation_xyz
x,y,z
-x,-y,-z
loop_
_atom_site_type_symbol
_atom_site_label
_atom_site_fract_x
_atom_site_fract_y
_atom_site_fract_z
Si Si1 0.246008 0.196780 0.146264
Si Si2 0.071958 0.517679 0.196404
Si Si3 0.307110 0.687172 0.101872
Si Si4 0.168703 0.698864 0.429154
Si Si5 0.163291 0.001047 0.886038
Si Si6 0.780866 0.468008 0.301915
Si Si7 0.730644 0.016327 0.710686
Si Si8 0.000000 0.000000 0.500000
O O1 0.490588 0.132417 0.221433
O O2 0.980889 0.362486 0.324415
O O3 0.128664 0.127502 0.049221
O O4 0.458389 0.129555 0.935472
O O5 0.020617 0.647717 0.353724
O O6 0.917615 0.511531 0.296728
O O7 0.423599 0.386620 0.074074
O O8 0.000000 0.500000 0.000000
O O9 0.357838 0.641468 0.222077
O O10 0.141768 0.842368 0.305636
O O11 0.168916 0.640849 0.947422
O O12 0.433717 0.611062 0.469356
O O13 0.911464 0.865422 0.601294
O O14 0.008025 0.002420 0.724325
O O15 0.000000 0.000000 0.000000
O O16 0.662797 0.058557 0.585290
#
# Coordination Sequence:
#
# PCOD9083139 Si02
#       8
#     2   2   2   2   2   2   2   1
#     4  10  21  38  64  91 107 148 209 241 285 345
#     4  11  18  33  53  74 110 163 198 223 270 345
#     4  10  19  34  48  76 114 155 190 229 281 337
#     4  10  21  34  51  79 117 154 188 229 287 340
#     4   9  20  41  66  83 113 152 191 251 298 340
#     4  11  20  34  56  81 112 150 198 239 273 343
#     4  10  21  39  56  87 124 154 188 238 296 346
#     4  10  20  34  54  84 124 152 180 232 292 346
#
# _framework density 26.722920999999999
#
# number of rings (size 3 to 8) (size 9 to 14) (size 15 to 20)
#    0.000    1.867    2.667    2.400    0.000    4.267 
#    2.400    4.667    0.000    8.000    0.000    0.000 
#    0.000    0.000    0.000    0.000    0.000    0.000 
#
# Total GULP energy -83691.922829 kJ/mol
# GULP energy per Si atom -5579.461522 kJ/mol
# Density = 2.666210 g / cm^3
# Si number density = 26.722921 Si / 1000 Ang^3
#
#
#
# Elastic Constant Matrix: (Units=GPa)
#
#
# Indices 1 2 3 4 5 6 
#
# 1 181.9858 59.3778 55.7327 9.2402 13.6539 34.0858
# 2 59.3778 130.3566 33.8679 18.3851 12.1782 16.4602
# 3 55.7327 33.8679 88.1407 2.9491 -2.7882 13.0606
# 4 9.2402 18.3851 2.9491 30.0036 16.2301 -3.4700
# 5 13.6539 12.1782 -2.7882 16.2301 47.6449 -2.7698
# 6 34.0858 16.4602 13.0606 -3.4700 -2.7698 55.5786
#
#
#
# Elastic Compliance Matrix: (Units=1/GPa)
#
#
# Indices 1 2 3 4 5 6 
#
# 1 0.008221 -0.002038 -0.003945 -0.000102 -0.002242 -0.003630
# 2 -0.002038 0.010170 -0.002217 -0.005345 -0.000417 -0.001596
# 3 -0.003945 -0.002217 0.014833 -0.000364 0.002672 -0.000299
# 4 -0.000102 -0.005345 -0.000364 0.044440 -0.013541 0.003831
# 5 -0.002242 -0.000417 0.002672 -0.013541 0.026586 0.001350
# 6 -0.003630 -0.001596 -0.000299 0.003831 0.001350 0.021068
#
#
# Mechanical properties :
#
#
# Convention : Reuss Voigt Hill
#
# Bulk Modulus (GPa) = 59.43830 77.60442 68.52136
# Shear Modulus (GPa) = 33.93844 43.41238 38.67541
#
# Velocity S-wave (km/s) = 3.56759 4.03493 3.80843
# Velocity P-wave (km/s) = 6.26586 7.12818 6.71088
#
# Compressibility (1/GPa) = 0.01682417
#
# Stress axis : x y z
#
# Youngs Moduli (GPa) = 121.63719 98.33067 67.41694
#
# Poissons Ratio (x) = 0.20036 0.26597
# Poissons Ratio (y) = 0.24784 0.14948
# Poissons Ratio (z) = 0.47987 0.21802
#
# Static dielectric constant tensor:
#      x y z
#    x 2.268960 -0.095600 -0.003250 
#    y -0.095600 2.436720 -0.282180 
#    z -0.003250 -0.282180 2.278300 
# 
# From -- ./inp_files/63734.got.cif
#   From: 2010.05.17/outbox.cif.g08.bks.cpg/sg2_32_cif.got.tgz:63734.got - 2010.06.03 11:33:40.
