data_PCOD9083987
_publ_section_title
;
Structure prediction by ZEFSAII (Michael W. Deem and Ramdas Pophale) SiO2 
 PCOD9083987
Probable space group: P -1
;
_chemical_formula_sum "Si O2"
_cell_formula_units_Z 16
_cell_length_a 7.547251
_cell_length_b 7.842678
_cell_length_c 17.542934
_cell_angle_alpha 34.962035
_cell_angle_beta 92.336402
_cell_angle_gamma 83.832320
_cell_volume 576.260894
_symmetry_space_group_name_H-M "P -1"
_symmetry_group_IT_number 2
_symmetry_cell_setting 'triclinic'
loop_
_space_group_symop_operation_xyz
x,y,z
-x,-y,-z
loop_
_atom_site_type_symbol
_atom_site_label
_atom_site_fract_x
_atom_site_fract_y
_atom_site_fract_z
Si Si1 0.330876 0.993004 0.804330
Si Si2 0.240909 0.358184 0.037179
Si Si3 0.767749 0.568993 0.503562
Si Si4 0.057244 0.899617 0.433078
Si Si5 0.673297 0.468476 0.300782
Si Si6 0.147413 0.420295 0.181186
Si Si7 0.514536 0.020416 0.402817
Si Si8 0.332074 0.899635 0.079616
O O1 0.547660 0.830608 0.871594
O O2 0.277541 0.217826 0.649951
O O3 0.263226 0.219471 0.792498
O O4 0.244174 0.708667 0.896595
O O5 0.127471 0.376292 0.106873
O O6 0.212429 0.179681 0.024793
O O7 0.857482 0.235934 0.597634
O O8 0.905311 0.703407 0.509067
O O9 0.578276 0.668365 0.506737
O O10 0.202277 0.771867 0.549353
O O11 0.016034 0.268835 0.287591
O O12 0.653213 0.244466 0.312001
O O13 0.452381 0.639818 0.233526
O O14 0.338181 0.184450 0.294689
O O15 0.198897 0.737585 0.088858
O O16 0.500000 0.000000 0.500000
O O17 0.500000 0.000000 0.000000
#
# Coordination Sequence:
#
# PCOD9083987 Si02
#       8
#     2   2   2   2   2   2   2   2
#     4   9  17  34  57  83 111 149 200 241 296 350
#     4  10  19  34  59  88 112 154 195 251 307 342
#     4  10  22  38  60  84 117 162 199 242 294 370
#     4  10  22  40  57  83 121 161 199 237 302 363
#     4   9  19  33  54  83 116 148 191 238 299 355
#     4  11  21  37  58  89 121 152 196 255 297 355
#     4  11  21  35  56  88 120 151 194 249 299 348
#     4  10  21  34  58  91 123 146 201 257 299 354
#
# _framework density 27.765204000000001
#
# number of rings (size 3 to 8) (size 9 to 14) (size 15 to 20)
#    0.000    2.000    2.500    2.250    1.750    4.000 
#    0.000    0.625    0.000    0.750    0.000    0.000 
#    0.000    0.000    0.000    0.000    0.000    0.000 
#
# Total GULP energy -89188.271135 kJ/mol
# GULP energy per Si atom -5574.266946 kJ/mol
# Density = 2.770201 g / cm^3
# Si number density = 27.765204 Si / 1000 Ang^3
#
#
#
# Elastic Constant Matrix: (Units=GPa)
#
#
# Indices 1 2 3 4 5 6 
#
# 1 63.5317 20.8186 0.9660 -8.9558 -13.8420 21.7325
# 2 20.8186 126.6410 30.8441 -27.1706 -5.6387 14.9772
# 3 0.9660 30.8441 138.2451 -5.0973 -14.1882 9.9615
# 4 -8.9558 -27.1706 -5.0973 52.0710 4.3705 2.2968
# 5 -13.8420 -5.6387 -14.1882 4.3705 29.4336 -7.2184
# 6 21.7325 14.9772 9.9615 2.2968 -7.2184 54.8683
#
#
#
# Elastic Compliance Matrix: (Units=1/GPa)
#
#
# Indices 1 2 3 4 5 6 
#
# 1 0.020948 -0.002196 0.001778 0.002251 0.008229 -0.007032
# 2 -0.002196 0.009941 -0.002023 0.004800 -0.001268 -0.001844
# 3 0.001778 -0.002023 0.008168 -0.000252 0.004159 -0.001077
# 4 0.002251 0.004800 -0.000252 0.022415 -0.002305 -0.003397
# 5 0.008229 -0.001268 0.004159 -0.002305 0.040376 0.001740
# 6 -0.007032 -0.001844 -0.001077 -0.003397 0.001740 0.022081
#
#
# Mechanical properties :
#
#
# Convention : Reuss Voigt Hill
#
# Bulk Modulus (GPa) = 29.26067 48.18614 38.72341
# Shear Modulus (GPa) = 35.66270 45.66052 40.66161
#
# Velocity S-wave (km/s) = 3.58779 4.05967 3.83101
# Velocity P-wave (km/s) = 5.26541 6.27432 5.79188
#
# Compressibility (1/GPa) = 0.03417557
#
# Stress axis : x y z
#
# Youngs Moduli (GPa) = 47.73627 100.58936 122.43469
#
# Poissons Ratio (x) = 0.22087 -0.21766
# Poissons Ratio (y) = 0.10482 0.24769
# Poissons Ratio (z) = -0.08487 0.20349
#
# Static dielectric constant tensor:
#      x y z
#    x 2.413180 -0.096950 -0.062550 
#    y -0.096950 2.259960 -0.021560 
#    z -0.062550 -0.021560 2.286970 
# 
# From -- ./inp_files/587715.got.cif
#   From: 2010.05.17/outbox.cif.g08.bks.cpg/sg2_294_cif.got.tgz:587715.got - 2010.06.03 11:33:40.
