data_PCOD9083254
_publ_section_title
;
Structure prediction by ZEFSAII (Michael W. Deem and Ramdas Pophale) SiO2 
 PCOD9083254
Probable space group: P -1
;
_chemical_formula_sum "Si O2"
_cell_formula_units_Z 16
_cell_length_a 22.353535
_cell_length_b 28.669797
_cell_length_c 9.350270
_cell_angle_alpha 32.861093
_cell_angle_beta 154.757617
_cell_angle_gamma 161.338476
_cell_volume 811.326700
_symmetry_space_group_name_H-M "P -1"
_symmetry_group_IT_number 2
_symmetry_cell_setting 'triclinic'
loop_
_space_group_symop_operation_xyz
x,y,z
-x,-y,-z
loop_
_atom_site_type_symbol
_atom_site_label
_atom_site_fract_x
_atom_site_fract_y
_atom_site_fract_z
Si Si1 0.847439 0.418612 0.526376
Si Si2 0.172715 0.429692 0.710735
Si Si3 0.754051 0.103796 0.714952
Si Si4 0.471383 0.088644 0.540048
Si Si5 0.855757 0.139374 0.334882
Si Si6 0.512727 0.441225 0.510865
Si Si7 0.835029 0.550879 0.682560
Si Si8 0.862416 0.750915 0.594509
O O1 0.801158 0.485613 0.330148
O O2 0.609775 0.246408 0.424331
O O3 0.000000 0.500000 0.500000
O O4 0.991227 0.434463 0.914705
O O5 0.219964 0.486579 0.506406
O O6 0.901696 0.258300 0.574841
O O7 0.350105 0.438648 0.105749
O O8 0.500000 0.000000 0.500000
O O9 0.698836 0.012550 0.701429
O O10 0.923968 0.152165 0.081228
O O11 0.312502 0.998464 0.570293
O O12 0.676511 0.115234 0.923408
O O13 0.030548 0.290202 0.413155
O O14 0.016412 0.162275 0.515851
O O15 0.608088 0.437940 0.589238
O O16 0.740388 0.598957 0.674762
O O17 0.352002 0.313706 0.610762
#
# Coordination Sequence:
#
# PCOD9083254 Si02
#       8
#     2   2   2   2   2   2   2   2
#     4  11  25  37  57  88 130 154 189 239 313 350
#     4  11  22  38  59  93 116 155 196 248 296 350
#     4  11  19  31  57  88 115 144 202 242 286 339
#     4  10  19  34  53  84 118 154 185 244 295 346
#     4   9  17  32  55  83 112 148 194 241 287 339
#     4   9  20  34  62  87 119 151 203 244 290 340
#     4  10  20  38  59  88 118 153 199 248 287 349
#     4   9  18  31  54  87 112 145 191 247 285 333
#
# _framework density 19.720786
#
# number of rings (size 3 to 8) (size 9 to 14) (size 15 to 20)
#    0.000    2.000    2.500    1.500   10.500    0.000 
#    0.000    0.000    0.000    3.750    3.250    0.000 
#    0.000    0.000    0.000    0.000    0.000    0.000 
#
# Total GULP energy -89241.168578 kJ/mol
# GULP energy per Si atom -5577.573036 kJ/mol
# Density = 1.967590 g / cm^3
# Si number density = 19.720786 Si / 1000 Ang^3
#
#
#
# Elastic Constant Matrix: (Units=GPa)
#
#
# Indices 1 2 3 4 5 6 
#
# 1 125.4916 53.0787 25.6833 9.7554 -9.9943 13.6019
# 2 53.0787 93.0879 22.7350 17.3541 6.8062 8.3708
# 3 25.6833 22.7350 63.1190 11.0152 -10.4270 -6.4903
# 4 9.7554 17.3541 11.0152 26.2782 -0.3734 -1.1687
# 5 -9.9943 6.8062 -10.4270 -0.3734 28.0564 8.7324
# 6 13.6019 8.3708 -6.4903 -1.1687 8.7324 29.0466
#
#
#
# Elastic Compliance Matrix: (Units=1/GPa)
#
#
# Indices 1 2 3 4 5 6 
#
# 1 0.012477 -0.006585 -0.002268 0.000477 0.007265 -0.006617
# 2 -0.006585 0.017455 -0.003627 -0.007706 -0.007807 -0.000720
# 3 -0.002268 -0.003627 0.020445 -0.005040 0.006165 0.004619
# 4 0.000477 -0.007706 -0.005040 0.045198 -0.000077 0.002713
# 5 0.007265 -0.007807 0.006165 -0.000077 0.046716 -0.013822
# 6 -0.006617 -0.000720 0.004619 0.002713 -0.013822 0.043030
#
#
# Mechanical properties :
#
#
# Convention : Reuss Voigt Hill
#
# Bulk Modulus (GPa) = 39.34381 53.85471 46.59926
# Shear Modulus (GPa) = 22.85654 28.68968 25.77311
#
# Velocity S-wave (km/s) = 3.40811 3.81831 3.61903
# Velocity P-wave (km/s) = 5.95657 6.84158 6.41436
#
# Compressibility (1/GPa) = 0.02541696
#
# Stress axis : x y z
#
# Youngs Moduli (GPa) = 80.14742 57.28903 48.91075
#
# Poissons Ratio (x) = 0.37728 0.11095
# Poissons Ratio (y) = 0.52781 0.17738
# Poissons Ratio (z) = 0.18180 0.20776
#
# Static dielectric constant tensor:
#      x y z
#    x 1.730710 0.021710 0.008570 
#    y 0.021710 1.692500 0.000830 
#    z 0.008570 0.000830 1.715910 
# 
# From -- ./inp_files/238540.got.cif
#   From: 2010.05.17/outbox.cif.g08.bks.cpg/sg2_120_cif.got.tgz:238540.got - 2010.06.03 11:33:40.
