data_PCOD9083727
_publ_section_title
;
Structure prediction by ZEFSAII (Michael W. Deem and Ramdas Pophale) SiO2 
 PCOD9083727
Probable space group: P -1
;
_chemical_formula_sum "Si O2"
_cell_formula_units_Z 14
_cell_length_a 11.627751
_cell_length_b 6.234592
_cell_length_c 12.145394
_cell_angle_alpha 123.934255
_cell_angle_beta 86.637124
_cell_angle_gamma 78.344594
_cell_volume 699.340904
_symmetry_space_group_name_H-M "P -1"
_symmetry_group_IT_number 2
_symmetry_cell_setting 'triclinic'
loop_
_space_group_symop_operation_xyz
x,y,z
-x,-y,-z
loop_
_atom_site_type_symbol
_atom_site_label
_atom_site_fract_x
_atom_site_fract_y
_atom_site_fract_z
Si Si1 0.769269 0.944361 0.671385
Si Si2 0.120186 0.162590 0.597512
Si Si3 0.905620 0.902786 0.053003
Si Si4 0.535954 0.237766 0.630673
Si Si5 0.281564 0.546318 0.726669
Si Si6 0.715789 0.424532 0.528277
Si Si7 0.078097 0.681189 0.182770
O O1 0.860933 0.830276 0.532068
O O2 0.752435 0.676565 0.650289
O O3 0.640683 0.103037 0.672177
O O4 0.824045 0.156046 0.789625
O O5 0.196968 0.351989 0.697736
O O6 0.986559 0.265284 0.679742
O O7 0.182840 0.856509 0.541477
O O8 0.972645 0.809622 0.138255
O O9 0.789988 0.154515 0.148862
O O10 0.877649 0.637428 0.930835
O O11 0.000000 0.000000 0.000000
O O12 0.412039 0.428442 0.738795
O O13 0.597893 0.392771 0.585616
O O14 0.500000 0.000000 0.500000
O O15 0.302289 0.533630 0.589534
#
# Coordination Sequence:
#
# PCOD9083727 Si02
#       7
#     2   2   2   2   2   2   2
#     4  10  23  36  57  93 124 152 183 246 302 350
#     4  10  19  35  61  90 119 149 187 245 301 353
#     4  11  24  40  63  81 113 166 202 245 278 339
#     4  11  20  35  60  91 120 151 191 238 295 359
#     4  11  20  36  59  90 115 150 201 236 288 345
#     4  10  19  34  57  90 119 153 181 237 306 338
#     4  11  23  41  58  86 120 154 206 237 289 350
#
# _framework density 20.018851000000002
#
# number of rings (size 3 to 8) (size 9 to 14) (size 15 to 20)
#    0.000    1.429    7.143    0.857    0.000    2.857 
#    0.000    0.714    0.000    1.714    0.000    0.000 
#    0.000    0.000    0.000    0.000    0.000    0.000 
#
# Total GULP energy -78210.856031 kJ/mol
# GULP energy per Si atom -5586.489717 kJ/mol
# Density = 1.997329 g / cm^3
# Si number density = 20.018851 Si / 1000 Ang^3
#
#
#
# Elastic Constant Matrix: (Units=GPa)
#
#
# Indices 1 2 3 4 5 6 
#
# 1 112.8386 42.7791 55.2025 41.4732 6.2598 10.9731
# 2 42.7791 89.7475 33.1946 39.4500 3.3619 18.4731
# 3 55.2025 33.1946 70.8688 46.1452 2.3532 0.4585
# 4 41.4732 39.4500 46.1452 45.6971 3.0829 3.1939
# 5 6.2598 3.3619 2.3532 3.0829 30.4280 13.2242
# 6 10.9731 18.4731 0.4585 3.1939 13.2242 36.5693
#
#
#
# Elastic Compliance Matrix: (Units=1/GPa)
#
#
# Indices 1 2 3 4 5 6 
#
# 1 0.015538 -0.002235 -0.009500 -0.002326 -0.000693 -0.002961
# 2 -0.002235 0.021719 0.006171 -0.022542 0.004178 -0.009921
# 3 -0.009500 0.006171 0.048452 -0.045893 0.000965 0.002785
# 4 -0.002326 -0.022542 -0.045893 0.089693 -0.005537 0.006829
# 5 -0.000693 0.004178 0.000965 -0.005537 0.039929 -0.015870
# 6 -0.002961 -0.009921 0.002785 0.006829 -0.015870 0.038353
#
#
# Mechanical properties :
#
#
# Convention : Reuss Voigt Hill
#
# Bulk Modulus (GPa) = 13.40812 59.53414 36.47113
# Shear Modulus (GPa) = 17.26078 32.02413 24.64246
#
# Velocity S-wave (km/s) = 2.93955 4.00396 3.51231
# Velocity P-wave (km/s) = 4.27008 7.15397 5.89121
#
# Compressibility (1/GPa) = 0.07458170
#
# Stress axis : x y z
#
# Youngs Moduli (GPa) = 64.35732 46.04192 20.63878
#
# Poissons Ratio (x) = 0.10291 0.19607
# Poissons Ratio (y) = 0.14384 -0.12736
# Poissons Ratio (z) = 0.61139 -0.28412
#
# Static dielectric constant tensor:
#      x y z
#    x 1.711780 0.002220 0.021780 
#    y 0.002220 1.735590 -0.017330 
#    z 0.021780 -0.017330 1.731540 
# 
# From -- ./inp_files/53151.got.cif
#   From: 2010.05.17/outbox.cif.g08.bks.cpg/sg2_27_cif.got.tgz:53151.got - 2010.06.03 11:33:40.
