data_PCOD9083895
_publ_section_title
;
Structure prediction by ZEFSAII (Michael W. Deem and Ramdas Pophale) SiO2 
 PCOD9083895
Probable space group: P -1
;
_chemical_formula_sum "Si O2"
_cell_formula_units_Z 16
_cell_length_a 10.719007
_cell_length_b 11.330031
_cell_length_c 14.155326
_cell_angle_alpha 56.847145
_cell_angle_beta 42.845420
_cell_angle_gamma 86.461264
_cell_volume 786.009008
_symmetry_space_group_name_H-M "P -1"
_symmetry_group_IT_number 2
_symmetry_cell_setting 'triclinic'
loop_
_space_group_symop_operation_xyz
x,y,z
-x,-y,-z
loop_
_atom_site_type_symbol
_atom_site_label
_atom_site_fract_x
_atom_site_fract_y
_atom_site_fract_z
Si Si1 0.031915 0.930789 0.750115
Si Si2 0.448702 0.716177 0.360114
Si Si3 0.805986 0.328669 0.967264
Si Si4 0.294025 0.988888 0.070991
Si Si5 0.993193 0.409724 0.640346
Si Si6 0.476390 0.830457 0.629725
Si Si7 0.088070 0.183966 0.917828
Si Si8 0.837030 0.304333 0.301320
O O1 0.083734 0.819887 0.704911
O O2 0.274615 0.122183 0.540125
O O3 0.825540 0.939914 0.835049
O O4 0.974291 0.846752 0.923311
O O5 0.639457 0.692125 0.297328
O O6 0.347755 0.756258 0.486723
O O7 0.238223 0.549963 0.492814
O O8 0.591470 0.886495 0.138602
O O9 0.802700 0.371248 0.840873
O O10 0.959348 0.257711 0.914151
O O11 0.946428 0.509960 0.866134
O O12 0.591470 0.200426 0.209376
O O13 0.090750 0.786440 0.250166
O O14 0.500000 0.000000 0.000000
O O15 0.000000 0.500000 0.500000
O O16 0.277764 0.684509 0.734868
O O17 0.500000 0.000000 0.500000
O O18 0.000000 0.000000 0.000000
#
# Coordination Sequence:
#
# PCOD9083895 Si02
#       8
#     2   2   2   2   2   2   2   2
#     4  10  22  37  61  95 125 164 211 258 325 398
#     4  10  23  40  67  96 132 169 213 279 321 384
#     4  11  22  37  64  93 132 174 205 265 328 379
#     4  11  23  44  71  87 121 174 221 278 331 364
#     4  11  24  43  65  93 124 169 233 266 315 382
#     4  10  19  34  58  92 132 164 198 253 321 397
#     4  11  21  36  62 101 134 170 217 256 328 401
#     4  10  21  37  61  93 137 163 206 255 330 396
#
# _framework density 20.356003000000001
#
# number of rings (size 3 to 8) (size 9 to 14) (size 15 to 20)
#    0.000    1.500    3.750    2.625    5.250    3.000 
#    2.250    0.625    0.000    2.250    0.000    0.000 
#    0.000    0.000    0.000    0.000    0.000    0.000 
#
# Total GULP energy -89241.905594 kJ/mol
# GULP energy per Si atom -5577.619100 kJ/mol
# Density = 2.030967 g / cm^3
# Si number density = 20.356003 Si / 1000 Ang^3
#
#
#
# Elastic Constant Matrix: (Units=GPa)
#
#
# Indices 1 2 3 4 5 6 
#
# 1 71.4406 27.2060 36.6626 18.9932 -6.1568 -4.5395
# 2 27.2060 102.3130 47.3971 11.0436 -12.6643 2.3019
# 3 36.6626 47.3971 130.8944 22.2822 13.8410 -5.8926
# 4 18.9932 11.0436 22.2822 43.3431 -1.4958 -4.6689
# 5 -6.1568 -12.6643 13.8410 -1.4958 35.4936 6.5215
# 6 -4.5395 2.3019 -5.8926 -4.6689 6.5215 23.0929
#
#
#
# Elastic Compliance Matrix: (Units=1/GPa)
#
#
# Indices 1 2 3 4 5 6 
#
# 1 0.018590 -0.002147 -0.003853 -0.005411 0.003590 0.000777
# 2 -0.002147 0.013994 -0.005513 -0.000108 0.007766 -0.005439
# 3 -0.003853 -0.005513 0.012336 -0.003033 -0.008439 0.004710
# 4 -0.005411 -0.000108 -0.003033 0.027433 0.000715 0.003518
# 5 0.003590 0.007766 -0.008439 0.000715 0.037201 -0.012583
# 6 0.000777 -0.005439 0.004710 0.003518 -0.012583 0.049465
#
#
# Mechanical properties :
#
#
# Convention : Reuss Voigt Hill
#
# Bulk Modulus (GPa) = 45.67732 58.57549 52.12641
# Shear Modulus (GPa) = 26.40700 33.27810 29.84255
#
# Velocity S-wave (km/s) = 3.60566 4.04766 3.83303
# Velocity P-wave (km/s) = 6.31049 7.11918 6.72700
#
# Compressibility (1/GPa) = 0.02189270
#
# Stress axis : x y z
#
# Youngs Moduli (GPa) = 53.79243 71.45742 81.06352
#
# Poissons Ratio (x) = 0.15345 0.31233
# Poissons Ratio (y) = 0.11552 0.44694
# Poissons Ratio (z) = 0.20726 0.39398
#
# Static dielectric constant tensor:
#      x y z
#    x 1.770840 0.020140 -0.000570 
#    y 0.020140 1.748930 -0.024700 
#    z -0.000570 -0.024700 1.791690 
# 
# From -- ./inp_files/312543.got.cif
#   From: 2010.05.17/outbox.cif.g08.bks.cpg/sg2_157_cif.got.tgz:312543.got - 2010.06.03 11:33:40.
