data_PCOD9083682
_publ_section_title
;
Structure prediction by ZEFSAII (Michael W. Deem and Ramdas Pophale) SiO2 
 PCOD9083682
Probable space group: P -1
;
_chemical_formula_sum "Si O2"
_cell_formula_units_Z 16
_cell_length_a 10.004131
_cell_length_b 15.937668
_cell_length_c 12.027705
_cell_angle_alpha 29.362184
_cell_angle_beta 38.796950
_cell_angle_gamma 43.289521
_cell_volume 581.734093
_symmetry_space_group_name_H-M "P -1"
_symmetry_group_IT_number 2
_symmetry_cell_setting 'triclinic'
loop_
_space_group_symop_operation_xyz
x,y,z
-x,-y,-z
loop_
_atom_site_type_symbol
_atom_site_label
_atom_site_fract_x
_atom_site_fract_y
_atom_site_fract_z
Si Si1 0.599779 0.156896 0.203402
Si Si2 0.548213 0.732639 0.607616
Si Si3 0.956488 0.281626 0.720939
Si Si4 0.052069 0.222886 0.965384
Si Si5 0.470401 0.954716 0.209278
Si Si6 0.956551 0.105130 0.522515
Si Si7 0.206289 0.325345 0.972596
Si Si8 0.510620 0.451714 0.768091
O O1 0.589936 0.279666 0.178650
O O2 0.500000 0.000000 0.500000
O O3 0.827977 0.122007 0.028622
O O4 0.458202 0.283463 0.063518
O O5 0.461377 0.911775 0.394773
O O6 0.506632 0.598470 0.693839
O O7 0.803488 0.731038 0.467077
O O8 0.765837 0.392220 0.645257
O O9 0.976336 0.338940 0.771880
O O10 0.292716 0.135018 0.873246
O O11 0.063651 0.332304 0.944531
O O12 0.966391 0.040279 0.265580
O O13 0.302809 0.867581 0.344230
O O14 0.390825 0.158590 0.019451
O O15 0.060074 0.272866 0.230492
O O16 0.000000 0.000000 0.500000
O O17 0.344531 0.470849 0.752792
#
# Coordination Sequence:
#
# PCOD9083682 Si02
#       8
#     2   2   2   2   2   2   2   2
#     4  10  23  38  63  87 120 146 202 247 291 339
#     4  11  21  41  62  83 124 162 194 235 300 360
#     4   9  23  37  63  88 118 159 198 232 305 347
#     4   9  17  33  57  84 114 153 194 241 298 344
#     4   9  18  33  56  83 112 154 198 240 294 346
#     4   8  16  27  52  78 110 146 184 235 292 332
#     4  10  19  34  57  86 115 150 195 248 288 340
#     4  10  23  39  57  88 122 157 195 243 294 351
#
# _framework density 27.503975000000001
#
# number of rings (size 3 to 8) (size 9 to 14) (size 15 to 20)
#    0.750    2.000    0.000    3.000    7.000    0.500 
#    2.250    4.375    0.000    0.000    0.000    0.000 
#    0.000    0.000    0.000    0.000    0.000    0.000 
#
# Total GULP energy -89128.120402 kJ/mol
# GULP energy per Si atom -5570.507525 kJ/mol
# Density = 2.744138 g / cm^3
# Si number density = 27.503975 Si / 1000 Ang^3
#
#
#
# Elastic Constant Matrix: (Units=GPa)
#
#
# Indices 1 2 3 4 5 6 
#
# 1 91.1964 6.5322 -0.0039 1.7936 -8.8458 -3.4997
# 2 6.5322 92.1387 30.9452 25.1090 -13.6803 -11.7113
# 3 -0.0039 30.9452 91.5647 12.7100 -13.5324 5.4848
# 4 1.7936 25.1090 12.7100 51.5298 6.1523 -5.5534
# 5 -8.8458 -13.6803 -13.5324 6.1523 53.2019 4.7690
# 6 -3.4997 -11.7113 5.4848 -5.5534 4.7690 25.4631
#
#
#
# Elastic Compliance Matrix: (Units=1/GPa)
#
#
# Indices 1 2 3 4 5 6 
#
# 1 0.011215 -0.000455 0.000433 -0.000407 0.001833 0.000807
# 2 -0.000455 0.015125 -0.004201 -0.006025 0.002909 0.005940
# 3 0.000433 -0.004201 0.013491 -0.002314 0.003218 -0.005886
# 4 -0.000407 -0.006025 -0.002314 0.023984 -0.005329 0.003900
# 5 0.001833 0.002909 0.003218 -0.005329 0.021672 -0.004324
# 6 0.000807 0.005940 -0.005886 0.003900 -0.004324 0.045044
#
#
# Mechanical properties :
#
#
# Convention : Reuss Voigt Hill
#
# Bulk Modulus (GPa) = 31.86245 38.87185 35.36715
# Shear Modulus (GPa) = 33.45889 41.86739 37.66314
#
# Velocity S-wave (km/s) = 3.49164 3.90581 3.70452
# Velocity P-wave (km/s) = 5.27875 5.87404 5.58433
#
# Compressibility (1/GPa) = 0.03138490
#
# Stress axis : x y z
#
# Youngs Moduli (GPa) = 89.16874 66.11383 74.12599
#
# Poissons Ratio (x) = 0.03008 -0.03212
# Poissons Ratio (y) = 0.04056 0.31142
# Poissons Ratio (z) = -0.03864 0.27776
#
# Static dielectric constant tensor:
#      x y z
#    x 2.337740 -0.003060 -0.097840 
#    y -0.003060 2.174050 -0.025430 
#    z -0.097840 -0.025430 2.370250 
# 
# From -- ./inp_files/522948.got.cif
#   From: 2010.05.17/outbox.cif.g08.bks.cpg/sg2_262_cif.got.tgz:522948.got - 2010.06.03 11:33:40.
