data_PCOD9083465
_publ_section_title
;
Structure prediction by ZEFSAII (Michael W. Deem and Ramdas Pophale) SiO2 
 PCOD9083465
Probable space group: P -1
;
_chemical_formula_sum "Si O2"
_cell_formula_units_Z 16
_cell_length_a 5.220775
_cell_length_b 11.325684
_cell_length_c 14.081728
_cell_angle_alpha 117.950749
_cell_angle_beta 54.350367
_cell_angle_gamma 95.351256
_cell_volume 578.593901
_symmetry_space_group_name_H-M "P -1"
_symmetry_group_IT_number 2
_symmetry_cell_setting 'triclinic'
loop_
_space_group_symop_operation_xyz
x,y,z
-x,-y,-z
loop_
_atom_site_type_symbol
_atom_site_label
_atom_site_fract_x
_atom_site_fract_y
_atom_site_fract_z
Si Si1 0.163678 0.255536 0.243325
Si Si2 0.243232 0.088369 0.515731
Si Si3 0.283266 0.049966 0.781624
Si Si4 0.466704 0.885422 0.057297
Si Si5 0.697208 0.570813 0.877243
Si Si6 0.592876 0.671199 0.596260
Si Si7 0.410030 0.426479 0.644792
Si Si8 0.395898 0.706571 0.252384
O O1 0.273650 0.385985 0.223464
O O2 0.215788 0.256452 0.343664
O O3 0.797865 0.266898 0.294670
O O4 0.391534 0.133128 0.087191
O O5 0.975469 0.215530 0.666027
O O6 0.500000 0.000000 0.500000
O O7 0.473848 0.080001 0.370600
O O8 0.000000 0.000000 0.500000
O O9 0.338733 0.051036 0.882787
O O10 0.379745 0.189917 0.779247
O O11 0.918038 0.055881 0.833878
O O12 0.531761 0.720669 0.011008
O O13 0.526760 0.445298 0.869584
O O14 0.078255 0.515208 0.799573
O O15 0.616002 0.520949 0.584554
O O16 0.689478 0.645094 0.455854
O O17 0.589582 0.322316 0.647570
#
# Coordination Sequence:
#
# PCOD9083465 Si02
#       8
#     2   2   2   2   2   2   2   2
#     4   9  19  36  53  81 117 151 187 230 273 342
#     4  10  23  42  61  81 109 151 205 248 283 325
#     4  11  23  39  59  81 111 163 198 232 281 337
#     4  10  22  39  57  82 120 153 200 224 282 351
#     4   9  22  34  54  84 126 146 188 231 292 337
#     4  10  19  34  56  80 122 151 186 224 292 357
#     4  10  21  33  55  85 120 152 185 233 294 352
#     4  11  23  37  59  84 122 149 190 248 291 335
#
# _framework density 27.653247
#
# number of rings (size 3 to 8) (size 9 to 14) (size 15 to 20)
#    0.750    1.250    1.250    2.250    8.750    2.500 
#    0.000    0.000    0.000    0.000    0.000    5.250 
#    0.000    0.000    0.000    0.000    0.000    0.000 
#
# Total GULP energy -89564.183776 kJ/mol
# GULP energy per Si atom -5597.761486 kJ/mol
# Density = 2.759031 g / cm^3
# Si number density = 27.653247 Si / 1000 Ang^3
#
#
#
# Elastic Constant Matrix: (Units=GPa)
#
#
# Indices 1 2 3 4 5 6 
#
# 1 132.7657 16.9625 33.2069 -1.2027 4.5716 -31.1716
# 2 16.9625 84.8387 0.2045 -4.2120 -2.2972 -5.0723
# 3 33.2069 0.2045 95.2840 21.0070 -0.3735 -18.7487
# 4 -1.2027 -4.2120 21.0070 61.2286 -3.1450 3.1296
# 5 4.5716 -2.2972 -0.3735 -3.1450 57.8849 -9.0582
# 6 -31.1716 -5.0723 -18.7487 3.1296 -9.0582 63.1687
#
#
#
# Elastic Compliance Matrix: (Units=1/GPa)
#
#
# Indices 1 2 3 4 5 6 
#
# 1 0.009265 -0.001598 -0.002701 0.000805 -0.000210 0.003572
# 2 -0.001598 0.012181 0.000465 0.000663 0.000711 0.000397
# 3 -0.002701 0.000465 0.013018 -0.004608 0.000515 0.002870
# 4 0.000805 0.000663 -0.004608 0.018096 0.000647 -0.001721
# 5 -0.000210 0.000711 0.000515 0.000647 0.017769 0.002622
# 6 0.003572 0.000397 0.002870 -0.001721 0.002622 0.018938
#
#
# Mechanical properties :
#
#
# Convention : Reuss Voigt Hill
#
# Bulk Modulus (GPa) = 37.31759 45.95957 41.63858
# Shear Modulus (GPa) = 47.22905 53.95739 50.59322
#
# Velocity S-wave (km/s) = 4.13716 4.42205 4.28197
# Velocity P-wave (km/s) = 6.02873 6.53672 6.28786
#
# Compressibility (1/GPa) = 0.02679701
#
# Stress axis : x y z
#
# Youngs Moduli (GPa) = 107.93339 82.09273 76.81734
#
# Poissons Ratio (x) = 0.13119 0.20748
# Poissons Ratio (y) = 0.17248 -0.03575
# Poissons Ratio (z) = 0.29153 -0.03821
#
# Static dielectric constant tensor:
#      x y z
#    x 2.060780 0.014640 0.043520 
#    y 0.014640 2.411240 0.015940 
#    z 0.043520 0.015940 2.109690 
# 
# From -- ./inp_files/483910.got.cif
#   From: 2010.05.17/outbox.cif.g08.bks.cpg/sg2_242_cif.got.tgz:483910.got - 2010.06.03 11:33:40.
