data_PCOD9083241
_publ_section_title
;
Structure prediction by ZEFSAII (Michael W. Deem and Ramdas Pophale) SiO2 
 PCOD9083241
Probable space group: P -1
;
_chemical_formula_sum "Si O2"
_cell_formula_units_Z 16
_cell_length_a 14.963103
_cell_length_b 9.734905
_cell_length_c 13.669466
_cell_angle_alpha 90.892034
_cell_angle_beta 138.638833
_cell_angle_gamma 120.331347
_cell_volume 819.988107
_symmetry_space_group_name_H-M "P -1"
_symmetry_group_IT_number 2
_symmetry_cell_setting 'triclinic'
loop_
_space_group_symop_operation_xyz
x,y,z
-x,-y,-z
loop_
_atom_site_type_symbol
_atom_site_label
_atom_site_fract_x
_atom_site_fract_y
_atom_site_fract_z
Si Si1 0.165468 0.489201 0.240406
Si Si2 0.870320 0.866165 0.182834
Si Si3 0.648651 0.407586 0.014263
Si Si4 0.202412 0.210266 0.603258
Si Si5 0.573581 0.324497 0.164551
Si Si6 0.917083 0.019469 0.022170
Si Si7 0.521975 0.157043 0.329790
Si Si8 0.278423 0.689350 0.130189
O O1 0.303580 0.654946 0.446236
O O2 0.277347 0.596610 0.226750
O O3 0.093703 0.275749 0.196101
O O4 0.946782 0.405793 0.055902
O O5 0.874089 0.876869 0.070279
O O6 0.809893 0.665274 0.163771
O O7 0.671508 0.809100 0.048462
O O8 0.100267 0.102497 0.412380
O O9 0.412892 0.287161 0.799479
O O10 0.360833 0.677075 0.889507
O O11 0.706812 0.373582 0.963108
O O12 0.275284 0.424115 0.683257
O O13 0.000000 0.000000 0.500000
O O14 0.578457 0.231855 0.262915
O O15 0.694168 0.926361 0.824780
O O16 0.000000 0.000000 0.000000
O O17 0.466450 0.952993 0.294379
#
# Coordination Sequence:
#
# PCOD9083241 Si02
#       8
#     2   2   2   2   2   2   2   2
#     4  10  21  42  59  77 109 144 185 226 272 318
#     4  10  19  34  53  81 116 143 173 220 276 323
#     4  11  21  34  55  84 112 143 184 222 264 327
#     4  11  18  33  56  81 109 147 176 214 277 323
#     4  10  20  35  54  81 114 141 177 223 273 325
#     4  10  21  35  57  87 112 137 176 227 275 323
#     4  10  22  39  58  78 110 150 179 222 274 318
#     4  10  23  39  58  79 106 146 188 229 265 312
#
# _framework density 19.512478000000002
#
# number of rings (size 3 to 8) (size 9 to 14) (size 15 to 20)
#    0.000    1.750    2.500    2.625    0.000    3.000 
#    0.000    0.625    0.000    0.000    0.000    0.000 
#    0.000    0.000    0.000    0.000    0.000    0.000 
#
# Total GULP energy -89247.200611 kJ/mol
# GULP energy per Si atom -5577.950038 kJ/mol
# Density = 1.946807 g / cm^3
# Si number density = 19.512478 Si / 1000 Ang^3
#
#
#
# Elastic Constant Matrix: (Units=GPa)
#
#
# Indices 1 2 3 4 5 6 
#
# 1 100.2771 21.7677 -0.3572 -3.1835 -15.4781 23.9219
# 2 21.7677 60.9920 17.2528 8.5669 2.2056 23.0764
# 3 -0.3572 17.2528 87.7052 19.6686 -20.3765 1.7175
# 4 -3.1835 8.5669 19.6686 21.1728 5.2966 -6.2222
# 5 -15.4781 2.2056 -20.3765 5.2966 19.9511 1.9065
# 6 23.9219 23.0764 1.7175 -6.2222 1.9065 24.1856
#
#
#
# Elastic Compliance Matrix: (Units=1/GPa)
#
#
# Indices 1 2 3 4 5 6 
#
# 1 0.063467 0.030706 0.076928 -0.165585 0.183143 -0.154572
# 2 0.030706 0.052592 0.043899 -0.120235 0.106516 -0.122997
# 3 0.076928 0.043899 0.129861 -0.259540 0.276983 -0.215802
# 4 -0.165585 -0.120235 -0.259540 0.606125 -0.588870 0.499287
# 5 0.183143 0.106516 0.276983 -0.588870 0.668064 -0.506606
# 6 -0.154572 -0.122997 -0.215802 0.499287 -0.506606 0.495301
#
#
# Mechanical properties :
#
#
# Convention : Reuss Voigt Hill
#
# Bulk Modulus (GPa) = 1.82154 36.25566 19.03860
# Shear Modulus (GPa) = 2.63805 27.08265 14.86035
#
# Velocity S-wave (km/s) = 1.16401 3.72958 2.76267
# Velocity P-wave (km/s) = 1.65593 6.09651 4.46708
#
# Compressibility (1/GPa) = 0.54898601
#
# Stress axis : x y z
#
# Youngs Moduli (GPa) = 15.75617 19.01442 7.70054
#
# Poissons Ratio (x) = -0.58386 -0.59239
# Poissons Ratio (y) = -0.48381 -0.33804
# Poissons Ratio (z) = -1.21210 -0.83471
#
# Static dielectric constant tensor:
#      x y z
#    x 1.708720 0.039320 -0.019910 
#    y 0.039320 1.679410 -0.003630 
#    z -0.019910 -0.003630 1.695640 
# 
# From -- ./inp_files/108806.got.cif
#   From: 2010.05.17/outbox.cif.g08.bks.cpg/sg2_55_cif.got.tgz:108806.got - 2010.06.03 11:33:40.
