data_PCOD9083284
_publ_section_title
;
Structure prediction by ZEFSAII (Michael W. Deem and Ramdas Pophale) SiO2 
 PCOD9083284
Probable space group: P -1
;
_chemical_formula_sum "Si O2"
_cell_formula_units_Z 14
_cell_length_a 7.934573
_cell_length_b 11.664443
_cell_length_c 17.848222
_cell_angle_alpha 144.600271
_cell_angle_beta 32.910454
_cell_angle_gamma 126.352905
_cell_volume 497.426343
_symmetry_space_group_name_H-M "P -1"
_symmetry_group_IT_number 2
_symmetry_cell_setting 'triclinic'
loop_
_space_group_symop_operation_xyz
x,y,z
-x,-y,-z
loop_
_atom_site_type_symbol
_atom_site_label
_atom_site_fract_x
_atom_site_fract_y
_atom_site_fract_z
Si Si1 0.570286 0.126359 0.154936
Si Si2 0.875112 0.166694 0.816035
Si Si3 0.757023 0.481643 0.727835
Si Si4 0.114916 0.194465 0.893809
Si Si5 0.726885 0.273961 0.769837
Si Si6 0.500594 0.445158 0.652611
Si Si7 0.277856 0.717061 0.664483
O O1 0.892095 0.067634 0.950231
O O2 0.395149 0.357651 0.313457
O O3 0.686293 0.138330 0.203046
O O4 0.325392 0.992381 0.172628
O O5 0.937151 0.161959 0.701792
O O6 0.610950 0.388365 0.046924
O O7 0.139556 0.154071 0.774498
O O8 0.898583 0.321803 0.656399
O O9 0.704255 0.375163 0.613884
O O10 0.942007 0.656434 0.750039
O O11 0.878009 0.431524 0.124250
O O12 0.456351 0.165223 0.789116
O O13 0.500000 0.500000 0.000000
O O14 0.574800 0.278114 0.470584
O O15 0.500000 0.500000 0.500000
#
# Coordination Sequence:
#
# PCOD9083284 Si02
#       7
#     2   2   2   2   2   2   2
#     4   9  18  34  52  82 107 138 171 218 273 304
#     4  10  20  34  54  82 114 137 170 219 270 321
#     4  10  20  33  53  81 105 139 175 218 268 313
#     4   9  19  34  52  83 107 137 172 215 271 305
#     4  10  21  33  51  83 111 140 175 210 268 325
#     4   8  19  33  55  77 107 135 177 219 261 308
#     4  10  19  34  54  79 103 136 183 223 260 305
#
# _framework density 28.144874000000002
#
# number of rings (size 3 to 8) (size 9 to 14) (size 15 to 20)
#    0.857    1.714    0.000    2.571    0.000    7.429 
#    0.000    0.000    0.000    4.286    0.000    0.000 
#    0.000    0.000    0.000    0.000    0.000    0.000 
#
# Total GULP energy -78350.088009 kJ/mol
# GULP energy per Si atom -5596.434858 kJ/mol
# Density = 2.808081 g / cm^3
# Si number density = 28.144874 Si / 1000 Ang^3
#
#
#
# Elastic Constant Matrix: (Units=GPa)
#
#
# Indices 1 2 3 4 5 6 
#
# 1 172.0199 65.3812 45.6471 -35.7136 61.9712 -27.8238
# 2 65.3812 135.5806 24.9970 -22.0486 14.7564 6.4208
# 3 45.6471 24.9970 87.0174 -1.2862 11.1480 2.5891
# 4 -35.7136 -22.0486 -1.2862 31.9406 -0.5138 1.0530
# 5 61.9712 14.7564 11.1480 -0.5138 40.7551 -7.5233
# 6 -27.8238 6.4208 2.5891 1.0530 -7.5233 41.9519
#
#
#
# Elastic Compliance Matrix: (Units=1/GPa)
#
#
# Indices 1 2 3 4 5 6 
#
# 1 0.047255 -0.006993 -0.014958 0.045729 -0.060723 0.021297
# 2 -0.006993 0.010247 0.000110 -0.000476 0.005939 -0.005136
# 3 -0.014958 0.000110 0.017208 -0.015440 0.016387 -0.007673
# 4 0.045729 -0.000476 -0.015440 0.079903 -0.060723 0.018459
# 5 -0.060723 0.005939 0.016387 -0.060723 0.105456 -0.021758
# 6 0.021297 -0.005136 -0.007673 0.018459 -0.021758 0.034856
#
#
# Mechanical properties :
#
#
# Convention : Reuss Voigt Hill
#
# Bulk Modulus (GPa) = 32.23028 74.07426 53.15227
# Shear Modulus (GPa) = 14.32868 40.16903 27.24885
#
# Velocity S-wave (km/s) = 2.25878 3.78196 3.11491
# Velocity P-wave (km/s) = 4.27542 6.74144 5.64474
#
# Compressibility (1/GPa) = 0.03102672
#
# Stress axis : x y z
#
# Youngs Moduli (GPa) = 21.16174 97.58853 58.11305
#
# Poissons Ratio (x) = 0.68244 0.86927
# Poissons Ratio (y) = 0.14798 -0.00637
# Poissons Ratio (z) = 0.31654 -0.01070
#
# Static dielectric constant tensor:
#      x y z
#    x 2.152350 -0.090010 0.000060 
#    y -0.090010 2.329570 0.075510 
#    z 0.000060 0.075510 2.322030 
# 
# From -- ./inp_files/558028.got.cif
#   From: 2010.05.17/outbox.cif.g08.bks.cpg/sg2_280_cif.got.tgz:558028.got - 2010.06.03 11:33:40.
