data_PCOD9083118
_publ_section_title
;
Structure prediction by ZEFSAII (Michael W. Deem and Ramdas Pophale) SiO2 
 PCOD9083118
Probable space group: P -1
;
_chemical_formula_sum "Si O2"
_cell_formula_units_Z 16
_cell_length_a 11.990029
_cell_length_b 14.375791
_cell_length_c 8.367135
_cell_angle_alpha 141.650325
_cell_angle_beta 82.749810
_cell_angle_gamma 118.475143
_cell_volume 700.774640
_symmetry_space_group_name_H-M "P -1"
_symmetry_group_IT_number 2
_symmetry_cell_setting 'triclinic'
loop_
_space_group_symop_operation_xyz
x,y,z
-x,-y,-z
loop_
_atom_site_type_symbol
_atom_site_label
_atom_site_fract_x
_atom_site_fract_y
_atom_site_fract_z
Si Si1 0.920128 0.210883 0.055777
Si Si2 0.510857 0.834551 0.954946
Si Si3 0.691209 0.547462 0.355737
Si Si4 0.382577 0.209168 0.446854
Si Si5 0.598844 0.002037 0.616196
Si Si6 0.199758 0.877516 0.537776
Si Si7 0.041728 0.451798 0.683879
Si Si8 0.891669 0.877290 0.001923
O O1 0.931351 0.362638 0.143501
O O2 0.966572 0.305027 0.350194
O O3 0.037653 0.179143 0.962756
O O4 0.768861 0.003491 0.812769
O O5 0.449470 0.655989 0.840896
O O6 0.525106 0.774521 0.697497
O O7 0.406015 0.888450 0.083460
O O8 0.665551 0.019895 0.228580
O O9 0.653520 0.645864 0.368667
O O10 0.815598 0.526580 0.268468
O O11 0.754763 0.691906 0.691155
O O12 0.453264 0.200874 0.582803
O O13 0.738958 0.090863 0.606762
O O14 0.500000 0.000000 0.500000
O O15 0.078453 0.660654 0.311161
O O16 0.139682 0.993542 0.732930
O O17 0.000000 0.000000 0.000000
#
# Coordination Sequence:
#
# PCOD9083118 Si02
#       8
#     2   2   2   2   2   2   2   2
#     4  10  19  33  63  97 117 154 209 254 297 365
#     4  11  22  41  64  92 122 160 214 258 298 362
#     4  11  21  36  66  99 123 150 210 266 298 354
#     4  12  20  40  65  92 117 165 213 254 303 360
#     4  10  26  43  58  86 129 170 203 251 315 368
#     4  11  20  42  63  85 131 166 194 257 316 360
#     4  10  19  36  60  93 126 155 197 256 311 356
#     4  11  17  37  63  94 126 155 199 254 309 355
#
# _framework density 22.831876000000001
#
# number of rings (size 3 to 8) (size 9 to 14) (size 15 to 20)
#    0.000    1.250    6.250    1.500    0.000    0.000 
#    6.750    8.750    0.000    0.000    0.000    0.000 
#    0.000    0.000    0.000    0.000    0.000    0.000 
#
# Total GULP energy -89370.429866 kJ/mol
# GULP energy per Si atom -5585.651867 kJ/mol
# Density = 2.277991 g / cm^3
# Si number density = 22.831876 Si / 1000 Ang^3
#
#
#
# Elastic Constant Matrix: (Units=GPa)
#
#
# Indices 1 2 3 4 5 6 
#
# 1 133.7096 79.6215 26.1497 5.4769 -33.5567 -19.7894
# 2 79.6215 150.3970 15.7607 18.0943 -24.5931 -5.8478
# 3 26.1497 15.7607 52.4241 14.6394 -6.1659 1.6553
# 4 5.4769 18.0943 14.6394 34.2166 -3.7725 -9.4108
# 5 -33.5567 -24.5931 -6.1659 -3.7725 31.7837 6.3356
# 6 -19.7894 -5.8478 1.6553 -9.4108 6.3356 48.7325
#
#
#
# Elastic Compliance Matrix: (Units=1/GPa)
#
#
# Indices 1 2 3 4 5 6 
#
# 1 0.015809 -0.006606 -0.006749 0.006545 0.009883 0.005835
# 2 -0.006606 0.010829 0.002039 -0.006145 0.001639 -0.002852
# 3 -0.006749 0.002039 0.025388 -0.012522 -0.000983 -0.005649
# 4 0.006545 -0.006145 -0.012522 0.039727 0.002510 0.009691
# 5 0.009883 0.001639 -0.000983 0.002510 0.043456 -0.000922
# 6 0.005835 -0.002852 -0.005649 0.009691 -0.000922 0.024731
#
#
# Mechanical properties :
#
#
# Convention : Reuss Voigt Hill
#
# Bulk Modulus (GPa) = 34.02225 64.39940 49.21083
# Shear Modulus (GPa) = 25.99135 37.27982 31.63558
#
# Velocity S-wave (km/s) = 3.37765 4.04517 3.72639
# Velocity P-wave (km/s) = 5.49044 7.07708 6.33364
#
# Compressibility (1/GPa) = 0.02939253
#
# Stress axis : x y z
#
# Youngs Moduli (GPa) = 63.25628 92.34106 39.38829
#
# Poissons Ratio (x) = 0.61005 0.26583
# Poissons Ratio (y) = 0.41790 -0.08029
# Poissons Ratio (z) = 0.42692 -0.18824
#
# Static dielectric constant tensor:
#      x y z
#    x 1.967990 -0.015970 0.014770 
#    y -0.015970 1.848580 -0.019240 
#    z 0.014770 -0.019240 1.902750 
# 
# From -- ./inp_files/274638.got.cif
#   From: 2010.05.17/outbox.cif.g08.bks.cpg/sg2_138_cif.got.tgz:274638.got - 2010.06.03 11:33:40.
