data_PCOD9083397
_publ_section_title
;
Structure prediction by ZEFSAII (Michael W. Deem and Ramdas Pophale) SiO2 
 PCOD9083397
Probable space group: P -1
;
_chemical_formula_sum "Si O2"
_cell_formula_units_Z 14
_cell_length_a 11.560532
_cell_length_b 7.535453
_cell_length_c 10.237268
_cell_angle_alpha 129.662338
_cell_angle_beta 68.570230
_cell_angle_gamma 85.799254
_cell_volume 577.684939
_symmetry_space_group_name_H-M "P -1"
_symmetry_group_IT_number 2
_symmetry_cell_setting 'triclinic'
loop_
_space_group_symop_operation_xyz
x,y,z
-x,-y,-z
loop_
_atom_site_type_symbol
_atom_site_label
_atom_site_fract_x
_atom_site_fract_y
_atom_site_fract_z
Si Si1 0.331292 0.739417 0.148964
Si Si2 0.611798 0.218727 0.551937
Si Si3 0.974462 0.225330 0.008964
Si Si4 0.115109 0.420017 0.226179
Si Si5 0.585459 0.711292 0.865763
Si Si6 0.951581 0.878942 0.658649
Si Si7 0.298841 0.348768 0.791434
O O1 0.337433 0.798949 0.326570
O O2 0.205987 0.984473 0.256054
O O3 0.477996 0.684516 0.999652
O O4 0.295490 0.513673 0.999466
O O5 0.620140 0.485276 0.637288
O O6 0.449963 0.286890 0.640199
O O7 0.691503 0.936238 0.326971
O O8 0.821929 0.457161 0.161842
O O9 0.072127 0.353484 0.074057
O O10 0.001963 0.079296 0.791809
O O11 0.000000 0.000000 0.000000
O O12 0.272838 0.310347 0.145969
O O13 0.047044 0.299132 0.303523
O O14 0.046096 0.717749 0.427220
O O15 0.500000 0.000000 0.000000
#
# Coordination Sequence:
#
# PCOD9083397 Si02
#       7
#     2   2   2   2   2   2   2
#     4  10  19  38  63  83 111 153 192 231 285 344
#     4  10  21  36  62  83 113 156 192 231 286 347
#     4   9  18  32  55  81 112 149 191 230 276 339
#     4  10  19  34  55  82 115 146 183 235 287 331
#     4  11  21  36  58  87 119 146 186 246 291 326
#     4   9  18  34  58  81 108 150 191 226 276 346
#     4   9  18  35  57  85 111 149 199 234 269 341
#
# _framework density 24.234665
#
# number of rings (size 3 to 8) (size 9 to 14) (size 15 to 20)
#    0.000    2.286    1.429    2.571    2.000    0.000 
#    0.000    8.571    0.000   20.571    0.000    0.000 
#    0.000    0.000    0.000    0.000    0.000    0.000 
#
# Total GULP energy -78113.634558 kJ/mol
# GULP energy per Si atom -5579.545326 kJ/mol
# Density = 2.417951 g / cm^3
# Si number density = 24.234665 Si / 1000 Ang^3
#
#
#
# Elastic Constant Matrix: (Units=GPa)
#
#
# Indices 1 2 3 4 5 6 
#
# 1 202.1062 14.5349 90.8907 20.9907 13.0642 -2.5679
# 2 14.5349 69.0788 37.9598 33.5514 5.8004 0.9820
# 3 90.8907 37.9598 171.4052 33.0940 14.6695 -19.5204
# 4 20.9907 33.5514 33.0940 35.3969 3.2337 -8.3343
# 5 13.0642 5.8004 14.6695 3.2337 27.4482 11.7274
# 6 -2.5679 0.9820 -19.5204 -8.3343 11.7274 26.9951
#
#
#
# Elastic Compliance Matrix: (Units=1/GPa)
#
#
# Indices 1 2 3 4 5 6 
#
# 1 0.006835 0.002478 -0.003889 -0.003596 0.000198 -0.003448
# 2 0.002478 0.031426 -0.004497 -0.031300 0.005128 -0.016051
# 3 -0.003889 -0.004497 0.010835 -0.000322 -0.007574 0.010819
# 4 -0.003596 -0.031300 -0.000322 0.067427 -0.010537 0.025958
# 5 0.000198 0.005128 -0.007574 -0.010537 0.054452 -0.032553
# 6 -0.003448 -0.016051 0.010819 0.025958 -0.032553 0.067279
#
#
# Mechanical properties :
#
#
# Convention : Reuss Voigt Hill
#
# Bulk Modulus (GPa) = 26.82410 81.04009 53.93210
# Shear Modulus (GPa) = 19.04783 37.91501 28.48142
#
# Velocity S-wave (km/s) = 2.80656 3.95966 3.43189
# Velocity P-wave (km/s) = 4.64703 7.37683 6.16492
#
# Compressibility (1/GPa) = 0.03727991
#
# Stress axis : x y z
#
# Youngs Moduli (GPa) = 146.29789 31.82077 92.29728
#
# Poissons Ratio (x) = -0.07884 0.35891
# Poissons Ratio (y) = -0.36249 0.41508
# Poissons Ratio (z) = 0.56890 0.14310
#
# Static dielectric constant tensor:
#      x y z
#    x 1.906500 0.024780 0.002770 
#    y 0.024780 2.189150 0.069270 
#    z 0.002770 0.069270 1.970580 
# 
# From -- ./inp_files/418538.got.cif
#   From: 2010.05.17/outbox.cif.g08.bks.cpg/sg2_210_cif.got.tgz:418538.got - 2010.06.03 11:33:40.
