data_PCOD9083084
_publ_section_title
;
Structure prediction by ZEFSAII (Michael W. Deem and Ramdas Pophale) SiO2 
 PCOD9083084
Probable space group: P -1
;
_chemical_formula_sum "Si O2"
_cell_formula_units_Z 14
_cell_length_a 13.642157
_cell_length_b 6.941968
_cell_length_c 15.252318
_cell_angle_alpha 133.994919
_cell_angle_beta 36.293911
_cell_angle_gamma 110.067811
_cell_volume 529.489849
_symmetry_space_group_name_H-M "P -1"
_symmetry_group_IT_number 2
_symmetry_cell_setting 'triclinic'
loop_
_space_group_symop_operation_xyz
x,y,z
-x,-y,-z
loop_
_atom_site_type_symbol
_atom_site_label
_atom_site_fract_x
_atom_site_fract_y
_atom_site_fract_z
Si Si1 0.770982 0.648191 0.721670
Si Si2 0.358657 0.986676 0.705902
Si Si3 0.627202 0.319527 0.220139
Si Si4 0.083192 0.636023 0.298667
Si Si5 0.664832 0.142575 0.602894
Si Si6 0.085612 0.625263 0.091535
Si Si7 0.329738 0.133765 0.308774
O O1 0.764226 0.605288 0.817831
O O2 0.674474 0.937206 0.814161
O O3 0.000000 0.500000 0.500000
O O4 0.704361 0.422792 0.657027
O O5 0.492948 0.681948 0.456787
O O6 0.310953 0.867258 0.791986
O O7 0.491263 0.134440 0.679378
O O8 0.164441 0.268040 0.894595
O O9 0.805448 0.252839 0.009669
O O10 0.482157 0.235768 0.251563
O O11 0.893281 0.603617 0.428220
O O12 0.147510 0.605582 0.143050
O O13 0.000000 0.000000 0.500000
O O14 0.639916 0.109364 0.714425
O O15 0.858319 0.845770 0.332398
#
# Coordination Sequence:
#
# PCOD9083084 Si02
#       7
#     2   2   2   2   2   2   2
#     4  10  19  33  62  86 118 167 201 247 310 354
#     4  10  23  44  64  90 130 165 201 263 320 359
#     4  10  22  42  63  91 128 158 208 267 305 372
#     4  10  19  39  60  86 128 164 201 259 304 358
#     4  10  21  40  62  90 129 160 207 261 301 374
#     4  11  22  38  67  91 123 166 212 252 309 378
#     4   9  19  36  62  86 121 169 198 251 315 362
#
# _framework density 26.440545
#
# number of rings (size 3 to 8) (size 9 to 14) (size 15 to 20)
#    0.000    2.000    2.857    1.286    0.000    4.000 
#    0.000   15.000    3.143    0.000    0.000    0.000 
#    0.000    0.000    0.000    0.000    0.000    0.000 
#
# Total GULP energy -78326.150289 kJ/mol
# GULP energy per Si atom -5594.725021 kJ/mol
# Density = 2.638036 g / cm^3
# Si number density = 26.440545 Si / 1000 Ang^3
#
#
#
# Elastic Constant Matrix: (Units=GPa)
#
#
# Indices 1 2 3 4 5 6 
#
# 1 61.5503 31.8215 32.4784 -10.8292 17.6463 -25.0664
# 2 31.8215 92.9601 55.7743 -26.3400 -1.1826 -6.3407
# 3 32.4784 55.7743 172.6371 -29.5667 -11.5752 3.6879
# 4 -10.8292 -26.3400 -29.5667 57.5730 -14.9258 13.7701
# 5 17.6463 -1.1826 -11.5752 -14.9258 31.7887 -16.1799
# 6 -25.0664 -6.3407 3.6879 13.7701 -16.1799 47.5353
#
#
#
# Elastic Compliance Matrix: (Units=1/GPa)
#
#
# Indices 1 2 3 4 5 6 
#
# 1 0.034010 -0.009833 -0.006447 -0.009610 -0.019320 0.013330
# 2 -0.009833 0.017378 -0.001861 0.007738 0.007903 -0.002274
# 3 -0.006447 -0.001861 0.009117 0.005401 0.007683 -0.003305
# 4 -0.009610 0.007738 0.005401 0.027960 0.017330 -0.006655
# 5 -0.019320 0.007903 0.007683 0.017330 0.055523 0.004149
# 6 0.013330 -0.002274 -0.003305 -0.006655 0.004149 0.031359
#
#
# Mechanical properties :
#
#
# Convention : Reuss Voigt Hill
#
# Bulk Modulus (GPa) = 41.28404 63.03289 52.15846
# Shear Modulus (GPa) = 22.75803 41.18429 31.97116
#
# Velocity S-wave (km/s) = 2.93699 3.95095 3.48109
# Velocity P-wave (km/s) = 5.21048 6.68615 5.99390
#
# Compressibility (1/GPa) = 0.02422244
#
# Stress axis : x y z
#
# Youngs Moduli (GPa) = 29.40340 57.54540 109.68234
#
# Poissons Ratio (x) = 0.56585 0.70717
# Poissons Ratio (y) = 0.28912 0.20407
# Poissons Ratio (z) = 0.18958 0.10707
#
# Static dielectric constant tensor:
#      x y z
#    x 2.078200 -0.032920 0.027880 
#    y -0.032920 2.094930 -0.012850 
#    z 0.027880 -0.012850 2.139290 
# 
# From -- ./inp_files/575323.got.cif
#   From: 2010.05.17/outbox.cif.g08.bks.cpg/sg2_288_cif.got.tgz:575323.got - 2010.06.03 11:33:40.
