data_PCOD9083842
_publ_section_title
;
Structure prediction by ZEFSAII (Michael W. Deem and Ramdas Pophale) SiO2 
 PCOD9083842
Probable space group: P -1
;
_chemical_formula_sum "Si O2"
_cell_formula_units_Z 16
_cell_length_a 21.411709
_cell_length_b 10.587824
_cell_length_c 16.069875
_cell_angle_alpha 132.911530
_cell_angle_beta 157.516213
_cell_angle_gamma 32.513275
_cell_volume 657.655502
_symmetry_space_group_name_H-M "P -1"
_symmetry_group_IT_number 2
_symmetry_cell_setting 'triclinic'
loop_
_space_group_symop_operation_xyz
x,y,z
-x,-y,-z
loop_
_atom_site_type_symbol
_atom_site_label
_atom_site_fract_x
_atom_site_fract_y
_atom_site_fract_z
Si Si1 0.699848 0.566645 0.312324
Si Si2 0.985809 0.401381 0.241955
Si Si3 0.608956 0.199380 0.506830
Si Si4 0.130929 0.811102 0.440501
Si Si5 0.572578 0.462207 0.722910
Si Si6 0.032330 0.556186 0.957602
Si Si7 0.697124 0.165554 0.183119
Si Si8 0.784685 0.942200 0.961948
O O1 0.965264 0.452698 0.591043
O O2 0.703771 0.361008 0.247661
O O3 0.560607 0.699718 0.111325
O O4 0.497587 0.809914 0.239626
O O5 0.004925 0.415924 0.173433
O O6 0.225468 0.101312 0.434410
O O7 0.747326 0.464597 0.982812
O O8 0.713017 0.217518 0.723733
O O9 0.599484 0.304568 0.454638
O O10 0.314586 0.399562 0.252862
O O11 0.386935 0.524353 0.588985
O O12 0.249068 0.868951 0.668422
O O13 0.939248 0.984544 0.203962
O O14 0.930645 0.894158 0.297615
O O15 0.055015 0.344685 0.926492
O O16 0.826574 0.849311 0.877642
#
# Coordination Sequence:
#
# PCOD9083842 Si02
#       8
#     2   2   2   2   2   2   2   2
#     4  10  20  38  57  86 115 148 193 244 292 336
#     4  11  22  37  59  85 119 159 188 231 286 345
#     4  10  20  40  56  85 124 155 193 229 270 356
#     4  10  19  39  60  82 112 155 192 240 295 337
#     4  10  22  38  60  84 118 158 192 229 283 342
#     4  10  20  34  56  91 121 149 188 231 288 355
#     4   9  21  38  62  84 111 146 197 250 294 334
#     4  10  19  34  58  86 121 150 182 243 292 344
#
# _framework density 24.328849000000002
#
# number of rings (size 3 to 8) (size 9 to 14) (size 15 to 20)
#    0.000    2.000    2.500    1.125    0.000    1.500 
#    6.750    1.250    0.000    0.000    0.000    0.000 
#    0.000    0.000    0.000    0.000    0.000    0.000 
#
# Total GULP energy -89113.910912 kJ/mol
# GULP energy per Si atom -5569.619432 kJ/mol
# Density = 2.427348 g / cm^3
# Si number density = 24.328849 Si / 1000 Ang^3
#
#
#
# Elastic Constant Matrix: (Units=GPa)
#
#
# Indices 1 2 3 4 5 6 
#
# 1 14.3764 13.9727 8.3677 3.6366 4.7782 -2.6623
# 2 13.9727 77.6216 4.7080 5.1965 1.2228 -1.4362
# 3 8.3677 4.7080 149.9054 29.9840 -6.6102 -8.8301
# 4 3.6366 5.1965 29.9840 26.0916 -3.7424 -1.0658
# 5 4.7782 1.2228 -6.6102 -3.7424 26.2001 2.4477
# 6 -2.6623 -1.4362 -8.8301 -1.0658 2.4477 23.5937
#
#
#
# Elastic Compliance Matrix: (Units=1/GPa)
#
#
# Indices 1 2 3 4 5 6 
#
# 1 0.098495 -0.016405 -0.003467 -0.008964 -0.020335 0.010523
# 2 -0.016405 0.015833 0.000755 -0.001439 0.002323 -0.000911
# 3 -0.003467 0.000755 0.008982 -0.009710 0.001247 0.002448
# 4 -0.008964 -0.001439 -0.009710 0.051892 0.006955 -0.003111
# 5 -0.020335 0.002323 0.001247 0.006955 0.043627 -0.005898
# 6 0.010523 -0.000911 0.002448 -0.003111 -0.005898 0.044904
#
#
# Mechanical properties :
#
#
# Convention : Reuss Voigt Hill
#
# Bulk Modulus (GPa) = 11.75397 32.88888 22.32143
# Shear Modulus (GPa) = 15.13660 29.50074 22.31867
#
# Velocity S-wave (km/s) = 2.49703 3.48599 3.03210
# Velocity P-wave (km/s) = 3.62703 5.45442 4.63174
#
# Compressibility (1/GPa) = 0.08507762
#
# Stress axis : x y z
#
# Youngs Moduli (GPa) = 10.15279 63.15885 111.33166
#
# Poissons Ratio (x) = 1.03610 0.38595
# Poissons Ratio (y) = 0.16655 -0.08405
# Poissons Ratio (z) = 0.03520 -0.04768
#
# Static dielectric constant tensor:
#      x y z
#    x 1.964540 0.015820 -0.025430 
#    y 0.015820 2.027980 0.082980 
#    z -0.025430 0.082980 2.039220 
# 
# From -- ./inp_files/579180.got.cif
#   From: 2010.05.17/outbox.cif.g08.bks.cpg/sg2_290_cif.got.tgz:579180.got - 2010.06.03 11:33:40.
