data_PCOD9083729
_publ_section_title
;
Structure prediction by ZEFSAII (Michael W. Deem and Ramdas Pophale) SiO2 
 PCOD9083729
Probable space group: P -1
;
_chemical_formula_sum "Si O2"
_cell_formula_units_Z 14
_cell_length_a 14.506508
_cell_length_b 7.730566
_cell_length_c 10.153931
_cell_angle_alpha 132.903331
_cell_angle_beta 111.331509
_cell_angle_gamma 48.034529
_cell_volume 611.388080
_symmetry_space_group_name_H-M "P -1"
_symmetry_group_IT_number 2
_symmetry_cell_setting 'triclinic'
loop_
_space_group_symop_operation_xyz
x,y,z
-x,-y,-z
loop_
_atom_site_type_symbol
_atom_site_label
_atom_site_fract_x
_atom_site_fract_y
_atom_site_fract_z
Si Si1 0.635907 0.975158 0.940978
Si Si2 0.270217 0.860087 0.151914
Si Si3 0.871170 0.289332 0.683536
Si Si4 0.007394 0.509008 0.303278
Si Si5 0.751623 0.980447 0.494346
Si Si6 0.087136 0.751523 0.028506
Si Si7 0.550705 0.177664 0.296198
O O1 0.648718 0.165290 0.939352
O O2 0.770284 0.645290 0.852064
O O3 0.544162 0.904658 0.801520
O O4 0.593306 0.133708 0.143013
O O5 0.135535 0.190989 0.240736
O O6 0.316359 0.866001 0.323563
O O7 0.226653 0.652248 0.026038
O O8 0.788453 0.180134 0.553830
O O9 0.942389 0.137031 0.779267
O O10 0.952690 0.287285 0.610464
O O11 0.890121 0.663517 0.421381
O O12 0.944801 0.474495 0.125728
O O13 0.666980 0.959900 0.341057
O O14 0.000000 0.000000 0.000000
O O15 0.500000 0.500000 0.500000
#
# Coordination Sequence:
#
# PCOD9083729 Si02
#       7
#     2   2   2   2   2   2   2
#     4  10  22  43  66  85 122 158 201 254 301 355
#     4   9  21  39  58  89 125 158 194 248 309 363
#     4  10  19  35  59  86 122 161 200 243 299 362
#     4  10  19  34  57  90 121 161 199 241 297 362
#     4  11  21  36  60  90 125 157 201 252 300 350
#     4   9  18  32  52  82 122 158 193 238 296 359
#     4  11  23  42  65  90 115 158 211 252 294 358
#
# _framework density 22.898712
#
# number of rings (size 3 to 8) (size 9 to 14) (size 15 to 20)
#    0.000    2.000    1.429    2.143    0.000    2.857 
#    2.571    2.143    0.000    0.000    0.000    0.000 
#    0.000    0.000    0.000    0.000    0.000    0.000 
#
# Total GULP energy -78079.543398 kJ/mol
# GULP energy per Si atom -5577.110243 kJ/mol
# Density = 2.284659 g / cm^3
# Si number density = 22.898712 Si / 1000 Ang^3
#
#
#
# Elastic Constant Matrix: (Units=GPa)
#
#
# Indices 1 2 3 4 5 6 
#
# 1 86.0445 5.5933 58.4775 -29.4046 -10.2010 7.9240
# 2 5.5933 51.0201 18.1741 -7.5461 2.8826 -9.0854
# 3 58.4775 18.1741 143.2282 -24.0494 9.1416 -6.9308
# 4 -29.4046 -7.5461 -24.0494 39.8829 -0.1309 3.9030
# 5 -10.2010 2.8826 9.1416 -0.1309 37.9718 0.3212
# 6 7.9240 -9.0854 -6.9308 3.9030 0.3212 25.8768
#
#
#
# Elastic Compliance Matrix: (Units=1/GPa)
#
#
# Indices 1 2 3 4 5 6 
#
# 1 0.024588 -0.000151 -0.008826 0.013998 0.008893 -0.012168
# 2 -0.000151 0.021935 -0.001937 0.002190 -0.001290 0.006914
# 3 -0.008826 -0.001937 0.011303 -0.000583 -0.004991 0.005200
# 4 0.013998 0.002190 -0.000583 0.036371 0.003938 -0.009208
# 5 0.008893 -0.001290 -0.004991 0.003938 0.030084 -0.005480
# 6 -0.012168 0.006914 0.005200 -0.009208 -0.005480 0.047648
#
#
# Mechanical properties :
#
#
# Convention : Reuss Voigt Hill
#
# Bulk Modulus (GPa) = 27.77825 49.42025 38.59925
# Shear Modulus (GPa) = 24.30062 33.94950 29.12506
#
# Velocity S-wave (km/s) = 3.26117 3.85462 3.57025
# Velocity P-wave (km/s) = 5.13202 6.43738 5.82140
#
# Compressibility (1/GPa) = 0.03599939
#
# Stress axis : x y z
#
# Youngs Moduli (GPa) = 40.66956 45.58978 88.46856
#
# Poissons Ratio (x) = 0.00686 0.78082
# Poissons Ratio (y) = 0.00612 0.17137
# Poissons Ratio (z) = 0.35895 0.08831
#
# Static dielectric constant tensor:
#      x y z
#    x 1.851030 0.002950 0.003660 
#    y 0.002950 1.996100 0.101200 
#    z 0.003660 0.101200 1.900520 
# 
# From -- ./inp_files/188851.got.cif
#   From: 2010.05.17/outbox.cif.g08.bks.cpg/sg2_95_cif.got.tgz:188851.got - 2010.06.03 11:33:40.
