data_PCOD9083533
_publ_section_title
;
Structure prediction by ZEFSAII (Michael W. Deem and Ramdas Pophale) SiO2 
 PCOD9083533
Probable space group: P -1
;
_chemical_formula_sum "Si O2"
_cell_formula_units_Z 16
_cell_length_a 12.227130
_cell_length_b 13.129508
_cell_length_c 5.315199
_cell_angle_alpha 92.901563
_cell_angle_beta 111.292614
_cell_angle_gamma 82.604525
_cell_volume 788.414588
_symmetry_space_group_name_H-M "P -1"
_symmetry_group_IT_number 2
_symmetry_cell_setting 'triclinic'
loop_
_space_group_symop_operation_xyz
x,y,z
-x,-y,-z
loop_
_atom_site_type_symbol
_atom_site_label
_atom_site_fract_x
_atom_site_fract_y
_atom_site_fract_z
Si Si1 0.196899 0.690430 0.543143
Si Si2 0.645183 0.061937 0.510129
Si Si3 0.190848 0.260219 0.324030
Si Si4 0.998671 0.831116 0.168739
Si Si5 0.606062 0.866387 0.746711
Si Si6 0.081581 0.488595 0.321711
Si Si7 0.200426 0.072594 0.699981
Si Si8 0.764307 0.207915 0.904878
O O1 0.165847 0.577941 0.435981
O O2 0.267712 0.727858 0.369983
O O3 0.072495 0.764474 0.433800
O O4 0.247933 0.718770 0.856657
O O5 0.531358 0.126679 0.301118
O O6 0.683097 0.117262 0.800740
O O7 0.611303 0.950192 0.539829
O O8 0.760524 0.032957 0.429435
O O9 0.322341 0.236911 0.314515
O O10 0.155905 0.376786 0.384393
O O11 0.178069 0.171328 0.508693
O O12 0.096658 0.236964 0.031649
O O13 0.916305 0.927377 0.226526
O O14 0.099247 0.839369 0.043220
O O15 0.687688 0.904373 0.037217
O O16 0.000000 0.500000 0.500000
O O17 0.000000 0.500000 0.000000
#
# Coordination Sequence:
#
# PCOD9083533 Si02
#       8
#     2   2   2   2   2   2   2   2
#     4  10  21  38  53  88 119 155 194 235 278 363
#     4  10  21  38  59  82 108 159 204 243 295 338
#     4  10  20  35  55  89 120 149 185 248 297 339
#     4   9  18  33  53  78 124 146 183 232 286 349
#     4   9  21  38  59  84 113 143 207 255 287 341
#     4  12  21  34  63  90 119 157 191 234 296 347
#     4  10  19  34  56  86 116 147 193 248 293 345
#     4  10  22  37  58  81 122 158 194 233 292 347
#
# _framework density 20.293890999999999
#
# number of rings (size 3 to 8) (size 9 to 14) (size 15 to 20)
#    0.750    1.250    1.250    3.375    3.500    0.500 
#    0.000    6.250    0.000    1.500    0.000    0.000 
#    0.000    0.000    0.000    0.000    0.000    0.000 
#
# Total GULP energy -89142.515812 kJ/mol
# GULP energy per Si atom -5571.407238 kJ/mol
# Density = 2.024770 g / cm^3
# Si number density = 20.293891 Si / 1000 Ang^3
#
#
#
# Elastic Constant Matrix: (Units=GPa)
#
#
# Indices 1 2 3 4 5 6 
#
# 1 24.9640 31.9181 9.5331 4.5760 -1.0921 -6.4717
# 2 31.9181 102.9196 27.7559 19.1639 -0.2928 -14.9721
# 3 9.5331 27.7559 95.9375 13.5498 -11.9474 -12.8124
# 4 4.5760 19.1639 13.5498 24.5186 -0.4230 -3.0485
# 5 -1.0921 -0.2928 -11.9474 -0.4230 28.1065 -2.0190
# 6 -6.4717 -14.9721 -12.8124 -3.0485 -2.0190 22.2175
#
#
#
# Elastic Compliance Matrix: (Units=1/GPa)
#
#
# Indices 1 2 3 4 5 6 
#
# 1 0.067783 -0.020895 -0.000111 0.004600 0.002905 0.006495
# 2 -0.020895 0.019055 -0.001642 -0.009560 -0.001140 0.004392
# 3 -0.000111 -0.001642 0.013221 -0.005113 0.005976 0.006327
# 4 0.004600 -0.009560 -0.005113 0.050036 -0.001436 -0.001316
# 5 0.002905 -0.001140 0.005976 -0.001436 0.038690 0.006843
# 6 0.006495 0.004392 0.006327 -0.001316 0.006843 0.053952
#
#
# Mechanical properties :
#
#
# Convention : Reuss Voigt Hill
#
# Bulk Modulus (GPa) = 18.26010 40.24835 29.25423
# Shear Modulus (GPa) = 16.32458 25.27612 20.80035
#
# Velocity S-wave (km/s) = 2.83929 3.53300 3.20497
# Velocity P-wave (km/s) = 4.44591 6.04306 5.30493
#
# Compressibility (1/GPa) = 0.05476420
#
# Stress axis : x y z
#
# Youngs Moduli (GPa) = 14.75287 52.47965 75.63900
#
# Poissons Ratio (x) = 1.09656 0.00838
# Poissons Ratio (y) = 0.30826 0.12417
# Poissons Ratio (z) = 0.00164 0.08615
#
# Static dielectric constant tensor:
#      x y z
#    x 1.814840 0.013030 -0.050300 
#    y 0.013030 1.757820 -0.018060 
#    z -0.050300 -0.018060 1.763710 
# 
# From -- ./inp_files/93981.got.cif
#   From: 2010.05.17/outbox.cif.g08.bks.cpg/sg2_47_cif.got.tgz:93981.got - 2010.06.03 11:33:40.
