data_PCOD9083890
_publ_section_title
;
Structure prediction by ZEFSAII (Michael W. Deem and Ramdas Pophale) SiO2 
 PCOD9083890
Probable space group: P -1
;
_chemical_formula_sum "Si O2"
_cell_formula_units_Z 16
_cell_length_a 23.766570
_cell_length_b 9.336058
_cell_length_c 18.114317
_cell_angle_alpha 34.241154
_cell_angle_beta 22.592528
_cell_angle_gamma 25.431253
_cell_volume 662.470061
_symmetry_space_group_name_H-M "P -1"
_symmetry_group_IT_number 2
_symmetry_cell_setting 'triclinic'
loop_
_space_group_symop_operation_xyz
x,y,z
-x,-y,-z
loop_
_atom_site_type_symbol
_atom_site_label
_atom_site_fract_x
_atom_site_fract_y
_atom_site_fract_z
Si Si1 0.989783 0.717920 0.355107
Si Si2 0.199947 0.082491 0.717382
Si Si3 0.088670 0.121247 0.292412
Si Si4 0.576057 0.919002 0.277714
Si Si5 0.416074 0.010025 0.269732
Si Si6 0.948533 0.174501 0.113474
Si Si7 0.345763 0.655834 0.054611
Si Si8 0.330484 0.184469 0.067426
O O1 0.759923 0.977667 0.513041
O O2 0.000000 0.500000 0.500000
O O3 0.131699 0.445402 0.238110
O O4 0.030430 0.965647 0.180279
O O5 0.060771 0.480154 0.700091
O O6 0.418198 0.945557 0.506378
O O7 0.152011 0.920543 0.781662
O O8 0.121614 0.082448 0.892163
O O9 0.277364 0.002160 0.159112
O O10 0.151616 0.957034 0.205044
O O11 0.000000 0.000000 0.500000
O O12 0.784772 0.556789 0.172964
O O13 0.491232 0.985207 0.269650
O O14 0.598035 0.201594 0.136452
O O15 0.338175 0.360811 0.175681
O O16 0.589701 0.714377 0.134998
O O17 0.500000 0.500000 0.000000
O O18 0.500000 0.000000 0.000000
#
# Coordination Sequence:
#
# PCOD9083890 Si02
#       8
#     2   2   2   2   2   2   2   2
#     4  12  25  42  60  90 123 173 222 260 315 389
#     4  11  22  35  59  93 130 162 202 269 339 383
#     4  12  21  38  64  99 136 165 213 273 330 382
#     4  11  20  37  60  93 125 164 200 264 344 379
#     4  11  22  39  62  93 133 164 215 265 326 387
#     4  11  23  37  57  88 134 160 210 268 333 385
#     4  10  19  34  58  91 130 159 202 262 326 381
#     4  12  23  39  62  93 130 171 217 260 321 385
#
# _framework density 24.152035000000001
#
# number of rings (size 3 to 8) (size 9 to 14) (size 15 to 20)
#    0.000    0.750    7.500    2.625    1.750    0.000 
#    0.000    0.000    0.000    0.750    0.000    2.625 
#    0.000    0.000    0.000    0.000    0.000    0.000 
#
# Total GULP energy -89158.816231 kJ/mol
# GULP energy per Si atom -5572.426014 kJ/mol
# Density = 2.409706 g / cm^3
# Si number density = 24.152035 Si / 1000 Ang^3
#
#
#
# Elastic Constant Matrix: (Units=GPa)
#
#
# Indices 1 2 3 4 5 6 
#
# 1 42.3097 1.9300 33.0481 1.9091 3.3235 -3.4423
# 2 1.9300 106.7348 36.4037 -9.4068 17.9549 5.4306
# 3 33.0481 36.4037 224.9565 8.3398 25.3720 -3.0396
# 4 1.9091 -9.4068 8.3398 38.8056 2.1362 15.1634
# 5 3.3235 17.9549 25.3720 2.1362 26.7779 0.4572
# 6 -3.4423 5.4306 -3.0396 15.1634 0.4572 25.8956
#
#
#
# Elastic Compliance Matrix: (Units=1/GPa)
#
#
# Indices 1 2 3 4 5 6 
#
# 1 0.027117 0.000426 -0.003938 -0.002056 0.000171 0.004254
# 2 0.000426 0.011860 -0.001495 0.005872 -0.006956 -0.005922
# 3 -0.003938 -0.001495 0.005793 -0.001829 -0.003879 0.001609
# 4 -0.002056 0.005872 -0.001829 0.037054 -0.004507 -0.023337
# 5 0.000171 -0.006956 -0.003879 -0.004507 0.045973 0.002854
# 6 0.004254 -0.005922 0.001609 -0.023337 0.002854 0.054228
#
#
# Mechanical properties :
#
#
# Convention : Reuss Voigt Hill
#
# Bulk Modulus (GPa) = 28.77166 57.41828 43.09497
# Shear Modulus (GPa) = 24.55483 38.47042 31.51262
#
# Velocity S-wave (km/s) = 3.19200 3.99537 3.61607
# Velocity P-wave (km/s) = 5.05210 6.71635 5.94277
#
# Compressibility (1/GPa) = 0.03475642
#
# Stress axis : x y z
#
# Youngs Moduli (GPa) = 36.87656 84.31556 172.62513
#
# Poissons Ratio (x) = -0.03596 0.67988
# Poissons Ratio (y) = -0.01573 0.25809
# Poissons Ratio (z) = 0.14524 0.12606
#
# Static dielectric constant tensor:
#      x y z
#    x 1.508420 0.267390 0.254170 
#    y 0.267390 2.052630 -0.219880 
#    z 0.254170 -0.219880 1.908550 
# 
# From -- ./inp_files/434075.got.cif
#   From: 2010.05.17/outbox.cif.g08.bks.cpg/sg2_218_cif.got.tgz:434075.got - 2010.06.03 11:33:40.
