data_PCOD9083967
_publ_section_title
;
Structure prediction by ZEFSAII (Michael W. Deem and Ramdas Pophale) SiO2 
 PCOD9083967
Probable space group: P -1
;
_chemical_formula_sum "Si O2"
_cell_formula_units_Z 14
_cell_length_a 7.474682
_cell_length_b 8.361389
_cell_length_c 14.517978
_cell_angle_alpha 51.178987
_cell_angle_beta 76.255882
_cell_angle_gamma 100.811373
_cell_volume 615.064995
_symmetry_space_group_name_H-M "P -1"
_symmetry_group_IT_number 2
_symmetry_cell_setting 'triclinic'
loop_
_space_group_symop_operation_xyz
x,y,z
-x,-y,-z
loop_
_atom_site_type_symbol
_atom_site_label
_atom_site_fract_x
_atom_site_fract_y
_atom_site_fract_z
Si Si1 0.579055 0.445730 0.173089
Si Si2 0.417963 0.858839 0.210238
Si Si3 0.054504 0.452299 0.785022
Si Si4 0.193290 0.065288 0.293571
Si Si5 0.844198 0.549094 0.937628
Si Si6 0.073316 0.407388 0.436072
Si Si7 0.759962 0.982059 0.999816
O O1 0.730301 0.405746 0.240249
O O2 0.343555 0.262800 0.273034
O O3 0.652219 0.715659 0.079656
O O4 0.638100 0.429194 0.065038
O O5 0.314079 0.582986 0.333321
O O6 0.658446 0.973371 0.116020
O O7 0.332243 0.957256 0.267366
O O8 0.322801 0.908284 0.111182
O O9 0.875984 0.464096 0.865438
O O10 0.042157 0.550211 0.652591
O O11 0.997156 0.180357 0.894185
O O12 0.119027 0.191828 0.180147
O O13 0.003264 0.859927 0.440057
O O14 0.000000 0.500000 0.000000
O O15 0.000000 0.500000 0.500000
#
# Coordination Sequence:
#
# PCOD9083967 Si02
#       7
#     2   2   2   2   2   2   2
#     4  11  22  35  60  93 121 156 193 247 306 343
#     4   9  19  35  60  88 113 153 204 243 289 349
#     4  10  22  39  58  88 123 155 200 245 295 352
#     4  11  21  37  62  85 123 160 197 239 296 361
#     4  10  22  38  58  92 122 151 195 250 300 344
#     4   9  21  40  62  83 118 161 204 240 294 354
#     4  10  19  34  59  86 119 151 198 252 289 345
#
# _framework density 22.761821999999999
#
# number of rings (size 3 to 8) (size 9 to 14) (size 15 to 20)
#    0.000    2.000    1.429    1.714    6.000    1.143 
#    0.000    0.000    0.000    1.714    0.000    0.000 
#    0.000    0.000    0.000    0.000    0.000    0.000 
#
# Total GULP energy -78016.148791 kJ/mol
# GULP energy per Si atom -5572.582057 kJ/mol
# Density = 2.271001 g / cm^3
# Si number density = 22.761822 Si / 1000 Ang^3
#
#
#
# Elastic Constant Matrix: (Units=GPa)
#
#
# Indices 1 2 3 4 5 6 
#
# 1 47.9725 21.9503 26.4354 -15.5198 -1.6776 16.3154
# 2 21.9503 83.4725 35.2593 -0.8672 4.8633 4.5891
# 3 26.4354 35.2593 157.5844 -27.9839 1.7189 17.5655
# 4 -15.5198 -0.8672 -27.9839 54.3153 7.2210 -2.9541
# 5 -1.6776 4.8633 1.7189 7.2210 29.1283 -2.0775
# 6 16.3154 4.5891 17.5655 -2.9541 -2.0775 31.4843
#
#
#
# Elastic Compliance Matrix: (Units=1/GPa)
#
#
# Indices 1 2 3 4 5 6 
#
# 1 0.031995 -0.007230 -0.000759 0.007838 0.000127 -0.014359
# 2 -0.007230 0.015059 -0.002977 -0.002964 -0.001819 0.002814
# 3 -0.000759 -0.002977 0.008245 0.003962 -0.001264 -0.003485
# 4 0.007838 -0.002964 0.003962 0.023132 -0.005309 -0.004020
# 5 0.000127 -0.001819 -0.001264 -0.005309 0.036232 0.002797
# 6 -0.014359 0.002814 -0.003485 -0.004020 0.002797 0.040544
#
#
# Mechanical properties :
#
#
# Convention : Reuss Voigt Hill
#
# Bulk Modulus (GPa) = 29.96813 50.70215 40.33514
# Shear Modulus (GPa) = 26.55896 36.67787 31.61842
#
# Velocity S-wave (km/s) = 3.41958 4.01855 3.73110
# Velocity P-wave (km/s) = 5.36525 6.62232 6.02665
#
# Compressibility (1/GPa) = 0.03336878
#
# Stress axis : x y z
#
# Youngs Moduli (GPa) = 31.25485 66.40507 121.28656
#
# Poissons Ratio (x) = 0.48009 0.09201
# Poissons Ratio (y) = 0.22596 0.36105
# Poissons Ratio (z) = 0.02371 0.19768
#
# Static dielectric constant tensor:
#      x y z
#    x 1.988130 -0.061460 -0.020740 
#    y -0.061460 1.995290 -0.043520 
#    z -0.020740 -0.043520 1.847720 
# 
# From -- ./inp_files/173093.got.cif
#   From: 2010.05.17/outbox.cif.g08.bks.cpg/sg2_87_cif.got.tgz:173093.got - 2010.06.03 11:33:40.
