data_PCOD9083171
_publ_section_title
;
Structure prediction by ZEFSAII (Michael W. Deem and Ramdas Pophale) SiO2 
 PCOD9083171
Probable space group: P -1
;
_chemical_formula_sum "Si O2"
_cell_formula_units_Z 14
_cell_length_a 14.230224
_cell_length_b 9.306439
_cell_length_c 4.953203
_cell_angle_alpha 67.682684
_cell_angle_beta 90.943733
_cell_angle_gamma 58.826564
_cell_volume 500.048123
_symmetry_space_group_name_H-M "P -1"
_symmetry_group_IT_number 2
_symmetry_cell_setting 'triclinic'
loop_
_space_group_symop_operation_xyz
x,y,z
-x,-y,-z
loop_
_atom_site_type_symbol
_atom_site_label
_atom_site_fract_x
_atom_site_fract_y
_atom_site_fract_z
Si Si1 0.986325 0.741455 0.637851
Si Si2 0.792026 0.374896 0.425224
Si Si3 0.880512 0.146452 0.098851
Si Si4 0.396977 0.548777 0.271536
Si Si5 0.566568 0.785223 0.553144
Si Si6 0.757906 0.813827 0.603699
Si Si7 0.356391 0.927523 0.091309
O O1 0.894317 0.693331 0.701547
O O2 0.110246 0.585285 0.625663
O O3 0.027315 0.805400 0.850473
O O4 0.918550 0.939298 0.327481
O O5 0.780626 0.302879 0.186749
O O6 0.680220 0.497360 0.511080
O O7 0.855471 0.191333 0.754021
O O8 0.500000 0.500000 0.500000
O O9 0.450568 0.370716 0.201190
O O10 0.341207 0.769322 0.084793
O O11 0.694298 0.711564 0.722827
O O12 0.487456 0.841852 0.234557
O O13 0.500000 0.000000 0.500000
O O14 0.713377 0.980578 0.700567
O O15 0.702074 0.905354 0.246328
#
# Coordination Sequence:
#
# PCOD9083171 Si02
#       7
#     2   2   2   2   2   2   2
#     4   9  20  29  56  81 118 151 194 232 292 345
#     4  10  19  34  51  82 117 147 190 243 287 338
#     4   9  19  31  53  82 119 149 189 239 290 337
#     4  10  21  40  64  90 119 159 202 248 298 354
#     4   9  21  43  61  88 123 158 198 249 303 357
#     4  11  21  37  63  91 122 160 197 243 298 357
#     4  10  22  38  62  91 120 156 204 247 292 349
#
# _framework density 27.997306999999999
#
# number of rings (size 3 to 8) (size 9 to 14) (size 15 to 20)
#    0.857    1.429    0.000    2.571    2.000    0.000 
#    0.000   27.143    0.000    0.857    0.000    0.000 
#    0.000    0.000    0.000    0.000    0.000    0.000 
#
# Total GULP energy -77982.235322 kJ/mol
# GULP energy per Si atom -5570.159666 kJ/mol
# Density = 2.793358 g / cm^3
# Si number density = 27.997307 Si / 1000 Ang^3
#
#
#
# Elastic Constant Matrix: (Units=GPa)
#
#
# Indices 1 2 3 4 5 6 
#
# 1 166.2935 13.8311 -16.7667 14.5362 11.1016 5.7321
# 2 13.8311 51.9406 10.0255 1.9358 11.5478 17.4394
# 3 -16.7667 10.0255 66.2629 15.3742 10.0304 2.6745
# 4 14.5362 1.9358 15.3742 33.2373 -4.8539 -0.3205
# 5 11.1016 11.5478 10.0304 -4.8539 27.8272 10.2631
# 6 5.7321 17.4394 2.6745 -0.3205 10.2631 69.9482
#
#
#
# Elastic Compliance Matrix: (Units=1/GPa)
#
#
# Indices 1 2 3 4 5 6 
#
# 1 0.007391 -0.001572 0.004187 -0.005795 -0.004936 0.000324
# 2 -0.001572 0.023170 -0.002651 -0.000416 -0.006405 -0.004609
# 3 0.004187 -0.002651 0.021183 -0.013052 -0.010867 0.001043
# 4 -0.005795 -0.000416 -0.013052 0.040811 0.014633 -0.000882
# 5 -0.004936 -0.006405 -0.010867 0.014633 0.048755 -0.004670
# 6 0.000324 -0.004609 0.001043 -0.000882 -0.004670 0.016060
#
#
# Mechanical properties :
#
#
# Convention : Reuss Voigt Hill
#
# Bulk Modulus (GPa) = 19.35285 33.18632 26.26958
# Shear Modulus (GPa) = 28.62592 44.69634 36.66113
#
# Velocity S-wave (km/s) = 3.20105 3.99990 3.62256
# Velocity P-wave (km/s) = 4.53759 5.76293 5.18657
#
# Compressibility (1/GPa) = 0.05167198
#
# Stress axis : x y z
#
# Youngs Moduli (GPa) = 135.29487 43.15938 47.20753
#
# Poissons Ratio (x) = 0.06783 -0.19765
# Poissons Ratio (y) = 0.21263 0.12516
# Poissons Ratio (z) = -0.56645 0.11443
#
# Static dielectric constant tensor:
#      x y z
#    x 2.339310 -0.264200 -0.124280 
#    y -0.264200 2.635130 0.241390 
#    z -0.124280 0.241390 2.300220 
# 
# From -- ./inp_files/108493.got.cif
#   From: 2010.05.17/outbox.cif.g08.bks.cpg/sg2_55_cif.got.tgz:108493.got - 2010.06.03 11:33:40.
