data_PCOD9083196
_publ_section_title
;
Structure prediction by ZEFSAII (Michael W. Deem and Ramdas Pophale) SiO2 
 PCOD9083196
Probable space group: P -1
;
_chemical_formula_sum "Si O2"
_cell_formula_units_Z 16
_cell_length_a 5.449410
_cell_length_b 26.144369
_cell_length_c 26.603960
_cell_angle_alpha 34.839675
_cell_angle_beta 61.856006
_cell_angle_gamma 67.928723
_cell_volume 1908.826556
_symmetry_space_group_name_H-M "P -1"
_symmetry_group_IT_number 2
_symmetry_cell_setting 'triclinic'
loop_
_space_group_symop_operation_xyz
x,y,z
-x,-y,-z
loop_
_atom_site_type_symbol
_atom_site_label
_atom_site_fract_x
_atom_site_fract_y
_atom_site_fract_z
Si Si1 0.503995 0.400180 0.684973
Si Si2 0.710785 0.187899 0.761370
Si Si3 0.396138 0.215347 0.876518
Si Si4 0.869475 0.117150 0.964972
Si Si5 0.843702 0.567440 0.406513
Si Si6 0.184222 0.088655 0.850599
Si Si7 0.910301 0.356575 0.542670
Si Si8 0.530399 0.601296 0.516063
O O1 0.391493 0.322460 0.794676
O O2 0.333141 0.394137 0.653683
O O3 0.462428 0.502539 0.622887
O O4 0.840750 0.394142 0.653678
O O5 0.554530 0.202851 0.817519
O O6 0.487618 0.134402 0.791473
O O7 0.794581 0.281068 0.652039
O O8 0.988196 0.134405 0.791470
O O9 0.591181 0.169835 0.935646
O O10 0.092879 0.169830 0.935650
O O11 0.027129 0.103878 0.906900
O O12 0.802569 0.017805 0.071795
O O13 0.861818 0.459881 0.482847
O O14 0.690250 0.587496 0.457452
O O15 0.744571 0.349322 0.512655
O O16 0.240415 0.349329 0.512647
#
# Coordination Sequence:
#
# PCOD9083196 Si02
#       8
#     2   2   2   2   2   2   2   2
#     4  10  17  22  28  37  43  51  57  60  66  72
#     4  10  16  22  31  37  41  47  57  63  66  78
#     4  10  16  22  31  37  41  47  57  63  66  78
#     4   9  17  25  30  35  41  47  53  64  75  77
#     4  10  16  22  28  34  47  53  54  60  66  72
#     4   9  17  25  30  35  41  47  53  64  75  77
#     4  10  17  22  28  37  43  51  57  60  66  72
#     4  10  16  22  28  34  47  53  54  60  66  72
#
# _framework density 8.3821130000000004
#
# number of rings (size 3 to 8) (size 9 to 14) (size 15 to 20)
#    0.000    2.250    0.000    8.250    0.000    5.000 
#    0.000    0.000    0.000    0.000    0.000    0.000 
#    0.000    0.000    0.000    0.000    0.000    0.000 
#
# Total GULP energy -89120.290197 kJ/mol
# GULP energy per Si atom -5570.018137 kJ/mol
# Density = 0.836303 g / cm^3
# Si number density = 8.382113 Si / 1000 Ang^3
#
#
#
# Elastic Constant Matrix: (Units=GPa)
#
#
# Indices 1 2 3 4 5 6 
#
# 1 94.8597 8.3129 26.1397 -14.7341 0.3750 0.6471
# 2 8.3129 3.5739 11.2395 -6.3372 -0.0569 0.1073
# 3 26.1397 11.2395 35.3627 -19.9346 0.1922 0.1282
# 4 -14.7341 -6.3372 -19.9346 11.2383 -0.0036 -0.1313
# 5 0.3750 -0.0569 0.1922 -0.0036 11.5722 -6.5206
# 6 0.6471 0.1073 0.1282 -0.1313 -6.5206 3.6819
#
#
#
# Elastic Compliance Matrix: (Units=1/GPa)
#
#
# Indices 1 2 3 4 5 6 
#
# 1 15.700511 41.708503-17.908761 -8.234838********************
# 2 41.708503**************************************************
# 3 -17.908761**************************************************
# 4 -8.234838******************************541.606867932.767935
# 5 ******************************541.606841********************
# 6 ******************************932.767888********************
#
#
# Mechanical properties :
#
#
# Convention : Reuss Voigt Hill
#
# Bulk Modulus (GPa) = -0.00033 25.02004 12.50985
# Shear Modulus (GPa) = 0.00002 11.17210 5.58606
#
# Velocity S-wave (km/s) = 0.00488 3.65478 2.58432
# Velocity P-wave (km/s) = 0.01912 6.90826 4.88486
#
# Compressibility (1/GPa) = *************
#
# Stress axis : x y z
#
# Youngs Moduli (GPa) = 0.06369 0.00079 -0.00235
#
# Poissons Ratio (x) = -0.03302 -0.04211
# Poissons Ratio (y) = -2.65651 -4.59615
# Poissons Ratio (z) = 1.14065 1.54775
#
# Static dielectric constant tensor:
#      x y z
#    x 1.329550 0.000850 0.000550 
#    y 0.000850 1.231080 -0.046090 
#    z 0.000550 -0.046090 1.271210 
# 
# From -- ./inp_files/96398.got.cif
#   From: 2010.05.17/outbox.cif.g08.bks.cpg/sg2_49_cif.got.tgz:96398.got - 2010.06.03 11:33:40.
