data_PCOD9083317
_publ_section_title
;
Structure prediction by ZEFSAII (Michael W. Deem and Ramdas Pophale) SiO2 
 PCOD9083317
Probable space group: P -1
;
_chemical_formula_sum "Si O2"
_cell_formula_units_Z 16
_cell_length_a 9.460728
_cell_length_b 9.784466
_cell_length_c 7.797716
_cell_angle_alpha 67.406728
_cell_angle_beta 123.131801
_cell_angle_gamma 103.656985
_cell_volume 557.755467
_symmetry_space_group_name_H-M "P -1"
_symmetry_group_IT_number 2
_symmetry_cell_setting 'triclinic'
loop_
_space_group_symop_operation_xyz
x,y,z
-x,-y,-z
loop_
_atom_site_type_symbol
_atom_site_label
_atom_site_fract_x
_atom_site_fract_y
_atom_site_fract_z
Si Si1 0.581601 0.715373 0.501874
Si Si2 0.766991 0.770449 0.052911
Si Si3 0.838510 0.604597 0.476262
Si Si4 0.790431 0.251321 0.331367
Si Si5 0.098132 0.944197 0.821013
Si Si6 0.899290 0.330020 0.849697
Si Si7 0.704886 0.983553 0.614829
Si Si8 0.649152 0.434385 0.873057
O O1 0.761419 0.690577 0.542796
O O2 0.575852 0.888137 0.454375
O O3 0.587418 0.600316 0.721640
O O4 0.451320 0.657374 0.298970
O O5 0.722099 0.638515 0.218677
O O6 0.909508 0.693772 0.069763
O O7 0.841805 0.888796 0.186243
O O8 0.676014 0.885344 0.815738
O O9 0.823803 0.434184 0.605137
O O10 0.034773 0.655218 0.562445
O O11 0.839758 0.128253 0.277966
O O12 0.714333 0.156183 0.485424
O O13 0.656023 0.353501 0.098230
O O14 0.897748 0.944786 0.712105
O O15 0.159342 0.839341 0.067590
O O16 0.843436 0.413495 0.945600
#
# Coordination Sequence:
#
# PCOD9083317 Si02
#       8
#     2   2   2   2   2   2   2   2
#     4  10  21  40  62  82 115 155 193 235 288 342
#     4  11  22  36  55  88 125 151 182 236 296 341
#     4  11  21  35  61  90 116 142 199 238 287 339
#     4  11  21  34  60  91 110 149 194 249 278 327
#     4  10  19  34  54  83 119 147 184 232 291 333
#     4   9  20  34  57  84 116 150 184 235 290 334
#     4  11  20  33  56  84 114 152 189 230 286 339
#     4   9  22  39  60  84 116 152 193 240 285 335
#
# _framework density 28.686406000000002
#
# number of rings (size 3 to 8) (size 9 to 14) (size 15 to 20)
#    0.000    1.750    2.500    3.000    3.500    2.000 
#    0.000    0.000    2.750    9.750    0.000    0.000 
#    0.000    0.000    0.000    0.000    0.000    0.000 
#
# Total GULP energy -89425.603764 kJ/mol
# GULP energy per Si atom -5589.100235 kJ/mol
# Density = 2.862111 g / cm^3
# Si number density = 28.686406 Si / 1000 Ang^3
#
#
#
# Elastic Constant Matrix: (Units=GPa)
#
#
# Indices 1 2 3 4 5 6 
#
# 1 61.2331 -7.9243 48.6323 -13.9701 -0.7308 5.8526
# 2 -7.9243 143.6488 82.4666 -29.1163 -1.2564 15.0971
# 3 48.6323 82.4666 221.8719 -69.1913 -20.6937 20.0186
# 4 -13.9701 -29.1163 -69.1913 63.7589 10.6601 -4.6355
# 5 -0.7308 -1.2564 -20.6937 10.6601 53.4037 -3.7223
# 6 5.8526 15.0971 20.0186 -4.6355 -3.7223 36.6025
#
#
#
# Elastic Compliance Matrix: (Units=1/GPa)
#
#
# Indices 1 2 3 4 5 6 
#
# 1 0.022888 0.005570 -0.007066 0.000136 -0.002483 -0.002328
# 2 0.005570 0.010450 -0.004736 0.000975 -0.001894 -0.002680
# 3 -0.007066 -0.004736 0.010357 0.007038 0.002299 -0.001456
# 4 0.000136 0.000975 0.007038 0.024051 -0.002150 -0.001446
# 5 -0.002483 -0.001894 0.002299 -0.002150 0.020085 0.001692
# 6 -0.002328 -0.002680 -0.001456 -0.001446 0.001692 0.029583
#
#
# Mechanical properties :
#
#
# Convention : Reuss Voigt Hill
#
# Bulk Modulus (GPa) = 32.02033 74.78922 53.40478
# Shear Modulus (GPa) = 35.64094 50.99163 43.31628
#
# Velocity S-wave (km/s) = 3.52864 4.22068 3.89008
# Velocity P-wave (km/s) = 5.27145 7.06258 6.23170
#
# Compressibility (1/GPa) = 0.03123016
#
# Stress axis : x y z
#
# Youngs Moduli (GPa) = 43.69166 95.69261 96.55540
#
# Poissons Ratio (x) = -0.53297 0.68226
# Poissons Ratio (y) = -0.24334 0.45726
# Poissons Ratio (z) = 0.30873 0.45318
#
# Static dielectric constant tensor:
#      x y z
#    x 2.270400 -0.012500 0.005700 
#    y -0.012500 2.179580 0.046450 
#    z 0.005700 0.046450 2.281550 
# 
# From -- ./inp_files/262170.got.cif
#   From: 2010.05.17/outbox.cif.g08.bks.cpg/sg2_132_cif.got.tgz:262170.got - 2010.06.03 11:33:40.
