data_PCOD9083936
_publ_section_title
;
Structure prediction by ZEFSAII (Michael W. Deem and Ramdas Pophale) SiO2 
 PCOD9083936
Probable space group: P -1
;
_chemical_formula_sum "Si O2"
_cell_formula_units_Z 14
_cell_length_a 11.826764
_cell_length_b 14.133738
_cell_length_c 9.004231
_cell_angle_alpha 29.667207
_cell_angle_beta 59.819269
_cell_angle_gamma 57.689515
_cell_volume 626.982174
_symmetry_space_group_name_H-M "P -1"
_symmetry_group_IT_number 2
_symmetry_cell_setting 'triclinic'
loop_
_space_group_symop_operation_xyz
x,y,z
-x,-y,-z
loop_
_atom_site_type_symbol
_atom_site_label
_atom_site_fract_x
_atom_site_fract_y
_atom_site_fract_z
Si Si1 0.664880 0.743770 0.658609
Si Si2 0.122189 0.022102 0.784393
Si Si3 0.934591 0.313556 0.318540
Si Si4 0.289883 0.703560 0.737105
Si Si5 0.598922 0.970541 0.687101
Si Si6 0.709639 0.345964 0.676327
Si Si7 0.509081 0.730579 0.306269
O O1 0.798608 0.815884 0.431743
O O2 0.539838 0.889290 0.466622
O O3 0.643342 0.791244 0.785629
O O4 0.672881 0.518239 0.924096
O O5 0.046122 0.121367 0.552575
O O6 0.227929 0.814675 0.023343
O O7 0.000000 0.000000 0.000000
O O8 0.850378 0.279000 0.277892
O O9 0.825311 0.356531 0.466102
O O10 0.000000 0.500000 0.000000
O O11 0.296019 0.890268 0.577987
O O12 0.406007 0.719046 0.520921
O O13 0.577439 0.897745 0.966183
O O14 0.638056 0.557957 0.493571
O O15 0.585512 0.290545 0.744950
#
# Coordination Sequence:
#
# PCOD9083936 Si02
#       7
#     2   2   2   2   2   2   2
#     4  11  22  39  63  89 123 156 196 249 302 353
#     4  10  20  36  60  85 117 164 202 235 293 361
#     4  10  19  34  59  84 117 161 200 241 290 350
#     4  11  23  39  61  93 122 154 199 247 300 356
#     4  11  23  38  62  93 122 154 195 251 306 351
#     4   9  18  33  58  87 114 156 200 237 301 355
#     4  10  19  35  59  89 120 149 194 251 300 351
#
# _framework density 22.329181999999999
#
# number of rings (size 3 to 8) (size 9 to 14) (size 15 to 20)
#    0.000    1.714    2.857    3.429    2.000    0.000 
#    0.000    0.714    0.000    1.714    0.000    0.000 
#    0.000    0.000    0.000    0.000    0.000    0.000 
#
# Total GULP energy -78111.099810 kJ/mol
# GULP energy per Si atom -5579.364272 kJ/mol
# Density = 2.227836 g / cm^3
# Si number density = 22.329182 Si / 1000 Ang^3
#
#
#
# Elastic Constant Matrix: (Units=GPa)
#
#
# Indices 1 2 3 4 5 6 
#
# 1 86.0843 24.1764 37.7506 -10.7930 -3.4418 -31.4898
# 2 24.1764 41.8180 30.8376 4.3190 3.2167 -21.7028
# 3 37.7506 30.8376 157.9719 -8.0061 -7.1768 -21.7527
# 4 -10.7930 4.3190 -8.0061 29.9706 -8.8366 6.4273
# 5 -3.4418 3.2167 -7.1768 -8.8366 54.8894 -8.3435
# 6 -31.4898 -21.7028 -21.7527 6.4273 -8.3435 25.6192
#
#
#
# Elastic Compliance Matrix: (Units=1/GPa)
#
#
# Indices 1 2 3 4 5 6 
#
# 1 0.023625 0.003216 -0.001449 0.002693 0.006392 0.031940
# 2 0.003216 0.053620 -0.005258 -0.018370 0.000991 0.049843
# 3 -0.001449 -0.005258 0.007983 0.002803 0.001776 0.000419
# 4 0.002693 -0.018370 0.002803 0.043479 0.005737 -0.018913
# 5 0.006392 0.000991 0.001776 0.005737 0.022146 0.015977
# 6 0.031940 0.049843 0.000419 -0.018913 0.015977 0.130818
#
#
# Mechanical properties :
#
#
# Convention : Reuss Voigt Hill
#
# Bulk Modulus (GPa) = 12.78010 52.37817 32.57913
# Shear Modulus (GPa) = 15.88634 34.96982 25.42808
#
# Velocity S-wave (km/s) = 2.67022 3.96170 3.37825
# Velocity P-wave (km/s) = 3.90419 6.66595 5.46249
#
# Compressibility (1/GPa) = 0.07824665
#
# Stress axis : x y z
#
# Youngs Moduli (GPa) = 42.32741 18.64974 125.26222
#
# Poissons Ratio (x) = -0.05998 0.18146
# Poissons Ratio (y) = -0.13612 0.65867
# Poissons Ratio (z) = 0.06132 0.09807
#
# Static dielectric constant tensor:
#      x y z
#    x 1.826940 0.073030 -0.014950 
#    y 0.073030 2.005440 -0.020280 
#    z -0.014950 -0.020280 1.835910 
# 
# From -- ./inp_files/255319.got.cif
#   From: 2010.05.17/outbox.cif.g08.bks.cpg/sg2_128_cif.got.tgz:255319.got - 2010.06.03 11:33:40.
