data_PCOD9083141
_publ_section_title
;
Structure prediction by ZEFSAII (Michael W. Deem and Ramdas Pophale) SiO2 
 PCOD9083141
Probable space group: P -1
;
_chemical_formula_sum "Si O2"
_cell_formula_units_Z 12
_cell_length_a 14.939876
_cell_length_b 11.120139
_cell_length_c 13.884403
_cell_angle_alpha 29.885212
_cell_angle_beta 30.318406
_cell_angle_gamma 29.499249
_cell_volume 507.474941
_symmetry_space_group_name_H-M "P -1"
_symmetry_group_IT_number 2
_symmetry_cell_setting 'triclinic'
loop_
_space_group_symop_operation_xyz
x,y,z
-x,-y,-z
loop_
_atom_site_type_symbol
_atom_site_label
_atom_site_fract_x
_atom_site_fract_y
_atom_site_fract_z
Si Si1 0.246381 0.062165 0.212403
Si Si2 0.897929 0.101772 0.162709
Si Si3 0.030248 0.372896 0.692511
Si Si4 0.195754 0.134742 0.993179
Si Si5 0.194778 0.578229 0.546169
Si Si6 0.605254 0.657246 0.973458
O O1 0.385083 0.141912 0.092635
O O2 0.039706 0.198703 0.370980
O O3 0.310567 0.745841 0.349205
O O4 0.187471 0.207517 0.062366
O O5 0.917124 0.807526 0.327205
O O6 0.043487 0.154543 0.915932
O O7 0.679751 0.357502 0.161012
O O8 0.988717 0.136476 0.153852
O O9 0.790762 0.590254 0.773942
O O10 0.179708 0.478104 0.521911
O O11 0.242475 0.335849 0.745314
O O12 0.384339 0.826823 0.016990
#
# Coordination Sequence:
#
# PCOD9083141 Si02
#       6
#     2   2   2   2   2   2
#     4  10  19  34  49  76 104 126 167 204 240 298
#     4   8  16  31  50  76  98 128 168 200 242 293
#     4   7  14  33  49  72 103 125 164 209 235 287
#     4  11  19  31  55  76  96 136 161 198 257 287
#     4   9  19  33  54  71 100 136 160 203 247 289
#     4   9  18  30  50  77 101 126 166 206 241 290
#
# _framework density 23.646488000000002
#
# number of rings (size 3 to 8) (size 9 to 14) (size 15 to 20)
#    1.000    2.000    1.667    1.000    0.000    1.333 
#    0.000    0.833    0.000    1.000    0.000    0.000 
#    0.000    0.000    0.000    0.000    0.000    0.000 
#
# Total GULP energy -66853.435132 kJ/mol
# GULP energy per Si atom -5571.119594 kJ/mol
# Density = 2.359267 g / cm^3
# Si number density = 23.646488 Si / 1000 Ang^3
#
#
#
# Elastic Constant Matrix: (Units=GPa)
#
#
# Indices 1 2 3 4 5 6 
#
# 1 59.9951 15.8794 25.5066 -8.8060 -14.2532 15.2098
# 2 15.8794 81.0188 21.0656 -25.0389 -17.2279 6.4036
# 3 25.5066 21.0656 87.7688 -14.5348 -15.5537 4.6932
# 4 -8.8060 -25.0389 -14.5348 27.2294 7.2353 -0.5303
# 5 -14.2532 -17.2279 -15.5537 7.2353 25.9088 -4.3606
# 6 15.2098 6.4036 4.6932 -0.5303 -4.3606 27.4492
#
#
#
# Elastic Compliance Matrix: (Units=1/GPa)
#
#
# Indices 1 2 3 4 5 6 
#
# 1 0.023605 -0.000069 -0.004412 0.002980 0.007600 -0.011044
# 2 -0.000069 0.018993 -0.000548 0.015082 0.007579 -0.002804
# 3 -0.004412 -0.000548 0.014336 0.004485 0.004723 0.000959
# 4 0.002980 0.015082 0.004485 0.054295 -0.001669 -0.005153
# 5 0.007600 0.007579 0.004723 -0.001669 0.051344 0.001337
# 6 -0.011044 -0.002804 0.000959 -0.005153 0.001337 0.043154
#
#
# Mechanical properties :
#
#
# Convention : Reuss Voigt Hill
#
# Bulk Modulus (GPa) = 21.33328 39.29843 30.31585
# Shear Modulus (GPa) = 21.60664 27.20620 24.40642
#
# Velocity S-wave (km/s) = 3.02609 3.39564 3.21617
# Velocity P-wave (km/s) = 4.60987 5.65942 5.16139
#
# Compressibility (1/GPa) = 0.04687512
#
# Stress axis : x y z
#
# Youngs Moduli (GPa) = 42.36364 52.65100 69.75498
#
# Poissons Ratio (x) = 0.00364 0.30778
# Poissons Ratio (y) = 0.00293 0.03822
# Poissons Ratio (z) = 0.18692 0.02885
#
# Static dielectric constant tensor:
#      x y z
#    x 1.966240 0.007120 -0.011930 
#    y 0.007120 1.942060 0.025880 
#    z -0.011930 0.025880 2.013350 
# 
# From -- ./inp_files/231604.got.cif
#   From: 2010.05.17/outbox.cif.g08.bks.cpg/sg2_116_cif.got.tgz:231604.got - 2010.06.03 11:33:40.
