data_PCOD9083679
_publ_section_title
;
Structure prediction by ZEFSAII (Michael W. Deem and Ramdas Pophale) SiO2 
 PCOD9083679
Probable space group: P -1
;
_chemical_formula_sum "Si O2"
_cell_formula_units_Z 16
_cell_length_a 15.236692
_cell_length_b 21.815017
_cell_length_c 11.832980
_cell_angle_alpha 36.522884
_cell_angle_beta 37.513321
_cell_angle_gamma 22.366793
_cell_volume 868.725192
_symmetry_space_group_name_H-M "P -1"
_symmetry_group_IT_number 2
_symmetry_cell_setting 'triclinic'
loop_
_space_group_symop_operation_xyz
x,y,z
-x,-y,-z
loop_
_atom_site_type_symbol
_atom_site_label
_atom_site_fract_x
_atom_site_fract_y
_atom_site_fract_z
Si Si1 0.521613 0.818663 0.781669
Si Si2 0.307893 0.574404 0.434816
Si Si3 0.989084 0.952199 0.420890
Si Si4 0.216228 0.661287 0.054703
Si Si5 0.793557 0.258861 0.286714
Si Si6 0.178405 0.903060 0.854712
Si Si7 0.888362 0.777286 0.397089
Si Si8 0.522654 0.313703 0.781396
O O1 0.423909 0.798839 0.812772
O O2 0.747864 0.754277 0.606965
O O3 0.310440 0.021757 0.716874
O O4 0.558731 0.728086 0.988660
O O5 0.522513 0.430619 0.342048
O O6 0.333309 0.472558 0.655994
O O7 0.372432 0.648380 0.312116
O O8 0.060731 0.711919 0.420172
O O9 0.053382 0.824225 0.631476
O O10 0.248921 0.853302 0.275757
O O11 0.831038 0.123739 0.395752
O O12 0.880716 0.992539 0.348689
O O13 0.064553 0.667603 0.273095
O O14 0.500000 0.500000 0.000000
O O15 0.135112 0.708783 0.937145
O O16 0.167152 0.797141 0.967364
O O17 0.000000 0.000000 0.000000
#
# Coordination Sequence:
#
# PCOD9083679 Si02
#       8
#     2   2   2   2   2   2   2   2
#     4  11  22  35  56  81 116 149 188 228 284 336
#     4  10  20  34  57  84 113 138 188 235 282 326
#     4   9  17  30  53  80 106 134 183 223 273 327
#     4  11  20  33  57  79 107 142 181 230 276 323
#     4   9  18  31  51  80 107 138 176 228 273 326
#     4  11  18  33  58  81 104 140 188 232 268 326
#     4  11  22  36  53  84 114 151 186 233 282 334
#     4  10  19  34  57  86 107 145 185 236 277 329
#
# _framework density 18.417791000000001
#
# number of rings (size 3 to 8) (size 9 to 14) (size 15 to 20)
#    0.000    1.750    3.750    2.250    0.000    0.500 
#    0.000    0.625    0.000    0.750    0.000    0.000 
#    0.000    0.000    0.000    0.000    0.000    0.000 
#
# Total GULP energy -89169.860238 kJ/mol
# GULP energy per Si atom -5573.116265 kJ/mol
# Density = 1.837587 g / cm^3
# Si number density = 18.417791 Si / 1000 Ang^3
#
#
#
# Elastic Constant Matrix: (Units=GPa)
#
#
# Indices 1 2 3 4 5 6 
#
# 1 61.7027 18.3173 49.7352 11.2124 24.3105 -2.6335
# 2 18.3173 82.3365 35.7811 13.0456 5.3655 4.0495
# 3 49.7352 35.7811 150.7461 12.9054 24.3705 -10.5951
# 4 11.2124 13.0456 12.9054 24.2459 -1.7330 2.0885
# 5 24.3105 5.3655 24.3705 -1.7330 34.8994 -0.5747
# 6 -2.6335 4.0495 -10.5951 2.0885 -0.5747 21.5878
#
#
#
# Elastic Compliance Matrix: (Units=1/GPa)
#
#
# Indices 1 2 3 4 5 6 
#
# 1 0.030287 -0.001358 -0.005730 -0.011627 -0.017436 0.001798
# 2 -0.001358 0.014733 -0.002920 -0.005387 0.000389 -0.003831
# 3 -0.005730 -0.002920 0.010146 -0.001794 -0.002653 0.004931
# 4 -0.011627 -0.005387 -0.001794 0.051894 0.012659 -0.005972
# 5 -0.017436 0.000389 -0.002653 0.012659 0.043162 -0.003578
# 6 0.001798 -0.003831 0.004931 -0.005972 -0.003578 0.050163
#
#
# Mechanical properties :
#
#
# Convention : Reuss Voigt Hill
#
# Bulk Modulus (GPa) = 28.44863 55.82806 42.13835
# Shear Modulus (GPa) = 21.54080 28.87674 25.20877
#
# Velocity S-wave (km/s) = 3.42360 3.96393 3.70363
# Velocity P-wave (km/s) = 5.57744 7.16437 6.42013
#
# Compressibility (1/GPa) = 0.03515108
#
# Stress axis : x y z
#
# Youngs Moduli (GPa) = 33.01693 67.87524 98.55873
#
# Poissons Ratio (x) = 0.09218 0.56472
# Poissons Ratio (y) = 0.04484 0.28779
# Poissons Ratio (z) = 0.18918 0.19819
#
# Static dielectric constant tensor:
#      x y z
#    x 1.639960 0.005850 0.054270 
#    y 0.005850 1.687270 -0.043090 
#    z 0.054270 -0.043090 1.682920 
# 
# From -- ./inp_files/387111.got.cif
#   From: 2010.05.17/outbox.cif.g08.bks.cpg/sg2_194_cif.got.tgz:387111.got - 2010.06.03 11:33:40.
