data_PCOD9083993
_publ_section_title
;
Structure prediction by ZEFSAII (Michael W. Deem and Ramdas Pophale) SiO2 
 PCOD9083993
Probable space group: P -1
;
_chemical_formula_sum "Si O2"
_cell_formula_units_Z 16
_cell_length_a 7.445054
_cell_length_b 20.097069
_cell_length_c 5.544497
_cell_angle_alpha 94.106787
_cell_angle_beta 56.362918
_cell_angle_gamma 115.017277
_cell_volume 611.169305
_symmetry_space_group_name_H-M "P -1"
_symmetry_group_IT_number 2
_symmetry_cell_setting 'triclinic'
loop_
_space_group_symop_operation_xyz
x,y,z
-x,-y,-z
loop_
_atom_site_type_symbol
_atom_site_label
_atom_site_fract_x
_atom_site_fract_y
_atom_site_fract_z
Si Si1 0.542790 0.297127 0.280218
Si Si2 0.298064 0.531066 0.682662
Si Si3 0.399282 0.066050 0.839787
Si Si4 0.536681 0.779949 0.180494
Si Si5 0.981861 0.732772 0.077138
Si Si6 0.296358 0.908219 0.879260
Si Si7 0.035126 0.308814 0.418459
Si Si8 0.211001 0.475587 0.234358
O O1 0.610351 0.384571 0.267899
O O2 0.426529 0.253219 0.604972
O O3 0.801767 0.292177 0.083690
O O4 0.432255 0.254016 0.101432
O O5 0.500000 0.500000 0.500000
O O6 0.213058 0.527960 0.467403
O O7 0.142663 0.480547 0.009985
O O8 0.313163 0.130017 0.917714
O O9 0.547083 0.079424 0.480218
O O10 0.225820 0.976499 0.954737
O O11 0.556735 0.082864 0.976048
O O12 0.245228 0.755057 0.397203
O O13 0.096826 0.822259 0.996383
O O14 0.847359 0.693879 0.923107
O O15 0.859018 0.705674 0.419510
O O16 0.065782 0.392012 0.425636
O O17 0.500000 0.500000 0.000000
#
# Coordination Sequence:
#
# PCOD9083993 Si02
#       8
#     2   2   2   2   2   2   2   2
#     4  10  18  30  48  65  91 124 154 194 234 282
#     4  10  21  37  52  66  85 116 157 205 248 285
#     4  10  16  25  41  63  96 137 162 180 211 267
#     4  10  17  30  43  70 100 127 155 183 228 286
#     4  10  17  30  43  70 100 127 155 183 228 286
#     4  10  16  25  41  63  96 137 162 180 211 267
#     4  10  18  30  48  65  91 124 154 194 234 282
#     4  10  21  37  52  66  85 116 157 205 248 285
#
# _framework density 26.179326
#
# number of rings (size 3 to 8) (size 9 to 14) (size 15 to 20)
#    0.000    2.000    5.000    1.500    0.000    0.000 
#    0.000   15.000    0.000    0.000    0.000    0.000 
#    0.000    0.000    0.000  153.000    0.000    0.000 
#
# Total GULP energy -89480.600268 kJ/mol
# GULP energy per Si atom -5592.537517 kJ/mol
# Density = 2.611974 g / cm^3
# Si number density = 26.179326 Si / 1000 Ang^3
#
#
#
# Elastic Constant Matrix: (Units=GPa)
#
#
# Indices 1 2 3 4 5 6 
#
# 1 69.2854 26.0448 30.0533 -2.3384 40.1468 -10.8523
# 2 26.0448 247.4838 59.8204 6.0291 19.8101 -12.3773
# 3 30.0533 59.8204 218.0314 28.6294 47.2499 -10.9474
# 4 -2.3384 6.0291 28.6294 86.8085 -2.2802 23.0189
# 5 40.1468 19.8101 47.2499 -2.2802 61.9308 -8.8404
# 6 -10.8523 -12.3773 -10.9474 23.0189 -8.8404 46.6210
#
#
#
# Elastic Compliance Matrix: (Units=1/GPa)
#
#
# Indices 1 2 3 4 5 6 
#
# 1 0.023830 -0.001281 0.000551 -0.000579 -0.015085 0.002762
# 2 -0.001281 0.004448 -0.001045 -0.000202 0.000311 0.000796
# 3 0.000551 -0.001045 0.006214 -0.002530 -0.004617 0.001684
# 4 -0.000579 -0.000202 -0.002530 0.014402 0.001823 -0.007548
# 5 -0.015085 0.000311 -0.004617 0.001823 0.029440 0.000169
# 6 0.002762 0.000796 0.001684 -0.007548 0.000169 0.026458
#
#
# Mechanical properties :
#
#
# Convention : Reuss Voigt Hill
#
# Bulk Modulus (GPa) = 32.31877 85.18195 58.75036
# Shear Modulus (GPa) = 42.13858 66.99752 54.56805
#
# Velocity S-wave (km/s) = 4.01635 5.06432 4.57047
# Velocity P-wave (km/s) = 5.82066 8.17343 7.09524
#
# Compressibility (1/GPa) = 0.03094178
#
# Stress axis : x y z
#
# Youngs Moduli (GPa) = 41.96433 224.82834 160.91405
#
# Poissons Ratio (x) = 0.28804 -0.08861
# Poissons Ratio (y) = 0.05376 0.16810
# Poissons Ratio (z) = -0.02311 0.23487
#
# Static dielectric constant tensor:
#      x y z
#    x 0.527860 0.035960 -0.018350 
#    y 0.035960 1.980460 0.036380 
#    z -0.018350 0.036380 2.071550 
# 
# From -- ./inp_files/44886.got.cif
#   From: 2010.05.17/outbox.cif.g08.bks.cpg/sg2_23_cif.got.tgz:44886.got - 2010.06.03 11:33:40.
