data_PCOD9083933
_publ_section_title
;
Structure prediction by ZEFSAII (Michael W. Deem and Ramdas Pophale) SiO2 
 PCOD9083933
Probable space group: P -1
;
_chemical_formula_sum "Si O2"
_cell_formula_units_Z 14
_cell_length_a 16.233802
_cell_length_b 9.241621
_cell_length_c 12.653810
_cell_angle_alpha 51.557869
_cell_angle_beta 50.332509
_cell_angle_gamma 27.136955
_cell_volume 658.706273
_symmetry_space_group_name_H-M "P -1"
_symmetry_group_IT_number 2
_symmetry_cell_setting 'triclinic'
loop_
_space_group_symop_operation_xyz
x,y,z
-x,-y,-z
loop_
_atom_site_type_symbol
_atom_site_label
_atom_site_fract_x
_atom_site_fract_y
_atom_site_fract_z
Si Si1 0.895900 0.250261 0.339527
Si Si2 0.832867 0.448301 0.531553
Si Si3 0.281366 0.412270 0.219931
Si Si4 0.074528 0.276324 0.723915
Si Si5 0.223659 0.723670 0.939700
Si Si6 0.366128 0.247401 0.864267
Si Si7 0.112379 0.296296 0.106993
O O1 0.794028 0.441576 0.446253
O O2 0.766313 0.483754 0.241419
O O3 0.075959 0.132976 0.235401
O O4 0.976597 0.930960 0.424403
O O5 0.692985 0.596575 0.672843
O O6 0.857215 0.633437 0.426340
O O7 0.078269 0.611179 0.273484
O O8 0.429045 0.062156 0.208756
O O9 0.286755 0.594193 0.065980
O O10 0.975556 0.475751 0.823976
O O11 0.235177 0.908517 0.795098
O O12 0.326597 0.433038 0.911993
O O13 0.000000 0.000000 0.000000
O O14 0.304806 0.126382 0.003065
O O15 0.000000 0.500000 0.000000
#
# Coordination Sequence:
#
# PCOD9083933 Si02
#       7
#     2   2   2   2   2   2   2
#     4   9  20  38  62  77 107 157 196 226 263 339
#     4  10  21  39  59  82 110 152 199 221 271 339
#     4  11  22  33  59  87 121 140 178 242 290 327
#     4  10  20  37  58  84 110 151 191 226 270 343
#     4  10  19  34  59  84 109 147 186 227 276 337
#     4  11  20  36  57  88 118 140 183 241 288 321
#     4   9  18  32  59  80 106 142 192 225 270 324
#
# _framework density 21.253782000000001
#
# number of rings (size 3 to 8) (size 9 to 14) (size 15 to 20)
#    0.000    2.000    2.857    2.571    2.000    0.571 
#    0.000    3.571    3.143    0.000    0.000    0.000 
#    0.000    0.000    0.000    0.000    0.000    0.000 
#
# Total GULP energy -78086.759316 kJ/mol
# GULP energy per Si atom -5577.625665 kJ/mol
# Density = 2.120541 g / cm^3
# Si number density = 21.253782 Si / 1000 Ang^3
#
#
#
# Elastic Constant Matrix: (Units=GPa)
#
#
# Indices 1 2 3 4 5 6 
#
# 1 35.4907 10.3501 33.6711 -5.8553 7.3528 10.1171
# 2 10.3501 58.0963 37.7892 -3.5953 -8.2721 8.8504
# 3 33.6711 37.7892 146.9816 -8.2368 13.4231 12.9377
# 4 -5.8553 -3.5953 -8.2368 41.9904 18.4477 0.0913
# 5 7.3528 -8.2721 13.4231 18.4477 26.8663 -5.5351
# 6 10.1171 8.8504 12.9377 0.0913 -5.5351 16.1528
#
#
#
# Elastic Compliance Matrix: (Units=1/GPa)
#
#
# Indices 1 2 3 4 5 6 
#
# 1 0.060392 -0.007154 -0.001768 0.028404 -0.047426 -0.048901
# 2 -0.007154 0.025242 -0.007649 -0.009539 0.020925 0.004001
# 3 -0.001768 -0.007649 0.011887 0.008230 -0.015430 -0.009556
# 4 0.028404 -0.009539 0.008230 0.055616 -0.061353 -0.040494
# 5 -0.047426 0.020925 -0.015430 -0.061353 0.121429 0.072554
# 6 -0.048901 0.004001 -0.009556 -0.040494 0.072554 0.123090
#
#
# Mechanical properties :
#
#
# Convention : Reuss Voigt Hill
#
# Bulk Modulus (GPa) = 15.53317 44.90994 30.22155
# Shear Modulus (GPa) = 11.05566 27.58578 19.32072
#
# Velocity S-wave (km/s) = 2.28321 3.60658 3.01831
# Velocity P-wave (km/s) = 3.77823 6.20640 5.13782
#
# Compressibility (1/GPa) = 0.06437836
#
# Stress axis : x y z
#
# Youngs Moduli (GPa) = 16.55857 39.61623 84.12862
#
# Poissons Ratio (x) = 0.28343 0.14874
# Poissons Ratio (y) = 0.11847 0.64347
# Poissons Ratio (z) = 0.02928 0.30301
#
# Static dielectric constant tensor:
#      x y z
#    x 1.802610 0.001490 0.003550 
#    y 0.001490 1.759390 -0.024940 
#    z 0.003550 -0.024940 1.819860 
# 
# From -- ./inp_files/171571.got.cif
#   From: 2010.05.17/outbox.cif.g08.bks.cpg/sg2_86_cif.got.tgz:171571.got - 2010.06.03 11:33:40.
