data_PCOD9083852
_publ_section_title
;
Structure prediction by ZEFSAII (Michael W. Deem and Ramdas Pophale) SiO2 
 PCOD9083852
Probable space group: P -1
;
_chemical_formula_sum "Si O2"
_cell_formula_units_Z 16
_cell_length_a 9.566419
_cell_length_b 12.513085
_cell_length_c 11.108190
_cell_angle_alpha 38.098294
_cell_angle_beta 133.536744
_cell_angle_gamma 114.371179
_cell_volume 569.327927
_symmetry_space_group_name_H-M "P -1"
_symmetry_group_IT_number 2
_symmetry_cell_setting 'triclinic'
loop_
_space_group_symop_operation_xyz
x,y,z
-x,-y,-z
loop_
_atom_site_type_symbol
_atom_site_label
_atom_site_fract_x
_atom_site_fract_y
_atom_site_fract_z
Si Si1 0.749718 0.754348 0.086501
Si Si2 0.934522 0.694318 0.579971
Si Si3 0.521631 0.688488 0.787231
Si Si4 0.257570 0.753614 0.094680
Si Si5 0.180497 0.584100 0.417894
Si Si6 0.228708 0.495022 0.108008
Si Si7 0.380085 0.006059 0.755891
Si Si8 0.140713 0.964601 0.407846
O O1 0.710383 0.575291 0.284449
O O2 0.989024 0.715563 0.255888
O O3 0.672066 0.751366 0.908159
O O4 0.608126 0.928927 0.914296
O O5 0.904567 0.534937 0.623568
O O6 0.148201 0.639451 0.824071
O O7 0.974298 0.856970 0.385704
O O8 0.736405 0.787842 0.458825
O O9 0.318647 0.853971 0.525780
O O10 0.500000 0.500000 0.000000
O O11 0.614407 0.660642 0.733847
O O12 0.309553 0.580834 0.191150
O O13 0.362359 0.883477 0.970254
O O14 0.295743 0.693325 0.308473
O O15 0.012993 0.836042 0.873165
O O16 0.000000 0.500000 0.000000
O O17 0.242867 0.969271 0.596026
#
# Coordination Sequence:
#
# PCOD9083852 Si02
#       8
#     2   2   2   2   2   2   2   2
#     4  10  22  40  55  79 112 155 189 216 274 339
#     4  11  18  34  57  83 109 147 177 224 282 327
#     4  11  19  36  61  83 106 147 188 226 272 332
#     4  11  20  35  57  89 113 139 182 235 282 318
#     4  11  23  38  58  77 116 155 184 221 271 339
#     4  12  19  31  54  88 113 136 180 233 281 314
#     4  10  20  35  59  81 112 144 186 233 274 326
#     4  10  19  34  58  87 112 142 182 232 283 324
#
# _framework density 28.103311999999999
#
# number of rings (size 3 to 8) (size 9 to 14) (size 15 to 20)
#    0.000    1.250    6.250    1.500    0.000    1.000 
#    2.250    1.875    0.000   18.750    0.000    0.000 
#    0.000    0.000    0.000    0.000    0.000    0.000 
#
# Total GULP energy -89509.407102 kJ/mol
# GULP energy per Si atom -5594.337944 kJ/mol
# Density = 2.803935 g / cm^3
# Si number density = 28.103312 Si / 1000 Ang^3
#
#
#
# Elastic Constant Matrix: (Units=GPa)
#
#
# Indices 1 2 3 4 5 6 
#
# 1 171.9061 55.1223 56.1534 -16.5884 25.9766 -51.4379
# 2 55.1223 87.6563 35.7462 -11.7948 11.1741 -19.0222
# 3 56.1534 35.7462 117.5518 -2.3056 39.6738 -22.4546
# 4 -16.5884 -11.7948 -2.3056 38.5995 -15.7339 4.3430
# 5 25.9766 11.1741 39.6738 -15.7339 57.7340 -16.9708
# 6 -51.4379 -19.0222 -22.4546 4.3430 -16.9708 46.7170
#
#
#
# Elastic Compliance Matrix: (Units=1/GPa)
#
#
# Indices 1 2 3 4 5 6 
#
# 1 0.010603 -0.003375 -0.002613 0.002801 0.001146 0.009200
# 2 -0.003375 0.015514 -0.003593 0.003923 0.002467 0.001406
# 3 -0.002613 -0.003593 0.013706 -0.005043 -0.009094 -0.000587
# 4 0.002801 0.003923 -0.005043 0.032199 0.011201 0.003333
# 5 0.001146 0.002467 -0.009094 0.011201 0.027658 0.006901
# 6 0.009200 0.001406 -0.000587 0.003333 0.006901 0.034023
#
#
# Mechanical properties :
#
#
# Convention : Reuss Voigt Hill
#
# Bulk Modulus (GPa) = 48.39843 74.57310 61.48577
# Shear Modulus (GPa) = 31.29880 43.94960 37.62420
#
# Velocity S-wave (km/s) = 3.34084 3.95885 3.66291
# Velocity P-wave (km/s) = 5.66927 6.89127 6.30992
#
# Compressibility (1/GPa) = 0.02066183
#
# Stress axis : x y z
#
# Youngs Moduli (GPa) = 94.31518 64.45843 72.96103
#
# Poissons Ratio (x) = 0.21752 0.19066
# Poissons Ratio (y) = 0.31827 0.26213
# Poissons Ratio (z) = 0.24646 0.23158
#
# Static dielectric constant tensor:
#      x y z
#    x 2.382170 -0.044600 -0.364930 
#    y -0.044600 2.175460 0.205610 
#    z -0.364930 0.205610 2.855650 
# 
# From -- ./inp_files/308031.got.cif
#   From: 2010.05.17/outbox.cif.g08.bks.cpg/sg2_155_cif.got.tgz:308031.got - 2010.06.03 11:33:40.
