data_PCOD9083838
_publ_section_title
;
Structure prediction by ZEFSAII (Michael W. Deem and Ramdas Pophale) SiO2 
 PCOD9083838
Probable space group: P -1
;
_chemical_formula_sum "Si O2"
_cell_formula_units_Z 14
_cell_length_a 11.475987
_cell_length_b 13.231732
_cell_length_c 12.228919
_cell_angle_alpha 148.116371
_cell_angle_beta 125.138232
_cell_angle_gamma 39.978093
_cell_volume 614.538181
_symmetry_space_group_name_H-M "P -1"
_symmetry_group_IT_number 2
_symmetry_cell_setting 'triclinic'
loop_
_space_group_symop_operation_xyz
x,y,z
-x,-y,-z
loop_
_atom_site_type_symbol
_atom_site_label
_atom_site_fract_x
_atom_site_fract_y
_atom_site_fract_z
Si Si1 0.483802 0.295234 0.258135
Si Si2 0.732281 0.330822 0.884940
Si Si3 0.236979 0.067797 0.606548
Si Si4 0.509745 0.167022 0.902139
Si Si5 0.117465 0.036942 0.173282
Si Si6 0.875569 0.959648 0.244732
Si Si7 0.903466 0.377726 0.567901
O O1 0.500000 0.500000 0.500000
O O2 0.303356 0.365257 0.287143
O O3 0.687576 0.040157 0.164169
O O4 0.463040 0.289292 0.110638
O O5 0.923417 0.272368 0.901560
O O6 0.696021 0.176610 0.647462
O O7 0.775446 0.199887 0.904153
O O8 0.574863 0.617728 0.037239
O O9 0.404769 0.059182 0.724741
O O10 0.139503 0.074463 0.668491
O O11 0.077475 0.305551 0.665153
O O12 0.730262 0.976176 0.824493
O O13 0.979283 0.284314 0.400428
O O14 0.000000 0.000000 0.000000
O O15 0.882549 0.179831 0.423745
#
# Coordination Sequence:
#
# PCOD9083838 Si02
#       7
#     2   2   2   2   2   2   2
#     4  10  19  34  58  86 117 153 196 241 289 344
#     4  10  21  38  61  85 120 159 193 244 296 345
#     4  10  21  36  58  88 123 151 195 248 290 349
#     4  12  23  37  63  91 115 157 201 238 296 355
#     4  10  21  40  62  86 118 156 198 243 294 355
#     4   9  17  34  56  83 117 154 192 236 291 339
#     4   9  19  36  59  84 120 159 191 244 297 344
#
# _framework density 22.781336
#
# number of rings (size 3 to 8) (size 9 to 14) (size 15 to 20)
#    0.000    2.286    0.000    7.286    0.000    5.143 
#    0.000    1.429    0.000    5.143    0.000    0.000 
#    0.000    0.000    0.000    0.000    0.000    0.000 
#
# Total GULP energy -78139.206296 kJ/mol
# GULP energy per Si atom -5581.371878 kJ/mol
# Density = 2.272948 g / cm^3
# Si number density = 22.781336 Si / 1000 Ang^3
#
#
#
# Elastic Constant Matrix: (Units=GPa)
#
#
# Indices 1 2 3 4 5 6 
#
# 1 116.8460 28.4425 41.5474 20.2125 -30.2795 -46.3049
# 2 28.4425 60.4465 35.4244 -17.8104 -9.3141 -34.5395
# 3 41.5474 35.4244 27.9558 59.0105 -9.9501 -19.3911
# 4 20.2125 -17.8104 59.0105 -50.0406 29.3972 5.6455
# 5 -30.2795 -9.3141 -9.9501 29.3972 27.8460 -4.3919
# 6 -46.3049 -34.5395 -19.3911 5.6455 -4.3919 44.8790
#
#
#
# Elastic Compliance Matrix: (Units=1/GPa)
#
#
# Indices 1 2 3 4 5 6 
#
# 1 -0.039647 -0.055541 0.041793 0.006551 -0.065153 -0.072794
# 2 -0.055541 -0.037907 0.050952 0.002599 -0.068895 -0.071534
# 3 0.041793 0.050952 -0.030227 0.005383 0.057715 0.074245
# 4 0.006551 0.002599 0.005383 -0.002143 0.014188 0.012743
# 5 -0.065153 -0.068895 0.057715 0.014188 -0.068709 -0.103817
# 6 -0.072794 -0.071534 0.074245 0.012743 -0.103817 -0.087561
#
#
# Mechanical properties :
#
#
# Convention : Reuss Voigt Hill
#
# Bulk Modulus (GPa) = -29.96431 46.23077 8.13323
# Shear Modulus (GPa) = -14.21561 11.19249 -1.51156
#
# Velocity S-wave (km/s) = -2.50071 2.21894 -0.81544
# Velocity P-wave (km/s) = 4.63893 5.18673 1.64051
#
# Compressibility (1/GPa) = -0.03337303
#
# Stress axis : x y z
#
# Youngs Moduli (GPa) = -25.22273 -26.38022 -33.08306
#
# Poissons Ratio (x) = -1.46519 1.38263
# Poissons Ratio (y) = -1.40090 1.68566
# Poissons Ratio (z) = 1.05413 1.34413
#
# Static dielectric constant tensor:
#      x y z
#    x 1.864740 -0.036590 -0.013790 
#    y -0.036590 1.843730 0.004920 
#    z -0.013790 0.004920 1.839450 
# 
# From -- ./inp_files/433548.got.cif
#   From: 2010.05.17/outbox.cif.g08.bks.cpg/sg2_217_cif.got.tgz:433548.got - 2010.06.03 11:33:40.
