data_PCOD9083518
_publ_section_title
;
Structure prediction by ZEFSAII (Michael W. Deem and Ramdas Pophale) SiO2 
 PCOD9083518
Probable space group: P -1
;
_chemical_formula_sum "Si O2"
_cell_formula_units_Z 16
_cell_length_a 11.959534
_cell_length_b 11.382818
_cell_length_c 19.193524
_cell_angle_alpha 26.674614
_cell_angle_beta 45.424627
_cell_angle_gamma 50.653680
_cell_volume 835.354427
_symmetry_space_group_name_H-M "P -1"
_symmetry_group_IT_number 2
_symmetry_cell_setting 'triclinic'
loop_
_space_group_symop_operation_xyz
x,y,z
-x,-y,-z
loop_
_atom_site_type_symbol
_atom_site_label
_atom_site_fract_x
_atom_site_fract_y
_atom_site_fract_z
Si Si1 0.405476 0.310256 0.045176
Si Si2 0.569711 0.114780 0.203724
Si Si3 0.873073 0.455933 0.018937
Si Si4 0.099317 0.179808 0.955609
Si Si5 0.130439 0.267235 0.742731
Si Si6 0.632300 0.116522 0.928672
Si Si7 0.170793 0.509743 0.452939
Si Si8 0.622783 0.004909 0.383594
O O1 0.399005 0.585851 0.944814
O O2 0.235204 0.297574 0.089969
O O3 0.541923 0.286521 0.938902
O O4 0.455627 0.108953 0.190856
O O5 0.728787 0.951704 0.204585
O O6 0.520796 0.998675 0.360424
O O7 0.975413 0.330783 0.978377
O O8 0.738687 0.250262 0.207644
O O9 0.000000 0.500000 0.000000
O O10 0.261635 0.107410 0.961406
O O11 0.118066 0.337666 0.791868
O O12 0.024281 0.895873 0.122429
O O13 0.158335 0.487199 0.555062
O O14 0.740396 0.268700 0.745892
O O15 0.500000 0.000000 0.000000
O O16 0.264082 0.244713 0.533800
O O17 0.000000 0.500000 0.500000
O O18 0.500000 0.000000 0.500000
#
# Coordination Sequence:
#
# PCOD9083518 Si02
#       8
#     2   2   2   2   2   2   2   2
#     4  10  19  34  56  85 110 149 193 232 280 335
#     4   9  17  33  57  84 110 142 192 243 275 325
#     4  11  21  37  59  85 118 154 186 231 286 352
#     4  11  20  37  58  87 115 153 192 236 287 338
#     4  10  19  35  61  85 116 144 196 247 280 328
#     4  12  24  37  58  88 120 152 191 234 292 352
#     4  11  20  37  58  88 112 148 194 243 283 330
#     4  10  20  37  56  84 114 146 191 239 287 327
#
# _framework density 19.153545999999999
#
# number of rings (size 3 to 8) (size 9 to 14) (size 15 to 20)
#    0.000    1.500    6.250    2.250    0.000    0.000 
#    2.250    0.625    2.750    0.750    0.000    0.000 
#    0.000    0.000    0.000    0.000    0.000    0.000 
#
# Total GULP energy -89101.549102 kJ/mol
# GULP energy per Si atom -5568.846819 kJ/mol
# Density = 1.910995 g / cm^3
# Si number density = 19.153546 Si / 1000 Ang^3
#
#
#
# Elastic Constant Matrix: (Units=GPa)
#
#
# Indices 1 2 3 4 5 6 
#
# 1 136.4621 48.5736 61.8186 33.6223 32.2178 -16.2462
# 2 48.5736 68.9667 43.3303 28.6388 16.5457 -6.3039
# 3 61.8186 43.3303 91.2517 37.2339 25.1226 3.7562
# 4 33.6223 28.6388 37.2339 25.9069 1.9752 5.9910
# 5 32.2178 16.5457 25.1226 1.9752 31.5089 -2.4820
# 6 -16.2462 -6.3039 3.7562 5.9910 -2.4820 28.8263
#
#
#
# Elastic Compliance Matrix: (Units=1/GPa)
#
#
# Indices 1 2 3 4 5 6 
#
# 1 0.030336 0.021341 0.022761 -0.099885 -0.051343 0.035136
# 2 0.021341 0.060747 0.035504 -0.151307 -0.068904 0.046199
# 3 0.022761 0.035504 0.071634 -0.174568 -0.084919 0.040226
# 4 -0.099885 -0.151307 -0.174568 0.604954 0.269524 -0.169157
# 5 -0.051343 -0.068904 -0.084919 0.269524 0.165344 -0.074718
# 6 0.035136 0.046199 0.040226 -0.169157 -0.074718 0.088077
#
#
# Mechanical properties :
#
#
# Convention : Reuss Voigt Hill
#
# Bulk Modulus (GPa) = 3.10628 67.12506 35.11567
# Shear Modulus (GPa) = 5.15894 26.77897 15.96895
#
# Velocity S-wave (km/s) = 1.64296 3.74320 2.89058
# Velocity P-wave (km/s) = 2.28569 7.33512 5.43269
#
# Compressibility (1/GPa) = 0.32192877
#
# Stress axis : x y z
#
# Youngs Moduli (GPa) = 32.96432 16.46160 13.95980
#
# Poissons Ratio (x) = -0.35131 -0.31773
# Poissons Ratio (y) = -0.70350 -0.49562
# Poissons Ratio (z) = -0.75029 -0.58445
#
# Static dielectric constant tensor:
#      x y z
#    x 1.696920 0.014440 0.029970 
#    y 0.014440 1.690650 -0.007680 
#    z 0.029970 -0.007680 1.658940 
# 
# From -- ./inp_files/568461.got.cif
#   From: 2010.05.17/outbox.cif.g08.bks.cpg/sg2_285_cif.got.tgz:568461.got - 2010.06.03 11:33:40.
