data_PCOD9083053
_publ_section_title
;
Structure prediction by ZEFSAII (Michael W. Deem and Ramdas Pophale) SiO2 
 PCOD9083053
Probable space group: P -1
;
_chemical_formula_sum "Si O2"
_cell_formula_units_Z 16
_cell_length_a 15.893430
_cell_length_b 11.583961
_cell_length_c 19.404601
_cell_angle_alpha 141.328758
_cell_angle_beta 159.825253
_cell_angle_gamma 30.596608
_cell_volume 619.554702
_symmetry_space_group_name_H-M "P -1"
_symmetry_group_IT_number 2
_symmetry_cell_setting 'triclinic'
loop_
_space_group_symop_operation_xyz
x,y,z
-x,-y,-z
loop_
_atom_site_type_symbol
_atom_site_label
_atom_site_fract_x
_atom_site_fract_y
_atom_site_fract_z
Si Si1 0.526745 0.044430 0.960183
Si Si2 0.623394 0.799959 0.310529
Si Si3 0.553810 0.747128 0.646989
Si Si4 0.677687 0.396943 0.219942
Si Si5 0.856739 0.345073 0.790975
Si Si6 0.072872 0.508234 0.316890
Si Si7 0.239505 0.062556 0.275579
Si Si8 0.333620 0.655485 0.213938
O O1 0.646972 0.191445 0.092496
O O2 0.796337 0.791052 0.026539
O O3 0.179685 0.221211 0.750324
O O4 0.500000 0.000000 0.000000
O O5 0.597921 0.589107 0.190296
O O6 0.432832 0.938488 0.297493
O O7 0.978362 0.693853 0.540595
O O8 0.502549 0.014051 0.267067
O O9 0.619049 0.593917 0.691336
O O10 0.271388 0.788293 0.404903
O O11 0.828035 0.582818 0.727528
O O12 0.471144 0.513608 0.184110
O O13 0.849528 0.359649 0.874352
O O14 0.365263 0.429918 0.549801
O O15 0.004192 0.334464 0.213571
O O16 0.128523 0.919239 0.153105
O O17 0.500000 0.000000 0.500000
#
# Coordination Sequence:
#
# PCOD9083053 Si02
#       8
#     2   2   2   2   2   2   2   2
#     4  12  23  38  58  88 125 152 191 241 302 350
#     4   9  17  34  59  86 114 145 202 242 280 333
#     4   9  16  33  59  87 103 156 210 233 265 354
#     4  10  21  36  61  89 118 150 192 249 296 336
#     4  10  19  33  61  83 116 157 201 231 283 351
#     4   9  18  34  59  84 114 150 194 241 289 345
#     4   8  15  30  59  85 112 145 194 239 278 338
#     4   9  19  37  60  86 113 151 204 241 280 339
#
# _framework density 25.824998999999998
#
# number of rings (size 3 to 8) (size 9 to 14) (size 15 to 20)
#    0.000    2.500    2.500    0.750    0.000    0.000 
#    0.000    9.375    5.500    0.000    0.000    0.000 
#    0.000    0.000    0.000    0.000    0.000    0.000 
#
# Total GULP energy -89262.157140 kJ/mol
# GULP energy per Si atom -5578.884821 kJ/mol
# Density = 2.576622 g / cm^3
# Si number density = 25.824999 Si / 1000 Ang^3
#
#
#
# Elastic Constant Matrix: (Units=GPa)
#
#
# Indices 1 2 3 4 5 6 
#
# 1 86.8796 34.2570 19.9358 -10.9928 4.2799 11.8752
# 2 34.2570 111.1591 21.8514 -24.0074 5.2895 24.4796
# 3 19.9358 21.8514 101.8731 -15.7135 1.1157 -4.2283
# 4 -10.9928 -24.0074 -15.7135 40.9093 7.3355 -7.3240
# 5 4.2799 5.2895 1.1157 7.3355 31.2566 2.4331
# 6 11.8752 24.4796 -4.2283 -7.3240 2.4331 28.6714
#
#
#
# Elastic Compliance Matrix: (Units=1/GPa)
#
#
# Indices 1 2 3 4 5 6 
#
# 1 0.013725 -0.002872 -0.002055 0.000868 -0.001274 -0.003206
# 2 -0.002872 0.013486 -0.001877 0.005217 -0.002340 -0.009070
# 3 -0.002055 -0.001877 0.011449 0.003883 -0.001128 0.005230
# 4 0.000868 0.005217 0.003883 0.031655 -0.008928 0.004602
# 5 -0.001274 -0.002340 -0.001128 -0.008928 0.034924 -0.002885
# 6 -0.003206 -0.009070 0.005230 0.004602 -0.002885 0.046141
#
#
# Mechanical properties :
#
#
# Convention : Reuss Voigt Hill
#
# Bulk Modulus (GPa) = 39.91603 50.22225 45.06914
# Shear Modulus (GPa) = 28.84536 35.09197 31.96867
#
# Velocity S-wave (km/s) = 3.34571 3.69024 3.52219
# Velocity P-wave (km/s) = 5.51498 6.13568 5.83359
#
# Compressibility (1/GPa) = 0.02505259
#
# Stress axis : x y z
#
# Youngs Moduli (GPa) = 72.86049 74.15329 87.34284
#
# Poissons Ratio (x) = 0.21294 0.17950
# Poissons Ratio (y) = 0.20923 0.16392
# Poissons Ratio (z) = 0.14974 0.13917
#
# Static dielectric constant tensor:
#      x y z
#    x 2.031870 0.007270 0.007520 
#    y 0.007270 2.151560 0.123320 
#    z 0.007520 0.123320 2.136220 
# 
# From -- ./inp_files/508218.got.cif
#   From: 2010.05.17/outbox.cif.g08.bks.cpg/sg2_255_cif.got.tgz:508218.got - 2010.06.03 11:33:40.
