data_PCOD9083646
_publ_section_title
;
Structure prediction by ZEFSAII (Michael W. Deem and Ramdas Pophale) SiO2 
 PCOD9083646
Probable space group: P -1
;
_chemical_formula_sum "Si O2"
_cell_formula_units_Z 14
_cell_length_a 11.553272
_cell_length_b 7.227443
_cell_length_c 9.378073
_cell_angle_alpha 131.847135
_cell_angle_beta 64.968199
_cell_angle_gamma 114.711962
_cell_volume 517.739127
_symmetry_space_group_name_H-M "P -1"
_symmetry_group_IT_number 2
_symmetry_cell_setting 'triclinic'
loop_
_space_group_symop_operation_xyz
x,y,z
-x,-y,-z
loop_
_atom_site_type_symbol
_atom_site_label
_atom_site_fract_x
_atom_site_fract_y
_atom_site_fract_z
Si Si1 0.342732 0.283213 0.564369
Si Si2 0.287379 0.797252 0.144605
Si Si3 0.614180 0.238734 0.427981
Si Si4 0.170911 0.307006 0.146814
Si Si5 0.558481 0.745329 0.002986
Si Si6 0.113295 0.800424 0.723255
Si Si7 0.132123 0.545981 0.872793
O O1 0.471190 0.254006 0.572768
O O2 0.367480 0.527659 0.572961
O O3 0.216677 0.330284 0.738410
O O4 0.306325 0.041553 0.357985
O O5 0.212380 0.561355 0.158754
O O6 0.429968 0.771839 0.998814
O O7 0.209008 0.795480 0.039501
O O8 0.748661 0.226465 0.436220
O O9 0.590761 0.987733 0.213680
O O10 0.036575 0.266502 0.288243
O O11 0.306337 0.299284 0.154489
O O12 0.138921 0.072837 0.929912
O O13 0.500000 0.500000 0.000000
O O14 0.107117 0.596922 0.749429
O O15 0.000000 0.500000 0.000000
#
# Coordination Sequence:
#
# PCOD9083646 Si02
#       7
#     2   2   2   2   2   2   2
#     4   9  19  34  54  78 113 143 176 224 273 324
#     4  10  19  34  57  84 106 143 183 224 273 321
#     4   8  15  32  49  75 108 141 176 217 264 314
#     4   9  16  31  54  80 105 147 185 214 265 329
#     4   8  15  28  53  79 104 139 184 214 257 323
#     4   9  17  31  55  79 108 147 180 216 273 324
#     4  11  21  35  54  86 111 136 180 231 277 320
#
# _framework density 27.040645000000001
#
# number of rings (size 3 to 8) (size 9 to 14) (size 15 to 20)
#    0.000    2.857    1.429    0.000    0.000    0.571 
#    0.000   25.714    0.000   38.571    0.000    0.000 
#    0.000    0.000    0.000    0.000    0.000    0.000 
#
# Total GULP energy -78256.899225 kJ/mol
# GULP energy per Si atom -5589.778516 kJ/mol
# Density = 2.697910 g / cm^3
# Si number density = 27.040645 Si / 1000 Ang^3
#
#
#
# Elastic Constant Matrix: (Units=GPa)
#
#
# Indices 1 2 3 4 5 6 
#
# 1 176.7358 54.8434 49.8533 -15.5058 -33.5351 58.6908
# 2 54.8434 65.5693 37.1744 23.1293 -16.5700 14.9614
# 3 49.8533 37.1744 134.5176 6.7115 -37.1267 15.4854
# 4 -15.5058 23.1293 6.7115 41.1436 0.0566 -1.8509
# 5 -33.5351 -16.5700 -37.1267 0.0566 47.2790 -14.6785
# 6 58.6908 14.9614 15.4854 -1.8509 -14.6785 43.2143
#
#
#
# Elastic Compliance Matrix: (Units=1/GPa)
#
#
# Indices 1 2 3 4 5 6 
#
# 1 0.018351 -0.015800 -0.000761 0.015106 0.001240 -0.018112
# 2 -0.015800 0.038512 -0.003944 -0.026555 0.002049 0.009098
# 3 -0.000761 -0.003944 0.010516 0.000246 0.006611 0.000887
# 4 0.015106 -0.026555 0.000246 0.044437 -0.001569 -0.010040
# 5 0.001240 0.002049 0.006611 -0.001569 0.029560 0.005211
# 6 -0.018112 0.009098 0.000887 -0.010040 0.005211 0.045612
#
#
# Mechanical properties :
#
#
# Convention : Reuss Voigt Hill
#
# Bulk Modulus (GPa) = 37.92351 73.39608 55.65980
# Shear Modulus (GPa) = 21.11599 41.99082 31.55340
#
# Velocity S-wave (km/s) = 2.79749 3.94493 3.41968
# Velocity P-wave (km/s) = 4.94870 6.92472 6.01837
#
# Compressibility (1/GPa) = 0.02636886
#
# Stress axis : x y z
#
# Youngs Moduli (GPa) = 54.49236 25.96607 95.09105
#
# Poissons Ratio (x) = 0.41027 0.07237
# Poissons Ratio (y) = 0.86099 0.37503
# Poissons Ratio (z) = 0.04147 0.10241
#
# Static dielectric constant tensor:
#      x y z
#    x 2.171260 0.057650 -0.081120 
#    y 0.057650 2.222530 -0.056300 
#    z -0.081120 -0.056300 2.150700 
# 
# From -- ./inp_files/259378.got.cif
#   From: 2010.05.17/outbox.cif.g08.bks.cpg/sg2_130_cif.got.tgz:259378.got - 2010.06.03 11:33:40.
