data_PCOD9083365
_publ_section_title
;
Structure prediction by ZEFSAII (Michael W. Deem and Ramdas Pophale) SiO2 
 PCOD9083365
Probable space group: P -1
;
_chemical_formula_sum "Si O2"
_cell_formula_units_Z 16
_cell_length_a 9.863590
_cell_length_b 13.938000
_cell_length_c 7.315972
_cell_angle_alpha 46.471392
_cell_angle_beta 68.524897
_cell_angle_gamma 78.781305
_cell_volume 676.127422
_symmetry_space_group_name_H-M "P -1"
_symmetry_group_IT_number 2
_symmetry_cell_setting 'triclinic'
loop_
_space_group_symop_operation_xyz
x,y,z
-x,-y,-z
loop_
_atom_site_type_symbol
_atom_site_label
_atom_site_fract_x
_atom_site_fract_y
_atom_site_fract_z
Si Si1 0.087219 0.103220 0.063330
Si Si2 0.656168 0.840416 0.880887
Si Si3 0.581089 0.127578 0.519551
Si Si4 0.734764 0.806928 0.480355
Si Si5 0.913637 0.332987 0.875214
Si Si6 0.355940 0.770731 0.036017
Si Si7 0.166874 0.812600 0.421739
Si Si8 0.069868 0.402280 0.334616
O O1 0.137796 0.120761 0.803662
O O2 0.945759 0.178828 0.086413
O O3 0.217884 0.182020 0.010503
O O4 0.091527 0.949070 0.313960
O O5 0.726417 0.860163 0.619952
O O6 0.513649 0.736764 0.074535
O O7 0.589398 0.978691 0.782215
O O8 0.421273 0.177711 0.556751
O O9 0.607045 0.133855 0.280477
O O10 0.714640 0.209061 0.450895
O O11 0.774634 0.656065 0.687984
O O12 0.028129 0.372927 0.605353
O O13 0.936374 0.440523 0.882094
O O14 0.754495 0.341836 0.852736
O O15 0.264166 0.829795 0.165888
O O16 0.046881 0.691865 0.598528
#
# Coordination Sequence:
#
# PCOD9083365 Si02
#       8
#     2   2   2   2   2   2   2   2
#     4  10  20  34  56  83 108 139 179 219 264 318
#     4  10  20  33  52  83 114 138 172 221 270 316
#     4  10  20  33  52  83 114 138 172 221 270 316
#     4  10  19  34  55  77 109 145 175 215 268 318
#     4   9  20  38  57  78 108 144 181 222 266 313
#     4  10  19  34  55  77 109 145 175 215 268 318
#     4  10  20  34  56  83 108 139 179 219 264 318
#     4   9  20  38  57  78 108 144 181 222 266 313
#
# _framework density 23.664178
#
# number of rings (size 3 to 8) (size 9 to 14) (size 15 to 20)
#    0.000    2.250    0.000    3.750    0.000    9.500 
#    0.000    8.750    0.000    6.000    0.000    0.000 
#    0.000    0.000    0.000    0.000    0.000    0.000 
#
# Total GULP energy -89357.127351 kJ/mol
# GULP energy per Si atom -5584.820459 kJ/mol
# Density = 2.361032 g / cm^3
# Si number density = 23.664178 Si / 1000 Ang^3
#
#
#
# Elastic Constant Matrix: (Units=GPa)
#
#
# Indices 1 2 3 4 5 6 
#
# 1 148.5290 46.1909 8.3521 5.0216 -4.8517 7.8096
# 2 46.1909 102.8919 28.3678 -6.9020 -5.2065 3.6941
# 3 8.3521 28.3678 48.4985 11.3844 4.6189 -0.8126
# 4 5.0216 -6.9020 11.3844 11.0625 7.3342 -5.9278
# 5 -4.8517 -5.2065 4.6189 7.3342 30.0064 4.8979
# 6 7.8096 3.6941 -0.8126 -5.9278 4.8979 30.7169
#
#
#
# Elastic Compliance Matrix: (Units=1/GPa)
#
#
# Indices 1 2 3 4 5 6 
#
# 1 0.010421 -0.008352 0.008846 -0.027920 0.006990 -0.007914
# 2 -0.008352 0.022647 -0.023286 0.053091 -0.008508 0.010386
# 3 0.008846 -0.023286 0.052681 -0.092371 0.014836 -0.018247
# 4 -0.027920 0.053091 -0.092371 0.314900 -0.069497 0.070121
# 5 0.006990 -0.008508 0.014836 -0.069497 0.051265 -0.021947
# 6 -0.007914 0.010386 -0.018247 0.070121 -0.021947 0.049867
#
#
# Mechanical properties :
#
#
# Convention : Reuss Voigt Hill
#
# Bulk Modulus (GPa) = 24.89792 51.74901 38.32346
# Shear Modulus (GPa) = 8.91658 28.82440 18.87049
#
# Velocity S-wave (km/s) = 1.94323 3.49386 2.82694
# Velocity P-wave (km/s) = 3.94703 6.17994 5.18511
#
# Compressibility (1/GPa) = 0.04016400
#
# Stress axis : x y z
#
# Youngs Moduli (GPa) = 95.95953 44.15679 18.98230
#
# Poissons Ratio (x) = 0.36881 -0.16792
# Poissons Ratio (y) = 0.80149 0.44202
# Poissons Ratio (z) = -0.84889 1.02824
#
# Static dielectric constant tensor:
#      x y z
#    x 1.935860 0.021130 -0.007450 
#    y 0.021130 1.915230 -0.021410 
#    z -0.007450 -0.021410 1.975710 
# 
# From -- ./inp_files/205477.got.cif
#   From: 2010.05.17/outbox.cif.g08.bks.cpg/sg2_103_cif.got.tgz:205477.got - 2010.06.03 11:33:40.
