data_PCOD9083577
_publ_section_title
;
Structure prediction by ZEFSAII (Michael W. Deem and Ramdas Pophale) SiO2 
 PCOD9083577
Probable space group: P -1
;
_chemical_formula_sum "Si O2"
_cell_formula_units_Z 16
_cell_length_a 13.125431
_cell_length_b 10.590103
_cell_length_c 8.105047
_cell_angle_alpha 115.789171
_cell_angle_beta 111.867572
_cell_angle_gamma 108.930649
_cell_volume 765.425312
_symmetry_space_group_name_H-M "P -1"
_symmetry_group_IT_number 2
_symmetry_cell_setting 'triclinic'
loop_
_space_group_symop_operation_xyz
x,y,z
-x,-y,-z
loop_
_atom_site_type_symbol
_atom_site_label
_atom_site_fract_x
_atom_site_fract_y
_atom_site_fract_z
Si Si1 0.854027 0.037744 0.460643
Si Si2 0.649534 0.548015 0.591996
Si Si3 0.400480 0.772221 0.423800
Si Si4 0.118771 0.213161 0.892320
Si Si5 0.451261 0.106339 0.750543
Si Si6 0.310594 0.621121 0.749283
Si Si7 0.083493 0.621252 0.462493
Si Si8 0.842502 0.448888 0.034687
O O1 0.908425 0.206049 0.470476
O O2 0.954275 0.093307 0.710232
O O3 0.848674 0.889320 0.270884
O O4 0.703172 0.966943 0.373827
O O5 0.500000 0.500000 0.500000
O O6 0.627279 0.381908 0.571874
O O7 0.687744 0.530882 0.418896
O O8 0.778170 0.721364 0.852740
O O9 0.487716 0.794066 0.329147
O O10 0.467988 0.951147 0.658859
O O11 0.257174 0.716928 0.229921
O O12 0.151014 0.392139 0.947188
O O13 0.537695 0.225340 0.023996
O O14 0.230905 0.667886 0.606044
O O15 0.230116 0.578047 0.848127
O O16 0.000000 0.500000 0.500000
O O17 0.990865 0.497895 0.185557
#
# Coordination Sequence:
#
# PCOD9083577 Si02
#       8
#     2   2   2   2   2   2   2   2
#     4  10  19  34  57  77 101 140 177 212 255 307
#     4  11  22  35  52  77 108 140 172 216 261 303
#     4   9  20  36  53  77 107 136 176 217 253 305
#     4   9  20  36  54  77 104 136 179 215 250 307
#     4  10  20  35  55  79 105 138 175 214 258 306
#     4  10  20  33  54  80 107 139 173 210 261 313
#     4   9  18  33  55  80 104 132 167 214 265 307
#     4   8  17  36  56  75 103 140 175 211 254 307
#
# _framework density 20.903410000000001
#
# number of rings (size 3 to 8) (size 9 to 14) (size 15 to 20)
#    0.000    2.500    0.000    1.500    0.000    5.000 
#    0.000    8.750    0.000   12.750    0.000    0.000 
#    0.000    0.000    0.000    0.000    0.000    0.000 
#
# Total GULP energy -89074.057649 kJ/mol
# GULP energy per Si atom -5567.128603 kJ/mol
# Density = 2.085583 g / cm^3
# Si number density = 20.903410 Si / 1000 Ang^3
#
#
#
# Elastic Constant Matrix: (Units=GPa)
#
#
# Indices 1 2 3 4 5 6 
#
# 1 76.8573 8.7752 49.7027 -9.4072 22.2233 -9.5186
# 2 8.7752 13.5854 3.0529 3.4784 1.9662 3.2470
# 3 49.7027 3.0529 163.1777 2.8460 15.2849 -14.4781
# 4 -9.4072 3.4784 2.8460 22.1216 -6.1009 3.4922
# 5 22.2233 1.9662 15.2849 -6.1009 29.6411 0.2028
# 6 -9.5186 3.2470 -14.4781 3.4922 0.2028 24.7905
#
#
#
# Elastic Compliance Matrix: (Units=1/GPa)
#
#
# Indices 1 2 3 4 5 6 
#
# 1 0.023836 -0.016386 -0.005339 0.008914 -0.012244 0.007025
# 2 -0.016386 0.091835 0.002219 -0.019093 0.001217 -0.014344
# 3 -0.005339 0.002219 0.008190 -0.004525 -0.001320 0.003091
# 4 0.008914 -0.019093 -0.004525 0.055625 0.008397 -0.004624
# 5 -0.012244 0.001217 -0.001320 0.008397 0.045295 -0.007185
# 6 0.007025 -0.014344 0.003091 -0.004624 -0.007185 0.047429
#
#
# Mechanical properties :
#
#
# Convention : Reuss Voigt Hill
#
# Bulk Modulus (GPa) = 11.78563 41.85358 26.81961
# Shear Modulus (GPa) = 14.72736 28.11662 21.42199
#
# Velocity S-wave (km/s) = 2.65720 3.67150 3.20474
# Velocity P-wave (km/s) = 3.88133 6.16758 5.15285
#
# Compressibility (1/GPa) = 0.08484906
#
# Stress axis : x y z
#
# Youngs Moduli (GPa) = 41.95299 10.88914 122.10358
#
# Poissons Ratio (x) = 0.17843 0.65191
# Poissons Ratio (y) = 0.68744 -0.27096
# Poissons Ratio (z) = 0.22399 -0.02416
#
# Static dielectric constant tensor:
#      x y z
#    x 1.795640 0.037990 0.022990 
#    y 0.037990 1.743780 -0.033900 
#    z 0.022990 -0.033900 1.826320 
# 
# From -- ./inp_files/256463.got.cif
#   From: 2010.05.17/outbox.cif.g08.bks.cpg/sg2_129_cif.got.tgz:256463.got - 2010.06.03 11:33:40.
