data_PCOD9083082
_publ_section_title
;
Structure prediction by ZEFSAII (Michael W. Deem and Ramdas Pophale) SiO2 
 PCOD9083082
Probable space group: P -1
;
_chemical_formula_sum "Si O2"
_cell_formula_units_Z 16
_cell_length_a 7.257064
_cell_length_b 11.842008
_cell_length_c 22.897966
_cell_angle_alpha 31.229844
_cell_angle_beta 133.916603
_cell_angle_gamma 118.925081
_cell_volume 702.682302
_symmetry_space_group_name_H-M "P -1"
_symmetry_group_IT_number 2
_symmetry_cell_setting 'triclinic'
loop_
_space_group_symop_operation_xyz
x,y,z
-x,-y,-z
loop_
_atom_site_type_symbol
_atom_site_label
_atom_site_fract_x
_atom_site_fract_y
_atom_site_fract_z
Si Si1 0.126508 0.991986 0.869396
Si Si2 0.699119 0.850087 0.561283
Si Si3 0.321712 0.326466 0.821876
Si Si4 0.834538 0.841991 0.325738
Si Si5 0.437518 0.713058 0.730417
Si Si6 0.395210 0.489935 0.638625
Si Si7 0.978677 0.557357 0.038310
Si Si8 0.258097 0.727351 0.805716
O O1 0.100247 0.199579 0.816362
O O2 0.086364 0.079104 0.755544
O O3 0.436910 0.836258 0.014999
O O4 0.958177 0.821527 0.923244
O O5 0.609561 0.629597 0.621570
O O6 0.986286 0.801647 0.674933
O O7 0.500000 0.000000 0.500000
O O8 0.662888 0.023087 0.422784
O O9 0.243864 0.571550 0.726283
O O10 0.423114 0.363704 0.762881
O O11 0.628598 0.696173 0.332205
O O12 0.102598 0.678074 0.486602
O O13 0.726525 0.064724 0.242486
O O14 0.717199 0.596317 0.810145
O O15 0.470148 0.673377 0.824100
O O16 0.782050 0.472494 0.073964
O O17 0.000000 0.500000 0.000000
#
# Coordination Sequence:
#
# PCOD9083082 Si02
#       8
#     2   2   2   2   2   2   2   2
#     4   9  18  32  59  81 114 151 196 235 292 349
#     4  12  19  37  62  87 116 156 199 241 291 360
#     4   9  17  35  54  85 112 153 192 238 289 354
#     4  10  19  34  55  92 115 155 196 244 297 354
#     4  11  23  37  61  90 118 151 198 246 292 357
#     4  10  19  33  62  83 117 156 202 238 295 355
#     4  11  21  38  59  84 116 157 196 236 295 352
#     4  12  23  38  62  90 120 153 198 248 300 347
#
# _framework density 22.769891999999999
#
# number of rings (size 3 to 8) (size 9 to 14) (size 15 to 20)
#    0.000    1.500    5.000    1.125    0.000    0.500 
#    0.000    1.250    2.750    0.000    0.000    0.000 
#    0.000    0.000    0.000    0.000    0.000    0.000 
#
# Total GULP energy -89393.017576 kJ/mol
# GULP energy per Si atom -5587.063598 kJ/mol
# Density = 2.271807 g / cm^3
# Si number density = 22.769892 Si / 1000 Ang^3
#
#
#
# Elastic Constant Matrix: (Units=GPa)
#
#
# Indices 1 2 3 4 5 6 
#
# 1 87.2056 31.3639 21.1397 -10.8466 -15.1726 3.7276
# 2 31.3639 161.3150 25.2163 -42.3030 -19.6318 6.5975
# 3 21.1397 25.2163 94.8000 -2.9361 -32.7921 13.9345
# 4 -10.8466 -42.3030 -2.9361 55.9145 8.4263 -9.1084
# 5 -15.1726 -19.6318 -32.7921 8.4263 33.7098 1.4021
# 6 3.7276 6.5975 13.9345 -9.1084 1.4021 21.0471
#
#
#
# Elastic Compliance Matrix: (Units=1/GPa)
#
#
# Indices 1 2 3 4 5 6 
#
# 1 0.013111 -0.001788 -0.000864 0.000330 0.003991 -0.001312
# 2 -0.001788 0.008429 -0.001404 0.005955 0.001204 0.001101
# 3 -0.000864 -0.001404 0.020845 -0.006168 0.021332 -0.017298
# 4 0.000330 0.005955 -0.006168 0.025823 -0.009420 0.013962
# 5 0.003991 0.001204 0.021332 -0.009420 0.056227 -0.023030
# 6 -0.001312 0.001101 -0.017298 0.013962 -0.023030 0.066428
#
#
# Mechanical properties :
#
#
# Convention : Reuss Voigt Hill
#
# Bulk Modulus (GPa) = 29.17818 55.41782 42.29800
# Shear Modulus (GPa) = 23.76399 39.84099 31.80249
#
# Velocity S-wave (km/s) = 3.23407 4.18751 3.74129
# Velocity P-wave (km/s) = 5.17570 6.91168 6.10570
#
# Compressibility (1/GPa) = 0.03427218
#
# Stress axis : x y z
#
# Youngs Moduli (GPa) = 76.26971 118.63463 47.97219
#
# Poissons Ratio (x) = 0.21214 0.04146
# Poissons Ratio (y) = 0.13638 0.06737
# Poissons Ratio (z) = 0.06592 0.16661
#
# Static dielectric constant tensor:
#      x y z
#    x 1.910420 0.045200 0.037210 
#    y 0.045200 1.883870 0.008570 
#    z 0.037210 0.008570 1.874020 
# 
# From -- ./inp_files/418106.got.cif
#   From: 2010.05.17/outbox.cif.g08.bks.cpg/sg2_210_cif.got.tgz:418106.got - 2010.06.03 11:33:40.
