data_PCOD9083248
_publ_section_title
;
Structure prediction by ZEFSAII (Michael W. Deem and Ramdas Pophale) SiO2 
 PCOD9083248
Probable space group: P -1
;
_chemical_formula_sum "Si O2"
_cell_formula_units_Z 14
_cell_length_a 5.127877
_cell_length_b 17.640910
_cell_length_c 6.936312
_cell_angle_alpha 115.710083
_cell_angle_beta 82.228993
_cell_angle_gamma 83.042667
_cell_volume 548.674337
_symmetry_space_group_name_H-M "P -1"
_symmetry_group_IT_number 2
_symmetry_cell_setting 'triclinic'
loop_
_space_group_symop_operation_xyz
x,y,z
-x,-y,-z
loop_
_atom_site_type_symbol
_atom_site_label
_atom_site_fract_x
_atom_site_fract_y
_atom_site_fract_z
Si Si1 0.724367 0.996132 0.636570
Si Si2 0.409362 0.178235 0.490938
Si Si3 0.905840 0.585651 0.485573
Si Si4 0.055742 0.280627 0.949456
Si Si5 0.395303 0.820882 0.108997
Si Si6 0.252138 0.579466 0.095148
Si Si7 0.647393 0.315966 0.457460
O O1 0.708395 0.905825 0.641101
O O2 0.500000 0.000000 0.500000
O O3 0.638626 0.083214 0.865126
O O4 0.000000 0.000000 0.500000
O O5 0.606010 0.160693 0.637886
O O6 0.328192 0.249110 0.007662
O O7 0.164089 0.247917 0.685256
O O8 0.928659 0.339800 0.394048
O O9 0.589970 0.619124 0.554394
O O10 0.000000 0.500000 0.500000
O O11 0.010291 0.562049 0.232997
O O12 0.850843 0.221547 0.965812
O O13 0.884589 0.376029 0.034593
O O14 0.564342 0.223768 0.367948
O O15 0.366267 0.653610 0.282717
O O16 0.500000 0.500000 0.000000
#
# Coordination Sequence:
#
# PCOD9083248 Si02
#       7
#     2   2   2   2   2   2   2
#     4  10  16  22  37  58  83 118 157 181 214 277
#     4   9  16  25  41  57  89 113 159 177 226 271
#     4  10  20  35  50  67  90 124 160 200 244 286
#     4  10  16  27  39  55  88 119 151 181 227 273
#     4   9  15  25  35  56  82 120 153 174 219 275
#     4  10  21  33  49  71  93 125 167 201 234 281
#     4  10  19  32  49  66  91 126 161 191 241 282
#
# _framework density 25.516044000000001
#
# number of rings (size 3 to 8) (size 9 to 14) (size 15 to 20)
#    1.714    0.571    4.286    0.429    0.000    0.571 
#    0.000    0.000    0.000    0.000    0.000    0.000 
#    0.000    0.000    0.000    7.714    5.143    0.143 
#
# Total GULP energy -78104.152940 kJ/mol
# GULP energy per Si atom -5578.868067 kJ/mol
# Density = 2.545797 g / cm^3
# Si number density = 25.516044 Si / 1000 Ang^3
#
#
#
# Elastic Constant Matrix: (Units=GPa)
#
#
# Indices 1 2 3 4 5 6 
#
# 1 132.1270 17.2180 20.3179 3.7097 -22.4188 5.0302
# 2 17.2180 143.6197 26.1987 2.1718 -0.8517 12.9190
# 3 20.3179 26.1987 69.0192 -0.7142 -9.4391 3.2796
# 4 3.7097 2.1718 -0.7142 33.9802 6.9501 -7.3018
# 5 -22.4188 -0.8517 -9.4391 6.9501 36.0264 2.6357
# 6 5.0302 12.9190 3.2796 -7.3018 2.6357 49.3234
#
#
#
# Elastic Compliance Matrix: (Units=1/GPa)
#
#
# Indices 1 2 3 4 5 6 
#
# 1 0.008981 -0.000596 -0.001598 -0.002430 0.005721 -0.001319
# 2 -0.000596 0.007712 -0.002758 -0.000755 -0.000630 -0.001854
# 3 -0.001598 -0.002758 0.016475 -0.000063 0.003298 -0.000396
# 4 -0.002430 -0.000755 -0.000063 0.032662 -0.008266 0.005727
# 5 0.005721 -0.000630 0.003298 -0.008266 0.034031 -0.003680
# 6 -0.001319 -0.001854 -0.000396 0.005727 -0.003680 0.021965
#
#
# Mechanical properties :
#
#
# Convention : Reuss Voigt Hill
#
# Bulk Modulus (GPa) = 42.98251 52.47057 47.72654
# Shear Modulus (GPa) = 35.84640 42.60142 39.22391
#
# Velocity S-wave (km/s) = 3.75221 4.09050 3.92500
# Velocity P-wave (km/s) = 5.97109 6.55118 6.26785
#
# Compressibility (1/GPa) = 0.02326528
#
# Stress axis : x y z
#
# Youngs Moduli (GPa) = 111.34598 129.67166 60.69793
#
# Poissons Ratio (x) = 0.07728 0.09697
# Poissons Ratio (y) = 0.06636 0.16739
# Poissons Ratio (z) = 0.17789 0.35759
#
# Static dielectric constant tensor:
#      x y z
#    x 1.933050 0.016410 0.040830 
#    y 0.016410 2.085840 0.074520 
#    z 0.040830 0.074520 2.187200 
# 
# From -- ./inp_files/49940.got.cif
#   From: 2010.05.17/outbox.cif.g08.bks.cpg/sg2_25_cif.got.tgz:49940.got - 2010.06.03 11:33:40.
