data_PCOD9083061
_publ_section_title
;
Structure prediction by ZEFSAII (Michael W. Deem and Ramdas Pophale) SiO2 
 PCOD9083061
Probable space group: P -1
;
_chemical_formula_sum "Si O2"
_cell_formula_units_Z 16
_cell_length_a 9.311846
_cell_length_b 8.024409
_cell_length_c 13.403511
_cell_angle_alpha 97.515375
_cell_angle_beta 81.859378
_cell_angle_gamma 45.232244
_cell_volume 664.956078
_symmetry_space_group_name_H-M "P -1"
_symmetry_group_IT_number 2
_symmetry_cell_setting 'triclinic'
loop_
_space_group_symop_operation_xyz
x,y,z
-x,-y,-z
loop_
_atom_site_type_symbol
_atom_site_label
_atom_site_fract_x
_atom_site_fract_y
_atom_site_fract_z
Si Si1 0.488309 0.174889 0.143648
Si Si2 0.215863 0.325716 0.355783
Si Si3 0.914596 0.314622 0.857464
Si Si4 0.063569 0.957192 0.649688
Si Si5 0.196088 0.338607 0.890250
Si Si6 0.019699 0.725148 0.781395
Si Si7 0.151203 0.110364 0.489132
Si Si8 0.719799 0.212557 0.983204
O O1 0.403587 0.254018 0.270758
O O2 0.279189 0.390825 0.114561
O O3 0.582478 0.906416 0.102872
O O4 0.656570 0.168394 0.085932
O O5 0.082289 0.326792 0.287503
O O6 0.057351 0.600828 0.437237
O O7 0.291221 0.129331 0.418065
O O8 0.883796 0.228432 0.952748
O O9 0.134460 0.226411 0.823278
O O10 0.909711 0.200458 0.753027
O O11 0.921495 0.967527 0.589323
O O12 0.150889 0.746980 0.703507
O O13 0.213189 0.951562 0.568870
O O14 0.173136 0.511888 0.832225
O O15 0.000000 0.500000 0.000000
O O16 0.825427 0.985480 0.879677
O O17 0.500000 0.500000 0.000000
#
# Coordination Sequence:
#
# PCOD9083061 Si02
#       8
#     2   2   2   2   2   2   2   2
#     4  11  21  37  59  87 120 153 201 242 285 351
#     4  10  19  33  61  90 119 150 197 252 290 350
#     4  10  21  40  60  84 120 160 193 242 301 339
#     4   9  17  34  64  83 116 155 193 244 296 359
#     4  12  24  37  59  87 123 161 200 237 284 352
#     4  10  19  36  56  85 120 159 195 233 302 339
#     4   9  17  32  61  97 107 152 206 236 305 354
#     4   9  20  35  57  82 116 159 197 234 287 354
#
# _framework density 24.061737999999998
#
# number of rings (size 3 to 8) (size 9 to 14) (size 15 to 20)
#    0.000    2.000    3.750    0.000    0.000    3.500 
#    0.000    0.000    0.000   13.500    0.000    0.000 
#    0.000    0.000    0.000    0.000    0.000    0.000 
#
# Total GULP energy -89212.973607 kJ/mol
# GULP energy per Si atom -5575.810850 kJ/mol
# Density = 2.400697 g / cm^3
# Si number density = 24.061738 Si / 1000 Ang^3
#
#
#
# Elastic Constant Matrix: (Units=GPa)
#
#
# Indices 1 2 3 4 5 6 
#
# 1 58.8370 26.9494 37.5120 -6.7513 -5.3900 13.3970
# 2 26.9494 142.3265 44.6716 -33.4686 -4.3423 25.9156
# 3 37.5120 44.6716 132.8578 -26.7012 -7.3715 26.3724
# 4 -6.7513 -33.4686 -26.7012 60.5324 36.6721 -21.0834
# 5 -5.3900 -4.3423 -7.3715 36.6721 46.3683 -5.5484
# 6 13.3970 25.9156 26.3724 -21.0834 -5.5484 30.9287
#
#
#
# Elastic Compliance Matrix: (Units=1/GPa)
#
#
# Indices 1 2 3 4 5 6 
#
# 1 0.023241 -0.003181 -0.005347 -0.008649 0.007510 -0.007391
# 2 -0.003181 0.009851 -0.000809 0.007474 -0.005741 -0.002121
# 3 -0.005347 -0.000809 0.010730 0.003782 -0.002463 -0.004019
# 4 -0.008649 0.007474 0.003782 0.053086 -0.038881 0.023472
# 5 0.007510 -0.005741 -0.002463 -0.038881 0.050613 -0.013767
# 6 -0.007391 -0.002121 -0.004019 0.023472 -0.013767 0.054269
#
#
# Mechanical properties :
#
#
# Convention : Reuss Voigt Hill
#
# Bulk Modulus (GPa) = 39.76733 61.36525 50.56629
# Shear Modulus (GPa) = 21.84866 42.55844 32.20355
#
# Velocity S-wave (km/s) = 3.01661 4.21018 3.66235
# Velocity P-wave (km/s) = 5.35690 7.01375 6.24056
#
# Compressibility (1/GPa) = 0.02514627
#
# Stress axis : x y z
#
# Youngs Moduli (GPa) = 43.02828 101.51054 93.19890
#
# Poissons Ratio (x) = 0.32295 0.49831
# Poissons Ratio (y) = 0.13689 0.07544
# Poissons Ratio (z) = 0.23006 0.08216
#
# Static dielectric constant tensor:
#      x y z
#    x 1.977050 0.050130 0.030590 
#    y 0.050130 1.967060 -0.026430 
#    z 0.030590 -0.026430 1.964310 
# 
# From -- ./inp_files/446666.got.cif
#   From: 2010.05.17/outbox.cif.g08.bks.cpg/sg2_224_cif.got.tgz:446666.got - 2010.06.03 11:33:40.
