data_PCOD9083247
_publ_section_title
;
Structure prediction by ZEFSAII (Michael W. Deem and Ramdas Pophale) SiO2 
 PCOD9083247
Probable space group: P -1
;
_chemical_formula_sum "Si O2"
_cell_formula_units_Z 16
_cell_length_a 24.639409
_cell_length_b 15.067897
_cell_length_c 9.256948
_cell_angle_alpha 47.039938
_cell_angle_beta 131.496639
_cell_angle_gamma 165.550190
_cell_volume 627.538954
_symmetry_space_group_name_H-M "P -1"
_symmetry_group_IT_number 2
_symmetry_cell_setting 'triclinic'
loop_
_space_group_symop_operation_xyz
x,y,z
-x,-y,-z
loop_
_atom_site_type_symbol
_atom_site_label
_atom_site_fract_x
_atom_site_fract_y
_atom_site_fract_z
Si Si1 0.666395 0.690176 0.678467
Si Si2 0.127625 0.597490 0.808655
Si Si3 0.744394 0.571807 0.058811
Si Si4 0.827553 0.435954 0.388100
Si Si5 0.713006 0.568237 0.342102
Si Si6 0.010980 0.618714 0.761376
Si Si7 0.088041 0.335573 0.254514
Si Si8 0.616866 0.762324 0.795814
O O1 0.500000 0.500000 0.500000
O O2 0.621616 0.680160 0.762875
O O3 0.632995 0.492441 0.843879
O O4 0.923458 0.123281 0.630216
O O5 0.163596 0.787263 0.728794
O O6 0.183164 0.661870 0.667521
O O7 0.864850 0.176244 0.815290
O O8 0.195484 0.596665 0.038270
O O9 0.703460 0.363979 0.211266
O O10 0.684344 0.513813 0.180552
O O11 0.000000 0.000000 0.000000
O O12 0.800163 0.324887 0.617190
O O13 0.752536 0.498497 0.557032
O O14 0.526924 0.344330 0.350189
O O15 0.928918 0.991330 0.274703
O O16 0.050537 0.801523 0.724041
O O17 0.000000 0.500000 0.000000
O O18 0.500000 0.500000 0.000000
#
# Coordination Sequence:
#
# PCOD9083247 Si02
#       8
#     2   2   2   2   2   2   2   2
#     4  10  22  32  53  86 117 147 182 230 290 339
#     4  10  21  38  56  83 111 152 189 231 279 339
#     4  10  19  34  53  82 118 149 183 229 287 342
#     4  10  20  37  58  78 116 147 191 231 285 331
#     4  11  20  33  57  83 117 146 181 236 286 331
#     4  10  21  36  58  85 110 146 199 237 271 330
#     4  10  20  33  55  86 108 143 190 228 279 323
#     4  11  20  35  54  79 117 148 183 226 291 337
#
# _framework density 25.496424000000001
#
# number of rings (size 3 to 8) (size 9 to 14) (size 15 to 20)
#    0.000    1.750    3.750    1.875    1.750    2.000 
#    0.000    0.625    0.000    0.000    0.000    7.000 
#    0.000    0.000    0.000    0.000    0.000    0.000 
#
# Total GULP energy -89407.700443 kJ/mol
# GULP energy per Si atom -5587.981278 kJ/mol
# Density = 2.543839 g / cm^3
# Si number density = 25.496424 Si / 1000 Ang^3
#
#
#
# Elastic Constant Matrix: (Units=GPa)
#
#
# Indices 1 2 3 4 5 6 
#
# 1 109.1687 4.8824 42.9280 -4.8945 23.9570 -10.4068
# 2 4.8824 49.1039 28.0196 -5.5856 8.0322 13.6113
# 3 42.9280 28.0196 178.1513 13.4161 37.1450 -0.9478
# 4 -4.8945 -5.5856 13.4161 32.9530 9.9440 6.0768
# 5 23.9570 8.0322 37.1450 9.9440 60.6144 6.9667
# 6 -10.4068 13.6113 -0.9478 6.0768 6.9667 24.8483
#
#
#
# Elastic Compliance Matrix: (Units=1/GPa)
#
#
# Indices 1 2 3 4 5 6 
#
# 1 0.011581 -0.000579 -0.001956 0.002700 -0.004396 0.005665
# 2 -0.000579 0.030310 -0.005579 0.010935 0.000109 -0.019763
# 3 -0.001956 -0.005579 0.007976 -0.004354 -0.003178 0.004497
# 4 0.002700 0.010935 -0.004354 0.038174 -0.004609 -0.013069
# 5 -0.004396 0.000109 -0.003178 -0.004609 0.021727 -0.006986
# 6 0.005665 -0.019763 0.004497 -0.013069 -0.006986 0.058769
#
#
# Mechanical properties :
#
#
# Convention : Reuss Voigt Hill
#
# Bulk Modulus (GPa) = 29.72755 54.23156 41.97955
# Shear Modulus (GPa) = 25.51281 41.05606 33.28444
#
# Velocity S-wave (km/s) = 3.16673 4.01717 3.61703
# Velocity P-wave (km/s) = 5.00556 6.54471 5.82619
#
# Compressibility (1/GPa) = 0.03363884
#
# Stress axis : x y z
#
# Youngs Moduli (GPa) = 86.34827 32.99210 125.36880
#
# Poissons Ratio (x) = 0.01912 0.24524
# Poissons Ratio (y) = 0.05004 0.69942
# Poissons Ratio (z) = 0.16891 0.18406
#
# Static dielectric constant tensor:
#      x y z
#    x 1.931670 0.066840 0.062280 
#    y 0.066840 1.942450 -0.050700 
#    z 0.062280 -0.050700 2.091810 
# 
# From -- ./inp_files/186550.got.cif
#   From: 2010.05.17/outbox.cif.g08.bks.cpg/sg2_94_cif.got.tgz:186550.got - 2010.06.03 11:33:40.
