data_PCOD9083915
_publ_section_title
;
Structure prediction by ZEFSAII (Michael W. Deem and Ramdas Pophale) SiO2 
 PCOD9083915
Probable space group: P -1
;
_chemical_formula_sum "Si O2"
_cell_formula_units_Z 16
_cell_length_a 18.946342
_cell_length_b 9.123988
_cell_length_c 12.848259
_cell_angle_alpha 103.652712
_cell_angle_beta 154.622021
_cell_angle_gamma 89.739267
_cell_volume 800.479314
_symmetry_space_group_name_H-M "P -1"
_symmetry_group_IT_number 2
_symmetry_cell_setting 'triclinic'
loop_
_space_group_symop_operation_xyz
x,y,z
-x,-y,-z
loop_
_atom_site_type_symbol
_atom_site_label
_atom_site_fract_x
_atom_site_fract_y
_atom_site_fract_z
Si Si1 0.219345 0.032481 0.535827
Si Si2 0.263306 0.412250 0.017942
Si Si3 0.832963 0.725890 0.899388
Si Si4 0.645935 0.612793 0.303208
Si Si5 0.364053 0.593883 0.562887
Si Si6 0.541375 0.773799 0.390529
Si Si7 0.501543 0.013261 0.231213
Si Si8 0.106644 0.896906 0.593972
O O1 0.418277 0.059253 0.764307
O O2 0.195457 0.974751 0.612979
O O3 0.207348 0.206462 0.527742
O O4 0.051043 0.874590 0.220964
O O5 0.060459 0.302213 0.673941
O O6 0.236702 0.343682 0.088893
O O7 0.425595 0.379358 0.177810
O O8 0.350361 0.619179 0.160938
O O9 0.782768 0.558579 0.734066
O O10 0.710605 0.804545 0.698297
O O11 0.693744 0.483038 0.410028
O O12 0.571276 0.686070 0.310574
O O13 0.500000 0.500000 0.000000
O O14 0.387824 0.779688 0.602385
O O15 0.538466 0.942863 0.376329
O O16 0.277565 0.934997 0.904185
O O17 0.000000 0.000000 0.500000
#
# Coordination Sequence:
#
# PCOD9083915 Si02
#       8
#     2   2   2   2   2   2   2   2
#     4  10  22  37  60  84 115 147 192 237 281 333
#     4   9  18  37  60  81 110 158 191 228 281 346
#     4   9  19  38  60  82 112 157 192 224 286 343
#     4   9  18  32  54  81 108 149 188 225 274 339
#     4  10  19  34  59  81 114 150 190 233 280 340
#     4   9  20  35  58  84 115 151 186 239 280 333
#     4  11  22  36  55  89 117 146 187 239 292 323
#     4  11  21  36  61  81 115 151 191 231 284 346
#
# _framework density 19.988025
#
# number of rings (size 3 to 8) (size 9 to 14) (size 15 to 20)
#    0.000    2.500    1.250    2.625    1.750    6.500 
#    0.000    2.500    5.500    0.000    0.000    0.000 
#    0.000    0.000    0.000    0.000    0.000    0.000 
#
# Total GULP energy -89165.566844 kJ/mol
# GULP energy per Si atom -5572.847928 kJ/mol
# Density = 1.994253 g / cm^3
# Si number density = 19.988025 Si / 1000 Ang^3
#
#
#
# Elastic Constant Matrix: (Units=GPa)
#
#
# Indices 1 2 3 4 5 6 
#
# 1 -23.1829 -21.9423 -28.8708 -5.1484 13.4556 2.4336
# 2 -21.9423 121.2982 8.4601 -6.6434 -2.3067 9.5208
# 3 -28.8708 8.4601 42.7820 -1.5110 -2.6593 -3.5873
# 4 -5.1484 -6.6434 -1.5110 18.8442 1.4546 -0.2959
# 5 13.4556 -2.3067 -2.6593 1.4546 21.4510 -1.4675
# 6 2.4336 9.5208 -3.5873 -0.2959 -1.4675 12.4159
#
#
#
# Elastic Compliance Matrix: (Units=1/GPa)
#
#
# Indices 1 2 3 4 5 6 
#
# 1 -0.018275 -0.003057 -0.011026 -0.007710 0.010551 0.003804
# 2 -0.003057 0.008656 -0.004197 0.001636 0.001738 -0.007007
# 3 -0.011026 -0.004197 0.018226 -0.003601 0.009770 0.011714
# 4 -0.007710 0.001636 -0.003601 0.051170 0.001135 0.000570
# 5 0.010551 0.001738 0.009770 0.001135 0.041619 0.004368
# 6 0.003804 -0.007007 0.011714 0.000570 0.004368 0.089083
#
#
# Mechanical properties :
#
#
# Convention : Reuss Voigt Hill
#
# Bulk Modulus (GPa) = -35.77564 6.24347 -14.76609
# Shear Modulus (GPa) = 22.96515 22.75892 22.86204
#
# Velocity S-wave (km/s) = 3.39329 3.37802 3.38566
# Velocity P-wave (km/s) = 1.60775 4.28311 2.80715
#
# Compressibility (1/GPa) = -0.02795198
#
# Stress axis : x y z
#
# Youngs Moduli (GPa) = -54.71841 115.52087 54.86696
#
# Poissons Ratio (x) = 0.35316 0.60495
# Poissons Ratio (y) = -0.16728 0.23025
# Poissons Ratio (z) = -0.60331 0.48479
#
# Static dielectric constant tensor:
#      x y z
#    x 1.725030 -0.003800 0.001060 
#    y -0.003800 1.773220 0.014090 
#    z 0.001060 0.014090 1.700080 
# 
# From -- ./inp_files/542552.got.cif
#   From: 2010.05.17/outbox.cif.g08.bks.cpg/sg2_272_cif.got.tgz:542552.got - 2010.06.03 11:33:40.
