data_PCOD9083120
_publ_section_title
;
Structure prediction by ZEFSAII (Michael W. Deem and Ramdas Pophale) SiO2 
 PCOD9083120
Probable space group: P -1
;
_chemical_formula_sum "Si O2"
_cell_formula_units_Z 16
_cell_length_a 10.743416
_cell_length_b 14.157099
_cell_length_c 16.182533
_cell_angle_alpha 145.944870
_cell_angle_beta 149.615479
_cell_angle_gamma 52.849544
_cell_volume 641.596947
_symmetry_space_group_name_H-M "P -1"
_symmetry_group_IT_number 2
_symmetry_cell_setting 'triclinic'
loop_
_space_group_symop_operation_xyz
x,y,z
-x,-y,-z
loop_
_atom_site_type_symbol
_atom_site_label
_atom_site_fract_x
_atom_site_fract_y
_atom_site_fract_z
Si Si1 0.080046 0.865914 0.338172
Si Si2 0.248071 0.088908 0.104401
Si Si3 0.215117 0.216301 0.723674
Si Si4 0.941216 0.304115 0.364168
Si Si5 0.311258 0.822827 0.711204
Si Si6 0.474890 0.601810 0.215594
Si Si7 0.993729 0.732757 0.018978
Si Si8 0.604869 0.382467 0.631577
O O1 0.993308 0.854504 0.186648
O O2 0.174197 0.702132 0.287914
O O3 0.862128 0.836891 0.263237
O O4 0.310408 0.064175 0.632184
O O5 0.497222 0.195038 0.262503
O O6 0.347281 0.202423 0.327557
O O7 0.022514 0.152426 0.985917
O O8 0.194576 0.875399 0.902896
O O9 0.949519 0.185000 0.494715
O O10 0.402537 0.426175 0.988162
O O11 0.791059 0.313266 0.369629
O O12 0.000000 0.500000 0.500000
O O13 0.213214 0.282498 0.532169
O O14 0.500000 0.000000 0.000000
O O15 0.262131 0.692349 0.142653
O O16 0.443519 0.548339 0.256624
O O17 0.741294 0.542862 0.758976
#
# Coordination Sequence:
#
# PCOD9083120 Si02
#       8
#     2   2   2   2   2   2   2   2
#     4  10  19  33  64 101 138 169 227 274 348 393
#     4  11  24  43  74 100 136 183 237 282 346 404
#     4  11  20  36  67 102 133 185 224 285 339 404
#     4  11  28  46  67 101 143 188 222 289 358 409
#     4  10  22  43  67 103 137 171 233 285 337 403
#     4  11  24  43  68  98 149 178 232 277 347 419
#     4  11  21  42  67 106 135 179 227 289 340 406
#     4  11  21  41  68 107 136 182 230 288 339 411
#
# _framework density 24.937775999999999
#
# number of rings (size 3 to 8) (size 9 to 14) (size 15 to 20)
#    0.000    1.250    3.750    2.625    3.500    2.500 
#    0.000    0.000    0.000    0.000    0.000    0.000 
#    0.000    0.000    0.000    0.000    0.000    0.000 
#
# Total GULP energy -89351.577020 kJ/mol
# GULP energy per Si atom -5584.473564 kJ/mol
# Density = 2.488102 g / cm^3
# Si number density = 24.937776 Si / 1000 Ang^3
#
#
#
# Elastic Constant Matrix: (Units=GPa)
#
#
# Indices 1 2 3 4 5 6 
#
# 1 49.6236 6.7407 26.4943 16.3960 -6.3512 5.0364
# 2 6.7407 81.3239 34.8027 16.0958 2.0212 11.6657
# 3 26.4943 34.8027 146.2547 8.5002 -42.7924 -2.4382
# 4 16.3960 16.0958 8.5002 32.2805 -4.9272 -6.0024
# 5 -6.3512 2.0212 -42.7924 -4.9272 41.2815 1.2997
# 6 5.0364 11.6657 -2.4382 -6.0024 1.2997 27.1546
#
#
#
# Elastic Compliance Matrix: (Units=1/GPa)
#
#
# Indices 1 2 3 4 5 6 
#
# 1 0.030939 0.007094 -0.008076 -0.020601 -0.005984 -0.013779
# 2 0.007094 0.020767 -0.008528 -0.015880 -0.010219 -0.014024
# 3 -0.008076 -0.008528 0.014286 0.008247 0.014730 0.007562
# 4 -0.020601 -0.015880 0.008247 0.053187 0.011794 0.022576
# 5 -0.005984 -0.010219 0.014730 0.011794 0.040245 0.007503
# 6 -0.013779 -0.014024 0.007562 0.022576 0.007503 0.050717
#
#
# Mechanical properties :
#
#
# Convention : Reuss Voigt Hill
#
# Bulk Modulus (GPa) = 21.28854 45.91974 33.60414
# Shear Modulus (GPa) = 20.42343 34.08763 27.25553
#
# Velocity S-wave (km/s) = 2.86488 3.70118 3.30955
# Velocity P-wave (km/s) = 4.41572 6.05960 5.30176
#
# Compressibility (1/GPa) = 0.04697363
#
# Stress axis : x y z
#
# Youngs Moduli (GPa) = 32.32143 48.15429 69.99703
#
# Poissons Ratio (x) = -0.34163 0.56531
# Poissons Ratio (y) = -0.22930 0.59690
# Poissons Ratio (z) = 0.26103 0.41064
#
# Static dielectric constant tensor:
#      x y z
#    x 2.020020 0.028960 0.036510 
#    y 0.028960 2.039450 0.000390 
#    z 0.036510 0.000390 2.051620 
# 
# From -- ./inp_files/569989.got.cif
#   From: 2010.05.17/outbox.cif.g08.bks.cpg/sg2_285_cif.got.tgz:569989.got - 2010.06.03 11:33:40.
