data_PCOD9083620
_publ_section_title
;
Structure prediction by ZEFSAII (Michael W. Deem and Ramdas Pophale) SiO2 
 PCOD9083620
Probable space group: P -1
;
_chemical_formula_sum "Si O2"
_cell_formula_units_Z 16
_cell_length_a 9.360016
_cell_length_b 5.608419
_cell_length_c 23.463371
_cell_angle_alpha 54.851770
_cell_angle_beta 41.219730
_cell_angle_gamma 52.769159
_cell_volume 628.920733
_symmetry_space_group_name_H-M "P -1"
_symmetry_group_IT_number 2
_symmetry_cell_setting 'triclinic'
loop_
_space_group_symop_operation_xyz
x,y,z
-x,-y,-z
loop_
_atom_site_type_symbol
_atom_site_label
_atom_site_fract_x
_atom_site_fract_y
_atom_site_fract_z
Si Si1 0.243153 0.469885 0.902848
Si Si2 0.461003 0.122258 0.670648
Si Si3 0.243723 0.698603 0.530233
Si Si4 0.410700 0.515156 0.324889
Si Si5 0.119097 0.111857 0.895542
Si Si6 0.752425 0.790823 0.476804
Si Si7 0.041520 0.523795 0.216592
Si Si8 0.266183 0.822606 0.206144
O O1 0.474883 0.211540 0.888075
O O2 0.210937 0.366707 0.862498
O O3 0.278681 0.793070 0.863897
O O4 0.000000 0.500000 0.000000
O O5 0.684893 0.129176 0.568076
O O6 0.518006 0.211302 0.704462
O O7 0.222790 0.395222 0.694816
O O8 0.417163 0.819835 0.700288
O O9 0.500000 0.500000 0.500000
O O10 0.136967 0.452439 0.571867
O O11 0.127271 0.964913 0.572746
O O12 0.281637 0.402869 0.431392
O O13 0.300195 0.637840 0.280831
O O14 0.965182 0.272430 0.866327
O O15 0.000000 0.000000 0.000000
O O16 0.500000 0.000000 0.500000
O O17 0.162173 0.654435 0.212566
O O18 0.138168 0.174492 0.213741
#
# Coordination Sequence:
#
# PCOD9083620 Si02
#       8
#     2   2   2   2   2   2   2   2
#     4  10  21  41  63  82 109 150 191 229 272 331
#     4  10  19  34  57  82 109 149 191 229 272 328
#     4   8  14  25  45  77 104 130 178 235 264 296
#     4  10  19  34  57  82 109 149 191 229 272 328
#     4  10  21  41  63  82 109 150 191 229 272 331
#     4   8  14  25  45  77 104 130 178 235 264 296
#     4  12  24  38  57  87 119 147 179 229 289 341
#     4  12  24  38  57  87 119 147 179 229 289 341
#
# _framework density 25.440408000000001
#
# number of rings (size 3 to 8) (size 9 to 14) (size 15 to 20)
#    0.000    2.000    0.000    4.500    0.000    0.000 
#    0.000   15.000    0.000    0.000    0.000   84.000 
#    0.000    0.000    0.000    0.000    0.000    0.000 
#
# Total GULP energy -89214.582354 kJ/mol
# GULP energy per Si atom -5575.911397 kJ/mol
# Density = 2.538250 g / cm^3
# Si number density = 25.440408 Si / 1000 Ang^3
#
#
#
# Elastic Constant Matrix: (Units=GPa)
#
#
# Indices 1 2 3 4 5 6 
#
# 1 166.1671 68.1719 24.1479 14.2778 15.8069 51.8580
# 2 68.1719 182.9666 13.9106 0.7219 2.8779 53.4964
# 3 24.1479 13.9106 79.9735 6.2234 8.2288 1.0518
# 4 14.2778 0.7219 6.2234 38.1904 -3.8135 4.9998
# 5 15.8069 2.8779 8.2288 -3.8135 45.5002 5.6055
# 6 51.8580 53.4964 1.0518 4.9998 5.6055 76.3072
#
#
#
# Elastic Compliance Matrix: (Units=1/GPa)
#
#
# Indices 1 2 3 4 5 6 
#
# 1 0.008845 -0.001834 -0.001853 -0.002630 -0.002305 -0.004358
# 2 -0.001834 0.007387 -0.000877 0.001316 0.000941 -0.004076
# 3 -0.001853 -0.000877 0.013566 -0.001976 -0.002163 0.001975
# 4 -0.002630 0.001316 -0.001976 0.027991 0.003683 -0.001213
# 5 -0.002305 0.000941 -0.002163 0.003683 0.023547 -0.001034
# 6 -0.004358 -0.004076 0.001975 -0.001213 -0.001034 0.019052
#
#
# Mechanical properties :
#
#
# Convention : Reuss Voigt Hill
#
# Bulk Modulus (GPa) = 48.37447 71.28533 59.82990
# Shear Modulus (GPa) = 42.95297 53.52468 48.23882
#
# Velocity S-wave (km/s) = 4.11344 4.59183 4.35920
# Velocity P-wave (km/s) = 6.45110 7.49630 6.99325
#
# Compressibility (1/GPa) = 0.02067206
#
# Stress axis : x y z
#
# Youngs Moduli (GPa) = 113.05842 135.37022 73.71120
#
# Poissons Ratio (x) = 0.24825 0.13656
# Poissons Ratio (y) = 0.20733 0.06463
# Poissons Ratio (z) = 0.20945 0.11870
#
# Static dielectric constant tensor:
#      x y z
#    x 2.065450 0.013140 -0.055880 
#    y 0.013140 2.029030 -0.055370 
#    z -0.055880 -0.055370 2.203890 
# 
# From -- ./inp_files/121730.got.cif
#   From: 2010.05.17/outbox.cif.g08.bks.cpg/sg2_61_cif.got.tgz:121730.got - 2010.06.03 11:33:40.
