data_PCOD9083546
_publ_section_title
;
Structure prediction by ZEFSAII (Michael W. Deem and Ramdas Pophale) SiO2 
 PCOD9083546
Probable space group: P -1
;
_chemical_formula_sum "Si O2"
_cell_formula_units_Z 16
_cell_length_a 12.030249
_cell_length_b 19.289730
_cell_length_c 5.539733
_cell_angle_alpha 127.119777
_cell_angle_beta 134.855078
_cell_angle_gamma 50.353795
_cell_volume 673.411931
_symmetry_space_group_name_H-M "P -1"
_symmetry_group_IT_number 2
_symmetry_cell_setting 'triclinic'
loop_
_space_group_symop_operation_xyz
x,y,z
-x,-y,-z
loop_
_atom_site_type_symbol
_atom_site_label
_atom_site_fract_x
_atom_site_fract_y
_atom_site_fract_z
Si Si1 0.322448 0.411416 0.841000
Si Si2 0.082310 0.659684 0.527229
Si Si3 0.849494 0.849277 0.703080
Si Si4 0.301973 0.051346 0.835230
Si Si5 0.784225 0.547956 0.728628
Si Si6 0.390592 0.594954 0.232366
Si Si7 0.864491 0.083440 0.818313
Si Si8 0.323931 0.733430 0.813829
O O1 0.202184 0.414191 0.437535
O O2 0.244276 0.399745 0.951523
O O3 0.349733 0.510838 0.125477
O O4 0.507569 0.330428 0.916453
O O5 0.084256 0.558313 0.255627
O O6 0.160271 0.704808 0.534688
O O7 0.912832 0.738754 0.524866
O O8 0.231841 0.635341 0.898990
O O9 0.768545 0.897785 0.424679
O O10 0.743740 0.884767 0.859962
O O11 0.023587 0.868491 0.046613
O O12 0.229292 0.969033 0.592067
O O13 0.500000 0.000000 0.000000
O O14 0.591341 0.545929 0.381074
O O15 0.382955 0.691062 0.553104
O O16 0.738252 0.160568 0.968210
O O17 0.000000 0.000000 0.000000
#
# Coordination Sequence:
#
# PCOD9083546 Si02
#       8
#     2   2   2   2   2   2   2   2
#     4  10  16  25  38  61  98 145 174 200 253 333
#     4  10  17  26  44  72 108 142 171 220 268 331
#     4  10  23  36  63  87 113 141 189 235 295 327
#     4  11  23  45  61  79 110 153 191 234 284 347
#     4  10  16  25  37  63 103 146 170 199 260 328
#     4  10  16  24  41  65 110 146 178 196 278 327
#     4   9  21  37  57  86 116 143 183 240 293 332
#     4  10  16  28  42  68 105 146 173 215 272 327
#
# _framework density 23.759599999999999
#
# number of rings (size 3 to 8) (size 9 to 14) (size 15 to 20)
#    0.000    2.000    3.750    2.250    5.250    0.000 
#    2.250    0.000    0.000    0.000    0.000    0.000 
#    0.000   24.000    0.000    0.000    0.000    0.000 
#
# Total GULP energy -89187.355910 kJ/mol
# GULP energy per Si atom -5574.209744 kJ/mol
# Density = 2.370552 g / cm^3
# Si number density = 23.759600 Si / 1000 Ang^3
#
#
#
# Elastic Constant Matrix: (Units=GPa)
#
#
# Indices 1 2 3 4 5 6 
#
# 1 91.0758 45.4508 40.9775 5.5576 -24.0758 -22.4407
# 2 45.4508 141.5282 49.0421 19.5278 -19.2218 -37.9873
# 3 40.9775 49.0421 73.2193 -11.4701 -27.7284 -0.3838
# 4 5.5576 19.5278 -11.4701 35.0570 -1.1364 -7.9133
# 5 -24.0758 -19.2218 -27.7284 -1.1364 42.7284 10.9031
# 6 -22.4407 -37.9873 -0.3838 -7.9133 10.9031 36.3303
#
#
#
# Elastic Compliance Matrix: (Units=1/GPa)
#
#
# Indices 1 2 3 4 5 6 
#
# 1 0.019446 0.003241 -0.014183 -0.006381 -0.000537 0.014022
# 2 0.003241 0.019489 -0.019960 -0.013256 -0.008265 0.021762
# 3 -0.014183 -0.019960 0.046503 0.022337 0.021653 -0.030773
# 4 -0.006381 -0.013256 0.022337 0.042016 0.008882 -0.011080
# 5 -0.000537 -0.008265 0.021653 0.008882 0.038345 -0.018318
# 6 0.014022 0.021762 -0.030773 -0.011080 -0.018318 0.061700
#
#
# Mechanical properties :
#
#
# Convention : Reuss Voigt Hill
#
# Bulk Modulus (GPa) = 42.31367 64.08491 53.19929
# Shear Modulus (GPa) = 16.82471 34.18000 25.50235
#
# Velocity S-wave (km/s) = 2.66394 3.79697 3.27976
# Velocity P-wave (km/s) = 5.22589 6.80099 6.06479
#
# Compressibility (1/GPa) = 0.02363303
#
# Stress axis : x y z
#
# Youngs Moduli (GPa) = 51.42341 51.31061 21.50415
#
# Poissons Ratio (x) = -0.16628 0.30500
# Poissons Ratio (y) = -0.16665 0.42923
# Poissons Ratio (z) = 0.72935 1.02417
#
# Static dielectric constant tensor:
#      x y z
#    x 2.086400 0.047780 0.006620 
#    y 0.047780 1.903200 -0.014530 
#    z 0.006620 -0.014530 2.025030 
# 
# From -- ./inp_files/82940.got.cif
#   From: 2010.05.17/outbox.cif.g08.bks.cpg/sg2_42_cif.got.tgz:82940.got - 2010.06.03 11:33:40.
