data_PCOD9083579
_publ_section_title
;
Structure prediction by ZEFSAII (Michael W. Deem and Ramdas Pophale) SiO2 
 PCOD9083579
Probable space group: P -1
;
_chemical_formula_sum "Si O2"
_cell_formula_units_Z 16
_cell_length_a 14.038111
_cell_length_b 7.753304
_cell_length_c 11.432223
_cell_angle_alpha 97.315664
_cell_angle_beta 131.029116
_cell_angle_gamma 119.426838
_cell_volume 595.897089
_symmetry_space_group_name_H-M "P -1"
_symmetry_group_IT_number 2
_symmetry_cell_setting 'triclinic'
loop_
_space_group_symop_operation_xyz
x,y,z
-x,-y,-z
loop_
_atom_site_type_symbol
_atom_site_label
_atom_site_fract_x
_atom_site_fract_y
_atom_site_fract_z
Si Si1 0.671732 0.924172 0.590427
Si Si2 0.769180 0.412286 0.800125
Si Si3 0.538916 0.808719 0.988144
Si Si4 0.644208 0.106695 0.888185
Si Si5 0.912565 0.639554 0.401651
Si Si6 0.843415 0.870529 0.180514
Si Si7 0.856680 0.998395 0.951677
Si Si8 0.723041 0.084220 0.402221
O O1 0.768682 0.214396 0.731056
O O2 0.746320 0.849310 0.727293
O O3 0.729381 0.959891 0.505174
O O4 0.440293 0.716657 0.398640
O O5 0.770186 0.379645 0.939728
O O6 0.938934 0.700509 0.900013
O O7 0.312927 0.609514 0.761170
O O8 0.655850 0.082653 0.033378
O O9 0.621151 0.710548 0.003142
O O10 0.589639 0.872722 0.170571
O O11 0.715775 0.999989 0.888171
O O12 0.415288 0.907491 0.659404
O O13 0.028084 0.846563 0.622794
O O14 0.064893 0.663801 0.465026
O O15 0.884973 0.748110 0.281970
O O16 0.880271 0.899489 0.073841
#
# Coordination Sequence:
#
# PCOD9083579 Si02
#       8
#     2   2   2   2   2   2   2   2
#     4   9  18  32  49  77 113 137 168 211 248 310
#     4   9  18  32  53  77 105 142 172 206 259 303
#     4  10  20  35  56  78 104 139 170 211 263 305
#     4   9  18  33  51  79 110 131 169 214 248 308
#     4  10  21  38  57  74 102 139 171 217 266 299
#     4   9  21  38  56  80  98 125 185 227 248 302
#     4  10  19  34  57  78 102 139 175 214 259 297
#     4  10  21  34  50  79 113 138 169 206 255 320
#
# _framework density 26.850276000000001
#
# number of rings (size 3 to 8) (size 9 to 14) (size 15 to 20)
#    0.000    2.500    0.000    3.000    0.000    8.500 
#    0.000    3.125    0.000    3.750    0.000    0.000 
#    0.000    0.000    0.000    0.000    0.000    0.000 
#
# Total GULP energy -89379.813223 kJ/mol
# GULP energy per Si atom -5586.238326 kJ/mol
# Density = 2.678916 g / cm^3
# Si number density = 26.850276 Si / 1000 Ang^3
#
#
#
# Elastic Constant Matrix: (Units=GPa)
#
#
# Indices 1 2 3 4 5 6 
#
# 1 93.0016 26.9717 29.9317 5.5192 30.7110 24.6551
# 2 26.9717 159.5758 52.4286 -35.1740 -7.8730 31.6392
# 3 29.9317 52.4286 107.7196 -10.4289 20.9242 21.8998
# 4 5.5192 -35.1740 -10.4289 55.2657 26.9181 -0.9018
# 5 30.7110 -7.8730 20.9242 26.9181 47.4665 -3.2041
# 6 24.6551 31.6392 21.8998 -0.9018 -3.2041 42.9430
#
#
#
# Elastic Compliance Matrix: (Units=1/GPa)
#
#
# Indices 1 2 3 4 5 6 
#
# 1 0.019247 -0.000798 0.001632 0.006307 -0.017724 -0.012485
# 2 -0.000798 0.009564 -0.002823 0.005647 -0.000196 -0.005045
# 3 0.001632 -0.002823 0.014675 0.006660 -0.012250 -0.007115
# 4 0.006307 0.005647 0.006660 0.035208 -0.026886 -0.012445
# 5 -0.017724 -0.000196 -0.012250 -0.026886 0.054505 0.020070
# 6 -0.012485 -0.005045 -0.007115 -0.012445 0.020070 0.039036
#
#
# Mechanical properties :
#
#
# Convention : Reuss Voigt Hill
#
# Bulk Modulus (GPa) = 25.31136 64.32901 44.82018
# Shear Modulus (GPa) = 26.40158 45.86602 36.13380
#
# Velocity S-wave (km/s) = 3.13915 4.13754 3.67243
# Velocity P-wave (km/s) = 4.75250 6.84369 5.89162
#
# Compressibility (1/GPa) = 0.03950796
#
# Stress axis : x y z
#
# Youngs Moduli (GPa) = 51.95597 104.55436 68.14435
#
# Poissons Ratio (x) = 0.08347 -0.11122
# Poissons Ratio (y) = 0.04148 0.19236
# Poissons Ratio (z) = -0.08480 0.29514
#
# Static dielectric constant tensor:
#      x y z
#    x 2.180150 0.001390 -0.008740 
#    y 0.001390 2.145320 -0.015310 
#    z -0.008740 -0.015310 2.103850 
# 
# From -- ./inp_files/463782.got.cif
#   From: 2010.05.17/outbox.cif.g08.bks.cpg/sg2_232_cif.got.tgz:463782.got - 2010.06.03 11:33:40.
