data_PCOD9083393
_publ_section_title
;
Structure prediction by ZEFSAII (Michael W. Deem and Ramdas Pophale) SiO2 
 PCOD9083393
Probable space group: P -1
;
_chemical_formula_sum "Si O2"
_cell_formula_units_Z 16
_cell_length_a 9.588427
_cell_length_b 9.424057
_cell_length_c 13.809824
_cell_angle_alpha 64.135982
_cell_angle_beta 51.546487
_cell_angle_gamma 82.698808
_cell_volume 860.736132
_symmetry_space_group_name_H-M "P -1"
_symmetry_group_IT_number 2
_symmetry_cell_setting 'triclinic'
loop_
_space_group_symop_operation_xyz
x,y,z
-x,-y,-z
loop_
_atom_site_type_symbol
_atom_site_label
_atom_site_fract_x
_atom_site_fract_y
_atom_site_fract_z
Si Si1 0.586566 0.072082 0.542352
Si Si2 0.278780 0.154619 0.291555
Si Si3 0.460456 0.499301 0.132661
Si Si4 0.437503 0.846864 0.006647
Si Si5 0.911750 0.212373 0.942798
Si Si6 0.038872 0.859134 0.705923
Si Si7 0.809947 0.949119 0.228893
Si Si8 0.137089 0.477287 0.031273
O O1 0.661694 0.947539 0.616510
O O2 0.407712 0.113324 0.656360
O O3 0.224540 0.809114 0.603040
O O4 0.500000 0.000000 0.500000
O O5 0.307060 0.339835 0.260893
O O6 0.083426 0.096529 0.342164
O O7 0.424281 0.150805 0.143526
O O8 0.422140 0.674904 0.118023
O O9 0.500000 0.500000 0.000000
O O10 0.651513 0.480963 0.102728
O O11 0.244587 0.859558 0.043157
O O12 0.500000 0.000000 0.000000
O O13 0.895228 0.395399 0.911834
O O14 0.862397 0.113034 0.093396
O O15 0.096090 0.178491 0.828988
O O16 0.911405 0.704890 0.856352
O O17 0.105379 0.997487 0.717098
O O18 0.000000 0.500000 0.000000
#
# Coordination Sequence:
#
# PCOD9083393 Si02
#       8
#     2   2   2   2   2   2   2   2
#     4  10  22  38  58  81 112 157 200 237 279 345
#     4  11  19  38  57  83 120 145 197 239 284 337
#     4  10  19  34  55  81 119 142 185 236 282 342
#     4  11  20  32  57  90 121 145 179 237 298 347
#     4  11  20  34  58  81 119 149 180 245 293 329
#     4  11  21  35  59  85 112 151 201 231 282 352
#     4  10  21  36  54  83 114 151 193 231 290 339
#     4  12  21  34  56  88 117 148 192 239 290 341
#
# _framework density 18.588740999999999
#
# number of rings (size 3 to 8) (size 9 to 14) (size 15 to 20)
#    0.000    1.250    7.500    1.125    1.750    0.000 
#    0.000    0.625    0.000    3.000    0.000   10.500 
#    0.000    0.000    0.000    0.000    0.000    0.000 
#
# Total GULP energy -89163.537838 kJ/mol
# GULP energy per Si atom -5572.721115 kJ/mol
# Density = 1.854643 g / cm^3
# Si number density = 18.588741 Si / 1000 Ang^3
#
#
#
# Elastic Constant Matrix: (Units=GPa)
#
#
# Indices 1 2 3 4 5 6 
#
# 1 132.2708 -2.8436 10.6727 6.0635 0.8518 3.1260
# 2 -2.8436 53.3818 -7.3495 -0.7008 7.6941 3.0671
# 3 10.6727 -7.3495 32.8382 14.1365 -11.2461 -2.0268
# 4 6.0635 -0.7008 14.1365 16.7068 -9.0522 -8.4159
# 5 0.8518 7.6941 -11.2461 -9.0522 34.6268 4.2776
# 6 3.1260 3.0671 -2.0268 -8.4159 4.2776 25.2115
#
#
#
# Elastic Compliance Matrix: (Units=1/GPa)
#
#
# Indices 1 2 3 4 5 6 
#
# 1 0.007911 0.000467 -0.001710 -0.003191 -0.001441 -0.001996
# 2 0.000467 0.020455 0.006855 -0.009720 -0.004314 -0.004508
# 3 -0.001710 0.006855 0.054760 -0.049562 0.005030 -0.013618
# 4 -0.003191 -0.009720 -0.049562 0.130292 0.015451 0.038466
# 5 -0.001441 -0.004314 0.005030 0.015451 0.035517 0.000240
# 6 -0.001996 -0.004508 -0.013618 0.038466 0.000240 0.052165
#
#
# Mechanical properties :
#
#
# Convention : Reuss Voigt Hill
#
# Bulk Modulus (GPa) = 10.59884 24.38334 17.49109
# Shear Modulus (GPa) = 15.56049 29.84309 22.70179
#
# Velocity S-wave (km/s) = 2.89639 4.01114 3.49845
# Velocity P-wave (km/s) = 4.11091 5.88201 5.07433
#
# Compressibility (1/GPa) = 0.09434991
#
# Stress axis : x y z
#
# Youngs Moduli (GPa) = 126.40676 48.88814 18.26140
#
# Poissons Ratio (x) = -0.02281 0.03122
# Poissons Ratio (y) = -0.05897 -0.12518
# Poissons Ratio (z) = 0.21611 -0.33513
#
# Static dielectric constant tensor:
#      x y z
#    x 1.569810 -0.047690 -0.032830 
#    y -0.047690 1.630930 -0.008900 
#    z -0.032830 -0.008900 1.672810 
# 
# From -- ./inp_files/492468.got.cif
#   From: 2010.05.17/outbox.cif.g08.bks.cpg/sg2_247_cif.got.tgz:492468.got - 2010.06.03 11:33:40.
