data_PCOD9083074
_publ_section_title
;
Structure prediction by ZEFSAII (Michael W. Deem and Ramdas Pophale) SiO2 
 PCOD9083074
Probable space group: P -1
;
_chemical_formula_sum "Si O2"
_cell_formula_units_Z 15
_cell_length_a 9.580260
_cell_length_b 7.176332
_cell_length_c 14.864226
_cell_angle_alpha 64.138486
_cell_angle_beta 39.353997
_cell_angle_gamma 67.807337
_cell_volume 581.653059
_symmetry_space_group_name_H-M "P -1"
_symmetry_group_IT_number 2
_symmetry_cell_setting 'triclinic'
loop_
_space_group_symop_operation_xyz
x,y,z
-x,-y,-z
loop_
_atom_site_type_symbol
_atom_site_label
_atom_site_fract_x
_atom_site_fract_y
_atom_site_fract_z
Si Si1 0.187909 0.823065 0.140313
Si Si2 0.234844 0.534610 0.828362
Si Si3 0.021571 0.244520 0.415814
Si Si4 0.092191 0.863793 0.696593
Si Si5 0.325727 0.656709 0.289735
Si Si6 0.490175 0.100154 0.182306
Si Si7 0.258131 0.175794 0.747294
Si Si8 0.500000 0.000000 0.500000
O O1 0.212276 0.679183 0.244871
O O2 0.982404 0.811248 0.178822
O O3 0.398505 0.796023 0.978804
O O4 0.136788 0.051752 0.162442
O O5 0.234381 0.755082 0.730809
O O6 0.449977 0.490156 0.790187
O O7 0.267033 0.370827 0.766181
O O8 0.000000 0.500000 0.000000
O O9 0.948802 0.267875 0.342731
O O10 0.854880 0.375481 0.536217
O O11 0.284235 0.242138 0.291345
O O12 0.000000 0.000000 0.500000
O O13 0.251508 0.047912 0.562373
O O14 0.406595 0.884540 0.229409
O O15 0.671957 0.023698 0.182483
O O16 0.428063 0.161131 0.583866
#
# Coordination Sequence:
#
# PCOD9083074 Si02
#       8
#     2   2   2   2   2   2   2   1
#     4  11  21  37  67  94 125 166 228 281 318 375
#     4  11  25  43  67  94 138 179 217 260 337 409
#     4  10  19  34  60  94 124 159 221 272 316 380
#     4  11  21  38  69  95 128 174 220 271 332 388
#     4  10  21  37  61  92 130 167 219 276 319 395
#     4  10  19  33  61  93 122 166 224 271 317 378
#     4  10  23  39  62  96 136 165 218 274 331 389
#     4  10  22  38  66 100 126 162 222 282 320 372
#
# _framework density 25.788568999999999
#
# number of rings (size 3 to 8) (size 9 to 14) (size 15 to 20)
#    0.000    1.600    2.667    4.800    3.733    3.200 
#    0.000    0.667    8.800    2.400    0.000    0.000 
#    0.000    0.000    0.000    0.000    0.000    0.000 
#
# Total GULP energy -83682.832958 kJ/mol
# GULP energy per Si atom -5578.855531 kJ/mol
# Density = 2.572987 g / cm^3
# Si number density = 25.788569 Si / 1000 Ang^3
#
#
#
# Elastic Constant Matrix: (Units=GPa)
#
#
# Indices 1 2 3 4 5 6 
#
# 1 189.9699 25.5338 42.1112 0.5996 -9.0501 -14.6870
# 2 25.5338 53.8893 10.6553 16.2816 -2.3604 -12.6330
# 3 42.1112 10.6553 162.0735 26.4020 -6.9979 -7.8973
# 4 0.5996 16.2816 26.4020 21.9593 -6.9629 -3.5216
# 5 -9.0501 -2.3604 -6.9979 -6.9629 35.9730 10.6741
# 6 -14.6870 -12.6330 -7.8973 -3.5216 10.6741 46.2073
#
#
#
# Elastic Compliance Matrix: (Units=1/GPa)
#
#
# Indices 1 2 3 4 5 6 
#
# 1 0.006498 -0.004424 -0.002374 0.006679 0.002030 0.000490
# 2 -0.004424 0.029270 0.003649 -0.026697 -0.005570 0.006472
# 3 -0.002374 0.003649 0.008723 -0.013459 -0.001585 0.001074
# 4 0.006679 -0.026697 -0.013459 0.085426 0.015172 -0.004470
# 5 0.002030 -0.005570 -0.001585 0.015172 0.032819 -0.007574
# 6 0.000490 0.006472 0.001074 -0.004470 -0.007574 0.025159
#
#
# Mechanical properties :
#
#
# Convention : Reuss Voigt Hill
#
# Bulk Modulus (GPa) = 26.18210 62.50368 44.34289
# Shear Modulus (GPa) = 24.16313 42.67010 33.41662
#
# Velocity S-wave (km/s) = 3.06432 4.07211 3.60362
# Velocity P-wave (km/s) = 4.76390 6.81168 5.87766
#
# Compressibility (1/GPa) = 0.03819403
#
# Stress axis : x y z
#
# Youngs Moduli (GPa) = 153.88352 34.16432 114.63348
#
# Poissons Ratio (x) = 0.15114 0.27216
# Poissons Ratio (y) = 0.68075 -0.41828
# Poissons Ratio (z) = 0.36534 -0.12466
#
# Static dielectric constant tensor:
#      x y z
#    x 2.056940 -0.022030 -0.007030 
#    y -0.022030 1.929500 0.174620 
#    z -0.007030 0.174620 1.784180 
# 
# From -- ./inp_files/185671.got.cif
#   From: 2010.05.17/outbox.cif.g08.bks.cpg/sg2_93_cif.got.tgz:185671.got - 2010.06.03 11:33:40.
