data_PCOD9083492
_publ_section_title
;
Structure prediction by ZEFSAII (Michael W. Deem and Ramdas Pophale) SiO2 
 PCOD9083492
Probable space group: P -1
;
_chemical_formula_sum "Si O2"
_cell_formula_units_Z 15
_cell_length_a 8.617832
_cell_length_b 14.630061
_cell_length_c 5.265465
_cell_angle_alpha 64.282045
_cell_angle_beta 95.588410
_cell_angle_gamma 93.735976
_cell_volume 595.067890
_symmetry_space_group_name_H-M "P -1"
_symmetry_group_IT_number 2
_symmetry_cell_setting 'triclinic'
loop_
_space_group_symop_operation_xyz
x,y,z
-x,-y,-z
loop_
_atom_site_type_symbol
_atom_site_label
_atom_site_fract_x
_atom_site_fract_y
_atom_site_fract_z
Si Si1 0.929106 0.338936 0.248400
Si Si2 0.807624 0.503389 0.712229
Si Si3 0.688148 0.006771 0.467610
Si Si4 0.615660 0.304829 0.522911
Si Si5 0.655023 0.670883 0.227231
Si Si6 0.500000 0.500000 0.000000
Si Si7 0.356557 0.921262 0.125991
Si Si8 0.213818 0.216050 0.383491
O O1 0.795250 0.315468 0.459382
O O2 0.045231 0.422734 0.295504
O O3 0.032328 0.242975 0.319934
O O4 0.868756 0.391350 0.915443
O O5 0.720896 0.555346 0.392814
O O6 0.674060 0.514209 0.885317
O O7 0.750123 0.035069 0.722114
O O8 0.500000 0.000000 0.500000
O O9 0.750455 0.901513 0.501357
O O10 0.717873 0.089134 0.152140
O O11 0.531124 0.335149 0.738765
O O12 0.582205 0.185184 0.638939
O O13 0.538070 0.383643 0.229596
O O14 0.722393 0.735234 0.400708
O O15 0.709905 0.728161 0.916728
O O16 0.500000 0.000000 0.000000
#
# Coordination Sequence:
#
# PCOD9083492 Si02
#       8
#     2   2   2   2   2   1   2   2
#     4   9  19  35  60  88 129 162 199 255 317 368
#     4   8  16  34  58  90 123 163 203 249 308 367
#     4  10  19  34  56  83 112 152 204 254 297 351
#     4  10  19  37  61  94 124 162 206 256 309 365
#     4  10  20  35  62  87 120 158 208 250 297 369
#     4   8  16  32  64  92 124 160 210 252 296 370
#     4  10  20  35  59  85 117 156 203 253 298 353
#     4  11  21  38  60  89 118 161 206 256 309 363
#
# _framework density 25.207207
#
# number of rings (size 3 to 8) (size 9 to 14) (size 15 to 20)
#    0.000    2.400    0.000    4.000    0.000    0.533 
#    0.000    6.667    0.000   93.600    0.000    0.000 
#    0.000    0.000    0.000    0.000    0.000    0.000 
#
# Total GULP energy -83559.257537 kJ/mol
# GULP energy per Si atom -5570.617169 kJ/mol
# Density = 2.514983 g / cm^3
# Si number density = 25.207207 Si / 1000 Ang^3
#
#
#
# Elastic Constant Matrix: (Units=GPa)
#
#
# Indices 1 2 3 4 5 6 
#
# 1 121.2588 41.3932 18.6519 -16.9048 -23.4621 -35.2801
# 2 41.3932 112.9160 68.2092 -7.0136 23.2191 -19.5906
# 3 18.6519 68.2092 137.1732 3.1408 -15.9407 -4.3125
# 4 -16.9048 -7.0136 3.1408 57.6395 -9.7149 3.4059
# 5 -23.4621 23.2191 -15.9407 -9.7149 17.8092 -14.6238
# 6 -35.2801 -19.5906 -4.3125 3.4059 -14.6238 35.3822
#
#
#
# Elastic Compliance Matrix: (Units=1/GPa)
#
#
# Indices 1 2 3 4 5 6 
#
# 1 -0.000561 0.008148 -0.006992 -0.002537 -0.024611 -0.006828
# 2 0.008148 0.006416 -0.001544 0.005433 0.019610 0.019070
# 3 -0.006992 -0.001544 0.007277 -0.004053 -0.012522 -0.011725
# 4 -0.002537 0.005433 -0.004053 0.016155 -0.009884 -0.005655
# 5 -0.024611 0.019610 -0.012522 -0.009884 -0.045633 -0.033117
# 6 -0.006828 0.019070 -0.011725 -0.005655 -0.033117 0.017441
#
#
# Mechanical properties :
#
#
# Convention : Reuss Voigt Hill
#
# Bulk Modulus (GPa) = 80.93259 69.76185 75.34722
# Shear Modulus (GPa) = 834.58892 38.37241 436.48067
#
# Velocity S-wave (km/s) = 18.21566 3.90587 13.17319
# Velocity P-wave (km/s) = 21.78509 6.93373 16.16581
#
# Compressibility (1/GPa) = 0.01235596
#
# Stress axis : x y z
#
# Youngs Moduli (GPa) = -1782.17722 155.86824 137.41048
#
# Poissons Ratio (x) = -1.26996 0.96072
# Poissons Ratio (y) = 14.52054 0.21217
# Poissons Ratio (z) = -12.46034 0.24067
#
# Static dielectric constant tensor:
#      x y z
#    x 2.101840 0.143650 0.163160 
#    y 0.143650 2.113150 0.133130 
#    z 0.163160 0.133130 2.076070 
# 
# From -- ./inp_files/43039.got.cif
#   From: 2010.05.17/outbox.cif.g08.bks.cpg/sg2_22_cif.got.tgz:43039.got - 2010.06.03 11:33:40.
