data_PCOD9083866
_publ_section_title
;
Structure prediction by ZEFSAII (Michael W. Deem and Ramdas Pophale) SiO2 
 PCOD9083866
Probable space group: P -1
;
_chemical_formula_sum "Si O2"
_cell_formula_units_Z 16
_cell_length_a 17.332991
_cell_length_b 11.452314
_cell_length_c 9.107366
_cell_angle_alpha 98.558800
_cell_angle_beta 111.007037
_cell_angle_gamma 139.076584
_cell_volume 804.049506
_symmetry_space_group_name_H-M "P -1"
_symmetry_group_IT_number 2
_symmetry_cell_setting 'triclinic'
loop_
_space_group_symop_operation_xyz
x,y,z
-x,-y,-z
loop_
_atom_site_type_symbol
_atom_site_label
_atom_site_fract_x
_atom_site_fract_y
_atom_site_fract_z
Si Si1 0.851370 0.399318 0.820560
Si Si2 0.278401 0.602175 0.005951
Si Si3 0.670630 0.745937 0.351822
Si Si4 0.796206 0.326239 0.274094
Si Si5 0.714831 0.777134 0.038490
Si Si6 0.944809 0.281440 0.248256
Si Si7 0.351626 0.009588 0.618109
Si Si8 0.010783 0.062431 0.685043
O O1 0.941789 0.593456 0.795093
O O2 0.712834 0.146670 0.592858
O O3 0.768682 0.372132 0.886868
O O4 0.000000 0.500000 0.000000
O O5 0.316823 0.731299 0.914359
O O6 0.119255 0.318597 0.809944
O O7 0.443856 0.732614 0.181626
O O8 0.685360 0.732946 0.186195
O O9 0.713898 0.939021 0.427892
O O10 0.471257 0.477743 0.207532
O O11 0.814517 0.848656 0.552301
O O12 0.888068 0.347357 0.233278
O O13 0.935442 0.581311 0.501029
O O14 0.714023 0.142083 0.310180
O O15 0.872455 0.884563 0.135263
O O16 0.785257 0.995037 0.091218
O O17 0.000000 0.000000 0.500000
#
# Coordination Sequence:
#
# PCOD9083866 Si02
#       8
#     2   2   2   2   2   2   2   2
#     4  11  23  39  62  86 121 169 200 244 308 373
#     4  12  22  39  59  93 126 160 204 246 310 371
#     4  10  19  34  58  88 120 155 197 254 304 352
#     4  10  20  34  61  91 119 154 198 263 305 354
#     4  10  19  36  57  87 119 154 200 250 304 354
#     4  10  20  37  60  90 120 156 206 249 307 358
#     4  11  22  38  60  93 126 155 204 255 307 363
#     4  10  21  34  60  89 118 160 203 248 299 361
#
# _framework density 19.899272
#
# number of rings (size 3 to 8) (size 9 to 14) (size 15 to 20)
#    0.000    1.500    3.750    3.000    1.750    0.000 
#    0.000    1.875    0.000    1.500    0.000    0.000 
#    0.000    0.000    0.000    0.000    0.000    0.000 
#
# Total GULP energy -89274.244102 kJ/mol
# GULP energy per Si atom -5579.640256 kJ/mol
# Density = 1.985398 g / cm^3
# Si number density = 19.899272 Si / 1000 Ang^3
#
#
#
# Elastic Constant Matrix: (Units=GPa)
#
#
# Indices 1 2 3 4 5 6 
#
# 1 81.7942 8.7335 40.6902 -0.0915 10.3956 -0.1842
# 2 8.7335 48.7039 35.4757 15.3097 -5.7008 -3.4122
# 3 40.6902 35.4757 94.2461 21.2627 9.8619 0.2569
# 4 -0.0915 15.3097 21.2627 27.6683 2.7861 2.7032
# 5 10.3956 -5.7008 9.8619 2.7861 35.7633 1.4350
# 6 -0.1842 -3.4122 0.2569 2.7032 1.4350 12.6763
#
#
#
# Elastic Compliance Matrix: (Units=1/GPa)
#
#
# Indices 1 2 3 4 5 6 
#
# 1 0.016898 0.000983 -0.008871 0.006653 -0.002811 -0.000411
# 2 0.000983 0.034447 -0.011621 -0.012107 0.008908 0.011096
# 3 -0.008871 -0.011621 0.021422 -0.009505 -0.004394 -0.001167
# 4 0.006653 -0.012107 -0.009505 0.051967 -0.004749 -0.013514
# 5 -0.002811 0.008908 -0.004394 -0.004749 0.031786 -0.000140
# 6 -0.000411 0.011096 -0.001167 -0.013514 -0.000140 0.084790
#
#
# Mechanical properties :
#
#
# Convention : Reuss Voigt Hill
#
# Bulk Modulus (GPa) = 29.63194 43.83810 36.73502
# Shear Modulus (GPa) = 17.14807 24.54458 20.84632
#
# Velocity S-wave (km/s) = 2.93873 3.51585 3.24016
# Velocity P-wave (km/s) = 5.14180 6.20962 5.70077
#
# Compressibility (1/GPa) = 0.03374737
#
# Stress axis : x y z
#
# Youngs Moduli (GPa) = 59.17965 29.03019 46.68018
#
# Poissons Ratio (x) = -0.02852 0.41410
# Poissons Ratio (y) = -0.05815 0.54249
# Poissons Ratio (z) = 0.52498 0.33737
#
# Static dielectric constant tensor:
#      x y z
#    x 1.708470 -0.002700 0.034260 
#    y -0.002700 1.704350 0.009700 
#    z 0.034260 0.009700 1.716390 
# 
# From -- ./inp_files/223020.got.cif
#   From: 2010.05.17/outbox.cif.g08.bks.cpg/sg2_112_cif.got.tgz:223020.got - 2010.06.03 11:33:40.
