data_PCOD9083211
_publ_section_title
;
Structure prediction by ZEFSAII (Michael W. Deem and Ramdas Pophale) SiO2 
 PCOD9083211
Probable space group: P -1
;
_chemical_formula_sum "Si O2"
_cell_formula_units_Z 16
_cell_length_a 22.304422
_cell_length_b 14.926067
_cell_length_c 5.790351
_cell_angle_alpha 73.715554
_cell_angle_beta 61.781675
_cell_angle_gamma 24.992203
_cell_volume 658.376119
_symmetry_space_group_name_H-M "P -1"
_symmetry_group_IT_number 2
_symmetry_cell_setting 'triclinic'
loop_
_space_group_symop_operation_xyz
x,y,z
-x,-y,-z
loop_
_atom_site_type_symbol
_atom_site_label
_atom_site_fract_x
_atom_site_fract_y
_atom_site_fract_z
Si Si1 0.396772 0.531942 0.649534
Si Si2 0.102514 0.273525 0.232100
Si Si3 0.779339 0.694981 0.846849
Si Si4 0.697063 0.652790 0.374071
Si Si5 0.347167 0.087401 0.510194
Si Si6 0.044889 0.163040 0.145448
Si Si7 0.268077 0.993261 0.556383
Si Si8 0.686245 0.315733 0.807841
O O1 0.500000 0.500000 0.500000
O O2 0.542499 0.272867 0.544334
O O3 0.294506 0.663259 0.498458
O O4 0.314375 0.626352 0.987836
O O5 0.171509 0.291600 0.053146
O O6 0.045669 0.266987 0.166422
O O7 0.940226 0.490002 0.535910
O O8 0.242817 0.047275 0.296308
O O9 0.628335 0.924953 0.803196
O O10 0.748426 0.633426 0.048624
O O11 0.508393 0.855483 0.534631
O O12 0.845525 0.393608 0.343060
O O13 0.686551 0.761659 0.464959
O O14 0.236830 0.130720 0.647553
O O15 0.163367 0.946819 0.231951
O O16 0.145463 0.060842 0.799163
O O17 0.500000 0.500000 0.000000
#
# Coordination Sequence:
#
# PCOD9083211 Si02
#       8
#     2   2   2   2   2   2   2   2
#     4  10  19  36  56  88 118 149 186 244 307 357
#     4  10  20  30  50  87 110 138 190 244 282 332
#     4  10  19  34  53  74 114 150 187 233 284 332
#     4  11  22  37  55  77 117 153 196 227 284 344
#     4  10  23  39  52  79 114 158 189 232 281 349
#     4  12  21  32  59  85 109 147 191 240 289 346
#     4  11  21  34  59  82 113 146 191 238 293 349
#     4  10  20  34  57  87 118 149 186 244 302 358
#
# _framework density 24.302218
#
# number of rings (size 3 to 8) (size 9 to 14) (size 15 to 20)
#    0.000    1.500    5.000    2.625    0.000    1.000 
#    0.000    0.000    0.000    1.500    0.000    0.000 
#    0.000    0.000    0.000    0.000    0.000    0.000 
#
# Total GULP energy -89076.942747 kJ/mol
# GULP energy per Si atom -5567.308922 kJ/mol
# Density = 2.424691 g / cm^3
# Si number density = 24.302218 Si / 1000 Ang^3
#
#
#
# Elastic Constant Matrix: (Units=GPa)
#
#
# Indices 1 2 3 4 5 6 
#
# 1 29.0607 8.8039 10.5087 -0.7993 12.2329 -2.3642
# 2 8.8039 162.4894 17.8467 13.1953 3.6749 -11.4667
# 3 10.5087 17.8467 36.3180 2.8553 16.2896 -0.3713
# 4 -0.7993 13.1953 2.8553 32.0918 -2.9308 2.4905
# 5 12.2329 3.6749 16.2896 -2.9308 28.1756 4.9531
# 6 -2.3642 -11.4667 -0.3713 2.4905 4.9531 23.8467
#
#
#
# Elastic Compliance Matrix: (Units=1/GPa)
#
#
# Indices 1 2 3 4 5 6 
#
# 1 0.044468 -0.000971 -0.004122 -0.000385 -0.018189 0.007696
# 2 -0.000971 0.007012 -0.003075 -0.002867 0.000380 0.003448
# 3 -0.004122 -0.003075 0.040790 -0.004837 -0.022588 0.003945
# 4 -0.000385 -0.002867 -0.004837 0.034017 0.008057 -0.006718
# 5 -0.018189 0.000380 -0.022588 0.008057 0.059919 -0.015259
# 6 0.007696 0.003448 0.003945 -0.006718 -0.015259 0.048288
#
#
# Mechanical properties :
#
#
# Convention : Reuss Voigt Hill
#
# Bulk Modulus (GPa) = 13.16933 33.57630 23.37282
# Shear Modulus (GPa) = 18.10663 29.53674 23.82168
#
# Velocity S-wave (km/s) = 2.73254 3.49003 3.13425
# Velocity P-wave (km/s) = 3.92256 5.48512 4.76828
#
# Compressibility (1/GPa) = 0.07593400
#
# Stress axis : x y z
#
# Youngs Moduli (GPa) = 22.48831 142.61103 24.51554
#
# Poissons Ratio (x) = 0.13845 0.10106
# Poissons Ratio (y) = 0.02183 0.07538
# Poissons Ratio (z) = 0.09271 0.43850
#
# Static dielectric constant tensor:
#      x y z
#    x 1.937830 -0.040030 0.044680 
#    y -0.040030 2.026400 0.014410 
#    z 0.044680 0.014410 2.177490 
# 
# From -- ./inp_files/77310.got.cif
#   From: 2010.05.17/outbox.cif.g08.bks.cpg/sg2_39_cif.got.tgz:77310.got - 2010.06.03 11:33:40.
