data_PCOD9083770
_publ_section_title
;
Structure prediction by ZEFSAII (Michael W. Deem and Ramdas Pophale) SiO2 
 PCOD9083770
Probable space group: P -1
;
_chemical_formula_sum "Si O2"
_cell_formula_units_Z 16
_cell_length_a 14.088552
_cell_length_b 15.913411
_cell_length_c 8.600963
_cell_angle_alpha 100.585557
_cell_angle_beta 128.762738
_cell_angle_gamma 40.238735
_cell_volume 788.335442
_symmetry_space_group_name_H-M "P -1"
_symmetry_group_IT_number 2
_symmetry_cell_setting 'triclinic'
loop_
_space_group_symop_operation_xyz
x,y,z
-x,-y,-z
loop_
_atom_site_type_symbol
_atom_site_label
_atom_site_fract_x
_atom_site_fract_y
_atom_site_fract_z
Si Si1 0.073337 0.644043 0.878245
Si Si2 0.868989 0.252348 0.792968
Si Si3 0.537668 0.586929 0.395191
Si Si4 0.975529 0.914905 0.418945
Si Si5 0.486742 0.882010 0.843164
Si Si6 0.753461 0.603460 0.806213
Si Si7 0.770849 0.387518 0.287475
Si Si8 0.225587 0.208114 0.650375
O O1 0.232400 0.593753 0.893118
O O2 0.871887 0.720060 0.597642
O O3 0.997039 0.764780 0.957249
O O4 0.209757 0.492012 0.059265
O O5 0.700986 0.418303 0.586523
O O6 0.709340 0.283112 0.738974
O O7 0.008032 0.121346 0.757853
O O8 0.641087 0.617964 0.554177
O O9 0.566859 0.548850 0.230722
O O10 0.170720 0.743375 0.647952
O O11 0.737769 0.027928 0.288642
O O12 0.000000 0.000000 0.500000
O O13 0.586079 0.773041 0.762715
O O14 0.413474 0.021638 0.769857
O O15 0.671517 0.778417 0.136147
O O16 0.000000 0.500000 0.000000
O O17 0.004113 0.300758 0.543635
#
# Coordination Sequence:
#
# PCOD9083770 Si02
#       8
#     2   2   2   2   2   2   2   2
#     4   9  20  38  59  80 116 145 183 238 277 323
#     4   9  18  33  56  82 108 148 190 225 272 330
#     4   9  17  33  54  82 111 147 188 222 274 337
#     4  10  19  34  58  81 110 149 190 226 271 331
#     4  10  19  36  59  80 110 152 190 220 279 341
#     4  11  22  35  58  87 113 141 183 239 281 325
#     4   8  17  35  58  77 111 149 185 224 273 331
#     4   8  18  36  58  78 105 153 187 223 271 340
#
# _framework density 20.295929000000001
#
# number of rings (size 3 to 8) (size 9 to 14) (size 15 to 20)
#    0.750    2.000    0.000    1.500    0.000    5.000 
#    0.000    3.125    0.000    0.000    0.000    0.000 
#    0.000    0.000    0.000    0.000    0.000    0.000 
#
# Total GULP energy -89165.250767 kJ/mol
# GULP energy per Si atom -5572.828173 kJ/mol
# Density = 2.024974 g / cm^3
# Si number density = 20.295929 Si / 1000 Ang^3
#
#
#
# Elastic Constant Matrix: (Units=GPa)
#
#
# Indices 1 2 3 4 5 6 
#
# 1 54.2868 28.0486 -5.8582 10.0661 -5.3277 -11.6439
# 2 28.0486 81.6248 -7.5667 20.9567 2.4839 -20.1784
# 3 -5.8582 -7.5667 39.6608 3.3955 0.2062 0.8039
# 4 10.0661 20.9567 3.3955 19.2501 -2.0338 2.5290
# 5 -5.3277 2.4839 0.2062 -2.0338 31.6572 2.8409
# 6 -11.6439 -20.1784 0.8039 2.5290 2.8409 31.7108
#
#
#
# Elastic Compliance Matrix: (Units=1/GPa)
#
#
# Indices 1 2 3 4 5 6 
#
# 1 0.024422 -0.004033 0.003502 -0.009554 0.003181 0.006789
# 2 -0.004033 0.027458 0.007051 -0.032223 -0.006652 0.018978
# 3 0.003502 0.007051 0.028284 -0.015526 -0.001724 0.006448
# 4 -0.009554 -0.032223 -0.015526 0.100132 0.010374 -0.032534
# 5 0.003181 -0.006652 -0.001724 0.010374 0.033942 -0.006890
# 6 0.006789 0.018978 0.006448 -0.032534 -0.006890 0.049153
#
#
# Mechanical properties :
#
#
# Convention : Reuss Voigt Hill
#
# Bulk Modulus (GPa) = 10.72915 22.75775 16.74345
# Shear Modulus (GPa) = 17.76713 27.25353 22.51033
#
# Velocity S-wave (km/s) = 2.96193 3.66841 3.33394
# Velocity P-wave (km/s) = 4.12253 5.40188 4.80497
#
# Compressibility (1/GPa) = 0.09320405
#
# Stress axis : x y z
#
# Youngs Moduli (GPa) = 40.94626 36.41939 35.35588
#
# Poissons Ratio (x) = 0.14688 -0.12380
# Poissons Ratio (y) = 0.16514 -0.24931
# Poissons Ratio (z) = -0.14338 -0.25681
#
# Static dielectric constant tensor:
#      x y z
#    x 1.732700 -0.006490 -0.002850 
#    y -0.006490 1.695610 0.012280 
#    z -0.002850 0.012280 1.802630 
# 
# From -- ./inp_files/313749.got.cif
#   From: 2010.05.17/outbox.cif.g08.bks.cpg/sg2_157_cif.got.tgz:313749.got - 2010.06.03 11:33:40.
