data_PCOD9083499
_publ_section_title
;
Structure prediction by ZEFSAII (Michael W. Deem and Ramdas Pophale) SiO2 
 PCOD9083499
Probable space group: P -1
;
_chemical_formula_sum "Si O2"
_cell_formula_units_Z 16
_cell_length_a 12.052850
_cell_length_b 8.377371
_cell_length_c 17.621210
_cell_angle_alpha 72.968988
_cell_angle_beta 26.677355
_cell_angle_gamma 79.216048
_cell_volume 752.161759
_symmetry_space_group_name_H-M "P -1"
_symmetry_group_IT_number 2
_symmetry_cell_setting 'triclinic'
loop_
_space_group_symop_operation_xyz
x,y,z
-x,-y,-z
loop_
_atom_site_type_symbol
_atom_site_label
_atom_site_fract_x
_atom_site_fract_y
_atom_site_fract_z
Si Si1 0.196863 0.577480 0.433122
Si Si2 0.951612 0.150407 0.417295
Si Si3 0.621219 0.888381 0.566863
Si Si4 0.422044 0.755977 0.478387
Si Si5 0.201316 0.461445 0.747001
Si Si6 0.510978 0.320660 0.059744
Si Si7 0.649563 0.424292 0.133917
Si Si8 0.045058 0.307202 0.698028
O O1 0.153067 0.763228 0.458019
O O2 0.479029 0.564389 0.238244
O O3 0.121623 0.452012 0.567958
O O4 0.000000 0.500000 0.500000
O O5 0.846600 0.248025 0.397166
O O6 0.248884 0.193846 0.229861
O O7 0.806586 0.962785 0.513609
O O8 0.435571 0.727775 0.733948
O O9 0.804295 0.839227 0.397508
O O10 0.513376 0.956762 0.398510
O O11 0.360985 0.646102 0.606592
O O12 0.607341 0.662275 0.327946
O O13 0.116887 0.381058 0.727167
O O14 0.949849 0.472119 0.943869
O O15 0.567333 0.360398 0.108328
O O16 0.500000 0.500000 0.000000
O O17 0.746178 0.251975 0.889626
#
# Coordination Sequence:
#
# PCOD9083499 Si02
#       8
#     2   2   2   2   2   2   2   2
#     4  11  18  34  56  81 108 150 182 219 273 332
#     4  10  19  36  54  77 116 141 180 227 266 325
#     4   9  22  37  52  83 117 142 176 228 284 326
#     4   9  20  38  59  81 108 146 181 229 286 299
#     4  10  19  38  65  77 107 144 191 229 260 337
#     4  11  18  33  59  82 109 145 188 228 260 325
#     4  10  21  34  56  86 106 145 188 219 277 328
#     4  10  19  34  56  84 108 146 185 218 277 327
#
# _framework density 21.272020000000001
#
# number of rings (size 3 to 8) (size 9 to 14) (size 15 to 20)
#    0.750    1.250    3.750    0.750    0.000    2.000 
#    0.000    3.125    0.000    0.000    0.000    0.000 
#    0.000    0.000    0.000    0.000    0.000    0.000 
#
# Total GULP energy -89249.956118 kJ/mol
# GULP energy per Si atom -5578.122257 kJ/mol
# Density = 2.122360 g / cm^3
# Si number density = 21.272020 Si / 1000 Ang^3
#
#
#
# Elastic Constant Matrix: (Units=GPa)
#
#
# Indices 1 2 3 4 5 6 
#
# 1 64.4997 6.9956 16.8405 7.8170 -0.4260 3.8102
# 2 6.9956 50.9642 24.8952 8.6878 1.6402 -5.6030
# 3 16.8405 24.8952 180.4763 17.1847 -18.9785 -1.6052
# 4 7.8170 8.6878 17.1847 23.7277 4.4242 -1.6767
# 5 -0.4260 1.6402 -18.9785 4.4242 30.9070 3.4485
# 6 3.8102 -5.6030 -1.6052 -1.6767 3.4485 30.2696
#
#
#
# Elastic Compliance Matrix: (Units=1/GPa)
#
#
# Indices 1 2 3 4 5 6 
#
# 1 0.016612 -0.001389 -0.000859 -0.004676 0.000750 -0.002738
# 2 -0.001389 0.022560 -0.002746 -0.005020 -0.002656 0.004230
# 3 -0.000859 -0.002746 0.007000 -0.004818 0.005221 -0.000891
# 4 -0.004676 -0.005020 -0.004818 0.051207 -0.010469 0.003433
# 5 0.000750 -0.002656 0.005221 -0.010469 0.037791 -0.005194
# 6 -0.002738 0.004230 -0.000891 0.003433 -0.005194 0.034899
#
#
# Mechanical properties :
#
#
# Convention : Reuss Voigt Hill
#
# Bulk Modulus (GPa) = 27.63631 43.71141 35.67386
# Shear Modulus (GPa) = 26.02584 33.46146 29.74365
#
# Velocity S-wave (km/s) = 3.50162 3.97044 3.74338
# Velocity P-wave (km/s) = 5.41927 6.45078 5.95740
#
# Compressibility (1/GPa) = 0.03618428
#
# Stress axis : x y z
#
# Youngs Moduli (GPa) = 60.19677 44.32660 142.86423
#
# Poissons Ratio (x) = 0.06156 0.12269
# Poissons Ratio (y) = 0.08361 0.39231
# Poissons Ratio (z) = 0.05170 0.12172
#
# Static dielectric constant tensor:
#      x y z
#    x 1.840680 0.006360 -0.016960 
#    y 0.006360 1.801730 0.031100 
#    z -0.016960 0.031100 1.748630 
# 
# From -- ./inp_files/210566.got.cif
#   From: 2010.05.17/outbox.cif.g08.bks.cpg/sg2_106_cif.got.tgz:210566.got - 2010.06.03 11:33:40.
