data_PCOD9083476
_publ_section_title
;
Structure prediction by ZEFSAII (Michael W. Deem and Ramdas Pophale) SiO2 
 PCOD9083476
Probable space group: P -1
;
_chemical_formula_sum "Si O2"
_cell_formula_units_Z 12
_cell_length_a 8.040882
_cell_length_b 6.847669
_cell_length_c 9.634475
_cell_angle_alpha 65.872616
_cell_angle_beta 80.397697
_cell_angle_gamma 80.786123
_cell_volume 474.861782
_symmetry_space_group_name_H-M "P -1"
_symmetry_group_IT_number 2
_symmetry_cell_setting 'triclinic'
loop_
_space_group_symop_operation_xyz
x,y,z
-x,-y,-z
loop_
_atom_site_type_symbol
_atom_site_label
_atom_site_fract_x
_atom_site_fract_y
_atom_site_fract_z
Si Si1 0.293222 0.577161 0.098268
Si Si2 0.402984 0.980361 0.875888
Si Si3 0.400488 0.672992 0.364767
Si Si4 0.990593 0.208969 0.581865
Si Si5 0.915558 0.681789 0.184546
Si Si6 0.944158 0.750241 0.752759
O O1 0.383599 0.583841 0.234530
O O2 0.225836 0.345814 0.141667
O O3 0.108031 0.714401 0.107788
O O4 0.384204 0.726244 0.935852
O O5 0.504715 0.110082 0.714130
O O6 0.228245 0.132806 0.878754
O O7 0.500000 0.000000 0.000000
O O8 0.500000 0.500000 0.500000
O O9 0.209349 0.735391 0.422240
O O10 0.074941 0.350732 0.641291
O O11 0.080020 0.211484 0.420786
O O12 0.001734 0.974822 0.723982
O O13 0.907510 0.444637 0.189885
#
# Coordination Sequence:
#
# PCOD9083476 Si02
#       6
#     2   2   2   2   2   2
#     4   8  19  34  55  78 105 144 180 218 263 316
#     4  10  19  34  56  82 110 143 176 219 279 319
#     4  10  20  32  56  83 110 141 177 217 274 324
#     4  10  19  35  55  84 107 141 180 230 255 319
#     4   9  18  33  62  74 102 146 187 215 262 317
#     4   9  19  33  59  80 109 133 193 220 263 304
#
# _framework density 25.270513000000001
#
# number of rings (size 3 to 8) (size 9 to 14) (size 15 to 20)
#    1.000    1.667    0.000    2.000    2.333    0.000 
#    0.000    2.500    7.333    0.000    0.000    0.000 
#    0.000    0.000    0.000    0.000    0.000    0.000 
#
# Total GULP energy -66983.072152 kJ/mol
# GULP energy per Si atom -5581.922679 kJ/mol
# Density = 2.521300 g / cm^3
# Si number density = 25.270513 Si / 1000 Ang^3
#
#
#
# Elastic Constant Matrix: (Units=GPa)
#
#
# Indices 1 2 3 4 5 6 
#
# 1 78.4250 17.0621 62.5207 -15.5515 7.6579 2.6379
# 2 17.0621 71.1012 30.7090 -23.5493 -10.2503 15.7291
# 3 62.5207 30.7090 137.4358 -36.5063 -11.7479 5.9876
# 4 -15.5515 -23.5493 -36.5063 48.0714 7.3138 -10.9099
# 5 7.6579 -10.2503 -11.7479 7.3138 55.8707 -22.2803
# 6 2.6379 15.7291 5.9876 -10.9099 -22.2803 28.8687
#
#
#
# Elastic Compliance Matrix: (Units=1/GPa)
#
#
# Indices 1 2 3 4 5 6 
#
# 1 0.022040 -0.001073 -0.010601 -0.001579 -0.007470 -0.005593
# 2 -0.001073 0.018709 -0.001910 0.005630 -0.000836 -0.008217
# 3 -0.010601 -0.001910 0.014685 0.007309 0.005665 0.006098
# 4 -0.001579 0.005630 0.007309 0.030240 0.002333 0.008789
# 5 -0.007470 -0.000836 0.005665 0.002333 0.028880 0.023134
# 6 -0.005593 -0.008217 0.006098 0.008789 0.023134 0.059538
#
#
# Mechanical properties :
#
#
# Convention : Reuss Voigt Hill
#
# Bulk Modulus (GPa) = 35.37793 56.39395 45.88594
# Shear Modulus (GPa) = 23.73236 38.34019 31.03627
#
# Velocity S-wave (km/s) = 3.06785 3.89934 3.50832
# Velocity P-wave (km/s) = 5.15549 6.52975 5.88289
#
# Compressibility (1/GPa) = 0.02826621
#
# Stress axis : x y z
#
# Youngs Moduli (GPa) = 45.37239 53.45065 68.09507
#
# Poissons Ratio (x) = 0.05735 0.72185
# Poissons Ratio (y) = 0.04869 0.13008
# Poissons Ratio (z) = 0.48097 0.10211
#
# Static dielectric constant tensor:
#      x y z
#    x 1.969620 0.000040 -0.048190 
#    y 0.000040 2.056120 -0.034400 
#    z -0.048190 -0.034400 2.055810 
# 
# From -- ./inp_files/155462.got.cif
#   From: 2010.05.17/outbox.cif.g08.bks.cpg/sg2_78_cif.got.tgz:155462.got - 2010.06.03 11:33:40.
