data_PCOD9083243
_publ_section_title
;
Structure prediction by ZEFSAII (Michael W. Deem and Ramdas Pophale) SiO2 
 PCOD9083243
Probable space group: P -1
;
_chemical_formula_sum "Si O2"
_cell_formula_units_Z 16
_cell_length_a 5.282278
_cell_length_b 21.593105
_cell_length_c 12.262366
_cell_angle_alpha 38.956071
_cell_angle_beta 87.773140
_cell_angle_gamma 102.606074
_cell_volume 807.066316
_symmetry_space_group_name_H-M "P -1"
_symmetry_group_IT_number 2
_symmetry_cell_setting 'triclinic'
loop_
_space_group_symop_operation_xyz
x,y,z
-x,-y,-z
loop_
_atom_site_type_symbol
_atom_site_label
_atom_site_fract_x
_atom_site_fract_y
_atom_site_fract_z
Si Si1 0.551382 0.392948 0.821739
Si Si2 0.690517 0.982333 0.430958
Si Si3 0.467762 0.241728 0.638494
Si Si4 0.300024 0.026685 0.799361
Si Si5 0.648621 0.889517 0.973846
Si Si6 0.771074 0.837098 0.806577
Si Si7 0.907786 0.637432 0.515956
Si Si8 0.046835 0.395254 0.683946
O O1 0.729124 0.510099 0.708040
O O2 0.781183 0.352392 0.824839
O O3 0.332245 0.412391 0.716437
O O4 0.353466 0.289672 0.033800
O O5 0.594994 0.937025 0.375502
O O6 0.781789 0.898448 0.609264
O O7 0.500000 0.000000 0.500000
O O8 0.914853 0.102758 0.242288
O O9 0.394328 0.128670 0.735736
O O10 0.261906 0.295649 0.530830
O O11 0.782283 0.321192 0.502564
O O12 0.424898 0.214043 0.806402
O O13 0.442845 0.945031 0.936044
O O14 0.967325 0.967846 0.885063
O O15 0.629356 0.865808 0.876637
O O16 0.946495 0.660873 0.352763
O O17 0.000000 0.500000 0.500000
#
# Coordination Sequence:
#
# PCOD9083243 Si02
#       8
#     2   2   2   2   2   2   2   2
#     4  11  22  35  57  87 117 155 194 237 287 342
#     4  10  21  41  60  87 112 143 192 251 304 342
#     4  12  23  37  57  84 120 164 188 228 278 342
#     4  11  23  39  60  83 117 152 196 236 287 348
#     4  11  21  37  58  88 118 146 191 236 289 353
#     4  10  22  36  61  89 115 146 187 247 304 343
#     4  11  21  36  53  81 121 157 196 225 271 345
#     4  10  19  34  53  81 119 157 191 231 278 332
#
# _framework density 19.824887
#
# number of rings (size 3 to 8) (size 9 to 14) (size 15 to 20)
#    0.000    1.250    1.250    7.500    1.750    1.000 
#    0.000    0.000    0.000    1.500    0.000    0.000 
#    0.000    0.000    0.000    0.000    0.000    0.000 
#
# Total GULP energy -89143.630027 kJ/mol
# GULP energy per Si atom -5571.476877 kJ/mol
# Density = 1.977976 g / cm^3
# Si number density = 19.824887 Si / 1000 Ang^3
#
#
#
# Elastic Constant Matrix: (Units=GPa)
#
#
# Indices 1 2 3 4 5 6 
#
# 1 103.5412 16.8518 14.1085 -11.7464 2.6031 0.4141
# 2 16.8518 48.6796 18.0672 -5.7821 -1.1535 -0.2779
# 3 14.1085 18.0672 87.9218 -16.8345 -11.9671 4.8471
# 4 -11.7464 -5.7821 -16.8345 28.1032 4.2623 -0.3668
# 5 2.6031 -1.1535 -11.9671 4.2623 19.6623 -7.9454
# 6 0.4141 -0.2779 4.8471 -0.3668 -7.9454 26.7864
#
#
#
# Elastic Compliance Matrix: (Units=1/GPa)
#
#
# Indices 1 2 3 4 5 6 
#
# 1 0.010793 -0.003078 -0.000745 0.003921 -0.003314 -0.000993
# 2 -0.003078 0.023294 -0.004225 0.001090 -0.000684 0.000866
# 3 -0.000745 -0.004225 0.014599 0.006475 0.007144 -0.000466
# 4 0.003921 0.001090 0.006475 0.042315 -0.006756 -0.002646
# 5 -0.003314 -0.000684 0.007144 -0.006756 0.064226 0.017710
# 6 -0.000993 0.000866 -0.000466 -0.002646 0.017710 0.042658
#
#
# Mechanical properties :
#
#
# Convention : Reuss Voigt Hill
#
# Bulk Modulus (GPa) = 30.68375 37.57751 34.13063
# Shear Modulus (GPa) = 22.23752 27.65140 24.94446
#
# Velocity S-wave (km/s) = 3.35281 3.73873 3.55102
# Velocity P-wave (km/s) = 5.52263 6.13460 5.83664
#
# Compressibility (1/GPa) = 0.03259054
#
# Stress axis : x y z
#
# Youngs Moduli (GPa) = 92.65594 42.92877 68.49623
#
# Poissons Ratio (x) = 0.13214 0.05102
# Poissons Ratio (y) = 0.28521 0.28939
# Poissons Ratio (z) = 0.06901 0.18137
#
# Static dielectric constant tensor:
#      x y z
#    x 1.791470 0.001720 0.007110 
#    y 0.001720 1.752660 0.029810 
#    z 0.007110 0.029810 1.764620 
# 
# From -- ./inp_files/82550.got.cif
#   From: 2010.05.17/outbox.cif.g08.bks.cpg/sg2_42_cif.got.tgz:82550.got - 2010.06.03 11:33:40.
