data_PCOD9083512
_publ_section_title
;
Structure prediction by ZEFSAII (Michael W. Deem and Ramdas Pophale) SiO2 
 PCOD9083512
Probable space group: P -1
;
_chemical_formula_sum "Si O2"
_cell_formula_units_Z 12
_cell_length_a 8.107757
_cell_length_b 19.552564
_cell_length_c 10.004952
_cell_angle_alpha 27.262824
_cell_angle_beta 48.915938
_cell_angle_gamma 36.300348
_cell_volume 419.734114
_symmetry_space_group_name_H-M "P -1"
_symmetry_group_IT_number 2
_symmetry_cell_setting 'triclinic'
loop_
_space_group_symop_operation_xyz
x,y,z
-x,-y,-z
loop_
_atom_site_type_symbol
_atom_site_label
_atom_site_fract_x
_atom_site_fract_y
_atom_site_fract_z
Si Si1 0.466134 0.276969 0.233846
Si Si2 0.838878 0.514957 0.217342
Si Si3 0.608905 0.582564 0.683548
Si Si4 0.996066 0.296206 0.761174
Si Si5 0.239359 0.923067 0.117148
Si Si6 0.335123 0.103713 0.267917
O O1 0.478477 0.373540 0.190462
O O2 0.407702 0.379050 0.945296
O O3 0.153152 0.330345 0.320212
O O4 0.709200 0.045191 0.500889
O O5 0.483814 0.895641 0.946375
O O6 0.782818 0.445209 0.499422
O O7 0.879406 0.671016 0.968302
O O8 0.765564 0.677806 0.416499
O O9 0.337222 0.729732 0.476145
O O10 0.837617 0.374531 0.850426
O O11 0.127945 0.084335 0.010576
O O12 0.000000 0.000000 0.000000
O O13 0.500000 0.000000 0.500000
#
# Coordination Sequence:
#
# PCOD9083512 Si02
#       6
#     2   2   2   2   2   2
#     4   9  18  30  56  86 109 135 187 246 277 313
#     4   9  16  31  53  84 108 138 188 236 277 323
#     4  10  20  35  57  87 114 141 199 238 282 324
#     4  10  20  35  59  86 110 147 196 241 274 331
#     4  12  24  37  55  86 123 154 181 233 297 343
#     4  10  19  34  56  85 109 150 193 231 270 339
#
# _framework density 28.589525999999999
#
# number of rings (size 3 to 8) (size 9 to 14) (size 15 to 20)
#    0.000    2.000    5.000    0.500    0.000    0.667 
#    0.000    0.000    0.000    5.000    0.000    0.000 
#    0.000    0.000    0.000    0.000    0.000    0.000 
#
# Total GULP energy -67208.124244 kJ/mol
# GULP energy per Si atom -5600.677020 kJ/mol
# Density = 2.852446 g / cm^3
# Si number density = 28.589526 Si / 1000 Ang^3
#
#
#
# Elastic Constant Matrix: (Units=GPa)
#
#
# Indices 1 2 3 4 5 6 
#
# 1 78.0902 22.0067 -10.6798 -8.7184 -1.4036 21.3384
# 2 22.0067 185.0067 40.1989 5.7559 -8.7209 29.0400
# 3 -10.6798 40.1989 100.3875 -30.7500 5.5907 19.8430
# 4 -8.7184 5.7559 -30.7500 66.4312 29.7422 -10.4546
# 5 -1.4036 -8.7209 5.5907 29.7422 44.2308 1.7962
# 6 21.3384 29.0400 19.8430 -10.4546 1.7962 50.0482
#
#
#
# Elastic Compliance Matrix: (Units=1/GPa)
#
#
# Indices 1 2 3 4 5 6 
#
# 1 0.017009 -0.002899 0.006670 0.006876 -0.005231 -0.006591
# 2 -0.002899 0.008012 -0.005598 -0.007405 0.007296 -0.003002
# 3 0.006670 -0.005598 0.019252 0.015974 -0.013929 -0.003392
# 4 0.006876 -0.007405 0.015974 0.037385 -0.028557 0.003866
# 5 -0.005231 0.007296 -0.013929 -0.028557 0.045009 -0.004062
# 6 -0.006591 -0.003002 -0.003392 0.003866 -0.004062 0.026831
#
#
# Mechanical properties :
#
#
# Convention : Reuss Voigt Hill
#
# Bulk Modulus (GPa) = 24.61744 51.83735 38.22739
# Shear Modulus (GPa) = 29.29265 52.93929 41.11597
#
# Velocity S-wave (km/s) = 3.20440 4.30781 3.79641
# Velocity P-wave (km/s) = 4.72443 6.55087 5.71114
#
# Compressibility (1/GPa) = 0.04062160
#
# Stress axis : x y z
#
# Youngs Moduli (GPa) = 58.79086 124.81469 51.94262
#
# Poissons Ratio (x) = 0.36179 -0.34648
# Poissons Ratio (y) = 0.17041 0.29076
# Poissons Ratio (z) = -0.39216 0.69868
#
# Static dielectric constant tensor:
#      x y z
#    x 2.363960 -0.004290 -0.020800 
#    y -0.004290 2.190190 0.058380 
#    z -0.020800 0.058380 2.309920 
# 
# From -- ./inp_files/69435.got.cif
#   From: 2010.05.17/outbox.cif.g08.bks.cpg/sg2_35_cif.got.tgz:69435.got - 2010.06.03 11:33:40.
