data_PCOD9083832
_publ_section_title
;
Structure prediction by ZEFSAII (Michael W. Deem and Ramdas Pophale) SiO2 
 PCOD9083832
Probable space group: P -1
;
_chemical_formula_sum "Si O2"
_cell_formula_units_Z 16
_cell_length_a 12.981208
_cell_length_b 17.729686
_cell_length_c 7.977902
_cell_angle_alpha 87.244478
_cell_angle_beta 61.730443
_cell_angle_gamma 139.779248
_cell_volume 724.225451
_symmetry_space_group_name_H-M "P -1"
_symmetry_group_IT_number 2
_symmetry_cell_setting 'triclinic'
loop_
_space_group_symop_operation_xyz
x,y,z
-x,-y,-z
loop_
_atom_site_type_symbol
_atom_site_label
_atom_site_fract_x
_atom_site_fract_y
_atom_site_fract_z
Si Si1 0.624567 0.907860 0.348457
Si Si2 0.500161 0.596768 0.448318
Si Si3 0.262254 0.601343 0.455712
Si Si4 0.660712 0.791365 0.867134
Si Si5 0.846956 0.343239 0.042265
Si Si6 0.844891 0.894928 0.356290
Si Si7 0.721862 0.663836 0.923691
Si Si8 0.993001 0.258388 0.048851
O O1 0.412790 0.763481 0.383828
O O2 0.452985 0.820956 0.658155
O O3 0.818139 0.949629 0.241166
O O4 0.786258 0.076663 0.168462
O O5 0.374483 0.605604 0.502052
O O6 0.720356 0.747098 0.393994
O O7 0.600759 0.626512 0.191544
O O8 0.264615 0.411627 0.720190
O O9 0.377083 0.639692 0.185307
O O10 0.955733 0.417066 0.759173
O O11 0.677877 0.821219 0.657459
O O12 0.787887 0.780172 0.770333
O O13 0.862928 0.948924 0.819350
O O14 0.907717 0.295277 0.079343
O O15 0.000000 0.500000 0.000000
O O16 0.500000 0.500000 0.000000
O O17 0.932104 0.724592 0.820768
#
# Coordination Sequence:
#
# PCOD9083832 Si02
#       8
#     2   2   2   2   2   2   2   2
#     4  10  19  34  58  86 112 149 194 241 278 334
#     4   9  20  35  55  80 116 152 190 223 283 348
#     4   8  18  34  56  80 110 149 194 233 280 336
#     4  10  20  35  56  84 119 154 191 227 288 341
#     4   9  19  37  58  81 109 150 200 240 278 341
#     4  10  20  36  58  84 116 156 191 232 276 351
#     4  11  22  35  53  86 123 153 185 232 288 340
#     4  11  20  34  54  86 112 151 191 233 293 328
#
# _framework density 22.092569000000001
#
# number of rings (size 3 to 8) (size 9 to 14) (size 15 to 20)
#    0.000    2.250    1.250    2.250    1.750    1.500 
#    2.250    0.625    0.000    4.500    0.000   21.875 
#    0.000    0.000    0.000    0.000    0.000    0.000 
#
# Total GULP energy -89127.499028 kJ/mol
# GULP energy per Si atom -5570.468689 kJ/mol
# Density = 2.204229 g / cm^3
# Si number density = 22.092569 Si / 1000 Ang^3
#
#
#
# Elastic Constant Matrix: (Units=GPa)
#
#
# Indices 1 2 3 4 5 6 
#
# 1 91.2287 24.3717 7.3225 -5.2345 9.5865 -22.2081
# 2 24.3717 119.3031 26.8154 -20.1456 10.9810 -11.7960
# 3 7.3225 26.8154 112.2856 -8.4029 0.1578 -13.6507
# 4 -5.2345 -20.1456 -8.4029 36.2901 -8.4809 9.9768
# 5 9.5865 10.9810 0.1578 -8.4809 27.9226 -3.6686
# 6 -22.2081 -11.7960 -13.6507 9.9768 -3.6686 27.1489
#
#
#
# Elastic Compliance Matrix: (Units=1/GPa)
#
#
# Indices 1 2 3 4 5 6 
#
# 1 0.014603 -0.002163 0.000807 -0.003042 -0.003507 0.012055
# 2 -0.002163 0.010181 -0.001982 0.004504 -0.001916 -0.000257
# 3 0.000807 -0.001982 0.009934 0.000252 0.001161 0.004859
# 4 -0.003042 0.004504 0.000252 0.034947 0.008293 -0.012126
# 5 -0.003507 -0.001916 0.001161 0.008293 0.040187 -0.000735
# 6 0.012055 -0.000257 0.004859 -0.012126 -0.000735 0.053384
#
#
# Mechanical properties :
#
#
# Convention : Reuss Voigt Hill
#
# Bulk Modulus (GPa) = 35.65990 48.87074 42.26532
# Shear Modulus (GPa) = 27.89249 35.89284 31.89267
#
# Velocity S-wave (km/s) = 3.55706 4.03508 3.80359
# Velocity P-wave (km/s) = 5.74860 6.62405 6.20179
#
# Compressibility (1/GPa) = 0.02804270
#
# Stress axis : x y z
#
# Youngs Moduli (GPa) = 68.47727 98.22389 100.66053
#
# Poissons Ratio (x) = 0.21251 -0.08126
# Poissons Ratio (y) = 0.14815 0.19948
# Poissons Ratio (z) = -0.05528 0.19465
#
# Static dielectric constant tensor:
#      x y z
#    x 2.009250 -0.032240 0.002990 
#    y -0.032240 1.867270 -0.005680 
#    z 0.002990 -0.005680 1.906660 
# 
# From -- ./inp_files/317148.got.cif
#   From: 2010.05.17/outbox.cif.g08.bks.cpg/sg2_159_cif.got.tgz:317148.got - 2010.06.03 11:33:40.
