data_PCOD9083153
_publ_section_title
;
Structure prediction by ZEFSAII (Michael W. Deem and Ramdas Pophale) SiO2 
 PCOD9083153
Probable space group: P -1
;
_chemical_formula_sum "Si O2"
_cell_formula_units_Z 16
_cell_length_a 14.109550
_cell_length_b 11.685190
_cell_length_c 11.568519
_cell_angle_alpha 152.494142
_cell_angle_beta 101.554006
_cell_angle_gamma 95.372467
_cell_volume 690.721796
_symmetry_space_group_name_H-M "P -1"
_symmetry_group_IT_number 2
_symmetry_cell_setting 'triclinic'
loop_
_space_group_symop_operation_xyz
x,y,z
-x,-y,-z
loop_
_atom_site_type_symbol
_atom_site_label
_atom_site_fract_x
_atom_site_fract_y
_atom_site_fract_z
Si Si1 0.545135 0.804698 0.209855
Si Si2 0.247977 0.186789 0.126465
Si Si3 0.063960 0.223786 0.000801
Si Si4 0.717551 0.924230 0.707439
Si Si5 0.567220 0.537152 0.762393
Si Si6 0.025533 0.622121 0.484158
Si Si7 0.276510 0.522394 0.867844
Si Si8 0.753818 0.467647 0.881543
O O1 0.421955 0.772414 0.152773
O O2 0.672372 0.098116 0.551593
O O3 0.500000 0.500000 0.000000
O O4 0.572849 0.791531 0.070351
O O5 0.173033 0.322829 0.206079
O O6 0.240148 0.101603 0.180034
O O7 0.380226 0.385163 0.283527
O O8 0.171583 0.882720 0.753847
O O9 0.995822 0.357666 0.152042
O O10 0.130479 0.376011 0.032382
O O11 0.989264 0.850801 0.651227
O O12 0.573010 0.736133 0.515276
O O13 0.763801 0.271203 0.002952
O O14 0.737139 0.733816 0.449359
O O15 0.655599 0.487505 0.809122
O O16 0.000000 0.500000 0.500000
O O17 0.215890 0.379183 0.848596
#
# Coordination Sequence:
#
# PCOD9083153 Si02
#       8
#     2   2   2   2   2   2   2   2
#     4  11  19  30  50  72 109 145 197 232 271 295
#     4   9  22  36  56  78 115 141 181 219 271 329
#     4   9  22  34  60  84 112 133 171 230 282 326
#     4  11  23  36  48  76 111 158 188 211 256 319
#     4  10  19  34  50  76 108 152 185 230 262 308
#     4  10  20  38  61  89 109 131 171 226 290 337
#     4  11  23  32  51  73 106 151 193 223 257 305
#     4  11  19  34  51  78 110 143 190 236 269 301
#
# _framework density 23.164176999999999
#
# number of rings (size 3 to 8) (size 9 to 14) (size 15 to 20)
#    0.750    1.000    2.500    3.375    1.750    0.000 
#    0.000    1.875    0.000    0.000    0.000    5.250 
#    0.000    0.000    0.000    0.000    0.000    0.000 
#
# Total GULP energy -89267.515893 kJ/mol
# GULP energy per Si atom -5579.219743 kJ/mol
# Density = 2.311145 g / cm^3
# Si number density = 23.164177 Si / 1000 Ang^3
#
#
#
# Elastic Constant Matrix: (Units=GPa)
#
#
# Indices 1 2 3 4 5 6 
#
# 1 102.7416 42.4037 35.7233 13.0426 -19.1139 14.2797
# 2 42.4037 121.0413 31.2210 7.8047 -15.4945 7.3719
# 3 35.7233 31.2210 116.3516 13.3929 -16.9417 9.5879
# 4 13.0426 7.8047 13.3929 23.0014 -9.4109 2.3584
# 5 -19.1139 -15.4945 -16.9417 -9.4109 25.3169 3.1215
# 6 14.2797 7.3719 9.5879 2.3584 3.1215 23.3611
#
#
#
# Elastic Compliance Matrix: (Units=1/GPa)
#
#
# Indices 1 2 3 4 5 6 
#
# 1 0.014425 -0.002971 -0.001514 -0.002057 0.008301 -0.008160
# 2 -0.002971 0.010120 -0.001243 0.000546 0.003493 -0.001389
# 3 -0.001514 -0.001243 0.010660 -0.002672 0.004657 -0.003410
# 4 -0.002057 0.000546 -0.002672 0.053828 0.017695 -0.005617
# 5 0.008301 0.003493 0.004657 0.017695 0.059801 -0.017865
# 6 -0.008160 -0.001389 -0.003410 -0.005617 -0.017865 0.052586
#
#
# Mechanical properties :
#
#
# Convention : Reuss Voigt Hill
#
# Bulk Modulus (GPa) = 42.10732 62.09229 52.09981
# Shear Modulus (GPa) = 22.64580 29.72164 26.18372
#
# Velocity S-wave (km/s) = 3.13009 3.58591 3.36572
# Velocity P-wave (km/s) = 5.59290 6.63389 6.13551
#
# Compressibility (1/GPa) = 0.02374884
#
# Stress axis : x y z
#
# Youngs Moduli (GPa) = 69.32283 98.81883 93.81233
#
# Poissons Ratio (x) = 0.29357 0.14202
# Poissons Ratio (y) = 0.20594 0.11662
# Poissons Ratio (z) = 0.10495 0.12284
#
# Static dielectric constant tensor:
#      x y z
#    x 1.878890 -0.033170 -0.035700 
#    y -0.033170 1.859290 0.038910 
#    z -0.035700 0.038910 2.011290 
# 
# From -- ./inp_files/123269.got.cif
#   From: 2010.05.17/outbox.cif.g08.bks.cpg/sg2_62_cif.got.tgz:123269.got - 2010.06.03 11:33:40.
