data_PCOD9083831
_publ_section_title
;
Structure prediction by ZEFSAII (Michael W. Deem and Ramdas Pophale) SiO2 
 PCOD9083831
Probable space group: P -1
;
_chemical_formula_sum "Si O2"
_cell_formula_units_Z 16
_cell_length_a 13.688613
_cell_length_b 10.037724
_cell_length_c 5.356874
_cell_angle_alpha 83.912267
_cell_angle_beta 78.036669
_cell_angle_gamma 82.061125
_cell_volume 710.879861
_symmetry_space_group_name_H-M "P -1"
_symmetry_group_IT_number 2
_symmetry_cell_setting 'triclinic'
loop_
_space_group_symop_operation_xyz
x,y,z
-x,-y,-z
loop_
_atom_site_type_symbol
_atom_site_label
_atom_site_fract_x
_atom_site_fract_y
_atom_site_fract_z
Si Si1 0.142146 0.592792 0.376079
Si Si2 0.052897 0.387256 0.807861
Si Si3 0.582198 0.731050 0.095202
Si Si4 0.451778 0.146042 0.409247
Si Si5 0.313239 0.722858 0.483886
Si Si6 0.341535 0.570828 0.007558
Si Si7 0.799829 0.848530 0.988834
Si Si8 0.749866 0.968492 0.491873
O O1 0.122764 0.460747 0.567650
O O2 0.198309 0.689094 0.505234
O O3 0.223793 0.554348 0.122979
O O4 0.037501 0.657059 0.303030
O O5 0.116608 0.270891 0.950699
O O6 0.000000 0.500000 0.000000
O O7 0.535342 0.753055 0.390753
O O8 0.691264 0.789463 0.044178
O O9 0.519951 0.813885 0.891357
O O10 0.601191 0.576540 0.032809
O O11 0.500000 0.000000 0.500000
O O12 0.333742 0.134122 0.454796
O O13 0.367802 0.645231 0.233576
O O14 0.306059 0.883283 0.453819
O O15 0.348541 0.659921 0.741381
O O16 0.795622 0.957891 0.193577
O O17 0.817839 0.916476 0.700412
#
# Coordination Sequence:
#
# PCOD9083831 Si02
#       8
#     2   2   2   2   2   2   2   2
#     4   9  22  32  57  81 109 147 184 231 286 320
#     4  11  21  35  55  83 116 139 184 243 290 315
#     4  10  19  34  58  86 112 137 190 227 276 322
#     4  10  21  36  59  86 116 145 174 228 285 329
#     4  10  20  37  57  78 111 149 196 217 276 328
#     4  10  20  35  60  83 107 146 192 237 264 323
#     4  10  22  34  56  82 109 145 188 229 274 324
#     4  10  22  39  57  81 110 151 187 221 266 350
#
# _framework density 22.507321000000001
#
# number of rings (size 3 to 8) (size 9 to 14) (size 15 to 20)
#    0.750    1.250    0.000    4.125    8.750    0.000 
#    0.000    1.250    0.000    4.500    0.000    0.000 
#    0.000    0.000    0.000    0.000    0.000    0.000 
#
# Total GULP energy -89397.907655 kJ/mol
# GULP energy per Si atom -5587.369228 kJ/mol
# Density = 2.245609 g / cm^3
# Si number density = 22.507321 Si / 1000 Ang^3
#
#
#
# Elastic Constant Matrix: (Units=GPa)
#
#
# Indices 1 2 3 4 5 6 
#
# 1 58.7930 5.6808 31.4479 -0.0011 0.1200 7.5560
# 2 5.6808 111.8543 76.0310 9.2178 6.6911 -8.8074
# 3 31.4479 76.0310 182.5120 -5.9990 15.0938 -8.1370
# 4 -0.0011 9.2178 -5.9990 45.0878 -0.5113 7.7462
# 5 0.1200 6.6911 15.0938 -0.5113 28.4312 -0.4163
# 6 7.5560 -8.8074 -8.1370 7.7462 -0.4163 24.0877
#
#
#
# Elastic Compliance Matrix: (Units=1/GPa)
#
#
# Indices 1 2 3 4 5 6 
#
# 1 0.020256 0.001291 -0.004506 0.000450 0.001901 -0.007516
# 2 0.001291 0.013470 -0.005787 -0.004197 -0.000121 0.003913
# 3 -0.004506 -0.005787 0.009087 0.002072 -0.003382 0.001642
# 4 0.000450 -0.004197 0.002072 0.024855 0.000202 -0.008966
# 5 0.001901 -0.000121 -0.003382 0.000202 0.036974 -0.001209
# 6 -0.007516 0.003913 0.001642 -0.008966 -0.001209 0.048720
#
#
# Mechanical properties :
#
#
# Convention : Reuss Voigt Hill
#
# Bulk Modulus (GPa) = 40.30638 64.38653 52.34645
# Shear Modulus (GPa) = 27.83408 35.52134 31.67771
#
# Velocity S-wave (km/s) = 3.52044 3.97698 3.75566
# Velocity P-wave (km/s) = 5.87126 7.05390 6.48958
#
# Compressibility (1/GPa) = 0.02480997
#
# Stress axis : x y z
#
# Youngs Moduli (GPa) = 49.36776 74.24150 110.04407
#
# Poissons Ratio (x) = -0.09587 0.49582
# Poissons Ratio (y) = -0.06375 0.63684
# Poissons Ratio (z) = 0.22243 0.42965
#
# Static dielectric constant tensor:
#      x y z
#    x 1.898000 0.012870 0.007370 
#    y 0.012870 1.776410 0.030690 
#    z 0.007370 0.030690 1.851830 
# 
# From -- ./inp_files/105178.got.cif
#   From: 2010.05.17/outbox.cif.g08.bks.cpg/sg2_53_cif.got.tgz:105178.got - 2010.06.03 11:33:40.
