data_PCOD9083249
_publ_section_title
;
Structure prediction by ZEFSAII (Michael W. Deem and Ramdas Pophale) SiO2 
 PCOD9083249
Probable space group: P -1
;
_chemical_formula_sum "Si O2"
_cell_formula_units_Z 16
_cell_length_a 11.847756
_cell_length_b 14.560214
_cell_length_c 15.540961
_cell_angle_alpha 27.329349
_cell_angle_beta 38.604281
_cell_angle_gamma 47.321306
_cell_volume 766.699757
_symmetry_space_group_name_H-M "P -1"
_symmetry_group_IT_number 2
_symmetry_cell_setting 'triclinic'
loop_
_space_group_symop_operation_xyz
x,y,z
-x,-y,-z
loop_
_atom_site_type_symbol
_atom_site_label
_atom_site_fract_x
_atom_site_fract_y
_atom_site_fract_z
Si Si1 0.722238 0.748640 0.953904
Si Si2 0.426921 0.763235 0.241718
Si Si3 0.430683 0.874618 0.523846
Si Si4 0.010259 0.790327 0.435255
Si Si5 0.605121 0.692943 0.734730
Si Si6 0.018305 0.788319 0.894230
Si Si7 0.360606 0.809390 0.431420
Si Si8 0.982917 0.640146 0.752285
O O1 0.808485 0.627926 0.926383
O O2 0.876383 0.778408 0.909315
O O3 0.677024 0.961545 0.762931
O O4 0.551433 0.661200 0.182750
O O5 0.441766 0.716182 0.373655
O O6 0.218007 0.730524 0.363635
O O7 0.500000 0.000000 0.000000
O O8 0.541745 0.750740 0.628992
O O9 0.221057 0.817274 0.715909
O O10 0.466087 0.823939 0.445731
O O11 0.444979 0.112168 0.340721
O O12 0.823311 0.673622 0.616260
O O13 0.971703 0.807676 0.546914
O O14 0.015855 0.007682 0.205800
O O15 0.500000 0.500000 0.000000
O O16 0.997468 0.571490 0.130359
O O17 0.162618 0.695863 0.653346
#
# Coordination Sequence:
#
# PCOD9083249 Si02
#       8
#     2   2   2   2   2   2   2   2
#     4  11  18  32  54  82 122 156 177 216 278 339
#     4   9  18  34  58  82 116 157 182 211 285 347
#     4  10  21  34  54  85 113 139 184 244 276 329
#     4  10  20  38  58  80 115 151 183 234 278 332
#     4  10  21  38  56  84 109 140 192 243 288 311
#     4  11  19  31  55  86 116 145 180 225 279 335
#     4  10  19  34  53  82 118 149 185 225 278 337
#     4  11  20  31  55  88 117 145 182 225 282 339
#
# _framework density 20.868665
#
# number of rings (size 3 to 8) (size 9 to 14) (size 15 to 20)
#    0.000    1.750    5.000    3.000    0.000    0.000 
#    0.000    2.500    0.000    3.000    3.250    8.750 
#    0.000    0.125    0.000    0.000    0.000    0.000 
#
# Total GULP energy -89180.024186 kJ/mol
# GULP energy per Si atom -5573.751512 kJ/mol
# Density = 2.082117 g / cm^3
# Si number density = 20.868665 Si / 1000 Ang^3
#
#
#
# Elastic Constant Matrix: (Units=GPa)
#
#
# Indices 1 2 3 4 5 6 
#
# 1 133.2575 36.9039 53.2414 14.1682 -3.2894 -15.4548
# 2 36.9039 64.5300 52.0130 16.6371 2.4195 5.2138
# 3 53.2414 52.0130 118.9596 -2.9236 -6.9510 -4.9944
# 4 14.1682 16.6371 -2.9236 44.4473 -3.9915 -4.1421
# 5 -3.2894 2.4195 -6.9510 -3.9915 27.7823 6.3095
# 6 -15.4548 5.2138 -4.9944 -4.1421 6.3095 15.8891
#
#
#
# Elastic Compliance Matrix: (Units=1/GPa)
#
#
# Indices 1 2 3 4 5 6 
#
# 1 0.011449 -0.005431 -0.002337 -0.000745 -0.001743 0.012681
# 2 -0.005431 0.037621 -0.015727 -0.016118 -0.004495 -0.024987
# 3 -0.002337 -0.015727 0.017192 0.009002 0.004695 0.008773
# 4 -0.000745 -0.016118 0.009002 0.031067 0.004960 0.013522
# 5 -0.001743 -0.004495 0.004695 0.004960 0.041204 -0.013814
# 6 0.012681 -0.024987 0.008773 0.013522 -0.013814 0.095238
#
#
# Mechanical properties :
#
#
# Convention : Reuss Voigt Hill
#
# Bulk Modulus (GPa) = 51.88459 66.78484 59.33472
# Shear Modulus (GPa) = 17.41038 29.26300 23.33669
#
# Velocity S-wave (km/s) = 2.89153 3.74872 3.34767
# Velocity P-wave (km/s) = 6.00536 7.12805 6.59065
#
# Compressibility (1/GPa) = 0.01927355
#
# Stress axis : x y z
#
# Youngs Moduli (GPa) = 87.34340 26.58077 58.16511
#
# Poissons Ratio (x) = 0.14435 0.13596
# Poissons Ratio (y) = 0.47432 0.91474
# Poissons Ratio (z) = 0.20416 0.41802
#
# Static dielectric constant tensor:
#      x y z
#    x 1.756810 -0.010280 -0.004100 
#    y -0.010280 1.843240 -0.046380 
#    z -0.004100 -0.046380 1.764800 
# 
# From -- ./inp_files/521301.got.cif
#   From: 2010.05.17/outbox.cif.g08.bks.cpg/sg2_261_cif.got.tgz:521301.got - 2010.06.03 11:33:40.
