data_PCOD9083229
_publ_section_title
;
Structure prediction by ZEFSAII (Michael W. Deem and Ramdas Pophale) SiO2 
 PCOD9083229
Probable space group: P -1
;
_chemical_formula_sum "Si O2"
_cell_formula_units_Z 16
_cell_length_a 18.334062
_cell_length_b 6.102106
_cell_length_c 10.070190
_cell_angle_alpha 142.295635
_cell_angle_beta 76.517290
_cell_angle_gamma 93.083375
_cell_volume 653.661208
_symmetry_space_group_name_H-M "P -1"
_symmetry_group_IT_number 2
_symmetry_cell_setting 'triclinic'
loop_
_space_group_symop_operation_xyz
x,y,z
-x,-y,-z
loop_
_atom_site_type_symbol
_atom_site_label
_atom_site_fract_x
_atom_site_fract_y
_atom_site_fract_z
Si Si1 0.084029 0.348760 0.062589
Si Si2 0.916595 0.676756 0.679045
Si Si3 0.192404 0.248012 0.475689
Si Si4 0.610373 0.303721 0.283219
Si Si5 0.070969 0.113062 0.660097
Si Si6 0.470904 0.625829 0.360260
Si Si7 0.329473 0.957475 0.442765
Si Si8 0.752101 0.983581 0.208716
O O1 0.075807 0.118679 0.089331
O O2 0.016234 0.714623 0.263763
O O3 0.068550 0.161088 0.841795
O O4 0.173891 0.335946 0.999274
O O5 0.853812 0.840903 0.676602
O O6 0.000000 0.500000 0.500000
O O7 0.894142 0.317010 0.578525
O O8 0.129687 0.297343 0.643555
O O9 0.267879 0.954411 0.351395
O O10 0.218877 0.631472 0.625298
O O11 0.546919 0.303110 0.195290
O O12 0.569539 0.330201 0.457195
O O13 0.637700 0.682256 0.429555
O O14 0.688241 0.001135 0.129089
O O15 0.500000 0.000000 0.500000
O O16 0.403991 0.629241 0.281763
O O17 0.284146 0.028296 0.636021
#
# Coordination Sequence:
#
# PCOD9083229 Si02
#       8
#     2   2   2   2   2   2   2   2
#     4  11  23  39  60  79 108 150 185 236 292 331
#     4  12  25  40  57  81 108 143 193 241 281 340
#     4  11  20  37  56  75 113 147 180 241 280 326
#     4   8  15  25  46  74 111 145 180 229 273 323
#     4  11  24  42  55  80 109 143 192 238 283 340
#     4   8  13  24  43  74 110 147 182 221 273 328
#     4   9  16  29  48  75 111 146 183 228 275 330
#     4  10  19  34  53  79 109 146 188 229 282 334
#
# _framework density 24.477511
#
# number of rings (size 3 to 8) (size 9 to 14) (size 15 to 20)
#    0.000    2.000    3.750    0.375    0.000    3.000 
#    0.000    0.000    0.000    0.000    0.000    0.875 
#    0.000   99.000    0.000   23.125    0.000    5.875 
#
# Total GULP energy -89269.761855 kJ/mol
# GULP energy per Si atom -5579.360116 kJ/mol
# Density = 2.442180 g / cm^3
# Si number density = 24.477511 Si / 1000 Ang^3
#
#
#
# Elastic Constant Matrix: (Units=GPa)
#
#
# Indices 1 2 3 4 5 6 
#
# 1 202.0525 78.6642 28.0474 -14.1042 2.1352 -70.0119
# 2 78.6642 139.8386 33.3655 -22.3622 1.4475 -6.2552
# 3 28.0474 33.3655 36.6712 -18.2276 6.4602 -6.4284
# 4 -14.1042 -22.3622 -18.2276 43.8150 -10.0956 -2.6037
# 5 2.1352 1.4475 6.4602 -10.0956 25.9560 -17.1412
# 6 -70.0119 -6.2552 -6.4284 -2.6037 -17.1412 90.9378
#
#
#
# Elastic Compliance Matrix: (Units=1/GPa)
#
#
# Indices 1 2 3 4 5 6 
#
# 1 0.010019 -0.004469 -0.002241 0.001985 0.006372 0.008505
# 2 -0.004469 0.011356 -0.006784 0.001320 -0.000128 -0.003125
# 3 -0.002241 -0.006784 0.042139 0.012191 -0.005064 0.000181
# 4 0.001985 0.001320 0.012191 0.032633 0.013337 0.005929
# 5 0.006372 -0.000128 -0.005064 0.013337 0.054490 0.015192
# 6 0.008505 -0.003125 0.000181 0.005929 0.015192 0.020376
#
#
# Mechanical properties :
#
#
# Convention : Reuss Voigt Hill
#
# Bulk Modulus (GPa) = 27.37766 73.19073 50.28419
# Shear Modulus (GPa) = 23.78960 48.04077 35.91518
#
# Velocity S-wave (km/s) = 3.12091 4.43499 3.83466
# Velocity P-wave (km/s) = 4.91893 7.49611 6.33985
#
# Compressibility (1/GPa) = 0.03652613
#
# Stress axis : x y z
#
# Youngs Moduli (GPa) = 99.81431 88.05629 23.73109
#
# Poissons Ratio (x) = 0.39354 0.05318
# Poissons Ratio (y) = 0.44608 0.16098
# Poissons Ratio (z) = 0.22368 0.59735
#
# Static dielectric constant tensor:
#      x y z
#    x 2.024840 -0.029560 0.045210 
#    y -0.029560 1.951590 0.002460 
#    z 0.045210 0.002460 1.942860 
# 
# From -- ./inp_files/323010.got.cif
#   From: 2010.05.17/outbox.cif.g08.bks.cpg/sg2_162_cif.got.tgz:323010.got - 2010.06.03 11:33:40.
