data_PCOD9083783
_publ_section_title
;
Structure prediction by ZEFSAII (Michael W. Deem and Ramdas Pophale) SiO2 
 PCOD9083783
Probable space group: P -1
;
_chemical_formula_sum "Si O2"
_cell_formula_units_Z 12
_cell_length_a 15.739341
_cell_length_b 7.796928
_cell_length_c 8.479090
_cell_angle_alpha 84.037685
_cell_angle_beta 40.968285
_cell_angle_gamma 113.818786
_cell_volume 456.695881
_symmetry_space_group_name_H-M "P -1"
_symmetry_group_IT_number 2
_symmetry_cell_setting 'triclinic'
loop_
_space_group_symop_operation_xyz
x,y,z
-x,-y,-z
loop_
_atom_site_type_symbol
_atom_site_label
_atom_site_fract_x
_atom_site_fract_y
_atom_site_fract_z
Si Si1 0.511598 0.678791 0.855081
Si Si2 0.432306 0.091989 0.934890
Si Si3 0.848252 0.998495 0.100896
Si Si4 0.213683 0.222641 0.111838
Si Si5 0.719321 0.223891 0.100842
Si Si6 0.861861 0.528032 0.156754
O O1 0.686724 0.837258 0.475342
O O2 0.673043 0.513562 0.982001
O O3 0.500000 0.500000 0.000000
O O4 0.556272 0.876865 0.895743
O O5 0.650109 0.298198 0.547292
O O6 0.305317 0.824101 0.047565
O O7 0.337626 0.176965 0.995614
O O8 0.820691 0.148216 0.025916
O O9 0.805562 0.812904 0.046577
O O10 0.044736 0.221392 0.901492
O O11 0.000000 0.000000 0.500000
O O12 0.832864 0.484137 0.011844
O O13 0.500000 0.000000 0.500000
O O14 0.000000 0.500000 0.000000
#
# Coordination Sequence:
#
# PCOD9083783 Si02
#       6
#     2   2   2   2   2   2
#     4  10  21  37  53  80 115 149 188 231 269 326
#     4   9  18  35  55  79 113 143 177 235 278 321
#     4  10  19  34  58  83 109 150 185 222 283 335
#     4  10  20  36  56  80 109 147 188 231 277 330
#     4   8  16  33  55  79 106 139 179 227 275 325
#     4   9  17  33  58  83 106 140 184 230 280 331
#
# _framework density 26.275690999999998
#
# number of rings (size 3 to 8) (size 9 to 14) (size 15 to 20)
#    0.000    2.667    0.000    1.500    0.000    0.000 
#    0.000   31.667    0.000    0.000    0.000    0.000 
#    0.000    0.000    0.000    0.000    0.000    0.000 
#
# Total GULP energy -67110.753595 kJ/mol
# GULP energy per Si atom -5592.562800 kJ/mol
# Density = 2.621589 g / cm^3
# Si number density = 26.275691 Si / 1000 Ang^3
#
#
#
# Elastic Constant Matrix: (Units=GPa)
#
#
# Indices 1 2 3 4 5 6 
#
# 1 180.6786 87.0718 35.3278 10.2717 -6.7208 65.7672
# 2 87.0718 307.2734 44.5454 14.0728 6.7495 69.6124
# 3 35.3278 44.5454 124.8238 18.5116 -11.8795 32.3394
# 4 10.2717 14.0728 18.5116 41.6203 12.8453 4.0896
# 5 -6.7208 6.7495 -11.8795 12.8453 44.8689 11.7166
# 6 65.7672 69.6124 32.3394 4.0896 11.7166 84.5163
#
#
#
# Elastic Compliance Matrix: (Units=1/GPa)
#
#
# Indices 1 2 3 4 5 6 
#
# 1 0.008564 -0.000999 0.000330 -0.002500 0.003904 -0.006388
# 2 -0.000999 0.004196 -0.000483 -0.000695 -0.000070 -0.002451
# 3 0.000330 -0.000483 0.010703 -0.006046 0.005855 -0.004473
# 4 -0.002500 -0.000695 -0.006046 0.030776 -0.011988 0.005004
# 5 0.003904 -0.000070 0.005855 -0.011988 0.030169 -0.008823
# 6 -0.006388 -0.002451 -0.004473 0.005004 -0.008823 0.021514
#
#
# Mechanical properties :
#
#
# Convention : Reuss Voigt Hill
#
# Bulk Modulus (GPa) = 47.26124 105.18509 76.22317
# Shear Modulus (GPa) = 43.37287 63.92316 53.64802
#
# Velocity S-wave (km/s) = 4.06727 4.93768 4.52346
# Velocity P-wave (km/s) = 6.33108 8.52208 7.50694
#
# Compressibility (1/GPa) = 0.02115899
#
# Stress axis : x y z
#
# Youngs Moduli (GPa) = 116.76623 238.31822 93.43030
#
# Poissons Ratio (x) = 0.23800 -0.03083
# Poissons Ratio (y) = 0.11661 0.04517
# Poissons Ratio (z) = -0.03852 0.11522
#
# Static dielectric constant tensor:
#      x y z
#    x 2.064280 0.012610 -0.013720 
#    y 0.012610 2.045450 0.054170 
#    z -0.013720 0.054170 1.874390 
# 
# From -- ./inp_files/324390.got.cif
#   From: 2010.05.17/outbox.cif.g08.bks.cpg/sg2_163_cif.got.tgz:324390.got - 2010.06.03 11:33:40.
