data_PCOD9083406
_publ_section_title
;
Structure prediction by ZEFSAII (Michael W. Deem and Ramdas Pophale) SiO2 
 PCOD9083406
Probable space group: P -1
;
_chemical_formula_sum "Si O2"
_cell_formula_units_Z 16
_cell_length_a 16.113117
_cell_length_b 7.914244
_cell_length_c 12.417829
_cell_angle_alpha 71.859368
_cell_angle_beta 56.887972
_cell_angle_gamma 34.575896
_cell_volume 720.094237
_symmetry_space_group_name_H-M "P -1"
_symmetry_group_IT_number 2
_symmetry_cell_setting 'triclinic'
loop_
_space_group_symop_operation_xyz
x,y,z
-x,-y,-z
loop_
_atom_site_type_symbol
_atom_site_label
_atom_site_fract_x
_atom_site_fract_y
_atom_site_fract_z
Si Si1 0.414423 0.344682 0.572402
Si Si2 0.670955 0.623081 0.829289
Si Si3 0.568170 0.165820 0.874813
Si Si4 0.771091 0.988801 0.435046
Si Si5 0.238114 0.512038 0.452370
Si Si6 0.036006 0.762516 0.153653
Si Si7 0.265975 0.540161 0.858153
Si Si8 0.871291 0.919041 0.611665
O O1 0.616812 0.086127 0.493517
O O2 0.318078 0.681550 0.572597
O O3 0.361294 0.327746 0.504221
O O4 0.345571 0.352735 0.728170
O O5 0.676888 0.631833 0.696381
O O6 0.858380 0.296927 0.812255
O O7 0.636091 0.870405 0.852608
O O8 0.526338 0.709952 0.967781
O O9 0.416028 0.421195 0.842857
O O10 0.729555 0.058810 0.769269
O O11 0.833797 0.871725 0.536055
O O12 0.933776 0.754485 0.285225
O O13 0.170279 0.815006 0.436999
O O14 0.072646 0.626545 0.557559
O O15 0.886484 0.102644 0.139850
O O16 0.178224 0.529452 0.004690
#
# Coordination Sequence:
#
# PCOD9083406 Si02
#       8
#     2   2   2   2   2   2   2   2
#     4   9  17  29  51  78 109 140 176 231 278 321
#     4  10  21  38  55  83 117 148 182 236 285 331
#     4  10  21  37  59  80 112 153 192 224 276 344
#     4   9  15  29  51  78 104 141 186 222 267 328
#     4  10  21  34  53  86 121 143 178 242 292 320
#     4   9  17  30  53  80 104 137 190 233 261 317
#     4   9  17  31  53  79 103 141 190 228 263 322
#     4  10  19  34  55  84 112 149 188 231 279 334
#
# _framework density 22.219315000000002
#
# number of rings (size 3 to 8) (size 9 to 14) (size 15 to 20)
#    0.000    2.500    2.500    0.000    3.500    1.000 
#    0.000    1.875    0.000    0.000    0.000    5.250 
#    0.000    0.000    0.000    0.000    0.000    0.000 
#
# Total GULP energy -89351.559154 kJ/mol
# GULP energy per Si atom -5584.472447 kJ/mol
# Density = 2.216874 g / cm^3
# Si number density = 22.219315 Si / 1000 Ang^3
#
#
#
# Elastic Constant Matrix: (Units=GPa)
#
#
# Indices 1 2 3 4 5 6 
#
# 1 110.9608 38.3571 90.7321 5.3259 -11.4981 -34.5736
# 2 38.3571 87.7415 25.8490 5.8148 -2.1273 -26.3625
# 3 90.7321 25.8490 234.6619 5.4732 -16.4271 -47.2569
# 4 5.3259 5.8148 5.4732 17.0115 -6.8693 -7.0186
# 5 -11.4981 -2.1273 -16.4271 -6.8693 36.4982 0.9900
# 6 -34.5736 -26.3625 -47.2569 -7.0186 0.9900 36.4351
#
#
#
# Elastic Compliance Matrix: (Units=1/GPa)
#
#
# Indices 1 2 3 4 5 6 
#
# 1 0.016337 -0.003637 -0.004177 0.001965 0.003214 0.007744
# 2 -0.003637 0.015487 0.001709 -0.000578 0.000150 0.009855
# 3 -0.004177 0.001709 0.007198 0.002190 0.002247 0.006970
# 4 0.001965 -0.000578 0.002190 0.070704 0.014403 0.017516
# 5 0.003214 0.000150 0.002247 0.014403 0.031926 0.007980
# 6 0.007744 0.009855 0.006970 0.017516 0.007980 0.054122
#
#
# Mechanical properties :
#
#
# Convention : Reuss Voigt Hill
#
# Bulk Modulus (GPa) = 37.29794 82.58229 59.94012
# Shear Modulus (GPa) = 23.04988 36.55069 29.80028
#
# Velocity S-wave (km/s) = 3.22433 4.06026 3.66620
# Velocity P-wave (km/s) = 5.53936 7.69600 6.70496
#
# Compressibility (1/GPa) = 0.02681113
#
# Stress axis : x y z
#
# Youngs Moduli (GPa) = 61.21157 64.57217 138.92571
#
# Poissons Ratio (x) = 0.23483 0.58034
# Poissons Ratio (y) = 0.22261 -0.23741
# Poissons Ratio (z) = 0.25570 -0.11035
#
# Static dielectric constant tensor:
#      x y z
#    x 1.782680 0.012890 -0.002700 
#    y 0.012890 1.885710 0.014030 
#    z -0.002700 0.014030 1.843280 
# 
# From -- ./inp_files/397212.got.cif
#   From: 2010.05.17/outbox.cif.g08.bks.cpg/sg2_199_cif.got.tgz:397212.got - 2010.06.03 11:33:40.
