data_PCOD9083638
_publ_section_title
;
Structure prediction by ZEFSAII (Michael W. Deem and Ramdas Pophale) SiO2 
 PCOD9083638
Probable space group: P -1
;
_chemical_formula_sum "Si O2"
_cell_formula_units_Z 16
_cell_length_a 22.201646
_cell_length_b 10.184060
_cell_length_c 8.371273
_cell_angle_alpha 133.984695
_cell_angle_beta 61.154468
_cell_angle_gamma 146.524911
_cell_volume 728.489013
_symmetry_space_group_name_H-M "P -1"
_symmetry_group_IT_number 2
_symmetry_cell_setting 'triclinic'
loop_
_space_group_symop_operation_xyz
x,y,z
-x,-y,-z
loop_
_atom_site_type_symbol
_atom_site_label
_atom_site_fract_x
_atom_site_fract_y
_atom_site_fract_z
Si Si1 0.282126 0.462784 0.008932
Si Si2 0.661821 0.715782 0.971985
Si Si3 0.560624 0.383981 0.304685
Si Si4 0.931368 0.969353 0.436492
Si Si5 0.035315 0.783724 0.705930
Si Si6 0.545200 0.685551 0.343163
Si Si7 0.845382 0.500041 0.927684
Si Si8 0.777265 0.977977 0.727105
O O1 0.380957 0.648500 0.906189
O O2 0.169803 0.101666 0.807736
O O3 0.323377 0.451359 0.107477
O O4 0.231128 0.558438 0.154744
O O5 0.548499 0.474970 0.807040
O O6 0.755001 0.958685 0.926811
O O7 0.651664 0.844406 0.235351
O O8 0.522250 0.453436 0.281344
O O9 0.465567 0.180911 0.394106
O O10 0.666278 0.675197 0.521241
O O11 0.869924 0.016140 0.624328
O O12 0.003650 0.197342 0.389052
O O13 0.845207 0.644136 0.193639
O O14 0.000000 0.000000 0.500000
O O15 0.000000 0.500000 0.500000
O O16 0.970267 0.735544 0.896504
O O17 0.807599 0.226941 0.808891
#
# Coordination Sequence:
#
# PCOD9083638 Si02
#       8
#     2   2   2   2   2   2   2   2
#     4  10  19  34  57  83 111 153 189 232 277 334
#     4   9  19  32  57  88 111 143 190 230 292 340
#     4   9  15  33  60  83 108 145 193 224 281 351
#     4  11  24  38  56  85 116 154 195 237 282 322
#     4  11  21  39  57  82 115 156 197 228 275 337
#     4   8  16  31  58  86 108 145 181 234 292 338
#     4  11  23  39  57  81 120 155 191 233 279 330
#     4  11  21  37  58  86 114 151 194 229 278 341
#
# _framework density 21.963270999999999
#
# number of rings (size 3 to 8) (size 9 to 14) (size 15 to 20)
#    0.000    2.000    3.750    1.500    3.500    1.500 
#    0.000    0.000    0.000   28.500    0.000    0.000 
#    0.000    0.000    0.000    0.000    0.000    0.000 
#
# Total GULP energy -89163.815201 kJ/mol
# GULP energy per Si atom -5572.738450 kJ/mol
# Density = 2.191328 g / cm^3
# Si number density = 21.963271 Si / 1000 Ang^3
#
#
#
# Elastic Constant Matrix: (Units=GPa)
#
#
# Indices 1 2 3 4 5 6 
#
# 1 152.5353 26.8021 37.8383 -7.4674 -15.2342 -27.4612
# 2 26.8021 70.9753 46.8873 -22.8043 -9.3006 -7.8031
# 3 37.8383 46.8873 87.6624 -19.1208 -25.1688 -8.1090
# 4 -7.4674 -22.8043 -19.1208 38.5258 -1.4742 -1.3562
# 5 -15.2342 -9.3006 -25.1688 -1.4742 37.4517 -8.2213
# 6 -27.4612 -7.8031 -8.1090 -1.3562 -8.2213 29.8431
#
#
#
# Elastic Compliance Matrix: (Units=1/GPa)
#
#
# Indices 1 2 3 4 5 6 
#
# 1 0.009197 -0.000665 -0.000970 0.001435 0.005063 0.009485
# 2 -0.000665 0.024707 -0.010639 0.009325 -0.000187 0.003330
# 3 -0.000970 -0.010639 0.023728 0.006104 0.014709 0.007102
# 4 0.001435 0.009325 0.006104 0.035539 0.010584 0.009948
# 5 0.005063 -0.000187 0.014709 0.010584 0.043650 0.021112
# 6 0.009485 0.003330 0.007102 0.009948 0.021112 0.051305
#
#
# Mechanical properties :
#
#
# Convention : Reuss Voigt Hill
#
# Bulk Modulus (GPa) = 30.22697 59.35872 44.79285
# Shear Modulus (GPa) = 22.35116 34.47381 28.41248
#
# Velocity S-wave (km/s) = 3.19354 3.96613 3.60062
# Velocity P-wave (km/s) = 5.23361 6.93243 6.14204
#
# Compressibility (1/GPa) = 0.03308303
#
# Stress axis : x y z
#
# Youngs Moduli (GPa) = 108.73276 40.47474 42.14422
#
# Poissons Ratio (x) = 0.02690 0.04089
# Poissons Ratio (y) = 0.07227 0.44839
# Poissons Ratio (z) = 0.10549 0.43063
#
# Static dielectric constant tensor:
#      x y z
#    x 1.835460 0.043780 -0.006750 
#    y 0.043780 1.838480 -0.031410 
#    z -0.006750 -0.031410 1.878650 
# 
# From -- ./inp_files/202892.got.cif
#   From: 2010.05.17/outbox.cif.g08.bks.cpg/sg2_102_cif.got.tgz:202892.got - 2010.06.03 11:33:40.
