data_PCOD9083010
_publ_section_title
;
Structure prediction by ZEFSAII (Michael W. Deem and Ramdas Pophale) SiO2 
 PCOD9083010
Probable space group: P -1
;
_chemical_formula_sum "Si O2"
_cell_formula_units_Z 16
_cell_length_a 9.093142
_cell_length_b 14.097405
_cell_length_c 28.735696
_cell_angle_alpha 21.425736
_cell_angle_beta 143.443826
_cell_angle_gamma 141.512544
_cell_volume 791.030189
_symmetry_space_group_name_H-M "P -1"
_symmetry_group_IT_number 2
_symmetry_cell_setting 'triclinic'
loop_
_space_group_symop_operation_xyz
x,y,z
-x,-y,-z
loop_
_atom_site_type_symbol
_atom_site_label
_atom_site_fract_x
_atom_site_fract_y
_atom_site_fract_z
Si Si1 0.280589 0.270061 0.718169
Si Si2 0.755327 0.342843 0.035565
Si Si3 0.327219 0.108296 0.370106
Si Si4 0.554292 0.658359 0.166091
Si Si5 0.864478 0.347363 0.171555
Si Si6 0.719650 0.270043 0.553813
Si Si7 0.435050 0.166624 0.216717
Si Si8 0.056620 0.885577 0.947602
O O1 0.405311 0.337224 0.769404
O O2 0.378330 0.471231 0.609002
O O3 0.992439 0.321470 0.623684
O O4 0.293437 0.963402 0.851441
O O5 0.790365 0.335030 0.103887
O O6 0.563357 0.550505 0.887022
O O7 0.000000 0.500000 0.000000
O O8 0.490266 0.358437 0.272917
O O9 0.105333 0.206789 0.296941
O O10 0.500000 0.000000 0.500000
O O11 0.233703 0.898242 0.403126
O O12 0.801356 0.832427 0.128420
O O13 0.298962 0.775441 0.037929
O O14 0.647545 0.212170 0.211025
O O15 0.943046 0.660380 0.057882
O O16 0.547922 0.072223 0.634895
O O17 0.164633 0.099033 0.152287
#
# Coordination Sequence:
#
# PCOD9083010 Si02
#       8
#     2   2   2   2   2   2   2   2
#     4  11  20  35  61  91 121 154 212 265 295 345
#     4  11  18  34  61  91 116 156 213 252 290 350
#     4  11  21  39  63  89 115 160 207 252 304 368
#     4  10  19  33  60  90 123 148 201 261 307 344
#     4  10  21  37  60  90 124 162 200 253 313 367
#     4  11  22  37  62  91 120 161 210 257 302 356
#     4  11  21  38  62  90 128 163 203 250 313 374
#     4   9  18  33  55  87 115 156 193 245 300 353
#
# _framework density 20.226787000000002
#
# number of rings (size 3 to 8) (size 9 to 14) (size 15 to 20)
#    0.000    1.500    5.000    2.250    0.000    2.000 
#    0.000    1.250    2.750    7.500    0.000    0.000 
#    0.000    0.000    0.000    0.000    0.000    0.000 
#
# Total GULP energy -89193.699981 kJ/mol
# GULP energy per Si atom -5574.606249 kJ/mol
# Density = 2.018075 g / cm^3
# Si number density = 20.226787 Si / 1000 Ang^3
#
#
#
# Elastic Constant Matrix: (Units=GPa)
#
#
# Indices 1 2 3 4 5 6 
#
# 1 98.7584 30.1851 55.4552 -3.8799 -32.3268 12.6068
# 2 30.1851 84.0659 47.3212 -7.9060 -3.7870 8.3638
# 3 55.4552 47.3212 139.2169 -11.3583 -29.6031 7.8859
# 4 -3.8799 -7.9060 -11.3583 41.4593 -3.2559 -5.8228
# 5 -32.3268 -3.7870 -29.6031 -3.2559 24.1619 -9.7090
# 6 12.6068 8.3638 7.8859 -5.8228 -9.7090 18.9598
#
#
#
# Elastic Compliance Matrix: (Units=1/GPa)
#
#
# Indices 1 2 3 4 5 6 
#
# 1 0.021602 -0.006685 0.000264 0.004032 0.030958 0.005567
# 2 -0.006685 0.018526 -0.007460 -0.002365 -0.020198 -0.011694
# 3 0.000264 -0.007460 0.013952 0.005425 0.020898 0.009680
# 4 0.004032 -0.002365 0.005425 0.029627 0.022354 0.016652
# 5 0.030958 -0.020198 0.020898 0.022354 0.129474 0.052800
# 6 0.005567 -0.011694 0.009680 0.016652 0.052800 0.082326
#
#
# Mechanical properties :
#
#
# Convention : Reuss Voigt Hill
#
# Bulk Modulus (GPa) = 37.99688 65.32936 51.66312
# Shear Modulus (GPa) = 15.05838 29.52151 22.28994
#
# Velocity S-wave (km/s) = 2.73147 3.82452 3.32324
# Velocity P-wave (km/s) = 5.36415 7.20216 6.35001
#
# Compressibility (1/GPa) = 0.02631795
#
# Stress axis : x y z
#
# Youngs Moduli (GPa) = 46.29188 53.97798 71.67655
#
# Poissons Ratio (x) = 0.36085 -0.01892
# Poissons Ratio (y) = 0.30947 0.53468
# Poissons Ratio (z) = -0.01222 0.40266
#
# Static dielectric constant tensor:
#      x y z
#    x 1.709050 -0.004980 -0.037440 
#    y -0.004980 1.769200 -0.039840 
#    z -0.037440 -0.039840 1.804370 
# 
# From -- ./inp_files/354509.got.cif
#   From: 2010.05.17/outbox.cif.g08.bks.cpg/sg2_178_cif.got.tgz:354509.got - 2010.06.03 11:33:40.
