data_PCOD9083454
_publ_section_title
;
Structure prediction by ZEFSAII (Michael W. Deem and Ramdas Pophale) SiO2 
 PCOD9083454
Probable space group: P -1
;
_chemical_formula_sum "Si O2"
_cell_formula_units_Z 16
_cell_length_a 16.425165
_cell_length_b 25.192227
_cell_length_c 13.035698
_cell_angle_alpha 149.085124
_cell_angle_beta 23.702910
_cell_angle_gamma 160.232310
_cell_volume 733.074095
_symmetry_space_group_name_H-M "P -1"
_symmetry_group_IT_number 2
_symmetry_cell_setting 'triclinic'
loop_
_space_group_symop_operation_xyz
x,y,z
-x,-y,-z
loop_
_atom_site_type_symbol
_atom_site_label
_atom_site_fract_x
_atom_site_fract_y
_atom_site_fract_z
Si Si1 0.153340 0.521283 0.201658
Si Si2 0.048972 0.023708 0.254134
Si Si3 0.457479 0.833156 0.709414
Si Si4 0.677991 0.696776 0.720564
Si Si5 0.298802 0.215468 0.488940
Si Si6 0.180312 0.434021 0.240289
Si Si7 0.764658 0.502479 0.295147
Si Si8 0.209194 0.890462 0.949974
O O1 0.244392 0.531619 0.230284
O O2 0.897089 0.337790 0.163196
O O3 0.958339 0.552205 0.484059
O O4 0.446333 0.628009 0.967646
O O5 0.128847 0.126650 0.237236
O O6 0.116829 0.119094 0.435454
O O7 0.687141 0.859012 0.410020
O O8 0.259172 0.004448 0.002601
O O9 0.573789 0.840738 0.699471
O O10 0.455222 0.943477 0.837894
O O11 0.864114 0.660040 0.454424
O O12 0.457848 0.592088 0.703161
O O13 0.570368 0.395446 0.441630
O O14 0.075456 0.181704 0.771384
O O15 0.914665 0.252587 0.210844
O O16 0.500000 0.500000 0.000000
O O17 0.000000 0.500000 0.000000
#
# Coordination Sequence:
#
# PCOD9083454 Si02
#       8
#     2   2   2   2   2   2   2   2
#     4  10  21  37  60  85 108 145 190 237 290 328
#     4  10  22  35  52  82 120 155 185 221 276 339
#     4  10  19  34  56  79 111 146 187 234 272 324
#     4  10  22  38  53  81 119 147 184 232 276 339
#     4  10  20  33  52  83 114 147 189 230 274 329
#     4  10  20  36  61  85 107 139 192 248 285 326
#     4  10  20  34  55  80 112 153 189 226 277 332
#     4  10  20  35  56  81 111 149 190 233 281 329
#
# _framework density 21.825897999999999
#
# number of rings (size 3 to 8) (size 9 to 14) (size 15 to 20)
#    0.000    2.000    0.000    5.250    0.000    7.000 
#    0.000    0.625    0.000   10.500    0.000    0.000 
#    0.000    0.000    0.000    0.000    0.000    0.000 
#
# Total GULP energy -89180.526456 kJ/mol
# GULP energy per Si atom -5573.782904 kJ/mol
# Density = 2.177622 g / cm^3
# Si number density = 21.825898 Si / 1000 Ang^3
#
#
#
# Elastic Constant Matrix: (Units=GPa)
#
#
# Indices 1 2 3 4 5 6 
#
# 1 70.8704 23.7229 41.4018 -2.7069 -13.0753 -25.8560
# 2 23.7229 47.9496 9.2416 5.8800 4.1686 -29.7368
# 3 41.4018 9.2416 105.7827 9.3091 -19.9810 -21.8706
# 4 -2.7069 5.8800 9.3091 31.8688 -4.7975 -4.8530
# 5 -13.0753 4.1686 -19.9810 -4.7975 40.7357 0.6155
# 6 -25.8560 -29.7368 -21.8706 -4.8530 0.6155 31.3288
#
#
#
# Elastic Compliance Matrix: (Units=1/GPa)
#
#
# Indices 1 2 3 4 5 6 
#
# 1 0.025822 -0.004715 -0.006408 0.007943 0.006360 0.013469
# 2 -0.004715 0.056562 0.007696 -0.005552 -0.005002 0.054408
# 3 -0.006408 0.007696 0.014748 -0.003937 0.003750 0.011629
# 4 0.007943 -0.005552 -0.003937 0.035631 0.005323 0.003952
# 5 0.006360 -0.005002 0.003750 0.005323 0.029517 0.003364
# 6 0.013469 0.054408 0.011629 0.003952 0.003364 0.103343
#
#
# Mechanical properties :
#
#
# Convention : Reuss Voigt Hill
#
# Bulk Modulus (GPa) = 11.07654 41.48170 26.27912
# Shear Modulus (GPa) = 16.52512 30.80243 23.66378
#
# Velocity S-wave (km/s) = 2.75459 3.76077 3.29630
# Velocity P-wave (km/s) = 3.89910 6.15669 5.15305
#
# Compressibility (1/GPa) = 0.09028087
#
# Stress axis : x y z
#
# Youngs Moduli (GPa) = 38.72618 17.67958 67.80602
#
# Poissons Ratio (x) = 0.08335 0.43448
# Poissons Ratio (y) = 0.18258 -0.52186
# Poissons Ratio (z) = 0.24814 -0.13607
#
# Static dielectric constant tensor:
#      x y z
#    x 1.822800 -0.020410 -0.060440 
#    y -0.020410 1.880750 0.043030 
#    z -0.060440 0.043030 1.858910 
# 
# From -- ./inp_files/539396.got.cif
#   From: 2010.05.17/outbox.cif.g08.bks.cpg/sg2_270_cif.got.tgz:539396.got - 2010.06.03 11:33:40.
