data_PCOD9083851
_publ_section_title
;
Structure prediction by ZEFSAII (Michael W. Deem and Ramdas Pophale) SiO2 
 PCOD9083851
Probable space group: P -1
;
_chemical_formula_sum "Si O2"
_cell_formula_units_Z 14
_cell_length_a 15.977012
_cell_length_b 7.595496
_cell_length_c 10.686264
_cell_angle_alpha 23.374951
_cell_angle_beta 103.677252
_cell_angle_gamma 99.508715
_cell_volume 495.374293
_symmetry_space_group_name_H-M "P -1"
_symmetry_group_IT_number 2
_symmetry_cell_setting 'triclinic'
loop_
_space_group_symop_operation_xyz
x,y,z
-x,-y,-z
loop_
_atom_site_type_symbol
_atom_site_label
_atom_site_fract_x
_atom_site_fract_y
_atom_site_fract_z
Si Si1 0.181122 0.484176 0.746698
Si Si2 0.125959 0.631777 0.133500
Si Si3 0.704829 0.845869 0.412098
Si Si4 0.008095 0.232275 0.546331
Si Si5 0.420164 0.435503 0.246442
Si Si6 0.284277 0.831659 0.363135
Si Si7 0.528362 0.023920 0.755355
O O1 0.090141 0.801213 0.506539
O O2 0.265956 0.677432 0.596234
O O3 0.164521 0.065492 0.922247
O O4 0.207074 0.224840 0.051654
O O5 0.203831 0.221035 0.438907
O O6 0.050307 0.518335 0.272057
O O7 0.077690 0.799178 0.880115
O O8 0.647497 0.552386 0.668993
O O9 0.723275 0.588039 0.456203
O O10 0.649745 0.322346 0.041367
O O11 0.000000 0.500000 0.500000
O O12 0.479458 0.998314 0.619747
O O13 0.498614 0.716045 0.056049
O O14 0.373915 0.979855 0.252888
O O15 0.500000 0.500000 0.500000
#
# Coordination Sequence:
#
# PCOD9083851 Si02
#       7
#     2   2   2   2   2   2   2
#     4  10  18  24  30  37  43  49  55  62  68  75
#     4  10  17  23  33  37  43  49  55  62  67  76
#     4  10  17  23  30  38  44  48  57  60  70  72
#     4  10  16  25  31  37  43  49  55  61  69  74
#     4  10  18  24  29  36  45  51  54  64  66  76
#     4  11  18  23  30  36  43  49  56  62  68  74
#     4  11  19  23  31  35  44  48  58  60  70  72
#
# _framework density 28.261458000000001
#
# number of rings (size 3 to 8) (size 9 to 14) (size 15 to 20)
#    0.000    1.714    2.857    9.857    0.000    0.000 
#    0.000    0.000    0.000    0.000    0.000    0.000 
#    0.000    0.000    0.000    0.000    0.000    0.000 
#
# Total GULP energy -78102.849827 kJ/mol
# GULP energy per Si atom -5578.774988 kJ/mol
# Density = 2.819713 g / cm^3
# Si number density = 28.261458 Si / 1000 Ang^3
#
#
#
# Elastic Constant Matrix: (Units=GPa)
#
#
# Indices 1 2 3 4 5 6 
#
# 1 197.5820 -8.6145 29.0864 41.5751 19.7769 -45.7571
# 2 -8.6145 94.2641 44.5869 -20.2426 -14.4389 48.8450
# 3 29.0864 44.5869 214.0369 5.7434 -34.1558 60.7665
# 4 41.5751 -20.2426 5.7434 60.5372 21.2848 -37.0941
# 5 19.7769 -14.4389 -34.1558 21.2848 117.8758 -42.0280
# 6 -45.7571 48.8450 60.7665 -37.0941 -42.0280 196.6314
#
#
#
# Elastic Compliance Matrix: (Units=1/GPa)
#
#
# Indices 1 2 3 4 5 6 
#
# 1 0.006231 -0.000308 -0.001067 -0.003463 -0.000366 0.001125
# 2 -0.000308 0.013527 -0.002357 0.003834 -0.000403 -0.002067
# 3 -0.001067 -0.002357 0.006059 -0.002138 0.001452 -0.001629
# 4 -0.003463 0.003834 -0.002138 0.022978 -0.002775 0.002644
# 5 -0.000366 -0.000403 0.001452 -0.002775 0.009825 0.001143
# 6 0.001125 -0.002067 -0.001629 0.002644 0.001143 0.007107
#
#
# Mechanical properties :
#
#
# Convention : Reuss Voigt Hill
#
# Bulk Modulus (GPa) = 54.48640 70.66674 62.57657
# Shear Modulus (GPa) = 63.04421 104.39715 83.72068
#
# Velocity S-wave (km/s) = 4.72820 6.08440 5.44866
# Velocity P-wave (km/s) = 7.00922 8.62664 7.85964
#
# Compressibility (1/GPa) = 0.01835321
#
# Stress axis : x y z
#
# Youngs Moduli (GPa) = 160.49647 73.92379 165.03133
#
# Poissons Ratio (x) = 0.02279 0.17614
# Poissons Ratio (y) = 0.04948 0.38890
# Poissons Ratio (z) = 0.17130 0.17420
#
# Static dielectric constant tensor:
#      x y z
#    x 2.217680 -0.003980 0.111770 
#    y -0.003980 2.456480 -0.113400 
#    z 0.111770 -0.113400 2.162590 
# 
# From -- ./inp_files/544539.got.cif
#   From: 2010.05.17/outbox.cif.g08.bks.cpg/sg2_273_cif.got.tgz:544539.got - 2010.06.03 11:33:40.
