data_PCOD9083472
_publ_section_title
;
Structure prediction by ZEFSAII (Michael W. Deem and Ramdas Pophale) SiO2 
 PCOD9083472
Probable space group: P -1
;
_chemical_formula_sum "Si O2"
_cell_formula_units_Z 16
_cell_length_a 7.414446
_cell_length_b 21.221646
_cell_length_c 14.803275
_cell_angle_alpha 22.447327
_cell_angle_beta 131.343601
_cell_angle_gamma 127.495890
_cell_volume 667.703203
_symmetry_space_group_name_H-M "P -1"
_symmetry_group_IT_number 2
_symmetry_cell_setting 'triclinic'
loop_
_space_group_symop_operation_xyz
x,y,z
-x,-y,-z
loop_
_atom_site_type_symbol
_atom_site_label
_atom_site_fract_x
_atom_site_fract_y
_atom_site_fract_z
Si Si1 0.484711 0.607209 0.943060
Si Si2 0.041204 0.371980 0.265989
Si Si3 0.722435 0.786523 0.930103
Si Si4 0.199742 0.592785 0.330304
Si Si5 0.375753 0.585523 0.208162
Si Si6 0.760216 0.062494 0.706200
Si Si7 0.496402 0.254712 0.499231
Si Si8 0.021812 0.223950 0.724131
O O1 0.665234 0.739461 0.869586
O O2 0.506124 0.452621 0.224891
O O3 0.500000 0.500000 0.000000
O O4 0.227198 0.693366 0.727897
O O5 0.143623 0.494203 0.213516
O O6 0.242338 0.236753 0.486697
O O7 0.000000 0.500000 0.000000
O O8 0.500017 0.710893 0.014094
O O9 0.974362 0.694669 0.157206
O O10 0.746465 0.972545 0.725161
O O11 0.303696 0.663694 0.176942
O O12 0.423955 0.556110 0.517821
O O13 0.106014 0.409249 0.518323
O O14 0.525303 0.157061 0.543125
O O15 0.979601 0.175605 0.668506
O O16 0.806581 0.901845 0.000864
O O17 0.747449 0.207645 0.691691
#
# Coordination Sequence:
#
# PCOD9083472 Si02
#       8
#     2   2   2   2   2   2   2   2
#     4  11  22  37  63  85 109 152 210 250 288 343
#     4  10  19  34  56  81 110 149 200 243 284 339
#     4  12  20  38  62  87 117 159 197 242 308 344
#     4  11  22  34  61  91 121 150 198 257 289 350
#     4  11  22  34  58  93 119 144 202 256 293 339
#     4   9  20  31  62  85 121 157 193 226 301 373
#     4   9  18  36  56  85 111 155 193 238 289 351
#     4   9  17  35  56  88 118 161 188 233 293 359
#
# _framework density 23.962741999999999
#
# number of rings (size 3 to 8) (size 9 to 14) (size 15 to 20)
#    0.750    1.000    5.000    1.125    1.750    0.000 
#    0.000    1.250    5.500    2.250    0.000    0.000 
#    0.000    0.000    0.000    0.000    0.000    0.000 
#
# Total GULP energy -89218.612648 kJ/mol
# GULP energy per Si atom -5576.163290 kJ/mol
# Density = 2.390820 g / cm^3
# Si number density = 23.962742 Si / 1000 Ang^3
#
#
#
# Elastic Constant Matrix: (Units=GPa)
#
#
# Indices 1 2 3 4 5 6 
#
# 1 59.8267 6.8029 9.8448 -13.3269 17.0286 1.5282
# 2 6.8029 156.8726 40.4008 -6.4996 10.2583 -8.2190
# 3 9.8448 40.4008 84.6925 -19.7853 20.4755 11.4473
# 4 -13.3269 -6.4996 -19.7853 49.6392 -2.8762 5.9676
# 5 17.0286 10.2583 20.4755 -2.8762 31.6514 3.8399
# 6 1.5282 -8.2190 11.4473 5.9676 3.8399 28.8918
#
#
#
# Elastic Compliance Matrix: (Units=1/GPa)
#
#
# Indices 1 2 3 4 5 6 
#
# 1 0.021208 -0.000603 0.002406 0.006110 -0.011984 -0.001916
# 2 -0.000603 0.007740 -0.004587 -0.001492 0.000121 0.004343
# 3 0.002406 -0.004587 0.019486 0.008343 -0.010505 -0.009480
# 4 0.006110 -0.001492 0.008343 0.025685 -0.004809 -0.008719
# 5 -0.011984 0.000121 -0.010505 -0.004809 0.044370 -0.000073
# 6 -0.001916 0.004343 -0.009480 -0.008719 -0.000073 0.041515
#
#
# Mechanical properties :
#
#
# Convention : Reuss Voigt Hill
#
# Bulk Modulus (GPa) = 23.32829 46.16543 34.74686
# Shear Modulus (GPa) = 27.79918 38.32605 33.06261
#
# Velocity S-wave (km/s) = 3.40972 4.00359 3.71853
# Velocity P-wave (km/s) = 5.02573 6.37801 5.74182
#
# Compressibility (1/GPa) = 0.04286641
#
# Stress axis : x y z
#
# Youngs Moduli (GPa) = 47.15097 129.20129 51.31936
#
# Poissons Ratio (x) = 0.07789 -0.12346
# Poissons Ratio (y) = 0.02843 0.23539
# Poissons Ratio (z) = -0.11343 0.59261
#
# Static dielectric constant tensor:
#      x y z
#    x 2.109120 -0.040610 -0.086780 
#    y -0.040610 1.984680 0.007070 
#    z -0.086780 0.007070 1.962060 
# 
# From -- ./inp_files/562384.got.cif
#   From: 2010.05.17/outbox.cif.g08.bks.cpg/sg2_282_cif.got.tgz:562384.got - 2010.06.03 11:33:40.
