data_PCOD9083100
_publ_section_title
;
Structure prediction by ZEFSAII (Michael W. Deem and Ramdas Pophale) SiO2 
 PCOD9083100
Probable space group: P -1
;
_chemical_formula_sum "Si O2"
_cell_formula_units_Z 16
_cell_length_a 12.272887
_cell_length_b 15.221809
_cell_length_c 19.864005
_cell_angle_alpha 149.992950
_cell_angle_beta 26.322489
_cell_angle_gamma 149.594514
_cell_volume 758.068131
_symmetry_space_group_name_H-M "P -1"
_symmetry_group_IT_number 2
_symmetry_cell_setting 'triclinic'
loop_
_space_group_symop_operation_xyz
x,y,z
-x,-y,-z
loop_
_atom_site_type_symbol
_atom_site_label
_atom_site_fract_x
_atom_site_fract_y
_atom_site_fract_z
Si Si1 0.842066 0.966413 0.995151
Si Si2 0.639735 0.556337 0.802156
Si Si3 0.732943 0.327463 0.263765
Si Si4 0.620840 0.707964 0.336239
Si Si5 0.473924 0.447425 0.371518
Si Si6 0.881329 0.123308 0.469457
Si Si7 0.721448 0.418597 0.804512
Si Si8 0.857191 0.176396 0.363489
O O1 0.622603 0.749758 0.968006
O O2 0.063303 0.976369 0.822911
O O3 0.718272 0.118969 0.150223
O O4 0.000000 0.000000 0.000000
O O5 0.390996 0.393569 0.797030
O O6 0.768985 0.481620 0.741372
O O7 0.864533 0.639892 0.675461
O O8 0.652826 0.357956 0.253257
O O9 0.554502 0.391979 0.456800
O O10 0.032066 0.468135 0.209476
O O11 0.585751 0.553104 0.310189
O O12 0.369115 0.772891 0.513719
O O13 0.857302 0.909653 0.354889
O O14 0.180902 0.280601 0.414591
O O15 0.699226 0.201301 0.668423
O O16 0.793958 0.119727 0.437691
O O17 0.500000 0.500000 0.000000
#
# Coordination Sequence:
#
# PCOD9083100 Si02
#       8
#     2   2   2   2   2   2   2   2
#     4  10  19  33  62  94 120 160 207 256 326 369
#     4  10  21  35  61  94 128 164 206 260 330 371
#     4  10  21  41  63  89 127 177 206 255 331 370
#     4  12  21  37  63  94 126 166 210 264 316 374
#     4  10  22  43  65  87 129 173 215 255 302 403
#     4  11  23  39  63  98 123 168 216 259 323 371
#     4  11  23  36  59  98 136 156 208 274 322 380
#     4  10  20  35  61  93 125 156 216 262 312 379
#
# _framework density 21.106280999999999
#
# number of rings (size 3 to 8) (size 9 to 14) (size 15 to 20)
#    0.750    0.750    3.750    3.000    1.750    1.000 
#    0.000    9.375    0.000    2.250    0.000    0.000 
#    0.000    0.000    0.000    0.000    0.000    0.000 
#
# Total GULP energy -89226.415145 kJ/mol
# GULP energy per Si atom -5576.650947 kJ/mol
# Density = 2.105824 g / cm^3
# Si number density = 21.106281 Si / 1000 Ang^3
#
#
#
# Elastic Constant Matrix: (Units=GPa)
#
#
# Indices 1 2 3 4 5 6 
#
# 1 126.2837 35.2770 36.7936 18.0336 -16.5262 -2.7320
# 2 35.2770 90.0661 29.0054 39.2190 -0.3935 4.9579
# 3 36.7936 29.0054 81.9914 32.8612 -0.0436 5.3743
# 4 18.0336 39.2190 32.8612 40.2209 -2.6498 4.8206
# 5 -16.5262 -0.3935 -0.0436 -2.6498 30.9539 9.7664
# 6 -2.7320 4.9579 5.3743 4.8206 9.7664 18.2028
#
#
#
# Elastic Compliance Matrix: (Units=1/GPa)
#
#
# Indices 1 2 3 4 5 6 
#
# 1 0.010756 -0.004204 -0.004765 0.003563 0.005983 0.000012
# 2 -0.004204 0.021072 0.002981 -0.021427 -0.003984 0.000562
# 3 -0.004765 0.002981 0.020371 -0.017547 -0.003691 -0.000914
# 4 0.003563 -0.021427 -0.017547 0.060304 0.009824 -0.009689
# 5 0.005983 -0.003984 -0.003691 0.009824 0.043501 -0.022868
# 6 0.000012 0.000562 -0.000914 -0.009689 -0.022868 0.069891
#
#
# Mechanical properties :
#
#
# Convention : Reuss Voigt Hill
#
# Bulk Modulus (GPa) = 24.86185 55.61034 40.23610
# Shear Modulus (GPa) = 19.89832 31.02655 25.46244
#
# Velocity S-wave (km/s) = 3.07378 3.83824 3.47708
# Velocity P-wave (km/s) = 4.93988 6.78585 5.93507
#
# Compressibility (1/GPa) = 0.04022227
#
# Stress axis : x y z
#
# Youngs Moduli (GPa) = 92.97169 47.45716 49.08986
#
# Poissons Ratio (x) = 0.19952 0.23391
# Poissons Ratio (y) = 0.39088 -0.14634
# Poissons Ratio (z) = 0.44301 -0.14148
#
# Static dielectric constant tensor:
#      x y z
#    x 1.738970 0.005090 0.043010 
#    y 0.005090 1.844360 0.012120 
#    z 0.043010 0.012120 1.805070 
# 
# From -- ./inp_files/595527.got.cif
#   From: 2010.05.17/outbox.cif.g08.bks.cpg/sg2_298_cif.got.tgz:595527.got - 2010.06.03 11:33:40.
