data_PCOD9083580
_publ_section_title
;
Structure prediction by ZEFSAII (Michael W. Deem and Ramdas Pophale) SiO2 
 PCOD9083580
Probable space group: P -1
;
_chemical_formula_sum "Si O2"
_cell_formula_units_Z 14
_cell_length_a 11.664681
_cell_length_b 9.523096
_cell_length_c 8.382548
_cell_angle_alpha 107.265323
_cell_angle_beta 64.735563
_cell_angle_gamma 63.310095
_cell_volume 599.296051
_symmetry_space_group_name_H-M "P -1"
_symmetry_group_IT_number 2
_symmetry_cell_setting 'triclinic'
loop_
_space_group_symop_operation_xyz
x,y,z
-x,-y,-z
loop_
_atom_site_type_symbol
_atom_site_label
_atom_site_fract_x
_atom_site_fract_y
_atom_site_fract_z
Si Si1 0.947930 0.421672 0.633632
Si Si2 0.417528 0.806228 0.803352
Si Si3 0.646798 0.834822 0.116894
Si Si4 0.518058 0.279231 0.642771
Si Si5 0.095651 0.275327 0.816179
Si Si6 0.742685 0.368971 0.541211
Si Si7 0.189223 0.716965 0.904596
O O1 0.888119 0.320719 0.548703
O O2 0.000000 0.500000 0.500000
O O3 0.094373 0.282849 0.629558
O O4 0.786036 0.620763 0.884005
O O5 0.458274 0.760343 0.574376
O O6 0.579981 0.605436 0.721987
O O7 0.248897 0.837865 0.943466
O O8 0.397884 0.993293 0.910139
O O9 0.498739 0.848273 0.278799
O O10 0.734948 0.840497 0.222416
O O11 0.668200 0.270401 0.603852
O O12 0.336873 0.505142 0.828762
O O13 0.000000 0.500000 0.000000
O O14 0.988026 0.214754 0.910446
O O15 0.799007 0.315110 0.304467
#
# Coordination Sequence:
#
# PCOD9083580 Si02
#       7
#     2   2   2   2   2   2   2
#     4  11  23  36  57  80 108 149 185 226 269 318
#     4   9  20  33  58  87 112 138 176 228 279 317
#     4  11  21  35  57  85 111 142 183 225 271 321
#     4   9  17  34  58  84 104 143 183 222 261 322
#     4  10  19  34  57  78 104 142 194 223 254 319
#     4   9  19  35  59  82 112 139 180 223 273 328
#     4   9  16  36  58  82 103 145 188 222 260 321
#
# _framework density 23.360738999999999
#
# number of rings (size 3 to 8) (size 9 to 14) (size 15 to 20)
#    0.000    2.286    2.857    3.857    2.000    1.714 
#    0.000    0.000    0.000    4.286    0.000    0.000 
#    0.000    0.000    0.000    0.000    0.000    0.000 
#
# Total GULP energy -78259.730949 kJ/mol
# GULP energy per Si atom -5589.980782 kJ/mol
# Density = 2.330757 g / cm^3
# Si number density = 23.360739 Si / 1000 Ang^3
#
#
#
# Elastic Constant Matrix: (Units=GPa)
#
#
# Indices 1 2 3 4 5 6 
#
# 1 116.6112 34.3428 19.8649 -27.0176 12.8948 16.7305
# 2 34.3428 91.7827 20.0679 -20.4259 -18.0015 24.1616
# 3 19.8649 20.0679 49.0428 -23.3337 -6.0694 8.7246
# 4 -27.0176 -20.4259 -23.3337 32.4690 4.6693 -15.2262
# 5 12.8948 -18.0015 -6.0694 4.6693 17.8013 -12.0281
# 6 16.7305 24.1616 8.7246 -15.2262 -12.0281 30.7993
#
#
#
# Elastic Compliance Matrix: (Units=1/GPa)
#
#
# Indices 1 2 3 4 5 6 
#
# 1 0.018258 -0.007741 -0.002458 0.007584 -0.031891 -0.011854
# 2 -0.007741 0.019117 -0.001123 0.001047 0.023847 -0.000643
# 3 -0.002458 -0.001123 0.032831 0.023415 0.011861 0.009124
# 4 0.007584 0.001047 0.023415 0.064028 0.000436 0.020250
# 5 -0.031891 0.023847 0.011861 0.000436 0.141635 0.050785
# 6 -0.011854 -0.000643 0.009124 0.020250 0.050785 0.066672
#
#
# Mechanical properties :
#
#
# Convention : Reuss Voigt Hill
#
# Bulk Modulus (GPa) = 21.02510 45.10975 33.06743
# Shear Modulus (GPa) = 13.12204 28.42466 20.77335
#
# Velocity S-wave (km/s) = 2.37262 3.49201 2.98525
# Velocity P-wave (km/s) = 4.06516 5.96748 5.10570
#
# Compressibility (1/GPa) = 0.04756219
#
# Stress axis : x y z
#
# Youngs Moduli (GPa) = 54.76994 52.31028 30.45943
#
# Poissons Ratio (x) = 0.40492 0.07486
# Poissons Ratio (y) = 0.42396 0.03421
# Poissons Ratio (z) = 0.13460 0.05876
#
# Static dielectric constant tensor:
#      x y z
#    x 1.859360 -0.006220 -0.006650 
#    y -0.006220 1.911720 0.047400 
#    z -0.006650 0.047400 1.915680 
# 
# From -- ./inp_files/175391.got.cif
#   From: 2010.05.17/outbox.cif.g08.bks.cpg/sg2_88_cif.got.tgz:175391.got - 2010.06.03 11:33:40.
