data_PCOD9083479
_publ_section_title
;
Structure prediction by ZEFSAII (Michael W. Deem and Ramdas Pophale) SiO2 
 PCOD9083479
Probable space group: P -1
;
_chemical_formula_sum "Si O2"
_cell_formula_units_Z 12
_cell_length_a 7.550154
_cell_length_b 7.547473
_cell_length_c 8.690073
_cell_angle_alpha 68.816373
_cell_angle_beta 113.506617
_cell_angle_gamma 106.299857
_cell_volume 417.987260
_symmetry_space_group_name_H-M "P -1"
_symmetry_group_IT_number 2
_symmetry_cell_setting 'triclinic'
loop_
_space_group_symop_operation_xyz
x,y,z
-x,-y,-z
loop_
_atom_site_type_symbol
_atom_site_label
_atom_site_fract_x
_atom_site_fract_y
_atom_site_fract_z
Si Si1 0.379286 0.620595 0.077798
Si Si2 0.129663 0.831548 0.758686
Si Si3 0.285496 0.203382 0.524039
Si Si4 0.758877 0.885741 0.013783
Si Si5 0.361438 0.597682 0.609805
Si Si6 0.846835 0.239703 0.755132
O O1 0.549341 0.795688 0.034763
O O2 0.493666 0.439458 0.186562
O O3 0.272569 0.647124 0.197899
O O4 0.215801 0.640525 0.887543
O O5 0.911722 0.785987 0.639376
O O6 0.257430 0.985215 0.643221
O O7 0.150284 0.949821 0.885608
O O8 0.306954 0.375277 0.603613
O O9 0.479050 0.261640 0.476786
O O10 0.925755 0.750725 0.121089
O O11 0.754873 0.013793 0.819063
O O12 0.174051 0.686290 0.450959
#
# Coordination Sequence:
#
# PCOD9083479 Si02
#       6
#     2   2   2   2   2   2
#     4  11  19  35  59  82 108 146 185 221 276 326
#     4  10  20  34  55  84 109 146 187 224 269 333
#     4  10  19  34  56  82 111 144 186 225 275 322
#     4  10  20  34  57  86 105 150 185 220 273 334
#     4  11  19  35  56  83 109 148 179 230 279 318
#     4  10  19  34  56  82 113 140 186 229 263 333
#
# _framework density 28.709009999999999
#
# number of rings (size 3 to 8) (size 9 to 14) (size 15 to 20)
#    0.000    1.667    5.000    3.000    0.000    1.333 
#    0.000    0.833    0.000    3.000    0.000    0.000 
#    0.000    0.000    0.000    0.000    0.000    0.000 
#
# Total GULP energy -67063.188431 kJ/mol
# GULP energy per Si atom -5588.599036 kJ/mol
# Density = 2.864367 g / cm^3
# Si number density = 28.709010 Si / 1000 Ang^3
#
#
#
# Elastic Constant Matrix: (Units=GPa)
#
#
# Indices 1 2 3 4 5 6 
#
# 1 121.3951 29.1996 10.5155 0.7462 18.6675 -6.6256
# 2 29.1996 124.3748 25.0291 -5.6484 -8.1229 7.4705
# 3 10.5155 25.0291 230.4671 -40.2197 50.5459 -3.1916
# 4 0.7462 -5.6484 -40.2197 34.1313 4.5350 2.4812
# 5 18.6675 -8.1229 50.5459 4.5350 30.9847 -1.8744
# 6 -6.6256 7.4705 -3.1916 2.4812 -1.8744 44.6798
#
#
#
# Elastic Compliance Matrix: (Units=1/GPa)
#
#
# Indices 1 2 3 4 5 6 
#
# 1 0.011667 -0.004686 0.005091 0.007168 -0.017507 0.001745
# 2 -0.004686 0.011127 -0.005666 -0.006698 0.015847 -0.001923
# 3 0.005091 -0.005666 0.016150 0.022511 -0.034183 0.000172
# 4 0.007168 -0.006698 0.022511 0.061590 -0.051921 -0.001808
# 5 -0.017507 0.015847 -0.034183 -0.051921 0.110327 -0.000176
# 6 0.001745 -0.001923 0.000172 -0.001808 -0.000176 0.023067
#
#
# Mechanical properties :
#
#
# Convention : Reuss Voigt Hill
#
# Bulk Modulus (GPa) = 35.18369 67.30284 51.24327
# Shear Modulus (GPa) = 19.69096 49.39202 34.54149
#
# Velocity S-wave (km/s) = 2.62177 4.15231 3.47242
# Velocity P-wave (km/s) = 4.63107 6.81784 5.82794
#
# Compressibility (1/GPa) = 0.02842226
#
# Stress axis : x y z
#
# Youngs Moduli (GPa) = 85.71173 89.87259 61.92030
#
# Poissons Ratio (x) = 0.42117 -0.31525
# Poissons Ratio (y) = 0.40167 0.35082
# Poissons Ratio (z) = -0.43638 0.50919
#
# Static dielectric constant tensor:
#      x y z
#    x 2.288340 -0.110720 -0.051180 
#    y -0.110720 2.160770 -0.005810 
#    z -0.051180 -0.005810 2.404860 
# 
# From -- ./inp_files/230553.got.cif
#   From: 2010.05.17/outbox.cif.g08.bks.cpg/sg2_116_cif.got.tgz:230553.got - 2010.06.03 11:33:40.
