data_PCOD9083801
_publ_section_title
;
Structure prediction by ZEFSAII (Michael W. Deem and Ramdas Pophale) SiO2 
 PCOD9083801
Probable space group: P -1
;
_chemical_formula_sum "Si O2"
_cell_formula_units_Z 10
_cell_length_a 13.101529
_cell_length_b 6.847140
_cell_length_c 7.865413
_cell_angle_alpha 77.718815
_cell_angle_beta 33.321568
_cell_angle_gamma 79.261786
_cell_volume 378.688637
_symmetry_space_group_name_H-M "P -1"
_symmetry_group_IT_number 2
_symmetry_cell_setting 'triclinic'
loop_
_space_group_symop_operation_xyz
x,y,z
-x,-y,-z
loop_
_atom_site_type_symbol
_atom_site_label
_atom_site_fract_x
_atom_site_fract_y
_atom_site_fract_z
Si Si1 0.139065 0.716114 0.804365
Si Si2 0.555606 0.724152 0.833086
Si Si3 0.094300 0.469766 0.576848
Si Si4 0.263445 0.077724 0.731691
Si Si5 0.810304 0.120592 0.775606
O O1 0.170374 0.575876 0.626815
O O2 0.281522 0.888772 0.613933
O O3 0.099321 0.601177 0.058171
O O4 0.943026 0.827930 0.015374
O O5 0.765487 0.718336 0.620382
O O6 0.596533 0.762532 0.568086
O O7 0.500000 0.500000 0.000000
O O8 0.373111 0.862275 0.092623
O O9 0.115007 0.647874 0.378913
O O10 0.267838 0.987179 0.928281
O O11 0.000000 0.000000 0.500000
#
# Coordination Sequence:
#
# PCOD9083801 Si02
#       5
#     2   2   2   2   2
#     4   9  18  34  58  82 108 146 180 221 270 328
#     4   9  20  37  57  79 109 148 182 221 272 326
#     4   9  18  36  58  78 110 145 179 217 279 325
#     4  10  19  34  58  84 110 139 187 227 263 319
#     4  11  20  34  57  84 108 144 183 225 270 322
#
# _framework density 26.406918000000001
#
# number of rings (size 3 to 8) (size 9 to 14) (size 15 to 20)
#    0.000    2.400    2.000    0.600    0.000    0.800 
#    0.000    5.000    4.400    0.000    0.000    0.000 
#    0.000    0.000    0.000    0.000    0.000    0.000 
#
# Total GULP energy -55669.265983 kJ/mol
# GULP energy per Si atom -5566.926598 kJ/mol
# Density = 2.634681 g / cm^3
# Si number density = 26.406918 Si / 1000 Ang^3
#
#
#
# Elastic Constant Matrix: (Units=GPa)
#
#
# Indices 1 2 3 4 5 6 
#
# 1 37.5730 36.2911 29.3137 -10.4494 24.7533 -15.9173
# 2 36.2911 149.7883 62.1443 -7.8307 12.5360 -29.8210
# 3 29.3137 62.1443 135.9276 -25.6069 13.9786 -28.8617
# 4 -10.4494 -7.8307 -25.6069 75.7337 -22.3580 4.6683
# 5 24.7533 12.5360 13.9786 -22.3580 40.5489 -10.4243
# 6 -15.9173 -29.8210 -28.8617 4.6683 -10.4243 42.7236
#
#
#
# Elastic Compliance Matrix: (Units=1/GPa)
#
#
# Indices 1 2 3 4 5 6 
#
# 1 0.064972 -0.009525 -0.005725 -0.004940 -0.036073 0.005429
# 2 -0.009525 0.010230 -0.002426 -0.000005 0.004254 0.002991
# 3 -0.005725 -0.002426 0.010826 0.003377 0.003389 0.003945
# 4 -0.004940 -0.000005 0.003377 0.016998 0.011587 0.001407
# 5 -0.036073 0.004254 0.003389 0.011587 0.051382 0.003091
# 6 0.005429 0.002991 0.003945 0.001407 0.003091 0.030782
#
#
# Mechanical properties :
#
#
# Convention : Reuss Voigt Hill
#
# Bulk Modulus (GPa) = 19.73352 64.30970 42.02161
# Shear Modulus (GPa) = 21.05847 44.83723 32.94785
#
# Velocity S-wave (km/s) = 2.82700 4.12507 3.53611
# Velocity P-wave (km/s) = 4.25969 6.86254 5.71137
#
# Compressibility (1/GPa) = 0.05067519
#
# Stress axis : x y z
#
# Youngs Moduli (GPa) = 15.39118 97.75639 92.37001
#
# Poissons Ratio (x) = 0.93111 0.52886
# Poissons Ratio (y) = 0.14660 0.22409
# Poissons Ratio (z) = 0.08812 0.23716
#
# Static dielectric constant tensor:
#      x y z
#    x 2.294900 -0.011770 -0.064490 
#    y -0.011770 2.158430 0.026200 
#    z -0.064490 0.026200 2.158930 
# 
# From -- ./inp_files/144268.got.cif
#   From: 2010.05.17/outbox.cif.g08.bks.cpg/sg2_73_cif.got.tgz:144268.got - 2010.06.03 11:33:40.
