data_PCOD9083078
_publ_section_title
;
Structure prediction by ZEFSAII (Michael W. Deem and Ramdas Pophale) SiO2 
 PCOD9083078
Probable space group: P -1
;
_chemical_formula_sum "Si O2"
_cell_formula_units_Z 16
_cell_length_a 18.783864
_cell_length_b 8.317684
_cell_length_c 5.795165
_cell_angle_alpha 67.860461
_cell_angle_beta 104.106457
_cell_angle_gamma 126.607473
_cell_volume 673.012691
_symmetry_space_group_name_H-M "P -1"
_symmetry_group_IT_number 2
_symmetry_cell_setting 'triclinic'
loop_
_space_group_symop_operation_xyz
x,y,z
-x,-y,-z
loop_
_atom_site_type_symbol
_atom_site_label
_atom_site_fract_x
_atom_site_fract_y
_atom_site_fract_z
Si Si1 0.967206 0.158838 0.385736
Si Si2 0.658153 0.974957 0.674959
Si Si3 0.765659 0.561751 0.032981
Si Si4 0.513821 0.331812 0.494206
Si Si5 0.032172 0.245690 0.890666
Si Si6 0.230551 0.094638 0.481749
Si Si7 0.346291 0.353964 0.831979
Si Si8 0.396710 0.829566 0.081902
O O1 0.000601 0.274534 0.599829
O O2 0.861319 0.036258 0.384624
O O3 0.000000 0.000000 0.500000
O O4 0.998201 0.271377 0.098665
O O5 0.576559 0.893352 0.479598
O O6 0.750706 0.050820 0.584081
O O7 0.642292 0.091541 0.799916
O O8 0.640005 0.764114 0.891906
O O9 0.771827 0.727519 0.760221
O O10 0.686346 0.319165 0.067881
O O11 0.861690 0.607914 0.100433
O O12 0.734577 0.623931 0.199910
O O13 0.500000 0.500000 0.500000
O O14 0.562325 0.421475 0.240336
O O15 0.588131 0.334828 0.695909
O O16 0.000000 0.000000 0.000000
O O17 0.314025 0.209960 0.658428
O O18 0.500000 0.000000 0.000000
#
# Coordination Sequence:
#
# PCOD9083078 Si02
#       8
#     2   2   2   2   2   2   2   2
#     4  10  19  33  61  99 133 161 213 288 349 391
#     4  11  25  39  60  92 133 173 217 270 343 402
#     4  11  22  38  64  96 124 173 221 279 327 399
#     4  12  21  42  66  89 123 167 228 283 323 384
#     4  10  19  34  61  99 134 159 219 291 348 387
#     4  11  21  38  64  96 127 169 218 279 331 395
#     4  11  21  39  64  92 123 167 227 282 326 388
#     4  12  26  44  62  92 136 181 220 264 334 411
#
# _framework density 23.773696000000001
#
# number of rings (size 3 to 8) (size 9 to 14) (size 15 to 20)
#    0.000    1.000    5.000    4.500    1.750    0.000 
#    0.000    0.000    0.000    1.500    0.000    0.000 
#    0.000    0.000    0.000    0.000    0.000    0.000 
#
# Total GULP energy -89253.844357 kJ/mol
# GULP energy per Si atom -5578.365272 kJ/mol
# Density = 2.371959 g / cm^3
# Si number density = 23.773696 Si / 1000 Ang^3
#
#
#
# Elastic Constant Matrix: (Units=GPa)
#
#
# Indices 1 2 3 4 5 6 
#
# 1 145.3040 58.9356 26.5530 -3.2630 -38.7599 29.2545
# 2 58.9356 82.5315 23.4737 13.3147 -10.8616 17.3401
# 3 26.5530 23.4737 84.3102 18.1292 -19.3837 10.5276
# 4 -3.2630 13.3147 18.1292 29.8519 3.4526 -0.3283
# 5 -38.7599 -10.8616 -19.3837 3.4526 41.7122 2.2318
# 6 29.2545 17.3401 10.5276 -0.3283 2.2318 38.1773
#
#
#
# Elastic Compliance Matrix: (Units=1/GPa)
#
#
# Indices 1 2 3 4 5 6 
#
# 1 0.015283 -0.008112 0.000773 0.003257 0.012657 -0.008951
# 2 -0.008112 0.019928 -0.001281 -0.008783 -0.002087 -0.002435
# 3 0.000773 -0.001281 0.017209 -0.010963 0.009579 -0.005410
# 4 0.003257 -0.008783 -0.010963 0.045461 -0.008407 0.005399
# 5 0.012657 -0.002087 0.009579 -0.008407 0.041081 -0.013866
# 6 -0.008951 -0.002435 -0.005410 0.005399 -0.013866 0.036508
#
#
# Mechanical properties :
#
#
# Convention : Reuss Voigt Hill
#
# Bulk Modulus (GPa) = 28.42539 58.89668 43.66104
# Shear Modulus (GPa) = 24.45740 35.49385 29.97562
#
# Velocity S-wave (km/s) = 3.21091 3.86811 3.55473
# Velocity P-wave (km/s) = 5.07239 6.69159 5.93745
#
# Compressibility (1/GPa) = 0.03517981
#
# Stress axis : x y z
#
# Youngs Moduli (GPa) = 65.43213 50.18140 58.10822
#
# Poissons Ratio (x) = 0.40709 -0.04490
# Poissons Ratio (y) = 0.53081 0.07441
# Poissons Ratio (z) = -0.05056 0.06426
#
# Static dielectric constant tensor:
#      x y z
#    x 1.915940 -0.024580 -0.100130 
#    y -0.024580 1.895580 -0.036930 
#    z -0.100130 -0.036930 2.022950 
# 
# From -- ./inp_files/52956.got.cif
#   From: 2010.05.17/outbox.cif.g08.bks.cpg/sg2_27_cif.got.tgz:52956.got - 2010.06.03 11:33:40.
