data_PCOD9083404
_publ_section_title
;
Structure prediction by ZEFSAII (Michael W. Deem and Ramdas Pophale) SiO2 
 PCOD9083404
Probable space group: P -1
;
_chemical_formula_sum "Si O2"
_cell_formula_units_Z 13
_cell_length_a 13.561246
_cell_length_b 9.704174
_cell_length_c 7.205541
_cell_angle_alpha 90.818286
_cell_angle_beta 60.713342
_cell_angle_gamma 44.619609
_cell_volume 468.321871
_symmetry_space_group_name_H-M "P -1"
_symmetry_group_IT_number 2
_symmetry_cell_setting 'triclinic'
loop_
_space_group_symop_operation_xyz
x,y,z
-x,-y,-z
loop_
_atom_site_type_symbol
_atom_site_label
_atom_site_fract_x
_atom_site_fract_y
_atom_site_fract_z
Si Si1 0.562026 0.167492 0.515358
Si Si2 0.771753 0.626418 0.678208
Si Si3 0.322520 0.992504 0.189466
Si Si4 0.109041 0.782666 0.523866
Si Si5 0.736053 0.187469 0.060062
Si Si6 0.500000 0.500000 0.000000
Si Si7 0.227882 0.312524 0.756481
O O1 0.688105 0.036475 0.585949
O O2 0.334065 0.339971 0.749593
O O3 0.650694 0.947790 0.310488
O O4 0.624410 0.236035 0.338200
O O5 0.903471 0.356735 0.556946
O O6 0.755674 0.674079 0.476353
O O7 0.805726 0.742710 0.740548
O O8 0.551391 0.807066 0.949057
O O9 0.310582 0.863797 0.081709
O O10 0.335543 0.602468 0.304880
O O11 0.000000 0.000000 0.500000
O O12 0.977069 0.927203 0.837024
O O13 0.639704 0.417121 0.054921
O O14 0.000000 0.500000 0.000000
#
# Coordination Sequence:
#
# PCOD9083404 Si02
#       7
#     2   2   2   2   2   1   2
#     4  10  21  36  56  85 121 156 197 242 299 353
#     4  10  19  38  57  90 124 157 195 246 301 350
#     4  10  21  37  62  90 127 152 194 252 300 358
#     4  10  21  36  66  89 112 164 205 241 298 356
#     4  11  21  40  64  86 120 162 198 248 299 354
#     4  10  20  40  64  86 116 156 210 238 294 360
#     4  10  19  34  55  83 121 159 197 237 293 359
#
# _framework density 27.758686999999998
#
# number of rings (size 3 to 8) (size 9 to 14) (size 15 to 20)
#    0.000    1.846    3.077    0.923    2.154    0.615 
#    5.538    0.769    0.000    4.615    0.000    0.000 
#    0.000    0.000    0.000    0.000    0.000    0.000 
#
# Total GULP energy -72454.616700 kJ/mol
# GULP energy per Si atom -5573.432054 kJ/mol
# Density = 2.769551 g / cm^3
# Si number density = 27.758687 Si / 1000 Ang^3
#
#
#
# Elastic Constant Matrix: (Units=GPa)
#
#
# Indices 1 2 3 4 5 6 
#
# 1 116.7840 16.8184 35.6490 3.0437 -3.5896 22.6693
# 2 16.8184 121.1398 33.3704 2.5325 6.7724 16.8331
# 3 35.6490 33.3704 142.2762 -14.5896 -36.1000 -9.8405
# 4 3.0437 2.5325 -14.5896 57.3280 -4.9491 4.7030
# 5 -3.5896 6.7724 -36.1000 -4.9491 51.2665 -4.4205
# 6 22.6693 16.8331 -9.8405 4.7030 -4.4205 42.6975
#
#
#
# Elastic Compliance Matrix: (Units=1/GPa)
#
#
# Indices 1 2 3 4 5 6 
#
# 1 0.011223 0.000971 -0.004565 -0.001468 -0.003352 -0.007579
# 2 0.000971 0.010590 -0.004668 -0.001662 -0.005307 -0.006133
# 3 -0.004565 -0.004668 0.012862 0.003976 0.010416 0.007869
# 4 -0.001468 -0.001662 0.003976 0.018960 0.004812 0.000761
# 5 -0.003352 -0.005307 0.010416 0.004812 0.028522 0.008696
# 6 -0.007579 -0.006133 0.007869 0.000761 0.008696 0.032492
#
#
# Mechanical properties :
#
#
# Convention : Reuss Voigt Hill
#
# Bulk Modulus (GPa) = 55.09769 61.31952 58.20860
# Shear Modulus (GPa) = 36.43701 49.88255 43.15978
#
# Velocity S-wave (km/s) = 3.62696 4.24371 3.94740
# Velocity P-wave (km/s) = 6.11814 6.79340 6.46459
#
# Compressibility (1/GPa) = 0.01814958
#
# Stress axis : x y z
#
# Youngs Moduli (GPa) = 89.10403 94.43074 77.74704
#
# Poissons Ratio (x) = -0.09165 0.35491
# Poissons Ratio (y) = -0.08648 0.36295
# Poissons Ratio (z) = 0.40675 0.44083
#
# Static dielectric constant tensor:
#      x y z
#    x 2.243000 -0.048140 -0.002990 
#    y -0.048140 1.616430 -0.083340 
#    z -0.002990 -0.083340 2.221450 
# 
# From -- ./inp_files/331884.got.cif
#   From: 2010.05.17/outbox.cif.g08.bks.cpg/sg2_166_cif.got.tgz:331884.got - 2010.06.03 11:33:40.
