data_PCOD9083627
_publ_section_title
;
Structure prediction by ZEFSAII (Michael W. Deem and Ramdas Pophale) SiO2 
 PCOD9083627
Probable space group: P -1
;
_chemical_formula_sum "Si O2"
_cell_formula_units_Z 16
_cell_length_a 12.059833
_cell_length_b 18.815796
_cell_length_c 7.272008
_cell_angle_alpha 40.740027
_cell_angle_beta 128.032160
_cell_angle_gamma 132.157834
_cell_volume 778.336768
_symmetry_space_group_name_H-M "P -1"
_symmetry_group_IT_number 2
_symmetry_cell_setting 'triclinic'
loop_
_space_group_symop_operation_xyz
x,y,z
-x,-y,-z
loop_
_atom_site_type_symbol
_atom_site_label
_atom_site_fract_x
_atom_site_fract_y
_atom_site_fract_z
Si Si1 0.451499 0.001049 0.663734
Si Si2 0.790906 0.903629 0.647313
Si Si3 0.780021 0.128851 0.761665
Si Si4 0.864665 0.683882 0.698459
Si Si5 0.776803 0.249376 0.146346
Si Si6 0.156170 0.495921 0.250666
Si Si7 0.130285 0.073328 0.747092
Si Si8 0.895343 0.702250 0.114556
O O1 0.344476 0.863843 0.859493
O O2 0.500000 0.000000 0.500000
O O3 0.352230 0.077213 0.454540
O O4 0.614069 0.062566 0.811364
O O5 0.801924 0.912829 0.418032
O O6 0.806175 0.780210 0.948373
O O7 0.946992 0.009243 0.668047
O O8 0.769662 0.214900 0.422248
O O9 0.925706 0.204306 0.887127
O O10 0.817770 0.022489 0.918563
O O11 0.784647 0.567854 0.720895
O O12 0.826670 0.796533 0.384462
O O13 0.048468 0.724593 0.781578
O O14 0.837622 0.662619 0.928641
O O15 0.747078 0.368550 0.862108
O O16 0.119900 0.407233 0.558954
O O17 0.000000 0.500000 0.000000
#
# Coordination Sequence:
#
# PCOD9083627 Si02
#       8
#     2   2   2   2   2   2   2   2
#     4  10  21  35  53  79 118 155 177 224 287 341
#     4   9  18  34  53  80 115 141 186 234 276 334
#     4  10  20  34  54  84 115 144 182 221 288 339
#     4  10  19  34  57  82 113 141 182 237 282 321
#     4  10  20  36  50  81 118 145 185 232 275 333
#     4  10  20  35  54  84 114 141 189 242 271 323
#     4   9  18  32  55  83 108 143 186 237 278 328
#     4  10  20  36  59  88 107 144 189 233 287 323
#
# _framework density 20.556654000000002
#
# number of rings (size 3 to 8) (size 9 to 14) (size 15 to 20)
#    0.000    2.250    3.750    0.750    0.000    5.000 
#    0.000    0.000    0.000    6.750    0.000    8.750 
#    0.000    0.000    0.000    0.000    0.000    0.000 
#
# Total GULP energy -89281.814996 kJ/mol
# GULP energy per Si atom -5580.113437 kJ/mol
# Density = 2.050987 g / cm^3
# Si number density = 20.556654 Si / 1000 Ang^3
#
#
#
# Elastic Constant Matrix: (Units=GPa)
#
#
# Indices 1 2 3 4 5 6 
#
# 1 68.6176 5.4966 -15.4612 -5.3410 7.7966 32.9353
# 2 5.4966 32.3538 -15.8396 -16.5182 -4.4414 36.8853
# 3 -15.4612 -15.8396 9.8367 -38.2529 -22.8201 82.9746
# 4 -5.3410 -16.5182 -38.2529 29.6042 -6.5896 3.2923
# 5 7.7966 -4.4414 -22.8201 -6.5896 22.8535 27.2369
# 6 32.9353 36.8853 82.9746 3.2923 27.2369 -40.0977
#
#
#
# Elastic Compliance Matrix: (Units=1/GPa)
#
#
# Indices 1 2 3 4 5 6 
#
# 1 0.015888 -0.004989 -0.002282 -0.004376 -0.007713 -0.001860
# 2 -0.004989 0.024757 -0.005274 0.004614 -0.003937 0.005466
# 3 -0.002282 -0.005274 0.009697 0.007212 -0.002812 0.012022
# 4 -0.004376 0.004614 0.007212 0.042693 -0.000463 0.018766
# 5 -0.007713 -0.003937 -0.002812 -0.000463 0.034003 0.007282
# 6 -0.001860 0.005466 0.012022 0.018766 0.007282 0.009926
#
#
# Mechanical properties :
#
#
# Convention : Reuss Voigt Hill
#
# Bulk Modulus (GPa) = 39.60152 6.57773 23.08962
# Shear Modulus (GPa) = 29.33057 11.57950 20.45504
#
# Velocity S-wave (km/s) = 3.78142 2.37596 3.15787
# Velocity P-wave (km/s) = 6.19451 3.27623 4.95508
#
# Compressibility (1/GPa) = 0.02525156
#
# Stress axis : x y z
#
# Youngs Moduli (GPa) = 62.94240 40.39233 103.12553
#
# Poissons Ratio (x) = 0.20151 0.23533
# Poissons Ratio (y) = 0.31400 0.54392
# Poissons Ratio (z) = 0.14363 0.21304
#
# Static dielectric constant tensor:
#      x y z
#    x 1.762080 -0.022450 -0.018950 
#    y -0.022450 1.763410 0.013280 
#    z -0.018950 0.013280 1.770560 
# 
# From -- ./inp_files/282644.got.cif
#   From: 2010.05.17/outbox.cif.g08.bks.cpg/sg2_142_cif.got.tgz:282644.got - 2010.06.03 11:33:40.
