data_PCOD9083937
_publ_section_title
;
Structure prediction by ZEFSAII (Michael W. Deem and Ramdas Pophale) SiO2 
 PCOD9083937
Probable space group: P -1
;
_chemical_formula_sum "Si O2"
_cell_formula_units_Z 14
_cell_length_a 17.067404
_cell_length_b 11.265011
_cell_length_c 12.004632
_cell_angle_alpha 31.695195
_cell_angle_beta 28.823204
_cell_angle_gamma 30.749656
_cell_volume 522.116340
_symmetry_space_group_name_H-M "P -1"
_symmetry_group_IT_number 2
_symmetry_cell_setting 'triclinic'
loop_
_space_group_symop_operation_xyz
x,y,z
-x,-y,-z
loop_
_atom_site_type_symbol
_atom_site_label
_atom_site_fract_x
_atom_site_fract_y
_atom_site_fract_z
Si Si1 0.561009 0.305560 0.386668
Si Si2 0.859829 0.833574 0.533354
Si Si3 0.678749 0.657617 0.076462
Si Si4 0.888955 0.239479 0.331136
Si Si5 0.852543 0.154126 0.968373
Si Si6 0.636169 0.956631 0.261734
Si Si7 0.711937 0.045408 0.875034
O O1 0.546767 0.539106 0.293327
O O2 0.666531 0.314935 0.136180
O O3 0.702048 0.045106 0.483343
O O4 0.390110 0.260260 0.599887
O O5 0.898490 0.993847 0.451983
O O6 0.792215 0.661117 0.823560
O O7 0.051433 0.705706 0.331573
O O8 0.798011 0.457718 0.180424
O O9 0.618428 0.925951 0.001518
O O10 0.092601 0.183884 0.151392
O O11 0.779370 0.231913 0.583960
O O12 0.812001 0.958656 0.098699
O O13 0.000000 0.000000 0.000000
O O14 0.500000 0.000000 0.500000
O O15 0.604037 0.144307 0.046147
#
# Coordination Sequence:
#
# PCOD9083937 Si02
#       7
#     2   2   2   2   2   2   2
#     4   9  20  35  55  82 120 152 188 228 282 345
#     4   9  17  34  59  82 114 151 193 237 275 329
#     4  10  20  34  56  88 117 146 191 234 287 335
#     4   9  18  34  56  89 114 147 189 241 284 325
#     4   9  17  34  61  82 106 152 194 235 279 326
#     4  10  20  37  61  84 113 156 189 227 288 343
#     4  10  19  34  59  84 119 148 187 237 284 335
#
# _framework density 26.813945
#
# number of rings (size 3 to 8) (size 9 to 14) (size 15 to 20)
#    0.000    2.571    1.429    0.429    0.000    1.143 
#    0.000    7.857    0.000    9.429    0.000    0.000 
#    0.000    0.000    0.000    0.000    0.000    0.000 
#
# Total GULP energy -78190.153061 kJ/mol
# GULP energy per Si atom -5585.010933 kJ/mol
# Density = 2.675292 g / cm^3
# Si number density = 26.813945 Si / 1000 Ang^3
#
#
#
# Elastic Constant Matrix: (Units=GPa)
#
#
# Indices 1 2 3 4 5 6 
#
# 1 191.4357 40.1661 78.6758 -8.0993 -33.2979 9.4998
# 2 40.1661 40.6459 50.8396 -5.9225 5.8305 -4.1243
# 3 78.6758 50.8396 217.7862 31.5442 17.9105 6.6921
# 4 -8.0993 -5.9225 31.5442 42.4409 20.1745 3.7546
# 5 -33.2979 5.8305 17.9105 20.1745 75.5022 2.9011
# 6 9.4998 -4.1243 6.6921 3.7546 2.9011 34.7455
#
#
#
# Elastic Compliance Matrix: (Units=1/GPa)
#
#
# Indices 1 2 3 4 5 6 
#
# 1 0.008422 -0.007437 -0.001564 -0.000291 0.004863 -0.003259
# 2 -0.007437 0.050996 -0.011293 0.017877 -0.009667 0.009137
# 3 -0.001564 -0.011293 0.009066 -0.008653 0.000411 -0.001758
# 4 -0.000291 0.017877 -0.008653 0.036802 -0.009316 0.000669
# 5 0.004863 -0.009667 0.000411 -0.009316 0.018647 -0.003106
# 6 -0.003259 0.009137 -0.001758 0.000669 -0.003106 0.031282
#
#
# Mechanical properties :
#
#
# Convention : Reuss Voigt Hill
#
# Bulk Modulus (GPa) = 35.84691 87.69232 61.76961
# Shear Modulus (GPa) = 24.37822 49.21681 36.79751
#
# Velocity S-wave (km/s) = 3.01850 4.28891 3.70851
# Velocity P-wave (km/s) = 5.05433 7.56977 6.43613
#
# Compressibility (1/GPa) = 0.02789641
#
# Stress axis : x y z
#
# Youngs Moduli (GPa) = 118.73606 19.60944 110.29877
#
# Poissons Ratio (x) = 0.14584 0.17250
# Poissons Ratio (y) = 0.88306 1.24558
# Poissons Ratio (z) = 0.18569 0.22145
#
# Static dielectric constant tensor:
#      x y z
#    x 2.080950 -0.007820 0.052890 
#    y -0.007820 2.197350 0.035730 
#    z 0.052890 0.035730 2.115970 
# 
# From -- ./inp_files/464991.got.cif
#   From: 2010.05.17/outbox.cif.g08.bks.cpg/sg2_233_cif.got.tgz:464991.got - 2010.06.03 11:33:40.
