data_PCOD9083246
_publ_section_title
;
Structure prediction by ZEFSAII (Michael W. Deem and Ramdas Pophale) SiO2 
 PCOD9083246
Probable space group: P -1
;
_chemical_formula_sum "Si O2"
_cell_formula_units_Z 16
_cell_length_a 16.538825
_cell_length_b 9.590814
_cell_length_c 8.685823
_cell_angle_alpha 122.057992
_cell_angle_beta 42.906987
_cell_angle_gamma 108.922519
_cell_volume 789.975126
_symmetry_space_group_name_H-M "P -1"
_symmetry_group_IT_number 2
_symmetry_cell_setting 'triclinic'
loop_
_space_group_symop_operation_xyz
x,y,z
-x,-y,-z
loop_
_atom_site_type_symbol
_atom_site_label
_atom_site_fract_x
_atom_site_fract_y
_atom_site_fract_z
Si Si1 0.700062 0.353808 0.439912
Si Si2 0.626349 0.920137 0.497860
Si Si3 0.054612 0.581011 0.828209
Si Si4 0.881894 0.608810 0.671826
Si Si5 0.098483 0.128479 0.963328
Si Si6 0.349698 0.547489 0.092750
Si Si7 0.539583 0.627127 0.647385
Si Si8 0.492201 0.200644 0.700683
O O1 0.839050 0.319830 0.198593
O O2 0.689205 0.357725 0.642572
O O3 0.645876 0.524962 0.537023
O O4 0.610544 0.221368 0.445171
O O5 0.585021 0.785407 0.594872
O O6 0.601214 0.862922 0.323974
O O7 0.533654 0.086975 0.720572
O O8 0.767689 0.936488 0.319841
O O9 0.113408 0.437587 0.544001
O O10 0.955726 0.708236 0.958785
O O11 0.000000 0.500000 0.000000
O O12 0.887412 0.793600 0.838412
O O13 0.767445 0.528063 0.852042
O O14 0.000000 0.500000 0.500000
O O15 0.000000 0.000000 0.000000
O O16 0.422556 0.648538 0.932293
O O17 0.436877 0.384744 0.925440
O O18 0.500000 0.500000 0.500000
#
# Coordination Sequence:
#
# PCOD9083246 Si02
#       8
#     2   2   2   2   2   2   2   2
#     4  10  20  36  57  83 115 148 189 230 291 349
#     4  11  21  33  55  85 116 147 189 237 281 339
#     4  10  21  37  61  87 114 149 194 250 288 335
#     4   9  19  37  59  83 113 154 197 236 283 347
#     4  11  21  38  60  83 115 161 199 231 284 351
#     4  10  19  36  58  81 115 151 185 232 289 344
#     4  11  18  32  54  84 110 141 187 233 273 331
#     4  10  19  34  53  82 116 147 185 225 292 340
#
# _framework density 20.253800999999999
#
# number of rings (size 3 to 8) (size 9 to 14) (size 15 to 20)
#    0.000    1.750    3.750    3.000    0.000    1.000 
#    0.000    3.125    0.000    7.500    0.000    0.000 
#    0.000    0.000    0.000    0.000    0.000    0.000 
#
# Total GULP energy -89099.668830 kJ/mol
# GULP energy per Si atom -5568.729302 kJ/mol
# Density = 2.020770 g / cm^3
# Si number density = 20.253801 Si / 1000 Ang^3
#
#
#
# Elastic Constant Matrix: (Units=GPa)
#
#
# Indices 1 2 3 4 5 6 
#
# 1 96.1257 35.4019 31.8971 -17.0646 -24.1836 8.8810
# 2 35.4019 113.3278 37.4602 -23.1178 -3.3308 -5.3973
# 3 31.8971 37.4602 77.8051 -23.8358 -14.2103 0.0753
# 4 -17.0646 -23.1178 -23.8358 26.5312 5.7964 2.9590
# 5 -24.1836 -3.3308 -14.2103 5.7964 41.1543 -0.9093
# 6 8.8810 -5.3973 0.0753 2.9590 -0.9093 38.3870
#
#
#
# Elastic Compliance Matrix: (Units=1/GPa)
#
#
# Indices 1 2 3 4 5 6 
#
# 1 0.015211 -0.003225 -0.002151 0.003904 0.007294 -0.004097
# 2 -0.003225 0.012123 -0.003184 0.006029 -0.002820 0.001925
# 3 -0.002151 -0.003184 0.019910 0.013068 0.003492 -0.000914
# 4 0.003904 0.006029 0.013068 0.057917 -0.000964 -0.004568
# 5 0.007294 -0.002820 0.003492 -0.000964 0.029670 -0.001314
# 6 -0.004097 0.001925 -0.000914 -0.004568 -0.001314 0.027592
#
#
# Mechanical properties :
#
#
# Convention : Reuss Voigt Hill
#
# Bulk Modulus (GPa) = 33.19721 55.19746 44.19733
# Shear Modulus (GPa) = 26.37362 33.38113 29.87737
#
# Velocity S-wave (km/s) = 3.61246 4.06413 3.84493
# Velocity P-wave (km/s) = 5.81601 7.02389 6.44829
#
# Compressibility (1/GPa) = 0.03012302
#
# Stress axis : x y z
#
# Youngs Moduli (GPa) = 65.74056 82.48976 50.22692
#
# Poissons Ratio (x) = 0.26603 0.10804
# Poissons Ratio (y) = 0.21202 0.15994
# Poissons Ratio (z) = 0.14141 0.26267
#
# Static dielectric constant tensor:
#      x y z
#    x 1.805060 0.094060 0.005790 
#    y 0.094060 1.986220 0.041670 
#    z 0.005790 0.041670 1.755400 
# 
# From -- ./inp_files/279636.got.cif
#   From: 2010.05.17/outbox.cif.g08.bks.cpg/sg2_140_cif.got.tgz:279636.got - 2010.06.03 11:33:40.
