data_PCOD9083277
_publ_section_title
;
Structure prediction by ZEFSAII (Michael W. Deem and Ramdas Pophale) SiO2 
 PCOD9083277
Probable space group: P -1
;
_chemical_formula_sum "Si O2"
_cell_formula_units_Z 14
_cell_length_a 14.216168
_cell_length_b 10.907809
_cell_length_c 23.787765
_cell_angle_alpha 28.373689
_cell_angle_beta 19.527470
_cell_angle_gamma 28.575833
_cell_volume 557.450775
_symmetry_space_group_name_H-M "P -1"
_symmetry_group_IT_number 2
_symmetry_cell_setting 'triclinic'
loop_
_space_group_symop_operation_xyz
x,y,z
-x,-y,-z
loop_
_atom_site_type_symbol
_atom_site_label
_atom_site_fract_x
_atom_site_fract_y
_atom_site_fract_z
Si Si1 0.213754 0.958808 0.564731
Si Si2 0.706934 0.872564 0.659745
Si Si3 0.622318 0.353966 0.592556
Si Si4 0.195613 0.369205 0.108470
Si Si5 0.851227 0.218594 0.947107
Si Si6 0.237297 0.948839 0.129489
Si Si7 0.095379 0.207024 0.997071
O O1 0.464480 0.675861 0.550563
O O2 0.963123 0.859765 0.714070
O O3 0.335889 0.125500 0.383902
O O4 0.019682 0.111570 0.664948
O O5 0.494891 0.742123 0.865385
O O6 0.044117 0.722972 0.544336
O O7 0.619114 0.185362 0.604959
O O8 0.425497 0.226604 0.795102
O O9 0.085306 0.557323 0.039018
O O10 0.089458 0.520135 0.166059
O O11 0.548670 0.269269 0.944348
O O12 0.946615 0.064497 0.897539
O O13 0.000000 0.000000 0.000000
O O14 0.500000 0.000000 0.000000
O O15 0.059192 0.192673 0.090015
#
# Coordination Sequence:
#
# PCOD9083277 Si02
#       7
#     2   2   2   2   2   2   2
#     4  10  20  33  54  80 107 136 173 218 260 308
#     4  10  19  34  54  77 106 135 172 220 264 310
#     4   9  18  31  52  79 104 136 175 216 265 305
#     4   9  19  35  55  80 106 140 179 215 262 310
#     4   9  19  37  58  79 105 139 175 218 270 313
#     4  10  20  32  52  81 109 140 178 214 258 312
#     4   9  18  34  54  80 110 137 174 222 261 308
#
# _framework density 25.114322999999999
#
# number of rings (size 3 to 8) (size 9 to 14) (size 15 to 20)
#    0.000    2.571    0.000    3.000    0.000    6.857 
#    0.000    3.571    0.000    4.286    0.000    0.000 
#    0.000    0.000    0.000    0.000    0.000    0.000 
#
# Total GULP energy -78167.957501 kJ/mol
# GULP energy per Si atom -5583.425536 kJ/mol
# Density = 2.505716 g / cm^3
# Si number density = 25.114323 Si / 1000 Ang^3
#
#
#
# Elastic Constant Matrix: (Units=GPa)
#
#
# Indices 1 2 3 4 5 6 
#
# 1 94.3984 12.5320 3.3178 -6.8899 15.1144 -25.6266
# 2 12.5320 67.3812 8.8662 14.9398 -7.5564 -10.3589
# 3 3.3178 8.8662 74.7003 8.3930 12.5697 -10.1635
# 4 -6.8899 14.9398 8.3930 31.7908 -5.8041 -8.0812
# 5 15.1144 -7.5564 12.5697 -5.8041 44.3684 0.6510
# 6 -25.6266 -10.3589 -10.1635 -8.0812 0.6510 29.4105
#
#
#
# Elastic Compliance Matrix: (Units=1/GPa)
#
#
# Indices 1 2 3 4 5 6 
#
# 1 0.017051 -0.003303 0.002067 0.007817 -0.006179 0.016693
# 2 -0.003303 0.017917 -0.001612 -0.007895 0.003591 0.000627
# 3 0.002067 -0.001612 0.015559 -0.002415 -0.005792 0.006075
# 4 0.007817 -0.007895 -0.002415 0.041548 0.001898 0.014570
# 5 -0.006179 0.003591 -0.005792 0.001898 0.027235 -0.006202
# 6 0.016693 0.000627 0.006075 0.014570 -0.006202 0.055007
#
#
# Mechanical properties :
#
#
# Convention : Reuss Voigt Hill
#
# Bulk Modulus (GPa) = 22.30583 31.76801 27.03692
# Shear Modulus (GPa) = 25.64683 35.23154 30.43919
#
# Velocity S-wave (km/s) = 3.19909 3.74952 3.48519
# Velocity P-wave (km/s) = 4.74833 5.60554 5.19464
#
# Compressibility (1/GPa) = 0.04483134
#
# Stress axis : x y z
#
# Youngs Moduli (GPa) = 58.64849 55.81294 64.27238
#
# Poissons Ratio (x) = 0.18436 -0.13287
# Poissons Ratio (y) = 0.19372 0.10360
# Poissons Ratio (z) = -0.12125 0.08996
#
# Static dielectric constant tensor:
#      x y z
#    x 2.038870 0.012930 0.032680 
#    y 0.012930 2.138450 -0.004640 
#    z 0.032680 -0.004640 2.006040 
# 
# From -- ./inp_files/247934.got.cif
#   From: 2010.05.17/outbox.cif.g08.bks.cpg/sg2_124_cif.got.tgz:247934.got - 2010.06.03 11:33:40.
