data_PCOD9083306
_publ_section_title
;
Structure prediction by ZEFSAII (Michael W. Deem and Ramdas Pophale) SiO2 
 PCOD9083306
Probable space group: P -1
;
_chemical_formula_sum "Si O2"
_cell_formula_units_Z 12
_cell_length_a 9.315357
_cell_length_b 9.452188
_cell_length_c 6.896343
_cell_angle_alpha 77.105402
_cell_angle_beta 72.605899
_cell_angle_gamma 121.099721
_cell_volume 440.025384
_symmetry_space_group_name_H-M "P -1"
_symmetry_group_IT_number 2
_symmetry_cell_setting 'triclinic'
loop_
_space_group_symop_operation_xyz
x,y,z
-x,-y,-z
loop_
_atom_site_type_symbol
_atom_site_label
_atom_site_fract_x
_atom_site_fract_y
_atom_site_fract_z
Si Si1 0.927305 0.272495 0.304197
Si Si2 0.542006 0.053981 0.695315
Si Si3 0.472057 0.439245 0.305229
Si Si4 0.722143 0.345350 0.048592
Si Si5 0.303411 0.161606 0.948292
Si Si6 0.914124 0.921360 0.319705
O O1 0.770936 0.212034 0.552469
O O2 0.850727 0.307244 0.128855
O O3 0.925267 0.099577 0.311918
O O4 0.133263 0.472868 0.195262
O O5 0.422523 0.118951 0.789722
O O6 0.500000 0.000000 0.500000
O O7 0.451114 0.859661 0.900993
O O8 0.500000 0.500000 0.500000
O O9 0.614325 0.391716 0.219950
O O10 0.552074 0.627494 0.098533
O O11 0.249565 0.255535 0.430725
O O12 0.169761 0.156139 0.838002
O O13 0.135423 0.001659 0.205502
#
# Coordination Sequence:
#
# PCOD9083306 Si02
#       6
#     2   2   2   2   2   2
#     4  10  16  23  31  35  40  49  55  59  66  73
#     4  10  16  25  29  35  43  48  52  62  66  72
#     4  10  17  22  30  36  41  48  54  60  67  72
#     4  10  17  22  30  36  40  48  56  59  65  74
#     4  10  18  23  28  37  43  45  55  61  66  72
#     4  10  16  23  30  35  42  48  53  61  67  71
#
# _framework density 27.271152000000001
#
# number of rings (size 3 to 8) (size 9 to 14) (size 15 to 20)
#    0.000    2.000    6.667    3.000    0.000    1.333 
#    0.000    0.000    0.000    0.000    0.000    0.000 
#    0.000    0.000    0.000    0.000    0.000    0.000 
#
# Total GULP energy -67175.673774 kJ/mol
# GULP energy per Si atom -5597.972815 kJ/mol
# Density = 2.720908 g / cm^3
# Si number density = 27.271152 Si / 1000 Ang^3
#
#
#
# Elastic Constant Matrix: (Units=GPa)
#
#
# Indices 1 2 3 4 5 6 
#
# 1 75.9749 37.1515 59.6042 2.3748 -8.4158 2.3136
# 2 37.1515 165.1436 78.9397 -30.5037 -40.2915 -16.6437
# 3 59.6042 78.9397 229.2958 -60.8592 -77.7168 -6.4751
# 4 2.3748 -30.5037 -60.8592 63.6586 8.1341 -4.3481
# 5 -8.4158 -40.2915 -77.7168 8.1341 69.1153 4.8157
# 6 2.3136 -16.6437 -6.4751 -4.3481 4.8157 50.0780
#
#
#
# Elastic Compliance Matrix: (Units=1/GPa)
#
#
# Indices 1 2 3 4 5 6 
#
# 1 0.025521 -0.005899 -0.013122 -0.014999 -0.012980 -0.004891
# 2 -0.005899 0.009376 0.002161 0.006235 0.006192 0.003614
# 3 -0.013122 0.002161 0.016970 0.015847 0.016650 0.003294
# 4 -0.014999 0.006235 0.015847 0.032870 0.015327 0.006194
# 5 -0.012980 0.006192 0.016650 0.015327 0.033211 0.002948
# 6 -0.004891 0.003614 0.003294 0.006194 0.002948 0.022076
#
#
# Mechanical properties :
#
#
# Convention : Reuss Voigt Hill
#
# Bulk Modulus (GPa) = 55.10320 91.31170 73.20745
# Shear Modulus (GPa) = 27.80953 56.21831 42.01392
#
# Velocity S-wave (km/s) = 3.19680 4.54525 3.92931
# Velocity P-wave (km/s) = 5.82028 7.81673 6.89119
#
# Compressibility (1/GPa) = 0.01814777
#
# Stress axis : x y z
#
# Youngs Moduli (GPa) = 39.18287 106.65527 58.92601
#
# Poissons Ratio (x) = 0.62920 0.77322
# Poissons Ratio (y) = 0.23116 -0.12735
# Poissons Ratio (z) = 0.51415 -0.23051
#
# Static dielectric constant tensor:
#      x y z
#    x 2.250260 0.004360 0.013470 
#    y 0.004360 2.073480 -0.084720 
#    z 0.013470 -0.084720 2.248510 
# 
# From -- ./inp_files/247203.got.cif
#   From: 2010.05.17/outbox.cif.g08.bks.cpg/sg2_124_cif.got.tgz:247203.got - 2010.06.03 11:33:40.
