data_PCOD9083634
_publ_section_title
;
Structure prediction by ZEFSAII (Michael W. Deem and Ramdas Pophale) SiO2 
 PCOD9083634
Probable space group: P -1
;
_chemical_formula_sum "Si O2"
_cell_formula_units_Z 16
_cell_length_a 4.971908
_cell_length_b 17.549431
_cell_length_c 15.642419
_cell_angle_alpha 150.687293
_cell_angle_beta 105.109597
_cell_angle_gamma 81.958766
_cell_volume 633.978551
_symmetry_space_group_name_H-M "P -1"
_symmetry_group_IT_number 2
_symmetry_cell_setting 'triclinic'
loop_
_space_group_symop_operation_xyz
x,y,z
-x,-y,-z
loop_
_atom_site_type_symbol
_atom_site_label
_atom_site_fract_x
_atom_site_fract_y
_atom_site_fract_z
Si Si1 0.234977 0.862584 0.337174
Si Si2 0.720072 0.175534 0.946654
Si Si3 0.864443 0.906644 0.977100
Si Si4 0.799255 0.409173 0.820398
Si Si5 0.003524 0.774448 0.606182
Si Si6 0.482154 0.344778 0.406387
Si Si7 0.281574 0.576657 0.931502
Si Si8 0.898700 0.998372 0.306385
O O1 0.195987 0.772219 0.336478
O O2 0.985514 0.940027 0.350286
O O3 0.500000 0.000000 0.500000
O O4 0.316066 0.724930 0.146001
O O5 0.439288 0.044240 0.778285
O O6 0.960850 0.129744 0.860354
O O7 0.653762 0.342346 0.075386
O O8 0.886377 0.180337 0.052988
O O9 0.595155 0.789646 0.805174
O O10 0.833887 0.050772 0.177563
O O11 0.000000 0.000000 0.000000
O O12 0.499373 0.461269 0.854422
O O13 0.963469 0.482033 0.821705
O O14 0.000000 0.500000 0.000000
O O15 0.222635 0.659256 0.526600
O O16 0.746171 0.707286 0.584988
O O17 0.959749 0.832639 0.561289
O O18 0.500000 0.500000 0.500000
#
# Coordination Sequence:
#
# PCOD9083634 Si02
#       8
#     2   2   2   2   2   2   2   2
#     4  10  21  37  58  86 112 143 187 235 279 332
#     4  10  19  34  57  83 108 143 189 233 268 321
#     4   9  19  35  59  85 108 143 192 230 263 322
#     4  10  19  36  56  76 105 144 182 223 271 328
#     4  10  20  38  59  80 110 152 190 226 268 329
#     4  11  22  37  57  86 118 148 179 227 283 329
#     4  10  20  37  56  78 109 147 182 223 277 329
#     4  10  20  36  56  82 111 144 183 231 280 322
#
# _framework density 25.237445000000001
#
# number of rings (size 3 to 8) (size 9 to 14) (size 15 to 20)
#    0.000    2.000    0.000    6.750    0.000    4.000 
#    0.000   18.125    0.000    0.000    0.000    0.000 
#    0.000    0.000    0.000    0.000    0.000    0.000 
#
# Total GULP energy -89245.124565 kJ/mol
# GULP energy per Si atom -5577.820285 kJ/mol
# Density = 2.518000 g / cm^3
# Si number density = 25.237445 Si / 1000 Ang^3
#
#
#
# Elastic Constant Matrix: (Units=GPa)
#
#
# Indices 1 2 3 4 5 6 
#
# 1 105.1973 40.3298 11.2384 7.5336 8.1932 -6.3641
# 2 40.3298 196.1092 12.9509 36.2168 2.9361 -2.2252
# 3 11.2384 12.9509 76.8423 19.3244 0.6975 7.2494
# 4 7.5336 36.2168 19.3244 45.0243 -0.9019 4.9486
# 5 8.1932 2.9361 0.6975 -0.9019 23.9198 10.5923
# 6 -6.3641 -2.2252 7.2494 4.9486 10.5923 44.8363
#
#
#
# Elastic Compliance Matrix: (Units=1/GPa)
#
#
# Indices 1 2 3 4 5 6 
#
# 1 0.010991 -0.002072 -0.001497 0.000067 -0.004706 0.002804
# 2 -0.002072 0.006458 0.000446 -0.005124 -0.000580 0.000657
# 3 -0.001497 0.000446 0.014924 -0.006271 0.000707 -0.002078
# 4 0.000067 -0.005124 -0.006271 0.029438 0.003347 -0.003271
# 5 -0.004706 -0.000580 0.000707 0.003347 0.049272 -0.012821
# 6 0.002804 0.000657 -0.002078 -0.003271 -0.012821 0.026460
#
#
# Mechanical properties :
#
#
# Convention : Reuss Voigt Hill
#
# Bulk Modulus (GPa) = 38.27209 56.35412 47.31310
# Shear Modulus (GPa) = 32.78713 43.66472 38.22593
#
# Velocity S-wave (km/s) = 3.60828 4.16403 3.89607
# Velocity P-wave (km/s) = 5.70590 6.74514 6.24717
#
# Compressibility (1/GPa) = 0.02612870
#
# Stress axis : x y z
#
# Youngs Moduli (GPa) = 90.97998 154.84413 67.00539
#
# Poissons Ratio (x) = 0.32079 0.10031
# Poissons Ratio (y) = 0.18848 -0.02991
# Poissons Ratio (z) = 0.13621 -0.06911
#
# Static dielectric constant tensor:
#      x y z
#    x 1.946960 0.105990 -0.075530 
#    y 0.105990 2.258000 -0.112570 
#    z -0.075530 -0.112570 2.095800 
# 
# From -- ./inp_files/550472.got.cif
#   From: 2010.05.17/outbox.cif.g08.bks.cpg/sg2_276_cif.got.tgz:550472.got - 2010.06.03 11:33:40.
