data_PCOD9083484
_publ_section_title
;
Structure prediction by ZEFSAII (Michael W. Deem and Ramdas Pophale) SiO2 
 PCOD9083484
Probable space group: P -1
;
_chemical_formula_sum "Si O2"
_cell_formula_units_Z 16
_cell_length_a 7.353028
_cell_length_b 7.747826
_cell_length_c 19.664477
_cell_angle_alpha 65.002144
_cell_angle_beta 116.872349
_cell_angle_gamma 141.885094
_cell_volume 612.237503
_symmetry_space_group_name_H-M "P -1"
_symmetry_group_IT_number 2
_symmetry_cell_setting 'triclinic'
loop_
_space_group_symop_operation_xyz
x,y,z
-x,-y,-z
loop_
_atom_site_type_symbol
_atom_site_label
_atom_site_fract_x
_atom_site_fract_y
_atom_site_fract_z
Si Si1 0.523506 0.240913 0.334542
Si Si2 0.917692 0.295559 0.578864
Si Si3 0.391138 0.812805 0.945506
Si Si4 0.743550 0.371933 0.843019
Si Si5 0.815184 0.811656 0.067280
Si Si6 0.185139 0.111496 0.582272
Si Si7 0.234032 0.420278 0.328244
Si Si8 0.606570 0.674720 0.836871
O O1 0.373755 0.324647 0.332045
O O2 0.424499 0.188295 0.249275
O O3 0.879256 0.508934 0.355517
O O4 0.411986 0.984048 0.403073
O O5 0.000000 0.500000 0.500000
O O6 0.054118 0.196018 0.589063
O O7 0.047463 0.574238 0.905182
O O8 0.572058 0.054793 0.878241
O O9 0.495301 0.679940 0.010917
O O10 0.500000 0.000000 0.000000
O O11 0.782849 0.442385 0.758503
O O12 0.578058 0.445710 0.834004
O O13 0.679089 0.525488 0.126060
O O14 0.056439 0.065846 0.119451
O O15 0.000000 0.000000 0.000000
O O16 0.542951 0.377829 0.604972
O O17 0.000000 0.000000 0.500000
O O18 0.084818 0.856009 0.648656
#
# Coordination Sequence:
#
# PCOD9083484 Si02
#       8
#     2   2   2   2   2   2   2   2
#     4   9  19  33  57  85 110 144 190 241 285 335
#     4  10  19  34  56  86 113 145 188 240 282 332
#     4  12  21  36  59  88 114 145 198 243 297 339
#     4  11  20  35  61  88 113 144 193 258 289 326
#     4  12  25  38  57  84 117 159 193 236 296 362
#     4  10  19  34  56  82 115 152 186 224 282 358
#     4   9  19  33  54  86 114 143 188 234 290 337
#     4  11  20  38  60  84 114 149 198 243 291 344
#
# _framework density 26.133645000000001
#
# number of rings (size 3 to 8) (size 9 to 14) (size 15 to 20)
#    0.000    1.500    2.500    3.750    0.000    4.000 
#    0.000    0.000   11.000    0.000    0.000    0.000 
#    0.000    0.000    0.000    0.000    0.000    0.000 
#
# Total GULP energy -89383.321016 kJ/mol
# GULP energy per Si atom -5586.457563 kJ/mol
# Density = 2.607416 g / cm^3
# Si number density = 26.133645 Si / 1000 Ang^3
#
#
#
# Elastic Constant Matrix: (Units=GPa)
#
#
# Indices 1 2 3 4 5 6 
#
# 1 36.8549 5.7038 -1.7731 2.3493 1.4395 -10.8686
# 2 5.7038 149.6011 50.2304 -15.7381 -3.5814 19.2092
# 3 -1.7731 50.2304 162.2109 -13.8416 -5.3863 -2.0105
# 4 2.3493 -15.7381 -13.8416 57.3925 0.5806 -0.7390
# 5 1.4395 -3.5814 -5.3863 0.5806 22.3364 -1.6423
# 6 -10.8686 19.2092 -2.0105 -0.7390 -1.6423 37.0386
#
#
#
# Elastic Compliance Matrix: (Units=1/GPa)
#
#
# Indices 1 2 3 4 5 6 
#
# 1 0.031017 -0.003199 0.001273 -0.001688 -0.001372 0.010735
# 2 -0.003199 0.008578 -0.002590 0.001783 0.000508 -0.005470
# 3 0.001273 -0.002590 0.007136 0.000973 0.001359 0.002184
# 4 -0.001688 0.001783 0.000973 0.018203 0.000083 -0.001000
# 5 -0.001372 0.000508 0.001359 0.000083 0.045370 0.001421
# 6 0.010735 -0.005470 0.002184 -0.001000 0.001421 0.033147
#
#
# Mechanical properties :
#
#
# Convention : Reuss Voigt Hill
#
# Bulk Modulus (GPa) = 26.52567 50.77656 38.65112
# Shear Modulus (GPa) = 30.29406 42.98723 36.64064
#
# Velocity S-wave (km/s) = 3.40839 4.06014 3.74846
# Velocity P-wave (km/s) = 5.06572 6.43827 5.79279
#
# Compressibility (1/GPa) = 0.03769933
#
# Stress axis : x y z
#
# Youngs Moduli (GPa) = 32.24066 116.57533 140.13484
#
# Poissons Ratio (x) = 0.37290 -0.17840
# Poissons Ratio (y) = 0.10313 0.36296
# Poissons Ratio (z) = -0.04105 0.30194
#
# Static dielectric constant tensor:
#      x y z
#    x 2.152070 -0.113670 0.005370 
#    y -0.113670 2.072210 -0.038880 
#    z 0.005370 -0.038880 2.018500 
# 
# From -- ./inp_files/223353.got.cif
#   From: 2010.05.17/outbox.cif.g08.bks.cpg/sg2_112_cif.got.tgz:223353.got - 2010.06.03 11:33:40.
