data_PCOD9083872
_publ_section_title
;
Structure prediction by ZEFSAII (Michael W. Deem and Ramdas Pophale) SiO2 
 PCOD9083872
Probable space group: P -1
;
_chemical_formula_sum "Si O2"
_cell_formula_units_Z 14
_cell_length_a 5.459607
_cell_length_b 16.069090
_cell_length_c 11.588509
_cell_angle_alpha 136.920882
_cell_angle_beta 77.491749
_cell_angle_gamma 94.574130
_cell_volume 673.204711
_symmetry_space_group_name_H-M "P -1"
_symmetry_group_IT_number 2
_symmetry_cell_setting 'triclinic'
loop_
_space_group_symop_operation_xyz
x,y,z
-x,-y,-z
loop_
_atom_site_type_symbol
_atom_site_label
_atom_site_fract_x
_atom_site_fract_y
_atom_site_fract_z
Si Si1 0.056421 0.855082 0.484236
Si Si2 0.237910 0.141643 0.156274
Si Si3 0.401693 0.777633 0.975070
Si Si4 0.994632 0.968302 0.151949
Si Si5 0.554109 0.504099 0.360779
Si Si6 0.372251 0.938775 0.344745
Si Si7 0.957684 0.353610 0.544741
O O1 0.198437 0.851641 0.345230
O O2 0.043407 0.727162 0.419837
O O3 0.175747 0.938269 0.654197
O O4 0.799571 0.945810 0.578513
O O5 0.484382 0.192065 0.131405
O O6 0.050882 0.258053 0.335991
O O7 0.223705 0.046102 0.165064
O O8 0.141085 0.070535 0.986289
O O9 0.426135 0.632666 0.831714
O O10 0.117221 0.844175 0.072282
O O11 0.514160 0.849919 0.143649
O O12 0.500000 0.500000 0.500000
O O13 0.316611 0.581832 0.399769
O O14 0.821010 0.558932 0.376812
O O15 0.500000 0.000000 0.500000
#
# Coordination Sequence:
#
# PCOD9083872 Si02
#       7
#     2   2   2   2   2   2   2
#     4   9  21  41  62  93 123 164 212 266 324 374
#     4  10  19  34  58  89 121 159 200 262 317 386
#     4  11  22  35  60  87 123 160 212 256 318 371
#     4   9  19  34  56  89 120 155 203 260 328 377
#     4  12  25  43  64  95 132 175 213 253 311 378
#     4  10  21  40  67  93 122 162 211 272 326 374
#     4  11  25  42  66  92 131 173 213 258 312 378
#
# _framework density 20.796052
#
# number of rings (size 3 to 8) (size 9 to 14) (size 15 to 20)
#    0.000    1.714    1.429    2.571    4.000    0.000 
#    5.143    1.429    0.000    0.000    0.000    0.000 
#    0.000    0.000    0.000    0.000    0.000    0.000 
#
# Total GULP energy -77997.059263 kJ/mol
# GULP energy per Si atom -5571.218519 kJ/mol
# Density = 2.074872 g / cm^3
# Si number density = 20.796052 Si / 1000 Ang^3
#
#
#
# Elastic Constant Matrix: (Units=GPa)
#
#
# Indices 1 2 3 4 5 6 
#
# 1 69.3848 39.2992 14.3700 6.1137 2.8410 -3.3930
# 2 39.2992 137.3872 42.6306 -4.1682 -4.0201 -2.9790
# 3 14.3700 42.6306 101.0470 3.5151 -0.7042 -1.2282
# 4 6.1137 -4.1682 3.5151 39.6881 -3.5724 -3.4578
# 5 2.8410 -4.0201 -0.7042 -3.5724 29.0408 -0.5853
# 6 -3.3930 -2.9790 -1.2282 -3.4578 -0.5853 20.8960
#
#
#
# Elastic Compliance Matrix: (Units=1/GPa)
#
#
# Indices 1 2 3 4 5 6 
#
# 1 0.017899 -0.005202 -0.000234 -0.003409 -0.002866 0.001507
# 2 -0.005202 0.010022 -0.003548 0.002432 0.002126 0.000838
# 3 -0.000234 -0.003548 0.011471 -0.001395 -0.000364 -0.000111
# 4 -0.003409 0.002432 -0.001395 0.026834 0.004023 0.004264
# 5 -0.002866 0.002126 -0.000364 0.004023 0.035525 0.001477
# 6 0.001507 0.000838 -0.000111 0.004264 0.001477 0.048961
#
#
# Mechanical properties :
#
#
# Convention : Reuss Voigt Hill
#
# Bulk Modulus (GPa) = 46.67622 55.60206 51.13914
# Shear Modulus (GPa) = 28.43818 32.02626 30.23222
#
# Velocity S-wave (km/s) = 3.70196 3.92856 3.81694
# Velocity P-wave (km/s) = 6.38484 6.88281 6.63849
#
# Compressibility (1/GPa) = 0.02142418
#
# Stress axis : x y z
#
# Youngs Moduli (GPa) = 55.87036 99.78275 87.17558
#
# Poissons Ratio (x) = 0.51906 0.02038
# Poissons Ratio (y) = 0.29063 0.30929
# Poissons Ratio (z) = 0.01306 0.35402
#
# Static dielectric constant tensor:
#      x y z
#    x 1.882670 0.057000 0.022720 
#    y 0.057000 1.809070 -0.039390 
#    z 0.022720 -0.039390 1.766530 
# 
# From -- ./inp_files/63973.got.cif
#   From: 2010.05.17/outbox.cif.g08.bks.cpg/sg2_32_cif.got.tgz:63973.got - 2010.06.03 11:33:40.
