data_PCOD9083950
_publ_section_title
;
Structure prediction by ZEFSAII (Michael W. Deem and Ramdas Pophale) SiO2 
 PCOD9083950
Probable space group: P -1
;
_chemical_formula_sum "Si O2"
_cell_formula_units_Z 16
_cell_length_a 9.061578
_cell_length_b 15.371132
_cell_length_c 9.405280
_cell_angle_alpha 97.979114
_cell_angle_beta 106.346472
_cell_angle_gamma 132.926580
_cell_volume 812.283296
_symmetry_space_group_name_H-M "P -1"
_symmetry_group_IT_number 2
_symmetry_cell_setting 'triclinic'
loop_
_space_group_symop_operation_xyz
x,y,z
-x,-y,-z
loop_
_atom_site_type_symbol
_atom_site_label
_atom_site_fract_x
_atom_site_fract_y
_atom_site_fract_z
Si Si1 0.136587 0.930218 0.098482
Si Si2 0.833939 0.869849 0.230030
Si Si3 0.662880 0.523285 0.814326
Si Si4 0.098454 0.236977 0.269407
Si Si5 0.112823 0.281072 0.599942
Si Si6 0.615733 0.295852 0.761703
Si Si7 0.947071 0.282156 0.825282
Si Si8 0.689666 0.844051 0.627240
O O1 0.885889 0.855595 0.081980
O O2 0.185389 0.859802 0.176325
O O3 0.309830 0.082499 0.231718
O O4 0.095916 0.892902 0.914495
O O5 0.884131 0.810197 0.335518
O O6 0.579474 0.793816 0.186485
O O7 0.047383 0.030295 0.340304
O O8 0.806323 0.636832 0.758342
O O9 0.388026 0.426976 0.703513
O O10 0.683956 0.427144 0.793277
O O11 0.789047 0.606832 0.013587
O O12 0.022004 0.229582 0.404735
O O13 0.307808 0.255328 0.344988
O O14 0.965332 0.280801 0.661034
O O15 0.489970 0.216137 0.560995
O O16 0.824279 0.318291 0.847026
#
# Coordination Sequence:
#
# PCOD9083950 Si02
#       8
#     2   2   2   2   2   2   2   2
#     4   8  20  35  55  84 109 140 182 223 272 319
#     4   8  18  34  55  87 102 140 184 227 260 315
#     4  10  21  37  56  81 110 144 187 225 271 322
#     4  11  19  34  61  82 109 144 184 229 265 322
#     4  10  19  35  59  82 108 143 187 225 269 320
#     4  11  20  34  61  83 111 143 182 228 274 320
#     4  10  21  37  56  84 111 143 181 231 275 318
#     4  10  19  34  59  85 113 135 189 223 273 318
#
# _framework density 19.697561
#
# number of rings (size 3 to 8) (size 9 to 14) (size 15 to 20)
#    0.750    1.500    2.500    1.875    0.000    1.500 
#    0.000    0.625    5.500    3.750    0.000    0.000 
#    0.000    0.000    0.000    0.000    0.000    0.000 
#
# Total GULP energy -89128.871602 kJ/mol
# GULP energy per Si atom -5570.554475 kJ/mol
# Density = 1.965273 g / cm^3
# Si number density = 19.697561 Si / 1000 Ang^3
#
#
#
# Elastic Constant Matrix: (Units=GPa)
#
#
# Indices 1 2 3 4 5 6 
#
# 1 51.7138 3.7340 0.7515 4.4189 -8.9475 -3.1221
# 2 3.7340 37.9927 17.4921 6.3519 -2.2039 -6.7458
# 3 0.7515 17.4921 100.8290 -4.4427 -23.7479 9.3488
# 4 4.4189 6.3519 -4.4427 21.5332 1.5623 -5.2374
# 5 -8.9475 -2.2039 -23.7479 1.5623 19.5338 -2.3923
# 6 -3.1221 -6.7458 9.3488 -5.2374 -2.3923 12.6926
#
#
#
# Elastic Compliance Matrix: (Units=1/GPa)
#
#
# Indices 1 2 3 4 5 6 
#
# 1 0.022453 -0.001458 0.002993 -0.003700 0.014514 0.003752
# 2 -0.001458 0.035656 -0.009753 -0.006470 -0.005276 0.022111
# 3 0.002993 -0.009753 0.017543 0.001252 0.019893 -0.013102
# 4 -0.003700 -0.006470 0.001252 0.053543 -0.003199 0.016220
# 5 0.014514 -0.005276 0.019893 -0.003199 0.081711 0.000195
# 6 0.003752 0.022111 -0.013102 0.016220 0.000195 0.107840
#
#
# Mechanical properties :
#
#
# Convention : Reuss Voigt Hill
#
# Bulk Modulus (GPa) = 16.88716 26.05450 21.47083
# Shear Modulus (GPa) = 14.08769 21.98912 18.03841
#
# Velocity S-wave (km/s) = 2.67722 3.34479 3.02945
# Velocity P-wave (km/s) = 4.26011 5.30781 4.81255
#
# Compressibility (1/GPa) = 0.05921658
#
# Stress axis : x y z
#
# Youngs Moduli (GPa) = 44.53747 28.04594 57.00364
#
# Poissons Ratio (x) = 0.04089 -0.17062
# Poissons Ratio (y) = 0.06494 0.55594
# Poissons Ratio (z) = -0.13331 0.27352
#
# Static dielectric constant tensor:
#      x y z
#    x 1.685280 -0.021830 -0.020110 
#    y -0.021830 1.715060 0.003490 
#    z -0.020110 0.003490 1.728380 
# 
# From -- ./inp_files/207853.got.cif
#   From: 2010.05.17/outbox.cif.g08.bks.cpg/sg2_104_cif.got.tgz:207853.got - 2010.06.03 11:33:40.
