data_PCOD9083908
_publ_section_title
;
Structure prediction by ZEFSAII (Michael W. Deem and Ramdas Pophale) SiO2 
 PCOD9083908
Probable space group: P -1
;
_chemical_formula_sum "Si O2"
_cell_formula_units_Z 16
_cell_length_a 7.122642
_cell_length_b 7.476427
_cell_length_c 22.470347
_cell_angle_alpha 38.273335
_cell_angle_beta 65.436416
_cell_angle_gamma 76.814521
_cell_volume 663.776129
_symmetry_space_group_name_H-M "P -1"
_symmetry_group_IT_number 2
_symmetry_cell_setting 'triclinic'
loop_
_space_group_symop_operation_xyz
x,y,z
-x,-y,-z
loop_
_atom_site_type_symbol
_atom_site_label
_atom_site_fract_x
_atom_site_fract_y
_atom_site_fract_z
Si Si1 0.352853 0.142669 0.422475
Si Si2 0.738772 0.496535 0.896052
Si Si3 0.486310 0.944185 0.869135
Si Si4 0.381295 0.890576 0.371179
Si Si5 0.933759 0.051764 0.383291
Si Si6 0.639353 0.606253 0.326567
Si Si7 0.220588 0.587106 0.225415
Si Si8 0.827893 0.064688 0.264604
O O1 0.357932 0.861097 0.453495
O O2 0.564516 0.283738 0.392233
O O3 0.308561 0.373513 0.317406
O O4 0.164145 0.098317 0.505285
O O5 0.712483 0.403327 0.855061
O O6 0.016033 0.594970 0.703687
O O7 0.972720 0.678009 0.831433
O O8 0.682191 0.222564 0.019142
O O9 0.575563 0.710515 0.877519
O O10 0.388217 0.171270 0.782203
O O11 0.687771 0.103579 0.838520
O O12 0.593316 0.132994 0.267827
O O13 0.815258 0.968566 0.359911
O O14 0.556460 0.366477 0.609425
O O15 0.160420 0.964447 0.361346
O O16 0.829502 0.786111 0.294101
#
# Coordination Sequence:
#
# PCOD9083908 Si02
#       8
#     2   2   2   2   2   2   2   2
#     4  10  19  34  59  79 108 149 186 221 268 324
#     4  10  20  36  56  85 109 141 185 224 276 330
#     4  10  19  34  62  81 106 146 182 225 275 327
#     4   9  19  37  54  75 114 144 175 234 269 305
#     4  10  19  36  60  80 108 151 186 218 271 325
#     4   9  20  36  53  81 112 144 181 226 271 321
#     4   9  18  34  55  83 110 139 181 229 270 319
#     4   9  21  37  53  81 114 144 179 227 274 316
#
# _framework density 24.104514000000002
#
# number of rings (size 3 to 8) (size 9 to 14) (size 15 to 20)
#    0.750    1.750    0.000    4.125    0.000    2.000 
#    4.500    2.500    0.000    4.500    0.000    0.000 
#    0.000    0.000    0.000    0.000    0.000    0.000 
#
# Total GULP energy -89164.334925 kJ/mol
# GULP energy per Si atom -5572.770933 kJ/mol
# Density = 2.404965 g / cm^3
# Si number density = 24.104514 Si / 1000 Ang^3
#
#
#
# Elastic Constant Matrix: (Units=GPa)
#
#
# Indices 1 2 3 4 5 6 
#
# 1 59.0538 0.4379 36.1690 -2.5377 -6.0533 29.8202
# 2 0.4379 135.2622 59.1829 20.0130 22.3327 43.2283
# 3 36.1690 59.1829 133.5203 17.1470 -10.6020 3.9980
# 4 -2.5377 20.0130 17.1470 35.1792 3.3072 6.3733
# 5 -6.0533 22.3327 -10.6020 3.3072 28.2777 -4.4369
# 6 29.8202 43.2283 3.9980 6.3733 -4.4369 30.5405
#
#
#
# Elastic Compliance Matrix: (Units=1/GPa)
#
#
# Indices 1 2 3 4 5 6 
#
# 1 -0.004264 -0.018946 0.010835 -0.003145 0.023763 0.033670
# 2 -0.018946 -0.005599 0.008549 -0.008330 0.008993 0.028349
# 3 0.010835 0.008549 0.000766 0.000660 -0.008000 -0.024080
# 4 -0.003145 -0.008330 0.000660 0.030619 0.003978 0.008963
# 5 0.023763 0.008993 -0.008000 0.003978 0.024846 -0.032106
# 6 0.033670 0.028349 -0.024080 0.008963 -0.032106 -0.043642
#
#
# Mechanical properties :
#
#
# Convention : Reuss Voigt Hill
#
# Bulk Modulus (GPa) = -121.65609 57.71288 -31.97161
# Shear Modulus (GPa) = -5615.00190 34.26924 -2790.36633
#
# Velocity S-wave (km/s) = -48.31663 3.77463 -34.06060
# Velocity P-wave (km/s) = 56.24271 6.55681 39.49842
#
# Compressibility (1/GPa) = -0.00821989
#
# Stress axis : x y z
#
# Youngs Moduli (GPa) = -234.53106 -178.61536 1305.19672
#
# Poissons Ratio (x) = -3.38405 -14.14231
# Poissons Ratio (y) = -4.44343 -11.15788
# Poissons Ratio (z) = 2.54123 1.52695
#
# Static dielectric constant tensor:
#      x y z
#    x 2.039300 -0.066490 -0.013700 
#    y -0.066490 2.025370 -0.023030 
#    z -0.013700 -0.023030 1.918610 
# 
# From -- ./inp_files/556866.got.cif
#   From: 2010.05.17/outbox.cif.g08.bks.cpg/sg2_279_cif.got.tgz:556866.got - 2010.06.03 11:33:40.
