data_PCOD9083875
_publ_section_title
;
Structure prediction by ZEFSAII (Michael W. Deem and Ramdas Pophale) SiO2 
 PCOD9083875
Probable space group: P -1
;
_chemical_formula_sum "Si O2"
_cell_formula_units_Z 16
_cell_length_a 18.157321
_cell_length_b 10.665109
_cell_length_c 5.139606
_cell_angle_alpha 76.614414
_cell_angle_beta 86.118316
_cell_angle_gamma 48.745140
_cell_volume 722.983647
_symmetry_space_group_name_H-M "P -1"
_symmetry_group_IT_number 2
_symmetry_cell_setting 'triclinic'
loop_
_space_group_symop_operation_xyz
x,y,z
-x,-y,-z
loop_
_atom_site_type_symbol
_atom_site_label
_atom_site_fract_x
_atom_site_fract_y
_atom_site_fract_z
Si Si1 0.842439 0.475374 0.213274
Si Si2 0.559288 0.806436 0.466955
Si Si3 0.172380 0.011706 0.407202
Si Si4 0.238086 0.543074 0.261300
Si Si5 0.028043 0.385921 0.299837
Si Si6 0.315752 0.147519 0.881220
Si Si7 0.641165 0.066965 0.529833
Si Si8 0.110463 0.931878 0.964341
O O1 0.792864 0.431824 0.441377
O O2 0.956104 0.346221 0.315568
O O3 0.792640 0.668113 0.213367
O O4 0.821051 0.481012 0.912585
O O5 0.649540 0.637961 0.686065
O O6 0.612161 0.813134 0.203999
O O7 0.476477 0.792985 0.463011
O O8 0.500000 0.000000 0.500000
O O9 0.135124 0.200931 0.372824
O O10 0.290862 0.887427 0.460643
O O11 0.126961 0.972812 0.657139
O O12 0.133299 0.013335 0.135970
O O13 0.197445 0.726650 0.087558
O O14 0.000000 0.500000 0.500000
O O15 0.000000 0.500000 0.000000
O O16 0.339065 0.013546 0.723140
O O17 0.328487 0.073948 0.194889
O O18 0.000000 0.000000 0.000000
#
# Coordination Sequence:
#
# PCOD9083875 Si02
#       8
#     2   2   2   2   2   2   2   2
#     4  11  20  36  57  87 119 150 195 250 299 356
#     4   9  20  37  62  93 125 160 199 245 303 364
#     4  12  25  42  63  90 122 163 204 251 310 360
#     4  11  23  39  62  88 115 156 208 255 297 350
#     4  12  23  37  59  91 124 157 191 241 310 378
#     4  10  19  34  58  89 125 163 192 234 299 370
#     4  11  21  37  57  88 125 159 195 243 299 366
#     4  12  25  46  66  86 117 162 214 261 299 356
#
# _framework density 22.130514000000002
#
# number of rings (size 3 to 8) (size 9 to 14) (size 15 to 20)
#    0.000    1.000    0.000    9.000    0.000    3.000 
#    0.000    1.250    0.000    0.000    0.000    0.000 
#    0.000    0.000    0.000    0.000    0.000    0.000 
#
# Total GULP energy -89331.049386 kJ/mol
# GULP energy per Si atom -5583.190587 kJ/mol
# Density = 2.208014 g / cm^3
# Si number density = 22.130514 Si / 1000 Ang^3
#
#
#
# Elastic Constant Matrix: (Units=GPa)
#
#
# Indices 1 2 3 4 5 6 
#
# 1 109.1998 10.9645 -4.9004 6.2416 11.3306 -29.7407
# 2 10.9645 78.4334 19.6884 -13.3270 3.8135 -7.1343
# 3 -4.9004 19.6884 79.4408 -10.5212 -4.1606 -8.9382
# 4 6.2416 -13.3270 -10.5212 38.8364 2.2620 5.8057
# 5 11.3306 3.8135 -4.1606 2.2620 32.3539 3.0060
# 6 -29.7407 -7.1343 -8.9382 5.8057 3.0060 33.2181
#
#
#
# Elastic Compliance Matrix: (Units=1/GPa)
#
#
# Indices 1 2 3 4 5 6 
#
# 1 0.014000 -0.001613 0.002011 -0.004022 -0.005467 0.013927
# 2 -0.001613 0.014659 -0.003211 0.004497 -0.001911 0.000227
# 3 0.002011 -0.003211 0.014299 0.001709 0.000969 0.004572
# 4 -0.004022 0.004497 0.001709 0.029510 -0.000286 -0.007307
# 5 -0.005467 -0.001911 0.000969 -0.000286 0.033942 -0.008066
# 6 0.013927 0.000227 0.004572 -0.007307 -0.008066 0.045859
#
#
# Mechanical properties :
#
#
# Convention : Reuss Voigt Hill
#
# Bulk Modulus (GPa) = 26.78657 35.39767 31.09212
# Shear Modulus (GPa) = 29.35311 36.96980 33.16145
#
# Velocity S-wave (km/s) = 3.64588 4.09165 3.87518
# Velocity P-wave (km/s) = 5.46383 6.19289 5.83975
#
# Compressibility (1/GPa) = 0.03733214
#
# Stress axis : x y z
#
# Youngs Moduli (GPa) = 71.42965 68.21758 69.93270
#
# Poissons Ratio (x) = 0.11002 -0.14065
# Poissons Ratio (y) = 0.11520 0.22459
# Poissons Ratio (z) = -0.14366 0.21908
#
# Static dielectric constant tensor:
#      x y z
#    x 1.908690 -0.008240 -0.017160 
#    y -0.008240 1.832580 0.018790 
#    z -0.017160 0.018790 1.785760 
# 
# From -- ./inp_files/109581.got.cif
#   From: 2010.05.17/outbox.cif.g08.bks.cpg/sg2_55_cif.got.tgz:109581.got - 2010.06.03 11:33:40.
