data_PCOD9083456
_publ_section_title
;
Structure prediction by ZEFSAII (Michael W. Deem and Ramdas Pophale) SiO2 
 PCOD9083456
Probable space group: P -1
;
_chemical_formula_sum "Si O2"
_cell_formula_units_Z 16
_cell_length_a 8.233913
_cell_length_b 21.701757
_cell_length_c 8.693538
_cell_angle_alpha 115.747657
_cell_angle_beta 126.210284
_cell_angle_gamma 34.441841
_cell_volume 704.131549
_symmetry_space_group_name_H-M "P -1"
_symmetry_group_IT_number 2
_symmetry_cell_setting 'triclinic'
loop_
_space_group_symop_operation_xyz
x,y,z
-x,-y,-z
loop_
_atom_site_type_symbol
_atom_site_label
_atom_site_fract_x
_atom_site_fract_y
_atom_site_fract_z
Si Si1 0.031771 0.676184 0.682451
Si Si2 0.614591 0.798309 0.165324
Si Si3 0.713614 0.532332 0.448894
Si Si4 0.587221 0.927703 0.112572
Si Si5 0.934606 0.922745 0.509484
Si Si6 0.077923 0.678781 0.059315
Si Si7 0.321016 0.861319 0.371968
Si Si8 0.199315 0.727758 0.594754
O O1 0.653849 0.786658 0.565391
O O2 0.147542 0.578675 0.548194
O O3 0.203232 0.697345 0.734318
O O4 0.091422 0.647817 0.862846
O O5 0.411515 0.907682 0.069340
O O6 0.413887 0.813342 0.200222
O O7 0.837866 0.699803 0.060132
O O8 0.896847 0.767372 0.383200
O O9 0.427856 0.594311 0.234799
O O10 0.526825 0.620858 0.575764
O O11 0.000000 0.500000 0.500000
O O12 0.614554 0.969713 0.322334
O O13 0.899802 0.800368 0.092677
O O14 0.500000 0.000000 0.000000
O O15 0.126544 0.869715 0.396518
O O16 0.116349 0.828610 0.632288
O O17 0.868998 0.017106 0.620010
#
# Coordination Sequence:
#
# PCOD9083456 Si02
#       8
#     2   2   2   2   2   2   2   2
#     4  11  21  34  64  83 112 147 200 230 284 339
#     4   7  17  33  52  76 113 141 194 222 274 342
#     4  11  21  38  61  82 116 153 187 239 288 329
#     4   9  17  32  56  75 113 150 182 231 275 336
#     4  10  19  34  56  79 124 139 198 238 278 342
#     4   9  20  37  55  86 116 147 194 229 283 336
#     4  10  20  33  56  88 106 158 186 238 290 332
#     4   9  19  37  55  85 106 151 193 235 274 344
#
# _framework density 22.723026000000001
#
# number of rings (size 3 to 8) (size 9 to 14) (size 15 to 20)
#    0.750    1.750    1.250    2.250    0.000    5.500 
#    0.000    1.250    5.500    0.000    0.000    0.000 
#    0.000    0.000    0.000    0.000    0.000    0.000 
#
# Total GULP energy -89110.419356 kJ/mol
# GULP energy per Si atom -5569.401210 kJ/mol
# Density = 2.267131 g / cm^3
# Si number density = 22.723026 Si / 1000 Ang^3
#
#
#
# Elastic Constant Matrix: (Units=GPa)
#
#
# Indices 1 2 3 4 5 6 
#
# 1 17.6005 56.7983 8.2067 -25.3378 -2.1015 19.1037
# 2 56.7983 59.0631 -4.4401 10.4259 -23.2561 -13.7602
# 3 8.2067 -4.4401 46.2201 1.2717 -23.7408 -15.8451
# 4 -25.3378 10.4259 1.2717 7.6331 11.2106 6.8847
# 5 -2.1015 -23.2561 -23.7408 11.2106 17.2210 -9.0026
# 6 19.1037 -13.7602 -15.8451 6.8847 -9.0026 14.3227
#
#
#
# Elastic Compliance Matrix: (Units=1/GPa)
#
#
# Indices 1 2 3 4 5 6 
#
# 1 0.031390 -0.001563 0.029851 0.001333 0.054006 0.022959
# 2 -0.001563 0.009163 -0.008519 0.009799 -0.011376 -0.010397
# 3 0.029851 -0.008519 0.043113 0.024002 0.044321 0.016017
# 4 0.001333 0.009799 0.024002 0.049751 0.028999 0.028503
# 5 0.054006 -0.011376 0.044321 0.028999 0.099038 0.014381
# 6 0.022959 -0.010397 0.016017 0.028503 0.014381 0.042265
#
#
# Mechanical properties :
#
#
# Convention : Reuss Voigt Hill
#
# Bulk Modulus (GPa) = 8.11676 27.11262 17.61469
# Shear Modulus (GPa) = 18.09954 11.98997 15.04475
#
# Velocity S-wave (km/s) = 2.82535 2.29957 2.57591
# Velocity P-wave (km/s) = 3.77137 4.35986 4.07625
#
# Compressibility (1/GPa) = 0.12320186
#
# Stress axis : x y z
#
# Youngs Moduli (GPa) = 31.85758 109.13632 23.19498
#
# Poissons Ratio (x) = 0.17062 -0.69239
# Poissons Ratio (y) = 0.04980 0.19760
# Poissons Ratio (z) = -0.95097 0.92975
#
# Static dielectric constant tensor:
#      x y z
#    x 1.972800 -0.029460 0.013250 
#    y -0.029460 1.832830 -0.001600 
#    z 0.013250 -0.001600 1.916070 
# 
# From -- ./inp_files/225455.got.cif
#   From: 2010.05.17/outbox.cif.g08.bks.cpg/sg2_113_cif.got.tgz:225455.got - 2010.06.03 11:33:40.
