data_PCOD9083262
_publ_section_title
;
Structure prediction by ZEFSAII (Michael W. Deem and Ramdas Pophale) SiO2 
 PCOD9083262
Probable space group: P -1
;
_chemical_formula_sum "Si O2"
_cell_formula_units_Z 16
_cell_length_a 18.853567
_cell_length_b 17.545963
_cell_length_c 7.813523
_cell_angle_alpha 43.588061
_cell_angle_beta 33.933170
_cell_angle_gamma 28.771465
_cell_volume 694.436592
_symmetry_space_group_name_H-M "P -1"
_symmetry_group_IT_number 2
_symmetry_cell_setting 'triclinic'
loop_
_space_group_symop_operation_xyz
x,y,z
-x,-y,-z
loop_
_atom_site_type_symbol
_atom_site_label
_atom_site_fract_x
_atom_site_fract_y
_atom_site_fract_z
Si Si1 0.105243 0.154804 0.319438
Si Si2 0.524757 0.281156 0.232597
Si Si3 0.100067 0.465856 0.529080
Si Si4 0.758355 0.698093 0.039962
Si Si5 0.276964 0.016313 0.890449
Si Si6 0.791634 0.133506 0.258999
Si Si7 0.384671 0.152660 0.286301
Si Si8 0.766334 0.384515 0.870793
O O1 0.906691 0.276303 0.608753
O O2 0.216312 0.974480 0.443989
O O3 0.196900 0.209501 0.121879
O O4 0.092204 0.150666 0.146013
O O5 0.359001 0.304953 0.593359
O O6 0.652319 0.144347 0.056687
O O7 0.652983 0.217866 0.241590
O O8 0.425558 0.451188 0.081989
O O9 0.281265 0.284463 0.428877
O O10 0.148081 0.564476 0.285098
O O11 0.000000 0.500000 0.500000
O O12 0.954804 0.526494 0.867759
O O13 0.647733 0.781405 0.946060
O O14 0.415810 0.973530 0.828584
O O15 0.298191 0.084437 0.576344
O O16 0.759013 0.275911 0.169781
O O17 0.000000 0.000000 0.000000
#
# Coordination Sequence:
#
# PCOD9083262 Si02
#       8
#     2   2   2   2   2   2   2   2
#     4  10  22  40  64  93 127 167 207 254 309 379
#     4  12  23  39  66  95 126 161 208 268 309 370
#     4   9  19  36  61  92 129 158 197 256 311 371
#     4  10  21  35  63  94 125 164 206 247 321 371
#     4  11  22  33  58  92 126 157 200 261 312 354
#     4  10  23  45  67  85 120 173 218 251 307 380
#     4  10  19  34  53  90 132 162 195 248 309 379
#     4  10  22  41  66  91 124 170 210 253 305 372
#
# _framework density 23.04026
#
# number of rings (size 3 to 8) (size 9 to 14) (size 15 to 20)
#    0.000    1.750    1.250    3.375    1.750    3.500 
#    0.000    3.125    5.500    0.000    0.000    0.000 
#    0.000    0.000    0.000    0.000    0.000    0.000 
#
# Total GULP energy -89296.775387 kJ/mol
# GULP energy per Si atom -5581.048462 kJ/mol
# Density = 2.298782 g / cm^3
# Si number density = 23.040260 Si / 1000 Ang^3
#
#
#
# Elastic Constant Matrix: (Units=GPa)
#
#
# Indices 1 2 3 4 5 6 
#
# 1 55.9596 10.6025 10.5300 2.2152 7.2608 5.0947
# 2 10.6025 116.7742 28.5030 -13.8531 4.2206 28.6839
# 3 10.5300 28.5030 60.5580 -10.0473 -3.7098 8.8021
# 4 2.2152 -13.8531 -10.0473 37.2143 1.9772 10.5205
# 5 7.2608 4.2206 -3.7098 1.9772 30.4291 0.6869
# 6 5.0947 28.6839 8.8021 10.5205 0.6869 28.0539
#
#
#
# Elastic Compliance Matrix: (Units=1/GPa)
#
#
# Indices 1 2 3 4 5 6 
#
# 1 0.019451 -0.000756 -0.003517 -0.001899 -0.004823 -0.000826
# 2 -0.000756 0.015064 -0.002790 0.010160 -0.002500 -0.018139
# 3 -0.003517 -0.002790 0.020401 0.005976 0.003443 -0.005235
# 4 -0.001899 0.010160 0.005976 0.040104 -0.002226 -0.026903
# 5 -0.004823 -0.002500 0.003443 -0.002226 0.034873 0.002333
# 6 -0.000826 -0.018139 -0.005235 -0.026903 0.002333 0.066017
#
#
# Mechanical properties :
#
#
# Convention : Reuss Voigt Hill
#
# Bulk Modulus (GPa) = 24.51484 36.95141 30.73312
# Shear Modulus (GPa) = 22.35812 31.38320 26.87066
#
# Velocity S-wave (km/s) = 3.11849 3.69467 3.41874
# Velocity P-wave (km/s) = 4.86105 5.85435 5.38067
#
# Compressibility (1/GPa) = 0.04079162
#
# Stress axis : x y z
#
# Youngs Moduli (GPa) = 51.41065 66.38155 49.01696
#
# Poissons Ratio (x) = 0.05016 0.17239
# Poissons Ratio (y) = 0.03885 0.13675
# Poissons Ratio (z) = 0.18081 0.18520
#
# Static dielectric constant tensor:
#      x y z
#    x 1.854730 -0.019580 -0.055810 
#    y -0.019580 1.931450 0.021650 
#    z -0.055810 0.021650 2.150520 
# 
# From -- ./inp_files/348213.got.cif
#   From: 2010.05.17/outbox.cif.g08.bks.cpg/sg2_175_cif.got.tgz:348213.got - 2010.06.03 11:33:40.
