data_PCOD9083257
_publ_section_title
;
Structure prediction by ZEFSAII (Michael W. Deem and Ramdas Pophale) SiO2 
 PCOD9083257
Probable space group: P -1
;
_chemical_formula_sum "Si O2"
_cell_formula_units_Z 16
_cell_length_a 14.298033
_cell_length_b 19.366202
_cell_length_c 27.972118
_cell_angle_alpha 16.811214
_cell_angle_beta 160.732630
_cell_angle_gamma 151.839015
_cell_volume 719.244481
_symmetry_space_group_name_H-M "P -1"
_symmetry_group_IT_number 2
_symmetry_cell_setting 'triclinic'
loop_
_space_group_symop_operation_xyz
x,y,z
-x,-y,-z
loop_
_atom_site_type_symbol
_atom_site_label
_atom_site_fract_x
_atom_site_fract_y
_atom_site_fract_z
Si Si1 0.435447 0.167885 0.058139
Si Si2 0.606246 0.626016 0.536580
Si Si3 0.514561 0.299932 0.099311
Si Si4 0.404575 0.188652 0.872722
Si Si5 0.084599 0.440830 0.367982
Si Si6 0.339488 0.195317 0.456923
Si Si7 0.899420 0.085975 0.251612
Si Si8 0.945010 0.259504 0.686469
O O1 0.588564 0.330530 0.059708
O O2 0.657288 0.112936 0.157870
O O3 0.448182 0.909245 0.261915
O O4 0.127337 0.263353 0.820409
O O5 0.379649 0.463252 0.521573
O O6 0.850824 0.578331 0.645087
O O7 0.698432 0.609331 0.647522
O O8 0.709380 0.050692 0.378287
O O9 0.500000 0.500000 0.000000
O O10 0.171241 0.317349 0.911240
O O11 0.230418 0.460508 0.593393
O O12 0.174077 0.138871 0.835254
O O13 0.711637 0.187264 0.047635
O O14 0.500000 0.000000 0.000000
O O15 0.983742 0.210714 0.495633
O O16 0.679031 0.129259 0.650109
O O17 0.138214 0.225971 0.292940
#
# Coordination Sequence:
#
# PCOD9083257 Si02
#       8
#     2   2   2   2   2   2   2   2
#     4   9  20  37  58  82 121 165 196 235 292 358
#     4   9  20  33  57  85 121 159 196 232 282 355
#     4  11  21  31  53  87 127 161 192 230 283 356
#     4  10  24  44  67  88 111 154 206 260 309 363
#     4  10  19  34  53  85 122 157 201 234 277 354
#     4  11  22  37  59  89 124 158 190 242 302 355
#     4  10  22  38  59  86 119 154 201 245 304 353
#     4  10  22  43  65  87 116 156 203 254 305 359
#
# _framework density 22.245564999999999
#
# number of rings (size 3 to 8) (size 9 to 14) (size 15 to 20)
#    0.000    2.000    1.250    1.500    5.250    5.000 
#    0.000    0.625    0.000    0.000    0.000    0.000 
#    0.000    0.000    0.000    0.000    0.000    0.000 
#
# Total GULP energy -89142.368868 kJ/mol
# GULP energy per Si atom -5571.398054 kJ/mol
# Density = 2.219493 g / cm^3
# Si number density = 22.245565 Si / 1000 Ang^3
#
#
#
# Elastic Constant Matrix: (Units=GPa)
#
#
# Indices 1 2 3 4 5 6 
#
# 1 64.6097 33.4225 17.9530 6.3354 0.0738 -30.7565
# 2 33.4225 94.7489 16.6054 26.5682 -10.2550 -28.4020
# 3 17.9530 16.6054 84.3758 21.8103 -0.5804 -18.0253
# 4 6.3354 26.5682 21.8103 37.0757 -10.6987 -0.3416
# 5 0.0738 -10.2550 -0.5804 -10.6987 23.7600 4.1512
# 6 -30.7565 -28.4020 -18.0253 -0.3416 4.1512 41.5192
#
#
#
# Elastic Compliance Matrix: (Units=1/GPa)
#
#
# Indices 1 2 3 4 5 6 
#
# 1 0.025977 -0.003754 -0.000365 -0.003140 -0.006112 0.017102
# 2 -0.003754 0.018867 0.003400 -0.014915 -0.000492 0.011528
# 3 -0.000365 0.003400 0.016969 -0.014047 -0.006176 0.009924
# 4 -0.003140 -0.014915 -0.014047 0.052110 0.020226 -0.020221
# 5 -0.006112 -0.000492 -0.006176 0.020226 0.053067 -0.012685
# 6 0.017102 0.011528 0.009924 -0.020221 -0.012685 0.050051
#
#
# Mechanical properties :
#
#
# Convention : Reuss Voigt Hill
#
# Bulk Modulus (GPa) = 16.56301 42.18847 29.37574
# Shear Modulus (GPa) = 20.95529 32.18788 26.57159
#
# Velocity S-wave (km/s) = 3.07253 3.80799 3.45986
# Velocity P-wave (km/s) = 4.47761 6.19196 5.40321
#
# Compressibility (1/GPa) = 0.06037549
#
# Stress axis : x y z
#
# Youngs Moduli (GPa) = 38.49577 53.00235 58.93090
#
# Poissons Ratio (x) = 0.19896 0.02153
# Poissons Ratio (y) = 0.14451 -0.20039
# Poissons Ratio (z) = 0.01406 -0.18023
#
# Static dielectric constant tensor:
#      x y z
#    x 1.974270 -0.035980 0.004890 
#    y -0.035980 2.022880 -0.056300 
#    z 0.004890 -0.056300 1.859080 
# 
# From -- ./inp_files/398411.got.cif
#   From: 2010.05.17/outbox.cif.g08.bks.cpg/sg2_200_cif.got.tgz:398411.got - 2010.06.03 11:33:40.
