data_PCOD9083374
_publ_section_title
;
Structure prediction by ZEFSAII (Michael W. Deem and Ramdas Pophale) SiO2 
 PCOD9083374
Probable space group: P -1
;
_chemical_formula_sum "Si O2"
_cell_formula_units_Z 16
_cell_length_a 13.086558
_cell_length_b 8.037916
_cell_length_c 7.934193
_cell_angle_alpha 110.932197
_cell_angle_beta 81.539383
_cell_angle_gamma 67.328329
_cell_volume 678.854889
_symmetry_space_group_name_H-M "P -1"
_symmetry_group_IT_number 2
_symmetry_cell_setting 'triclinic'
loop_
_space_group_symop_operation_xyz
x,y,z
-x,-y,-z
loop_
_atom_site_type_symbol
_atom_site_label
_atom_site_fract_x
_atom_site_fract_y
_atom_site_fract_z
Si Si1 0.294537 0.447847 0.713087
Si Si2 0.433040 0.923810 0.184654
Si Si3 0.617566 0.547288 0.835975
Si Si4 0.835175 0.510202 0.584894
Si Si5 0.720324 0.940046 0.389058
Si Si6 0.483307 0.759569 0.647908
Si Si7 0.917423 0.828555 0.553510
Si Si8 0.743856 0.187531 0.906905
O O1 0.210981 0.519352 0.594940
O O2 0.271120 0.274883 0.744865
O O3 0.425411 0.331980 0.561935
O O4 0.265763 0.645587 0.899020
O O5 0.334178 0.925521 0.082682
O O6 0.366296 0.993931 0.403951
O O7 0.485809 0.077185 0.209691
O O8 0.540850 0.700614 0.055697
O O9 0.724644 0.582284 0.760472
O O10 0.530664 0.585105 0.713772
O O11 0.677414 0.322489 0.808733
O O12 0.876312 0.677834 0.599702
O O13 0.944305 0.304957 0.548404
O O14 0.844420 0.899168 0.421881
O O15 0.650011 0.119384 0.338912
O O16 0.871604 0.021422 0.756832
#
# Coordination Sequence:
#
# PCOD9083374 Si02
#       8
#     2   2   2   2   2   2   2   2
#     4   9  18  33  56  83 110 141 178 222 275 325
#     4  10  20  35  54  78 111 150 182 212 265 330
#     4  11  21  32  55  86 113 140 179 229 270 314
#     4   9  20  41  62  78 101 144 192 225 262 323
#     4   9  17  34  58  79 105 148 186 214 263 329
#     4  10  19  34  55  79 111 147 185 217 258 326
#     4   9  20  39  62  78 102 145 190 223 266 328
#     4  11  21  34  54  83 116 144 174 221 280 326
#
# _framework density 23.569102000000001
#
# number of rings (size 3 to 8) (size 9 to 14) (size 15 to 20)
#    0.000    2.250    0.000    6.000    0.000    2.000 
#    0.000   10.000    0.000   24.000    0.000    0.000 
#    0.000    0.000    0.000    0.000    0.000    0.000 
#
# Total GULP energy -89426.937769 kJ/mol
# GULP energy per Si atom -5589.183611 kJ/mol
# Density = 2.351546 g / cm^3
# Si number density = 23.569102 Si / 1000 Ang^3
#
#
#
# Elastic Constant Matrix: (Units=GPa)
#
#
# Indices 1 2 3 4 5 6 
#
# 1 71.3717 35.6542 19.4644 12.7660 -3.9377 -24.3758
# 2 35.6542 100.2819 30.0230 9.8099 1.6527 -38.2097
# 3 19.4644 30.0230 92.4961 29.7708 14.1571 -7.0110
# 4 12.7660 9.8099 29.7708 44.5907 2.7841 -2.4904
# 5 -3.9377 1.6527 14.1571 2.7841 30.3980 12.5778
# 6 -24.3758 -38.2097 -7.0110 -2.4904 12.5778 54.6388
#
#
#
# Elastic Compliance Matrix: (Units=1/GPa)
#
#
# Indices 1 2 3 4 5 6 
#
# 1 0.018786 -0.004133 -0.001423 -0.003356 0.001652 0.004775
# 2 -0.004133 0.016257 -0.003183 0.000556 -0.004168 0.010102
# 3 -0.001423 -0.003183 0.016204 -0.009261 -0.006866 0.000377
# 4 -0.003356 0.000556 -0.009261 0.029264 0.001731 -0.001362
# 5 0.001652 -0.004168 -0.006866 0.001731 0.041569 -0.012548
# 6 0.004775 0.010102 0.000377 -0.001362 -0.012548 0.030371
#
#
# Mechanical properties :
#
#
# Convention : Reuss Voigt Hill
#
# Bulk Modulus (GPa) = 29.61114 48.27031 38.94073
# Shear Modulus (GPa) = 27.59624 37.85936 32.72780
#
# Velocity S-wave (km/s) = 3.42550 4.01223 3.73042
# Velocity P-wave (km/s) = 5.31378 6.47988 5.92558
#
# Compressibility (1/GPa) = 0.03377107
#
# Stress axis : x y z
#
# Youngs Moduli (GPa) = 53.23142 61.51069 61.71346
#
# Poissons Ratio (x) = 0.25422 0.08780
# Poissons Ratio (y) = 0.22000 0.19640
# Poissons Ratio (z) = 0.07573 0.19576
#
# Static dielectric constant tensor:
#      x y z
#    x 1.929990 0.046280 0.029120 
#    y 0.046280 1.987950 -0.031190 
#    z 0.029120 -0.031190 1.905740 
# 
# From -- ./inp_files/296419.got.cif
#   From: 2010.05.17/outbox.cif.g08.bks.cpg/sg2_149_cif.got.tgz:296419.got - 2010.06.03 11:33:40.
