data_PCOD9083981
_publ_section_title
;
Structure prediction by ZEFSAII (Michael W. Deem and Ramdas Pophale) SiO2 
 PCOD9083981
Probable space group: P -1
;
_chemical_formula_sum "Si O2"
_cell_formula_units_Z 15
_cell_length_a 14.200899
_cell_length_b 12.377417
_cell_length_c 15.959850
_cell_angle_alpha 146.672959
_cell_angle_beta 151.457971
_cell_angle_gamma 55.658400
_cell_volume 561.443215
_symmetry_space_group_name_H-M "P -1"
_symmetry_group_IT_number 2
_symmetry_cell_setting 'triclinic'
loop_
_space_group_symop_operation_xyz
x,y,z
-x,-y,-z
loop_
_atom_site_type_symbol
_atom_site_label
_atom_site_fract_x
_atom_site_fract_y
_atom_site_fract_z
Si Si1 0.227131 0.844898 0.733593
Si Si2 0.316776 0.503818 0.656683
Si Si3 0.597679 0.826413 0.586940
Si Si4 0.964715 0.540601 0.095696
Si Si5 0.864455 0.932369 0.452758
Si Si6 0.670825 0.753745 0.356547
Si Si7 0.508534 0.737748 0.654298
Si Si8 0.500000 0.000000 0.500000
O O1 0.169771 0.598244 0.569879
O O2 0.008302 0.815832 0.491324
O O3 0.500000 0.000000 0.000000
O O4 0.286766 0.033800 0.977305
O O5 0.360603 0.371807 0.532505
O O6 0.193436 0.302318 0.506536
O O7 0.595841 0.752867 0.075108
O O8 0.569248 0.835107 0.668498
O O9 0.749069 0.064435 0.797953
O O10 0.311375 0.715583 0.252067
O O11 0.228870 0.633479 0.399721
O O12 0.960294 0.773355 0.249167
O O13 0.000000 0.500000 0.000000
O O14 0.820526 0.960722 0.534303
O O15 0.520798 0.814438 0.332964
O O16 0.500000 0.500000 0.000000
O O17 0.500000 0.500000 0.500000
#
# Coordination Sequence:
#
# PCOD9083981 Si02
#       8
#     2   2   2   2   2   2   2   1
#     4  12  25  38  63  94 131 172 213 273 330 388
#     4  10  22  41  62  93 124 169 219 269 319 398
#     4  10  22  39  64  91 123 171 216 263 333 389
#     4  10  19  34  59  87 119 162 210 254 319 387
#     4  11  22  40  65  94 129 173 213 271 333 387
#     4   9  20  38  66  95 127 170 222 264 330 391
#     4  11  22  38  58  90 131 164 208 274 325 392
#     4  10  20  38  68  96 128 170 222 278 316 402
#
# _framework density 26.71686
#
# number of rings (size 3 to 8) (size 9 to 14) (size 15 to 20)
#    0.000    1.600    1.333    4.800    3.733    1.600 
#    0.000    0.000    2.933    2.400    0.000    0.000 
#    0.000    0.000    0.000    0.000    0.000    0.000 
#
# Total GULP energy -83789.510470 kJ/mol
# GULP energy per Si atom -5585.967365 kJ/mol
# Density = 2.665605 g / cm^3
# Si number density = 26.716860 Si / 1000 Ang^3
#
#
#
# Elastic Constant Matrix: (Units=GPa)
#
#
# Indices 1 2 3 4 5 6 
#
# 1 160.9486 32.6944 35.2138 -4.0623 -28.5968 10.6192
# 2 32.6944 187.6342 36.0535 7.1879 -19.2399 -23.9316
# 3 35.2138 36.0535 96.3445 -2.0125 -4.0858 -7.7985
# 4 -4.0623 7.1879 -2.0125 32.5642 -2.7686 -1.8729
# 5 -28.5968 -19.2399 -4.0858 -2.7686 35.7777 -7.6066
# 6 10.6192 -23.9316 -7.7985 -1.8729 -7.6066 52.2323
#
#
#
# Elastic Compliance Matrix: (Units=1/GPa)
#
#
# Indices 1 2 3 4 5 6 
#
# 1 0.008013 -0.000558 -0.002567 0.001361 0.005619 -0.001401
# 2 -0.000558 0.006618 -0.001878 -0.001155 0.003519 0.003336
# 3 -0.002567 -0.001878 0.012085 0.000802 -0.001343 0.001299
# 4 0.001361 -0.001155 0.000802 0.031506 0.003189 0.000908
# 5 0.005619 0.003519 -0.001343 0.003189 0.035612 0.005570
# 6 -0.001401 0.003336 0.001299 0.000908 0.005570 0.021996
#
#
# Mechanical properties :
#
#
# Convention : Reuss Voigt Hill
#
# Bulk Modulus (GPa) = 59.83598 72.53900 66.18749
# Shear Modulus (GPa) = 38.05011 46.84588 42.44799
#
# Velocity S-wave (km/s) = 3.77795 4.19193 3.99031
# Velocity P-wave (km/s) = 6.44015 7.11615 6.78657
#
# Compressibility (1/GPa) = 0.01671235
#
# Stress axis : x y z
#
# Youngs Moduli (GPa) = 124.79332 151.10182 82.74612
#
# Poissons Ratio (x) = 0.08426 0.21239
# Poissons Ratio (y) = 0.06959 0.15537
# Poissons Ratio (z) = 0.32032 0.28371
#
# Static dielectric constant tensor:
#      x y z
#    x 2.274370 0.280490 0.114880 
#    y 0.280490 2.359150 0.072690 
#    z 0.114880 0.072690 2.228110 
# 
# From -- ./inp_files/254885.got.cif
#   From: 2010.05.17/outbox.cif.g08.bks.cpg/sg2_128_cif.got.tgz:254885.got - 2010.06.03 11:33:40.
