data_PCOD9083738
_publ_section_title
;
Structure prediction by ZEFSAII (Michael W. Deem and Ramdas Pophale) SiO2 
 PCOD9083738
Probable space group: P -1
;
_chemical_formula_sum "Si O2"
_cell_formula_units_Z 16
_cell_length_a 13.965491
_cell_length_b 5.150621
_cell_length_c 13.179559
_cell_angle_alpha 67.015627
_cell_angle_beta 57.526790
_cell_angle_gamma 100.665861
_cell_volume 634.108914
_symmetry_space_group_name_H-M "P -1"
_symmetry_group_IT_number 2
_symmetry_cell_setting 'triclinic'
loop_
_space_group_symop_operation_xyz
x,y,z
-x,-y,-z
loop_
_atom_site_type_symbol
_atom_site_label
_atom_site_fract_x
_atom_site_fract_y
_atom_site_fract_z
Si Si1 0.555345 0.377210 0.899819
Si Si2 0.174092 0.342016 0.201899
Si Si3 0.377121 0.445497 0.648449
Si Si4 0.207615 0.693793 0.922401
Si Si5 0.059315 0.362544 0.871767
Si Si6 0.431274 0.223474 0.344520
Si Si7 0.002260 0.374273 0.670016
Si Si8 0.724695 0.490023 0.511118
O O1 0.712199 0.565542 0.795339
O O2 0.511771 0.466877 0.807744
O O3 0.500000 0.500000 0.000000
O O4 0.500000 0.000000 0.000000
O O5 0.064668 0.408567 0.305141
O O6 0.240220 0.556940 0.026913
O O7 0.104844 0.967154 0.264737
O O8 0.500000 0.500000 0.500000
O O9 0.456487 0.714064 0.648981
O O10 0.286198 0.472999 0.610528
O O11 0.296550 0.085888 0.801028
O O12 0.190419 0.569316 0.833734
O O13 0.051746 0.542834 0.056512
O O14 0.043133 0.329467 0.765986
O O15 0.000000 0.000000 0.000000
O O16 0.311123 0.247824 0.462224
O O17 0.384471 0.894671 0.358141
O O18 0.143517 0.484888 0.521709
#
# Coordination Sequence:
#
# PCOD9083738 Si02
#       8
#     2   2   2   2   2   2   2   2
#     4  12  26  49  76  99 131 178 228 291 340 388
#     4  11  24  43  66 103 132 172 231 281 336 402
#     4  10  23  40  64  97 137 183 228 272 337 415
#     4  10  21  36  58  92 136 170 220 273 335 399
#     4  10  19  34  57  92 130 177 214 267 337 408
#     4  11  25  47  67  99 134 181 235 279 333 405
#     4  11  23  40  66  99 139 174 219 277 341 407
#     4  11  24  44  68  98 141 182 218 275 343 414
#
# _framework density 25.232258000000002
#
# number of rings (size 3 to 8) (size 9 to 14) (size 15 to 20)
#    0.000    1.250    1.250    4.125    7.000    2.000 
#    6.750    3.750    0.000    0.000    0.000    0.000 
#    0.000    0.000    0.000    0.000    0.000    0.000 
#
# Total GULP energy -89344.897780 kJ/mol
# GULP energy per Si atom -5584.056111 kJ/mol
# Density = 2.517483 g / cm^3
# Si number density = 25.232258 Si / 1000 Ang^3
#
#
#
# Elastic Constant Matrix: (Units=GPa)
#
#
# Indices 1 2 3 4 5 6 
#
# 1 100.8812 7.4436 10.7750 9.7206 -19.3107 -1.6785
# 2 7.4436 96.5391 1.0180 -8.2625 -7.8218 0.1721
# 3 10.7750 1.0180 29.8947 -6.1009 5.9035 13.1768
# 4 9.7206 -8.2625 -6.1009 33.3926 -1.6392 -8.2641
# 5 -19.3107 -7.8218 5.9035 -1.6392 44.0384 -4.9716
# 6 -1.6785 0.1721 13.1768 -8.2641 -4.9716 26.9554
#
#
#
# Elastic Compliance Matrix: (Units=1/GPa)
#
#
# Indices 1 2 3 4 5 6 
#
# 1 0.012781 -0.000646 -0.009188 -0.003861 0.007191 0.005434
# 2 -0.000646 0.010852 -0.000541 0.003250 0.002010 0.001522
# 3 -0.009188 -0.000541 0.052624 0.004666 -0.014106 -0.027464
# 4 -0.003861 0.003250 0.004666 0.034783 0.000480 0.008211
# 5 0.007191 0.002010 -0.014106 0.000480 0.029587 0.012935
# 6 0.005434 0.001522 -0.027464 0.008211 0.012935 0.055755
#
#
# Mechanical properties :
#
#
# Convention : Reuss Voigt Hill
#
# Bulk Modulus (GPa) = 18.01567 29.53205 23.77386
# Shear Modulus (GPa) = 21.21940 34.74917 27.98428
#
# Velocity S-wave (km/s) = 2.90308 3.71505 3.33388
# Velocity P-wave (km/s) = 4.28866 5.48923 4.92566
#
# Compressibility (1/GPa) = 0.05550723
#
# Stress axis : x y z
#
# Youngs Moduli (GPa) = 78.24395 92.14671 19.00275
#
# Poissons Ratio (x) = 0.05954 0.17459
# Poissons Ratio (y) = 0.05055 0.01028
# Poissons Ratio (z) = 0.71887 0.04987
#
# Static dielectric constant tensor:
#      x y z
#    x 5.549260 1.938470 5.113740 
#    y 1.938470 3.102500 3.039140 
#    z 5.113740 3.039140 9.727460 
# 
# From -- ./inp_files/525554.got.cif
#   From: 2010.05.17/outbox.cif.g08.bks.cpg/sg2_263_cif.got.tgz:525554.got - 2010.06.03 11:33:40.
