data_PCOD9083002
_publ_section_title
;
Structure prediction by ZEFSAII (Michael W. Deem and Ramdas Pophale) SiO2 
 PCOD9083002
Probable space group: P -1
;
_chemical_formula_sum "Si O2"
_cell_formula_units_Z 16
_cell_length_a 9.543173
_cell_length_b 8.743531
_cell_length_c 10.625294
_cell_angle_alpha 62.481289
_cell_angle_beta 111.538765
_cell_angle_gamma 108.903987
_cell_volume 718.453826
_symmetry_space_group_name_H-M "P -1"
_symmetry_group_IT_number 2
_symmetry_cell_setting 'triclinic'
loop_
_space_group_symop_operation_xyz
x,y,z
-x,-y,-z
loop_
_atom_site_type_symbol
_atom_site_label
_atom_site_fract_x
_atom_site_fract_y
_atom_site_fract_z
Si Si1 0.975691 0.637383 0.646590
Si Si2 0.930043 0.884798 0.904039
Si Si3 0.142324 0.624775 0.105338
Si Si4 0.886368 0.045814 0.580709
Si Si5 0.597321 0.724788 0.863141
Si Si6 0.436082 0.175093 0.454279
Si Si7 0.283602 0.612562 0.886229
Si Si8 0.748283 0.312928 0.615870
O O1 0.009381 0.833549 0.532379
O O2 0.895091 0.574152 0.777756
O O3 0.860920 0.504888 0.568651
O O4 0.148053 0.602740 0.743905
O O5 0.747935 0.872540 0.858226
O O6 0.986884 0.701285 0.010665
O O7 0.975852 0.959153 0.751690
O O8 0.000000 0.000000 0.000000
O O9 0.434730 0.755323 0.847869
O O10 0.227455 0.647122 0.993844
O O11 0.228553 0.726003 0.214363
O O12 0.815676 0.188998 0.587492
O O13 0.738738 0.906986 0.534096
O O14 0.570831 0.697726 0.715759
O O15 0.652543 0.568142 0.015789
O O16 0.566353 0.284044 0.544123
O O17 0.500000 0.000000 0.500000
#
# Coordination Sequence:
#
# PCOD9083002 Si02
#       8
#     2   2   2   2   2   2   2   2
#     4  10  20  35  61  90 116 157 202 257 289 359
#     4  11  20  39  61  92 117 158 199 250 298 365
#     4  10  22  37  65  85 126 154 202 254 304 349
#     4  10  19  33  60  88 121 153 203 242 303 360
#     4  10  22  36  64  85 116 157 209 244 291 370
#     4   9  18  35  57  84 121 158 195 247 302 362
#     4  11  21  40  60  91 115 161 204 251 301 351
#     4   9  18  32  58  87 115 158 199 244 299 350
#
# _framework density 22.270049
#
# number of rings (size 3 to 8) (size 9 to 14) (size 15 to 20)
#    0.750    1.250    2.500    2.250    0.000    0.000 
#    2.250    1.875    2.750    0.000    0.000    0.000 
#    0.000    0.000    0.000    0.000    0.000    0.000 
#
# Total GULP energy -89136.044175 kJ/mol
# GULP energy per Si atom -5571.002761 kJ/mol
# Density = 2.221936 g / cm^3
# Si number density = 22.270049 Si / 1000 Ang^3
#
#
#
# Elastic Constant Matrix: (Units=GPa)
#
#
# Indices 1 2 3 4 5 6 
#
# 1 107.2712 43.7653 35.1851 4.3345 -12.5480 36.5564
# 2 43.7653 103.6259 59.2047 8.6717 9.0755 30.3985
# 3 35.1851 59.2047 128.9376 -2.5397 8.4962 28.6791
# 4 4.3345 8.6717 -2.5397 46.8975 9.2827 13.0111
# 5 -12.5480 9.0755 8.4962 9.2827 31.2169 -0.6178
# 6 36.5564 30.3985 28.6791 13.0111 -0.6178 36.4288
#
#
#
# Elastic Compliance Matrix: (Units=1/GPa)
#
#
# Indices 1 2 3 4 5 6 
#
# 1 0.016179 -0.003433 -0.000225 0.001558 0.006830 -0.013634
# 2 -0.003433 0.016084 -0.004748 -0.000229 -0.004819 -0.006238
# 3 -0.000225 -0.004748 0.011741 0.003984 -0.003220 -0.006533
# 4 0.001558 -0.000229 0.003984 0.027152 -0.008749 -0.014355
# 5 0.006830 -0.004819 -0.003220 -0.008749 0.039728 0.003501
# 6 -0.013634 -0.006238 -0.006533 -0.014355 0.003501 0.056668
#
#
# Mechanical properties :
#
#
# Convention : Reuss Voigt Hill
#
# Bulk Modulus (GPa) = 36.77688 68.46054 52.61871
# Shear Modulus (GPa) = 25.84946 36.35394 31.10170
#
# Velocity S-wave (km/s) = 3.41064 4.04470 3.74113
# Velocity P-wave (km/s) = 5.66214 7.25401 6.50694
#
# Compressibility (1/GPa) = 0.02719100
#
# Stress axis : x y z
#
# Youngs Moduli (GPa) = 61.80842 62.17396 85.17151
#
# Poissons Ratio (x) = 0.21346 0.01919
# Poissons Ratio (y) = 0.21221 0.40438
# Poissons Ratio (z) = 0.01393 0.29519
#
# Static dielectric constant tensor:
#      x y z
#    x 1.871430 0.000250 -0.011780 
#    y 0.000250 1.869320 -0.042130 
#    z -0.011780 -0.042130 1.869850 
# 
# From -- ./inp_files/448662.got.cif
#   From: 2010.05.17/outbox.cif.g08.bks.cpg/sg2_225_cif.got.tgz:448662.got - 2010.06.03 11:33:40.
