data_PCOD9083883
_publ_section_title
;
Structure prediction by ZEFSAII (Michael W. Deem and Ramdas Pophale) SiO2 
 PCOD9083883
Probable space group: P -1
;
_chemical_formula_sum "Si O2"
_cell_formula_units_Z 16
_cell_length_a 11.967825
_cell_length_b 8.531711
_cell_length_c 19.356596
_cell_angle_alpha 59.511561
_cell_angle_beta 153.993168
_cell_angle_gamma 114.722423
_cell_volume 743.053619
_symmetry_space_group_name_H-M "P -1"
_symmetry_group_IT_number 2
_symmetry_cell_setting 'triclinic'
loop_
_space_group_symop_operation_xyz
x,y,z
-x,-y,-z
loop_
_atom_site_type_symbol
_atom_site_label
_atom_site_fract_x
_atom_site_fract_y
_atom_site_fract_z
Si Si1 0.826352 0.007392 0.509885
Si Si2 0.905670 0.383124 0.410948
Si Si3 0.279787 0.272547 0.834713
Si Si4 0.610050 0.004753 0.170713
Si Si5 0.450994 0.226586 0.688419
Si Si6 0.177486 0.843051 0.309529
Si Si7 0.781461 0.819046 0.671089
Si Si8 0.260522 0.567450 0.300840
O O1 0.783050 0.215718 0.415508
O O2 0.608896 0.900698 0.380088
O O3 0.833063 0.948020 0.606183
O O4 0.116754 0.950696 0.657410
O O5 0.714865 0.517557 0.229313
O O6 0.000000 0.500000 0.500000
O O7 0.169399 0.320099 0.531731
O O8 0.999594 0.250451 0.713878
O O9 0.330793 0.145283 0.823725
O O10 0.468045 0.182777 0.017622
O O11 0.463534 0.903794 0.170866
O O12 0.634540 0.365824 0.728665
O O13 0.475083 0.810199 0.505334
O O14 0.135031 0.741269 0.236149
O O15 0.124100 0.064603 0.238195
O O16 0.887469 0.611061 0.757399
O O17 0.500000 0.500000 0.500000
#
# Coordination Sequence:
#
# PCOD9083883 Si02
#       8
#     2   2   2   2   2   2   2   2
#     4  11  20  37  58  87 122 148 196 247 302 345
#     4  11  19  33  58  89 110 149 197 245 282 348
#     4  11  21  38  59  86 122 157 202 233 306 369
#     4  10  22  38  58  84 121 166 184 245 312 354
#     4  11  21  39  57  89 124 146 201 252 297 345
#     4  10  19  35  58  86 114 154 200 244 287 361
#     4  10  19  34  58  91 117 150 196 256 294 344
#     4  10  19  34  59  87 117 153 193 250 304 341
#
# _framework density 21.532767
#
# number of rings (size 3 to 8) (size 9 to 14) (size 15 to 20)
#    0.000    1.500    6.250    3.000    0.000    1.000 
#    0.000    3.125    0.000    0.750    0.000    0.000 
#    0.000    0.000    0.000    0.000    0.000    0.000 
#
# Total GULP energy -89209.941293 kJ/mol
# GULP energy per Si atom -5575.621331 kJ/mol
# Density = 2.148376 g / cm^3
# Si number density = 21.532767 Si / 1000 Ang^3
#
#
#
# Elastic Constant Matrix: (Units=GPa)
#
#
# Indices 1 2 3 4 5 6 
#
# 1 91.4988 35.5648 9.5474 -12.5497 -7.3241 9.3184
# 2 35.5648 131.2738 28.4985 -31.3148 -3.5892 -1.5116
# 3 9.5474 28.4985 66.3259 -26.9928 -22.3017 14.1705
# 4 -12.5497 -31.3148 -26.9928 25.1414 6.8027 -5.5283
# 5 -7.3241 -3.5892 -22.3017 6.8027 18.8505 -7.7011
# 6 9.3184 -1.5116 14.1705 -5.5283 -7.7011 44.6765
#
#
#
# Elastic Compliance Matrix: (Units=1/GPa)
#
#
# Indices 1 2 3 4 5 6 
#
# 1 0.013173 -0.003193 0.004207 0.004746 0.006780 -0.002434
# 2 -0.003193 0.011910 -0.000846 0.013945 -0.004040 0.002367
# 3 0.004207 -0.000846 0.043125 0.036298 0.037943 -0.003552
# 4 0.004746 0.013945 0.036298 0.095177 0.013977 0.002155
# 5 0.006780 -0.004040 0.037943 0.013977 0.096728 0.004817
# 6 -0.002434 0.002367 -0.003552 0.002155 0.004817 0.025195
#
#
# Mechanical properties :
#
#
# Convention : Reuss Voigt Hill
#
# Bulk Modulus (GPa) = 14.58948 48.47998 31.53473
# Shear Modulus (GPa) = 16.24333 32.09953 24.17143
#
# Velocity S-wave (km/s) = 2.74953 3.86519 3.35407
# Velocity P-wave (km/s) = 4.10732 6.51789 5.44761
#
# Compressibility (1/GPa) = 0.06854254
#
# Stress axis : x y z
#
# Youngs Moduli (GPa) = 75.91541 83.96501 23.18859
#
# Poissons Ratio (x) = 0.26806 -0.09755
# Poissons Ratio (y) = 0.24237 0.01963
# Poissons Ratio (z) = -0.31935 0.07106
#
# Static dielectric constant tensor:
#      x y z
#    x 1.857600 -0.049510 0.006470 
#    y -0.049510 1.842810 -0.038140 
#    z 0.006470 -0.038140 1.806660 
# 
# From -- ./inp_files/588856.got.cif
#   From: 2010.05.17/outbox.cif.g08.bks.cpg/sg2_295_cif.got.tgz:588856.got - 2010.06.03 11:33:40.
