data_PCOD9083034
_publ_section_title
;
Structure prediction by ZEFSAII (Michael W. Deem and Ramdas Pophale) SiO2 
 PCOD9083034
Probable space group: P -1
;
_chemical_formula_sum "Si O2"
_cell_formula_units_Z 16
_cell_length_a 5.872314
_cell_length_b 15.803692
_cell_length_c 15.350699
_cell_angle_alpha 38.642948
_cell_angle_beta 87.544007
_cell_angle_gamma 105.718859
_cell_volume 775.842792
_symmetry_space_group_name_H-M "P -1"
_symmetry_group_IT_number 2
_symmetry_cell_setting 'triclinic'
loop_
_space_group_symop_operation_xyz
x,y,z
-x,-y,-z
loop_
_atom_site_type_symbol
_atom_site_label
_atom_site_fract_x
_atom_site_fract_y
_atom_site_fract_z
Si Si1 0.360569 0.780173 0.491023
Si Si2 0.758319 0.784191 0.368561
Si Si3 0.137440 0.148346 0.312652
Si Si4 0.276677 0.050361 0.213896
Si Si5 0.918003 0.538359 0.563219
Si Si6 0.642467 0.217460 0.925453
Si Si7 0.334738 0.811494 0.662664
Si Si8 0.739399 0.973566 0.070097
O O1 0.624639 0.776667 0.468791
O O2 0.401629 0.951809 0.333993
O O3 0.274192 0.742798 0.621540
O O4 0.153524 0.660809 0.521649
O O5 0.749826 0.623887 0.478170
O O6 0.629253 0.838608 0.252990
O O7 0.053410 0.923517 0.257520
O O8 0.449636 0.230416 0.266403
O O9 0.944404 0.223499 0.262726
O O10 0.144148 0.097970 0.253865
O O11 0.000000 0.000000 0.500000
O O12 0.487604 0.188738 0.040606
O O13 0.773082 0.385750 0.747230
O O14 0.000000 0.500000 0.500000
O O15 0.453167 0.100970 0.948514
O O16 0.819484 0.133867 0.992237
O O17 0.500000 0.000000 0.500000
O O18 0.000000 0.000000 0.000000
#
# Coordination Sequence:
#
# PCOD9083034 Si02
#       8
#     2   2   2   2   2   2   2   2
#     4  11  22  38  62  92 123 165 211 265 315 387
#     4  11  22  38  63  88 120 167 214 259 315 385
#     4  10  19  33  60  95 130 157 207 276 331 381
#     4  11  21  36  61  95 122 157 208 273 318 378
#     4  11  26  42  59  87 132 171 212 257 320 390
#     4  11  24  39  58  89 127 160 210 269 320 378
#     4  10  19  34  61  96 127 160 213 275 325 380
#     4  11  21  37  61  85 117 161 213 262 315 367
#
# _framework density 20.622733
#
# number of rings (size 3 to 8) (size 9 to 14) (size 15 to 20)
#    0.000    1.250    5.000    3.000    5.250    3.000 
#    0.000    0.000    0.000    1.500    0.000    0.000 
#    0.000    0.000    0.000    0.000    0.000    0.000 
#
# Total GULP energy -89116.446631 kJ/mol
# GULP energy per Si atom -5569.777914 kJ/mol
# Density = 2.057579 g / cm^3
# Si number density = 20.622733 Si / 1000 Ang^3
#
#
#
# Elastic Constant Matrix: (Units=GPa)
#
#
# Indices 1 2 3 4 5 6 
#
# 1 103.5057 35.9402 47.1856 -8.5791 1.6584 -27.4618
# 2 35.9402 114.0593 50.4074 20.7912 -6.7828 -26.4083
# 3 47.1856 50.4074 145.2070 -2.8050 -0.2096 -27.6572
# 4 -8.5791 20.7912 -2.8050 27.8824 -8.7618 -6.4994
# 5 1.6584 -6.7828 -0.2096 -8.7618 25.4220 5.3853
# 6 -27.4618 -26.4083 -27.6572 -6.4994 5.3853 46.3427
#
#
#
# Elastic Compliance Matrix: (Units=1/GPa)
#
#
# Indices 1 2 3 4 5 6 
#
# 1 0.014213 -0.003662 -0.001977 0.008255 -0.000423 0.006363
# 2 -0.003662 0.014060 -0.003500 -0.011613 -0.000503 0.002183
# 3 -0.001977 -0.003500 0.009375 0.003596 -0.000112 0.002946
# 4 0.008255 -0.011613 0.003596 0.053094 0.013354 0.006315
# 5 -0.000423 -0.000503 -0.000112 0.013354 0.044662 -0.003922
# 6 0.006363 0.002183 0.002946 0.006315 -0.003922 0.029693
#
#
# Mechanical properties :
#
#
# Convention : Reuss Voigt Hill
#
# Bulk Modulus (GPa) = 51.62382 69.98203 60.80293
# Shear Modulus (GPa) = 26.33918 35.21201 30.77559
#
# Velocity S-wave (km/s) = 3.57766 4.13660 3.86724
# Velocity P-wave (km/s) = 6.49254 7.53812 7.03478
#
# Compressibility (1/GPa) = 0.01937090
#
# Stress axis : x y z
#
# Youngs Moduli (GPa) = 70.35774 71.12150 106.67114
#
# Poissons Ratio (x) = 0.26042 0.21085
# Poissons Ratio (y) = 0.25763 0.37338
# Poissons Ratio (z) = 0.13907 0.24895
#
# Static dielectric constant tensor:
#      x y z
#    x 1.303370 -0.014140 -0.477730 
#    y -0.014140 1.650920 -0.203330 
#    z -0.477730 -0.203330 0.772540 
# 
# From -- ./inp_files/37999.got.cif
#   From: 2010.05.17/outbox.cif.g08.bks.cpg/sg2_19_cif.got.tgz:37999.got - 2010.06.03 11:33:40.
