data_PCOD9083740
_publ_section_title
;
Structure prediction by ZEFSAII (Michael W. Deem and Ramdas Pophale) SiO2 
 PCOD9083740
Probable space group: P -1
;
_chemical_formula_sum "Si O2"
_cell_formula_units_Z 14
_cell_length_a 9.117648
_cell_length_b 8.535751
_cell_length_c 9.727570
_cell_angle_alpha 107.429666
_cell_angle_beta 45.272117
_cell_angle_gamma 107.080493
_cell_volume 509.307291
_symmetry_space_group_name_H-M "P -1"
_symmetry_group_IT_number 2
_symmetry_cell_setting 'triclinic'
loop_
_space_group_symop_operation_xyz
x,y,z
-x,-y,-z
loop_
_atom_site_type_symbol
_atom_site_label
_atom_site_fract_x
_atom_site_fract_y
_atom_site_fract_z
Si Si1 0.898476 0.013121 0.302322
Si Si2 0.077154 0.471231 0.258271
Si Si3 0.422524 0.622783 0.415898
Si Si4 0.654853 0.203997 0.735288
Si Si5 0.014064 0.241226 0.011666
Si Si6 0.700845 0.823800 0.824788
Si Si7 0.434613 0.720479 0.721760
O O1 0.111774 0.030290 0.252635
O O2 0.744832 0.086587 0.530596
O O3 0.849236 0.838581 0.212355
O O4 0.966657 0.128612 0.152404
O O5 0.170682 0.658665 0.278827
O O6 0.204310 0.343884 0.228798
O O7 0.828330 0.439308 0.442574
O O8 0.087608 0.417287 0.078029
O O9 0.480907 0.692790 0.247645
O O10 0.449143 0.751232 0.557546
O O11 0.548588 0.472792 0.325481
O O12 0.489125 0.141168 0.943162
O O13 0.792758 0.239180 0.083167
O O14 0.613341 0.799570 0.723748
#
# Coordination Sequence:
#
# PCOD9083740 Si02
#       7
#     2   2   2   2   2   2   2
#     4  10  21  42  63  82 119 169 197 238 292 372
#     4  10  19  37  59  87 118 159 196 238 293 359
#     4  10  19  34  62  84 125 157 193 241 307 349
#     4  12  20  36  66  94 113 155 206 246 288 362
#     4   9  20  39  63  81 121 166 196 236 306 352
#     4  11  22  34  63  92 121 150 204 246 299 347
#     4  10  19  34  57  93 120 154 192 255 298 347
#
# _framework density 27.488316000000001
#
# number of rings (size 3 to 8) (size 9 to 14) (size 15 to 20)
#    0.000    1.714    5.714    1.714    0.000    0.571 
#    0.000   10.000   12.571    0.000    0.000    0.000 
#    0.000    0.000    0.000    0.000    0.000    0.000 
#
# Total GULP energy -78366.336076 kJ/mol
# GULP energy per Si atom -5597.595434 kJ/mol
# Density = 2.742575 g / cm^3
# Si number density = 27.488316 Si / 1000 Ang^3
#
#
#
# Elastic Constant Matrix: (Units=GPa)
#
#
# Indices 1 2 3 4 5 6 
#
# 1 133.1390 32.7445 21.9075 -3.7910 7.6375 36.3425
# 2 32.7445 71.7113 47.6679 19.2128 18.0394 16.4302
# 3 21.9075 47.6679 148.5576 7.7760 -1.9648 11.3940
# 4 -3.7910 19.2128 7.7760 50.5892 8.9784 13.3912
# 5 7.6375 18.0394 -1.9648 8.9784 39.2034 2.1147
# 6 36.3425 16.4302 11.3940 13.3912 2.1147 34.9925
#
#
#
# Elastic Compliance Matrix: (Units=1/GPa)
#
#
# Indices 1 2 3 4 5 6 
#
# 1 0.012345 -0.004044 0.000155 0.006166 -0.001233 -0.013258
# 2 -0.004044 0.025153 -0.007089 -0.006479 -0.009537 -0.002246
# 3 0.000155 -0.007089 0.009011 0.000766 0.003523 -0.000272
# 4 0.006166 -0.006479 0.000766 0.026824 -0.003588 -0.013659
# 5 -0.001233 -0.009537 0.003523 -0.003588 0.030913 0.004117
# 6 -0.013258 -0.002246 -0.000272 -0.013659 0.004117 0.048469
#
#
# Mechanical properties :
#
#
# Convention : Reuss Voigt Hill
#
# Bulk Modulus (GPa) = 40.72898 62.00529 51.36713
# Shear Modulus (GPa) = 27.34377 41.69621 34.51999
#
# Velocity S-wave (km/s) = 3.15737 3.89893 3.54758
# Velocity P-wave (km/s) = 5.30481 6.54788 5.95885
#
# Compressibility (1/GPa) = 0.02455254
#
# Stress axis : x y z
#
# Youngs Moduli (GPa) = 81.00152 39.75621 110.97913
#
# Poissons Ratio (x) = 0.16077 -0.01719
# Poissons Ratio (y) = 0.32757 0.78677
# Poissons Ratio (z) = -0.01255 0.28185
#
# Static dielectric constant tensor:
#      x y z
#    x 2.095690 -0.037490 -0.009460 
#    y -0.037490 2.235590 0.034970 
#    z -0.009460 0.034970 2.115750 
# 
# From -- ./inp_files/396291.got.cif
#   From: 2010.05.17/outbox.cif.g08.bks.cpg/sg2_199_cif.got.tgz:396291.got - 2010.06.03 11:33:40.
