data_PCOD9083539
_publ_section_title
;
Structure prediction by ZEFSAII (Michael W. Deem and Ramdas Pophale) SiO2 
 PCOD9083539
Probable space group: P -1
;
_chemical_formula_sum "Si O2"
_cell_formula_units_Z 16
_cell_length_a 16.301535
_cell_length_b 11.076209
_cell_length_c 8.241433
_cell_angle_alpha 55.750614
_cell_angle_beta 62.500034
_cell_angle_gamma 34.858361
_cell_volume 703.023021
_symmetry_space_group_name_H-M "P -1"
_symmetry_group_IT_number 2
_symmetry_cell_setting 'triclinic'
loop_
_space_group_symop_operation_xyz
x,y,z
-x,-y,-z
loop_
_atom_site_type_symbol
_atom_site_label
_atom_site_fract_x
_atom_site_fract_y
_atom_site_fract_z
Si Si1 0.182077 0.341631 0.264597
Si Si2 0.289233 0.657136 0.515135
Si Si3 0.590171 0.182786 0.576369
Si Si4 0.640894 0.264812 0.129259
Si Si5 0.895916 0.095002 0.202084
Si Si6 0.149607 0.966029 0.133297
Si Si7 0.071839 0.588332 0.501083
Si Si8 0.929445 0.425580 0.133501
O O1 0.180304 0.426234 0.376011
O O2 0.042748 0.404888 0.370682
O O3 0.315620 0.075846 0.299968
O O4 0.159085 0.472987 0.030305
O O5 0.422763 0.387889 0.618775
O O6 0.345233 0.754591 0.434189
O O7 0.161698 0.783079 0.660849
O O8 0.234312 0.735916 0.321744
O O9 0.601670 0.211281 0.354747
O O10 0.750512 0.253324 0.111759
O O11 0.500000 0.500000 0.000000
O O12 0.740659 0.073911 0.043768
O O13 0.022508 0.053584 0.074046
O O14 0.972041 0.846791 0.350328
O O15 0.068828 0.155113 0.198756
O O16 0.141616 0.517190 0.670462
O O17 0.000000 0.500000 0.000000
#
# Coordination Sequence:
#
# PCOD9083539 Si02
#       8
#     2   2   2   2   2   2   2   2
#     4  10  19  35  56  82 123 161 202 257 299 357
#     4  10  19  35  59  86 117 159 197 251 300 370
#     4  10  20  37  57  85 124 160 202 248 312 355
#     4  11  22  37  56  90 123 156 202 249 308 370
#     4  11  22  39  58  92 125 156 199 258 318 360
#     4  12  22  36  62  92 121 156 200 260 315 359
#     4  10  19  34  56  86 122 157 203 253 309 363
#     4  10  21  34  55  93 119 157 208 251 304 364
#
# _framework density 22.758856999999999
#
# number of rings (size 3 to 8) (size 9 to 14) (size 15 to 20)
#    0.000    1.500    5.000    2.250    3.500    0.000 
#    0.000    0.000    0.000    1.500    3.250    0.000 
#    0.000    0.000    0.000    0.000    0.000    0.000 
#
# Total GULP energy -89324.086514 kJ/mol
# GULP energy per Si atom -5582.755407 kJ/mol
# Density = 2.270706 g / cm^3
# Si number density = 22.758857 Si / 1000 Ang^3
#
#
#
# Elastic Constant Matrix: (Units=GPa)
#
#
# Indices 1 2 3 4 5 6 
#
# 1 36.0362 22.9122 22.6885 -3.8271 11.0487 -2.5446
# 2 22.9122 136.0778 42.1047 -4.4834 12.1968 6.6411
# 3 22.6885 42.1047 130.4722 -4.6352 25.9112 1.3633
# 4 -3.8271 -4.4834 -4.6352 37.4042 -0.9583 6.5669
# 5 11.0487 12.1968 25.9112 -0.9583 31.3135 5.4018
# 6 -2.5446 6.6411 1.3633 6.5669 5.4018 24.5468
#
#
#
# Elastic Compliance Matrix: (Units=1/GPa)
#
#
# Indices 1 2 3 4 5 6 
#
# 1 0.036106 -0.004611 -0.002888 0.001317 -0.009710 0.006935
# 2 -0.004611 0.008916 -0.002102 0.000895 0.000458 -0.003114
# 3 -0.002888 -0.002102 0.010191 0.000349 -0.006774 0.001101
# 4 0.001317 0.000895 0.000349 0.028452 0.001147 -0.007989
# 5 -0.009710 0.000458 -0.006774 0.001147 0.042625 -0.010441
# 6 0.006935 -0.003114 0.001101 -0.007989 -0.010441 0.046674
#
#
# Mechanical properties :
#
#
# Convention : Reuss Voigt Hill
#
# Bulk Modulus (GPa) = 27.76847 53.11076 40.43962
# Shear Modulus (GPa) = 24.48941 32.97828 28.73385
#
# Velocity S-wave (km/s) = 3.28386 3.81074 3.55707
# Velocity P-wave (km/s) = 5.15810 6.53830 5.88877
#
# Compressibility (1/GPa) = 0.03601206
#
# Stress axis : x y z
#
# Youngs Moduli (GPa) = 27.69595 112.15983 98.12257
#
# Poissons Ratio (x) = 0.51711 0.28339
# Poissons Ratio (y) = 0.12769 0.20626
# Poissons Ratio (z) = 0.07999 0.23577
#
# Static dielectric constant tensor:
#      x y z
#    x 1.949170 0.058390 0.068390 
#    y 0.058390 1.881150 0.031820 
#    z 0.068390 0.031820 1.893500 
# 
# From -- ./inp_files/277876.got.cif
#   From: 2010.05.17/outbox.cif.g08.bks.cpg/sg2_139_cif.got.tgz:277876.got - 2010.06.03 11:33:40.
