data_PCOD9083789
_publ_section_title
;
Structure prediction by ZEFSAII (Michael W. Deem and Ramdas Pophale) SiO2 
 PCOD9083789
Probable space group: P -1
;
_chemical_formula_sum "Si O2"
_cell_formula_units_Z 16
_cell_length_a 10.004063
_cell_length_b 11.220757
_cell_length_c 11.970953
_cell_angle_alpha 79.961458
_cell_angle_beta 47.365796
_cell_angle_gamma 59.045467
_cell_volume 814.898116
_symmetry_space_group_name_H-M "P -1"
_symmetry_group_IT_number 2
_symmetry_cell_setting 'triclinic'
loop_
_space_group_symop_operation_xyz
x,y,z
-x,-y,-z
loop_
_atom_site_type_symbol
_atom_site_label
_atom_site_fract_x
_atom_site_fract_y
_atom_site_fract_z
Si Si1 0.776188 0.571068 0.944399
Si Si2 0.242683 0.458168 0.650773
Si Si3 0.026384 0.054358 0.356571
Si Si4 0.304146 0.234682 0.835543
Si Si5 0.883385 0.266366 0.007162
Si Si6 0.659909 0.189458 0.961911
Si Si7 0.696256 0.288701 0.343791
Si Si8 0.411353 0.053234 0.167077
O O1 0.995089 0.509173 0.757645
O O2 0.787244 0.674007 0.013115
O O3 0.789384 0.436813 0.019192
O O4 0.546351 0.666664 0.998240
O O5 0.316618 0.342557 0.728308
O O6 0.436544 0.369919 0.467479
O O7 0.256106 0.591505 0.661865
O O8 0.153122 0.136119 0.292069
O O9 0.809160 0.161296 0.392455
O O10 0.187086 0.920572 0.204805
O O11 0.000000 0.000000 0.500000
O O12 0.515886 0.083947 0.773923
O O13 0.138286 0.198352 0.884343
O O14 0.806390 0.234011 0.170587
O O15 0.804483 0.218792 0.954911
O O16 0.538623 0.128433 0.111855
O O17 0.500000 0.000000 0.000000
#
# Coordination Sequence:
#
# PCOD9083789 Si02
#       8
#     2   2   2   2   2   2   2   2
#     4  11  19  39  61  87 117 159 204 239 284 353
#     4  10  21  34  58  89 111 153 200 248 283 336
#     4  11  23  39  61  89 119 155 200 244 296 352
#     4  11  18  36  61  84 116 153 205 240 281 349
#     4  11  22  37  59  92 120 156 195 246 300 344
#     4  11  24  38  61  89 124 155 195 245 296 354
#     4  11  21  35  58  88 122 148 194 248 295 341
#     4  10  19  34  58  83 113 155 195 235 285 349
#
# _framework density 19.634356
#
# number of rings (size 3 to 8) (size 9 to 14) (size 15 to 20)
#    0.000    1.250    5.000    4.125    0.000    2.000 
#    0.000    3.125    0.000    5.250    0.000    0.000 
#    0.000    0.000    0.000    0.000    0.000    0.000 
#
# Total GULP energy -89215.310706 kJ/mol
# GULP energy per Si atom -5575.956919 kJ/mol
# Density = 1.958967 g / cm^3
# Si number density = 19.634356 Si / 1000 Ang^3
#
#
#
# Elastic Constant Matrix: (Units=GPa)
#
#
# Indices 1 2 3 4 5 6 
#
# 1 109.9021 21.5789 21.4915 4.4355 -12.4187 -4.1111
# 2 21.5789 53.6945 14.0541 -5.9772 7.0615 -21.2594
# 3 21.4915 14.0541 78.0588 -5.7616 -9.5413 -6.9300
# 4 4.4355 -5.9772 -5.7616 24.3544 -7.3055 -4.1675
# 5 -12.4187 7.0615 -9.5413 -7.3055 16.3240 -4.6982
# 6 -4.1111 -21.2594 -6.9300 -4.1675 -4.6982 22.1188
#
#
#
# Elastic Compliance Matrix: (Units=1/GPa)
#
#
# Indices 1 2 3 4 5 6 
#
# 1 0.011793 -0.007301 -0.001239 -0.002001 0.009481 -0.003576
# 2 -0.007301 0.039280 -0.001230 0.015507 -0.005453 0.037775
# 3 -0.001239 -0.001230 0.017128 0.010785 0.017202 0.009639
# 4 -0.002001 0.015507 0.010785 0.065992 0.038708 0.038568
# 5 0.009481 -0.005453 0.017202 0.038708 0.107425 0.032021
# 6 -0.003576 0.037775 0.009639 0.038568 0.032021 0.097941
#
#
# Mechanical properties :
#
#
# Convention : Reuss Voigt Hill
#
# Bulk Modulus (GPa) = 20.55045 39.54492 30.04768
# Shear Modulus (GPa) = 13.32197 24.86150 19.09173
#
# Velocity S-wave (km/s) = 2.60763 3.56226 3.12166
# Velocity P-wave (km/s) = 4.42218 6.09131 5.32258
#
# Compressibility (1/GPa) = 0.04866075
#
# Stress axis : x y z
#
# Youngs Moduli (GPa) = 84.79557 25.45845 58.38426
#
# Poissons Ratio (x) = 0.18587 0.07232
# Poissons Ratio (y) = 0.61908 0.07184
# Poissons Ratio (z) = 0.10504 0.03132
#
# Static dielectric constant tensor:
#      x y z
#    x 1.678840 -0.005070 -0.034570 
#    y -0.005070 1.735590 0.001860 
#    z -0.034570 0.001860 1.706240 
# 
# From -- ./inp_files/177857.got.cif
#   From: 2010.05.17/outbox.cif.g08.bks.cpg/sg2_89_cif.got.tgz:177857.got - 2010.06.03 11:33:40.
