data_PCOD9083042
_publ_section_title
;
Structure prediction by ZEFSAII (Michael W. Deem and Ramdas Pophale) SiO2 
 PCOD9083042
Probable space group: P -1
;
_chemical_formula_sum "Si O2"
_cell_formula_units_Z 14
_cell_length_a 6.813535
_cell_length_b 19.202028
_cell_length_c 5.082033
_cell_angle_alpha 77.776365
_cell_angle_beta 90.481287
_cell_angle_gamma 56.006231
_cell_volume 532.135333
_symmetry_space_group_name_H-M "P -1"
_symmetry_group_IT_number 2
_symmetry_cell_setting 'triclinic'
loop_
_space_group_symop_operation_xyz
x,y,z
-x,-y,-z
loop_
_atom_site_type_symbol
_atom_site_label
_atom_site_fract_x
_atom_site_fract_y
_atom_site_fract_z
Si Si1 0.022133 0.230429 0.831660
Si Si2 0.865976 0.473695 0.213641
Si Si3 0.640985 0.628412 0.450326
Si Si4 0.715192 0.941228 0.262548
Si Si5 0.251425 0.657199 0.769802
Si Si6 0.349726 0.914618 0.515437
Si Si7 0.553760 0.185002 0.908546
O O1 0.069971 0.138314 0.832916
O O2 0.284842 0.208406 0.894622
O O3 0.898915 0.293425 0.533102
O O4 0.867779 0.276306 0.048669
O O5 0.665243 0.556255 0.313984
O O6 0.771015 0.422296 0.119598
O O7 0.085231 0.406328 0.465064
O O8 0.000000 0.500000 0.000000
O O9 0.513657 0.628909 0.714051
O O10 0.491548 0.725575 0.258447
O O11 0.605850 0.903046 0.485371
O O12 0.784846 0.994062 0.401563
O O13 0.500000 0.000000 0.000000
O O14 0.307186 0.892198 0.243755
O O15 0.355195 0.847950 0.770717
#
# Coordination Sequence:
#
# PCOD9083042 Si02
#       7
#     2   2   2   2   2   2   2
#     4  11  23  40  66 100 134 178 226 277 331 404
#     4  11  26  46  74  99 134 178 224 277 340 407
#     4  11  27  45  69 101 133 180 223 279 339 402
#     4  10  19  33  61 101 135 171 230 276 330 392
#     4  12  27  45  68 101 140 174 226 278 335 403
#     4  10  20  32  61  98 128 176 225 278 324 396
#     4  11  21  39  65  93 131 177 226 269 336 391
#
# _framework density 26.309097999999999
#
# number of rings (size 3 to 8) (size 9 to 14) (size 15 to 20)
#    0.000    1.143    4.286    3.000    8.000    0.571 
#    0.000    0.000    0.000    5.143    0.000    0.000 
#    0.000    0.000    0.000    0.000    0.000    0.000 
#
# Total GULP energy -78475.774487 kJ/mol
# GULP energy per Si atom -5605.412463 kJ/mol
# Density = 2.624922 g / cm^3
# Si number density = 26.309098 Si / 1000 Ang^3
#
#
#
# Elastic Constant Matrix: (Units=GPa)
#
#
# Indices 1 2 3 4 5 6 
#
# 1 83.1969 45.3650 16.9217 5.5003 -15.9925 11.6195
# 2 45.3650 179.1723 54.1342 36.7801 -46.3864 -7.7428
# 3 16.9217 54.1342 151.6415 19.6433 -19.5005 -0.5356
# 4 5.5003 36.7801 19.6433 57.8046 -0.5053 -8.5165
# 5 -15.9925 -46.3864 -19.5005 -0.5053 32.4929 -10.8939
# 6 11.6195 -7.7428 -0.5356 -8.5165 -10.8939 34.0866
#
#
#
# Elastic Compliance Matrix: (Units=1/GPa)
#
#
# Indices 1 2 3 4 5 6 
#
# 1 0.015135 -0.004438 -0.000359 0.000546 -0.001251 -0.006436
# 2 -0.004438 0.014047 -0.001014 -0.006586 0.020359 0.009549
# 3 -0.000359 -0.001014 0.007633 -0.001805 0.003115 0.000556
# 4 0.000546 -0.006586 -0.001805 0.022075 -0.009629 0.000727
# 5 -0.001251 0.020359 0.003115 -0.009629 0.069269 0.024832
# 6 -0.006436 0.009549 0.000556 0.000727 0.024832 0.041827
#
#
# Mechanical properties :
#
#
# Convention : Reuss Voigt Hill
#
# Bulk Modulus (GPa) = 39.69471 71.87250 55.78361
# Shear Modulus (GPa) = 26.31521 44.71613 35.51567
#
# Velocity S-wave (km/s) = 3.16608 4.12715 3.67814
# Velocity P-wave (km/s) = 5.33722 7.07735 6.26797
#
# Compressibility (1/GPa) = 0.02519227
#
# Stress axis : x y z
#
# Youngs Moduli (GPa) = 66.07317 71.19180 131.01011
#
# Poissons Ratio (x) = 0.31592 0.04704
# Poissons Ratio (y) = 0.29321 0.13289
# Poissons Ratio (z) = 0.02372 0.07221
#
# Static dielectric constant tensor:
#      x y z
#    x 2.115740 -0.019200 0.027140 
#    y -0.019200 2.052920 -0.047940 
#    z 0.027140 -0.047940 2.040740 
# 
# From -- ./inp_files/52418.got.cif
#   From: 2010.05.17/outbox.cif.g08.bks.cpg/sg2_27_cif.got.tgz:52418.got - 2010.06.03 11:33:40.
