data_PCOD9083266
_publ_section_title
;
Structure prediction by ZEFSAII (Michael W. Deem and Ramdas Pophale) SiO2 
 PCOD9083266
Probable space group: P -1
;
_chemical_formula_sum "Si O2"
_cell_formula_units_Z 14
_cell_length_a 9.292684
_cell_length_b 18.878980
_cell_length_c 14.393080
_cell_angle_alpha 17.318641
_cell_angle_beta 101.100665
_cell_angle_gamma 110.679753
_cell_volume 601.029335
_symmetry_space_group_name_H-M "P -1"
_symmetry_group_IT_number 2
_symmetry_cell_setting 'triclinic'
loop_
_space_group_symop_operation_xyz
x,y,z
-x,-y,-z
loop_
_atom_site_type_symbol
_atom_site_label
_atom_site_fract_x
_atom_site_fract_y
_atom_site_fract_z
Si Si1 0.909607 0.965077 0.761951
Si Si2 0.420467 0.831795 0.309152
Si Si3 0.274980 0.283175 0.329452
Si Si4 0.062520 0.570636 0.525172
Si Si5 0.320619 0.356824 0.033006
Si Si6 0.297024 0.749677 0.047632
Si Si7 0.563374 0.609895 0.264754
O O1 0.801008 0.901650 0.731373
O O2 0.932944 0.702058 0.103771
O O3 0.769354 0.892862 0.917517
O O4 0.115912 0.237464 0.431671
O O5 0.262220 0.843808 0.232234
O O6 0.449447 0.643093 0.478782
O O7 0.609296 0.116623 0.007142
O O8 0.347022 0.640563 0.633887
O O9 0.240265 0.307112 0.187445
O O10 0.283294 0.999879 0.689443
O O11 0.476322 0.552637 0.044107
O O12 0.000000 0.500000 0.500000
O O13 0.901987 0.539712 0.600963
O O14 0.431696 0.679425 0.114143
O O15 0.500000 0.500000 0.500000
#
# Coordination Sequence:
#
# PCOD9083266 Si02
#       7
#     2   2   2   2   2   2   2
#     4   9  18  31  47  71 104 133 163 209 254 296
#     4   9  20  36  52  74 105 134 166 212 256 299
#     4   9  16  29  55  77  96 133 170 203 252 307
#     4   9  17  30  49  72  96 129 173 209 243 296
#     4   8  15  30  52  75  99 130 167 205 253 303
#     4  10  19  34  54  74 101 135 170 209 254 300
#     4  10  20  34  52  75 104 137 173 211 253 302
#
# _framework density 23.293372000000002
#
# number of rings (size 3 to 8) (size 9 to 14) (size 15 to 20)
#    0.000    3.143    0.000    2.143    0.000    2.286 
#    0.000   10.000    0.000   34.286    0.000    0.000 
#    0.000    1.143    0.000    0.000    0.000    0.000 
#
# Total GULP energy -78000.158380 kJ/mol
# GULP energy per Si atom -5571.439884 kJ/mol
# Density = 2.324036 g / cm^3
# Si number density = 23.293372 Si / 1000 Ang^3
#
#
#
# Elastic Constant Matrix: (Units=GPa)
#
#
# Indices 1 2 3 4 5 6 
#
# 1 135.8051 25.5998 38.9457 1.8233 -37.6742 5.8448
# 2 25.5998 104.0484 26.0426 15.8712 -7.9138 9.0455
# 3 38.9457 26.0426 52.2222 12.3678 -26.8572 3.5474
# 4 1.8233 15.8712 12.3678 38.5282 -2.1817 -2.8744
# 5 -37.6742 -7.9138 -26.8572 -2.1817 36.7724 -5.0243
# 6 5.8448 9.0455 3.5474 -2.8744 -5.0243 30.8910
#
#
#
# Elastic Compliance Matrix: (Units=1/GPa)
#
#
# Indices 1 2 3 4 5 6 
#
# 1 0.010967 -0.001462 -0.003500 0.001711 0.008507 0.000298
# 2 -0.001462 0.011963 -0.005784 -0.003481 -0.003834 -0.003510
# 3 -0.003500 -0.005784 0.038263 -0.008381 0.022738 0.000880
# 4 0.001711 -0.003481 -0.008381 0.030140 -0.002781 0.004010
# 5 0.008507 -0.003834 0.022738 -0.002781 0.052229 0.005138
# 6 0.000298 -0.003510 0.000880 0.004010 0.005138 0.034451
#
#
# Mechanical properties :
#
#
# Convention : Reuss Voigt Hill
#
# Bulk Modulus (GPa) = 25.18924 52.58353 38.88638
# Shear Modulus (GPa) = 23.50302 34.67083 29.08693
#
# Velocity S-wave (km/s) = 3.17992 3.86222 3.53756
# Velocity P-wave (km/s) = 4.93152 6.52016 5.78067
#
# Compressibility (1/GPa) = 0.03969950
#
# Stress axis : x y z
#
# Youngs Moduli (GPa) = 91.18209 83.59184 26.13518
#
# Poissons Ratio (x) = 0.12222 0.09147
# Poissons Ratio (y) = 0.13332 0.15118
# Poissons Ratio (z) = 0.31913 0.48354
#
# Static dielectric constant tensor:
#      x y z
#    x 1.936080 0.014810 -0.043310 
#    y 0.014810 1.926450 -0.030770 
#    z -0.043310 -0.030770 1.971920 
# 
# From -- ./inp_files/206701.got.cif
#   From: 2010.05.17/outbox.cif.g08.bks.cpg/sg2_104_cif.got.tgz:206701.got - 2010.06.03 11:33:40.
