data_PCOD9083304
_publ_section_title
;
Structure prediction by ZEFSAII (Michael W. Deem and Ramdas Pophale) SiO2 
 PCOD9083304
Probable space group: P -1
;
_chemical_formula_sum "Si O2"
_cell_formula_units_Z 16
_cell_length_a 11.692111
_cell_length_b 16.541065
_cell_length_c 5.395516
_cell_angle_alpha 132.492106
_cell_angle_beta 114.365652
_cell_angle_gamma 51.273487
_cell_volume 600.180899
_symmetry_space_group_name_H-M "P -1"
_symmetry_group_IT_number 2
_symmetry_cell_setting 'triclinic'
loop_
_space_group_symop_operation_xyz
x,y,z
-x,-y,-z
loop_
_atom_site_type_symbol
_atom_site_label
_atom_site_fract_x
_atom_site_fract_y
_atom_site_fract_z
Si Si1 0.466506 0.427986 0.527275
Si Si2 0.009520 0.314051 0.936860
Si Si3 0.229518 0.010251 0.587470
Si Si4 0.658490 0.305362 0.837364
Si Si5 0.081813 0.708070 0.690724
Si Si6 0.466005 0.177041 0.475763
Si Si7 0.129984 0.007857 0.998683
Si Si8 0.301866 0.286590 0.040562
O O1 0.500000 0.500000 0.500000
O O2 0.380259 0.546179 0.883118
O O3 0.353260 0.387376 0.264651
O O4 0.617832 0.307453 0.514768
O O5 0.893701 0.347594 0.680423
O O6 0.107988 0.158854 0.749141
O O7 0.942962 0.363469 0.251293
O O8 0.128994 0.346532 0.020761
O O9 0.393038 0.964935 0.722340
O O10 0.249341 0.956949 0.215154
O O11 0.176167 0.954437 0.650490
O O12 0.805035 0.252096 0.020011
O O13 0.546028 0.262880 0.751368
O O14 0.930697 0.842824 0.791760
O O15 0.368585 0.224181 0.239165
O O16 0.372662 0.194804 0.675110
O O17 0.000000 0.000000 0.000000
#
# Coordination Sequence:
#
# PCOD9083304 Si02
#       8
#     2   2   2   2   2   2   2   2
#     4  10  21  41  64  88 117 147 189 257 311 342
#     4  10  23  41  57  85 124 166 196 230 285 353
#     4  10  21  35  54  85 121 155 199 237 285 340
#     4  10  22  38  62  93 117 146 196 248 306 351
#     4  10  22  38  61  85 121 161 194 238 288 354
#     4  11  22  36  62  92 115 154 200 251 293 342
#     4  10  19  34  54  81 121 161 194 237 286 339
#     4  11  23  40  62  85 119 158 199 243 297 350
#
# _framework density 26.658626999999999
#
# number of rings (size 3 to 8) (size 9 to 14) (size 15 to 20)
#    0.000    1.750    1.250    2.625    1.750    3.000 
#    0.000    1.250    0.000    0.000    0.000    0.000 
#    0.000    0.000    0.000    0.000    0.000    0.000 
#
# Total GULP energy -89223.741520 kJ/mol
# GULP energy per Si atom -5576.483845 kJ/mol
# Density = 2.659795 g / cm^3
# Si number density = 26.658627 Si / 1000 Ang^3
#
#
#
# Elastic Constant Matrix: (Units=GPa)
#
#
# Indices 1 2 3 4 5 6 
#
# 1 139.0463 14.8115 60.9037 -26.9590 -1.1711 16.9599
# 2 14.8115 88.0479 45.1228 -32.4828 0.7482 5.7536
# 3 60.9037 45.1228 104.2007 -37.9298 -16.0664 16.5319
# 4 -26.9590 -32.4828 -37.9298 46.5853 5.5364 2.0990
# 5 -1.1711 0.7482 -16.0664 5.5364 49.0017 -4.8265
# 6 16.9599 5.7536 16.5319 2.0990 -4.8265 32.9548
#
#
#
# Elastic Compliance Matrix: (Units=1/GPa)
#
#
# Indices 1 2 3 4 5 6 
#
# 1 0.010626 0.002904 -0.005875 0.003853 -0.002511 -0.003641
# 2 0.002904 0.017711 -0.005924 0.009748 -0.003516 -0.002751
# 3 -0.005875 -0.005924 0.020588 0.008901 0.005095 -0.006091
# 4 0.003853 0.009748 0.008901 0.038541 -0.002575 -0.010982
# 5 -0.002511 -0.003516 0.005095 -0.002575 0.022641 0.002830
# 6 -0.003641 -0.002751 -0.006091 -0.010982 0.002830 0.036868
#
#
# Mechanical properties :
#
#
# Convention : Reuss Voigt Hill
#
# Bulk Modulus (GPa) = 32.11831 63.66344 47.89088
# Shear Modulus (GPa) = 28.54787 39.73881 34.14334
#
# Velocity S-wave (km/s) = 3.27596 3.86509 3.58265
# Velocity P-wave (km/s) = 5.13648 6.62204 5.92599
#
# Compressibility (1/GPa) = 0.03113489
#
# Stress axis : x y z
#
# Youngs Moduli (GPa) = 94.10921 56.46233 48.57159
#
# Poissons Ratio (x) = -0.16398 0.28536
# Poissons Ratio (y) = -0.27331 0.28775
# Poissons Ratio (z) = 0.55290 0.33449
#
# Static dielectric constant tensor:
#      x y z
#    x 2.112750 -0.068340 -0.101620 
#    y -0.068340 2.255700 0.166150 
#    z -0.101620 0.166150 2.521450 
# 
# From -- ./inp_files/81001.got.cif
#   From: 2010.05.17/outbox.cif.g08.bks.cpg/sg2_41_cif.got.tgz:81001.got - 2010.06.03 11:33:40.
