data_PCOD9083573
_publ_section_title
;
Structure prediction by ZEFSAII (Michael W. Deem and Ramdas Pophale) SiO2 
 PCOD9083573
Probable space group: P -1
;
_chemical_formula_sum "Si O2"
_cell_formula_units_Z 12
_cell_length_a 10.996449
_cell_length_b 8.987393
_cell_length_c 7.753711
_cell_angle_alpha 112.356098
_cell_angle_beta 129.219505
_cell_angle_gamma 53.053087
_cell_volume 474.457455
_symmetry_space_group_name_H-M "P -1"
_symmetry_group_IT_number 2
_symmetry_cell_setting 'triclinic'
loop_
_space_group_symop_operation_xyz
x,y,z
-x,-y,-z
loop_
_atom_site_type_symbol
_atom_site_label
_atom_site_fract_x
_atom_site_fract_y
_atom_site_fract_z
Si Si1 0.451596 0.787336 0.313500
Si Si2 0.893794 0.965385 0.646776
Si Si3 0.651952 0.857206 0.806255
Si Si4 0.802275 0.710359 0.223507
Si Si5 0.949438 0.293088 0.817720
Si Si6 0.757935 0.387299 0.035706
O O1 0.598089 0.747220 0.574710
O O2 0.423927 0.625393 0.140067
O O3 0.261380 0.917624 0.300849
O O4 0.463073 0.924865 0.246456
O O5 0.817610 0.861470 0.416457
O O6 0.082626 0.805801 0.826618
O O7 0.920878 0.125757 0.653130
O O8 0.861254 0.800189 0.948853
O O9 0.649617 0.807957 0.981097
O O10 0.996012 0.616879 0.249099
O O11 0.772275 0.553182 0.212619
O O12 0.801900 0.404717 0.880350
#
# Coordination Sequence:
#
# PCOD9083573 Si02
#       6
#     2   2   2   2   2   2
#     4  10  19  34  57  67  95 131 173 195 226 297
#     4  11  18  33  52  76  96 128 163 200 240 285
#     4   9  19  35  51  73  93 134 165 196 237 286
#     4  10  21  30  51  75 107 119 157 205 252 279
#     4   9  18  34  51  72  95 130 169 190 235 288
#     4  11  18  33  52  76  96 128 163 200 240 285
#
# _framework density 25.292045999999999
#
# number of rings (size 3 to 8) (size 9 to 14) (size 15 to 20)
#    1.000    1.000    3.333    2.500    0.000    1.333 
#    0.000    0.000    0.000    4.000    0.000    0.000 
#    0.000    0.000    0.000    0.000    0.000    0.000 
#
# Total GULP energy -67015.362399 kJ/mol
# GULP energy per Si atom -5584.613533 kJ/mol
# Density = 2.523448 g / cm^3
# Si number density = 25.292046 Si / 1000 Ang^3
#
#
#
# Elastic Constant Matrix: (Units=GPa)
#
#
# Indices 1 2 3 4 5 6 
#
# 1 59.1833 14.1372 15.5202 11.9388 17.4085 12.9146
# 2 14.1372 71.8516 45.8194 31.7568 5.7470 8.7349
# 3 15.5202 45.8194 182.5176 36.8527 22.6121 5.6007
# 4 11.9388 31.7568 36.8527 53.5998 9.3049 5.4564
# 5 17.4085 5.7470 22.6121 9.3049 37.5372 11.8192
# 6 12.9146 8.7349 5.6007 5.4564 11.8192 27.4945
#
#
#
# Elastic Compliance Matrix: (Units=1/GPa)
#
#
# Indices 1 2 3 4 5 6 
#
# 1 0.021138 -0.002271 0.000189 -0.001630 -0.007351 -0.005762
# 2 -0.002271 0.021189 -0.003465 -0.009853 0.003799 -0.004637
# 3 0.000189 -0.003465 0.007259 -0.002484 -0.003843 0.001678
# 4 -0.001630 -0.009853 -0.002484 0.027061 -0.003056 0.000345
# 5 -0.007351 0.003799 -0.003843 -0.003056 0.036310 -0.011974
# 6 -0.005762 -0.004637 0.001678 0.000345 -0.011974 0.045288
#
#
# Mechanical properties :
#
#
# Convention : Reuss Voigt Hill
#
# Bulk Modulus (GPa) = 25.97890 51.61178 38.79534
# Shear Modulus (GPa) = 27.44724 39.59800 33.52262
#
# Velocity S-wave (km/s) = 3.29783 3.96110 3.64458
# Velocity P-wave (km/s) = 4.97944 6.43203 5.75177
#
# Compressibility (1/GPa) = 0.03849278
#
# Stress axis : x y z
#
# Youngs Moduli (GPa) = 47.30813 47.19492 137.76477
#
# Poissons Ratio (x) = 0.10716 -0.02608
# Poissons Ratio (y) = 0.10742 0.47735
# Poissons Ratio (z) = -0.00896 0.16353
#
# Static dielectric constant tensor:
#      x y z
#    x 2.062100 -0.011640 -0.038910 
#    y -0.011640 2.010680 0.039940 
#    z -0.038910 0.039940 1.987630 
# 
# From -- ./inp_files/135817.got.cif
#   From: 2010.05.17/outbox.cif.g08.bks.cpg/sg2_68_cif.got.tgz:135817.got - 2010.06.03 11:33:40.
