data_PCOD9083626
_publ_section_title
;
Structure prediction by ZEFSAII (Michael W. Deem and Ramdas Pophale) SiO2 
 PCOD9083626
Probable space group: P -1
;
_chemical_formula_sum "Si O2"
_cell_formula_units_Z 16
_cell_length_a 7.998348
_cell_length_b 9.547624
_cell_length_c 13.038402
_cell_angle_alpha 124.513444
_cell_angle_beta 83.818327
_cell_angle_gamma 126.758755
_cell_volume 615.597840
_symmetry_space_group_name_H-M "P -1"
_symmetry_group_IT_number 2
_symmetry_cell_setting 'triclinic'
loop_
_space_group_symop_operation_xyz
x,y,z
-x,-y,-z
loop_
_atom_site_type_symbol
_atom_site_label
_atom_site_fract_x
_atom_site_fract_y
_atom_site_fract_z
Si Si1 0.190871 0.057696 0.188263
Si Si2 0.996446 0.428912 0.295681
Si Si3 0.333917 0.026782 0.966627
Si Si4 0.128477 0.187637 0.441710
Si Si5 0.740070 0.204317 0.428266
Si Si6 0.137266 0.324652 0.700184
Si Si7 0.639644 0.182283 0.822771
Si Si8 0.257240 0.405880 0.956715
O O1 0.258543 0.919095 0.175852
O O2 0.925783 0.857133 0.112308
O O3 0.238305 0.231150 0.342207
O O4 0.300003 0.143591 0.105481
O O5 0.225698 0.620695 0.420202
O O6 0.907958 0.209745 0.147547
O O7 0.821232 0.324392 0.360572
O O8 0.967428 0.566882 0.279059
O O9 0.456318 0.130180 0.894094
O O10 0.500000 0.000000 0.000000
O O11 0.259730 0.346732 0.596932
O O12 0.914335 0.169745 0.432052
O O13 0.039316 0.942538 0.377954
O O14 0.496055 0.965408 0.329725
O O15 0.249257 0.425878 0.843105
O O16 0.791993 0.450282 0.920644
O O17 0.500000 0.500000 0.000000
#
# Coordination Sequence:
#
# PCOD9083626 Si02
#       8
#     2   2   2   2   2   2   2   2
#     4  10  20  35  57  84 114 150 191 237 289 346
#     4   9  17  32  57  82 109 148 192 232 279 340
#     4   9  18  33  56  81 109 147 189 230 276 333
#     4   9  18  33  54  80 110 146 187 231 282 338
#     4   9  18  34  56  81 110 149 192 234 282 335
#     4   9  17  32  56  79 106 147 188 229 284 339
#     4  10  19  34  57  82 112 151 193 235 285 344
#     4  11  22  37  58  84 115 150 193 243 291 340
#
# _framework density 25.990995999999999
#
# number of rings (size 3 to 8) (size 9 to 14) (size 15 to 20)
#    0.000    2.500    0.000    3.375    0.000    1.000 
#    0.000    6.875    0.000   66.750    0.000    0.000 
#    0.000    0.000    0.000    0.000    0.000    0.000 
#
# Total GULP energy -89378.215419 kJ/mol
# GULP energy per Si atom -5586.138464 kJ/mol
# Density = 2.593184 g / cm^3
# Si number density = 25.990996 Si / 1000 Ang^3
#
#
#
# Elastic Constant Matrix: (Units=GPa)
#
#
# Indices 1 2 3 4 5 6 
#
# 1 84.5976 24.9818 19.6170 -5.5116 -4.5106 -9.5111
# 2 24.9818 72.8139 20.4808 -5.6258 -1.6300 -0.3799
# 3 19.6170 20.4808 203.4729 -13.3101 -0.6739 15.0794
# 4 -5.5116 -5.6258 -13.3101 31.8417 -1.6498 -12.4223
# 5 -4.5106 -1.6300 -0.6739 -1.6498 36.0665 -4.0913
# 6 -9.5111 -0.3799 15.0794 -12.4223 -4.0913 42.0759
#
#
#
# Elastic Compliance Matrix: (Units=1/GPa)
#
#
# Indices 1 2 3 4 5 6 
#
# 1 0.014181 -0.004241 -0.001072 0.003214 0.002244 0.004719
# 2 -0.004241 0.015618 -0.001061 0.001619 0.000237 0.000064
# 3 -0.001072 -0.001061 0.005335 0.001120 -0.000242 -0.001857
# 4 0.003214 0.001619 0.001120 0.037484 0.003544 0.011751
# 5 0.002244 0.000237 -0.000242 0.003544 0.028678 0.004431
# 6 0.004719 0.000064 -0.001857 0.011751 0.004431 0.029399
#
#
# Mechanical properties :
#
#
# Convention : Reuss Voigt Hill
#
# Bulk Modulus (GPa) = 44.67181 54.56039 49.61610
# Shear Modulus (GPa) = 33.13330 41.71717 37.42523
#
# Velocity S-wave (km/s) = 3.57431 4.01067 3.79876
# Velocity P-wave (km/s) = 5.85311 6.51804 6.19451
#
# Compressibility (1/GPa) = 0.02238548
#
# Stress axis : x y z
#
# Youngs Moduli (GPa) = 70.51590 64.02972 187.44349
#
# Poissons Ratio (x) = 0.27152 0.20101
# Poissons Ratio (y) = 0.29903 0.19892
# Poissons Ratio (z) = 0.07562 0.06795
#
# Static dielectric constant tensor:
#      x y z
#    x 2.070960 0.009260 0.002340 
#    y 0.009260 2.143700 0.035170 
#    z 0.002340 0.035170 2.105600 
# 
# From -- ./inp_files/500835.got.cif
#   From: 2010.05.17/outbox.cif.g08.bks.cpg/sg2_251_cif.got.tgz:500835.got - 2010.06.03 11:33:40.
