data_PCOD9083375
_publ_section_title
;
Structure prediction by ZEFSAII (Michael W. Deem and Ramdas Pophale) SiO2 
 PCOD9083375
Probable space group: P -1
;
_chemical_formula_sum "Si O2"
_cell_formula_units_Z 16
_cell_length_a 7.804045
_cell_length_b 12.368983
_cell_length_c 20.545126
_cell_angle_alpha 37.623777
_cell_angle_beta 53.905696
_cell_angle_gamma 80.762803
_cell_volume 767.193989
_symmetry_space_group_name_H-M "P -1"
_symmetry_group_IT_number 2
_symmetry_cell_setting 'triclinic'
loop_
_space_group_symop_operation_xyz
x,y,z
-x,-y,-z
loop_
_atom_site_type_symbol
_atom_site_label
_atom_site_fract_x
_atom_site_fract_y
_atom_site_fract_z
Si Si1 0.966786 0.804497 0.641979
Si Si2 0.595677 0.249778 0.841805
Si Si3 0.732378 0.061037 0.041172
Si Si4 0.022588 0.986531 0.334517
Si Si5 0.531082 0.692653 0.022912
Si Si6 0.172319 0.189287 0.777638
Si Si7 0.642837 0.697915 0.446346
Si Si8 0.829779 0.279071 0.485729
O O1 0.662252 0.572060 0.823922
O O2 0.121911 0.746624 0.588739
O O3 0.050570 0.902299 0.649008
O O4 0.000000 0.000000 0.500000
O O5 0.445276 0.290381 0.911225
O O6 0.908187 0.468045 0.672574
O O7 0.488351 0.188747 0.821572
O O8 0.500000 0.000000 0.000000
O O9 0.825795 0.015905 0.107368
O O10 0.626722 0.203465 0.004382
O O11 0.975192 0.176672 0.879879
O O12 0.155224 0.888070 0.391473
O O13 0.761904 0.785991 0.448855
O O14 0.218871 0.167676 0.148660
O O15 0.459423 0.430746 0.609165
O O16 0.115912 0.190875 0.713563
O O17 0.447460 0.755193 0.437474
#
# Coordination Sequence:
#
# PCOD9083375 Si02
#       8
#     2   2   2   2   2   2   2   2
#     4   9  20  38  60  83 108 143 187 234 279 328
#     4   9  17  31  53  78 104 146 187 215 266 330
#     4  10  19  34  55  79 112 153 185 221 278 331
#     4  11  22  36  59  84 109 147 189 230 279 330
#     4  10  19  34  57  82 110 145 185 230 279 327
#     4  10  21  34  51  82 118 144 184 232 266 327
#     4  11  22  37  55  83 117 147 183 228 275 327
#     4  10  21  38  57  81 115 149 185 231 279 327
#
# _framework density 20.855219000000002
#
# number of rings (size 3 to 8) (size 9 to 14) (size 15 to 20)
#    0.000    2.000    0.000    4.875    0.000    3.500 
#    0.000    6.250    0.000   12.000    0.000    0.000 
#    0.000    0.000    0.000    0.000    0.000    0.000 
#
# Total GULP energy -89151.825714 kJ/mol
# GULP energy per Si atom -5571.989107 kJ/mol
# Density = 2.080775 g / cm^3
# Si number density = 20.855219 Si / 1000 Ang^3
#
#
#
# Elastic Constant Matrix: (Units=GPa)
#
#
# Indices 1 2 3 4 5 6 
#
# 1 55.2290 15.8984 11.2344 1.2832 7.9107 7.3628
# 2 15.8984 98.3493 29.2084 -2.9654 -4.7575 22.5578
# 3 11.2344 29.2084 75.5923 -1.4285 1.0244 -0.2094
# 4 1.2832 -2.9654 -1.4285 28.2452 -3.6375 -4.3616
# 5 7.9107 -4.7575 1.0244 -3.6375 18.9354 2.0556
# 6 7.3628 22.5578 -0.2094 -4.3616 2.0556 28.6405
#
#
#
# Elastic Compliance Matrix: (Units=1/GPa)
#
#
# Indices 1 2 3 4 5 6 
#
# 1 0.021159 -0.002647 -0.002058 -0.003071 -0.009642 -0.003146
# 2 -0.002647 0.015319 -0.005640 0.000471 0.006635 -0.011831
# 3 -0.002058 -0.005640 0.015770 0.000891 -0.001820 0.005353
# 4 -0.003071 0.000471 0.000891 0.037523 0.007957 0.005568
# 5 -0.009642 0.006635 -0.001820 0.007957 0.060775 -0.005910
# 6 -0.003146 -0.011831 0.005353 0.005568 -0.005910 0.046354
#
#
# Mechanical properties :
#
#
# Convention : Reuss Voigt Hill
#
# Bulk Modulus (GPa) = 31.68627 37.98366 34.83497
# Shear Modulus (GPa) = 21.91939 26.68616 24.30277
#
# Velocity S-wave (km/s) = 3.24547 3.58102 3.41737
# Velocity P-wave (km/s) = 5.41023 5.94566 5.68425
#
# Compressibility (1/GPa) = 0.03155941
#
# Stress axis : x y z
#
# Youngs Moduli (GPa) = 47.26205 65.27667 63.41056
#
# Poissons Ratio (x) = 0.17276 0.13050
# Poissons Ratio (y) = 0.12509 0.35762
# Poissons Ratio (z) = 0.09727 0.36815
#
# Static dielectric constant tensor:
#      x y z
#    x 1.865130 0.027110 -0.001000 
#    y 0.027110 1.776620 0.029430 
#    z -0.001000 0.029430 1.767900 
# 
# From -- ./inp_files/588946.got.cif
#   From: 2010.05.17/outbox.cif.g08.bks.cpg/sg2_295_cif.got.tgz:588946.got - 2010.06.03 11:33:40.
