data_PCOD9083781
_publ_section_title
;
Structure prediction by ZEFSAII (Michael W. Deem and Ramdas Pophale) SiO2 
 PCOD9083781
Probable space group: P -1
;
_chemical_formula_sum "Si O2"
_cell_formula_units_Z 14
_cell_length_a 10.693711
_cell_length_b 5.188129
_cell_length_c 18.926314
_cell_angle_alpha 88.188495
_cell_angle_beta 129.891344
_cell_angle_gamma 80.804085
_cell_volume 782.734857
_symmetry_space_group_name_H-M "P -1"
_symmetry_group_IT_number 2
_symmetry_cell_setting 'triclinic'
loop_
_space_group_symop_operation_xyz
x,y,z
-x,-y,-z
loop_
_atom_site_type_symbol
_atom_site_label
_atom_site_fract_x
_atom_site_fract_y
_atom_site_fract_z
Si Si1 0.053921 0.482172 0.200716
Si Si2 0.722768 0.875733 0.225979
Si Si3 0.940098 0.526476 0.642033
Si Si4 0.818381 0.067688 0.113140
Si Si5 0.814222 0.627226 0.901357
Si Si6 0.998335 0.023406 0.582833
Si Si7 0.647575 0.183674 0.901844
O O1 0.138789 0.462211 0.309001
O O2 0.945059 0.781876 0.148132
O O3 0.174984 0.402325 0.178802
O O4 0.929542 0.283035 0.157366
O O5 0.861590 0.598822 0.269100
O O6 0.725452 0.037212 0.153035
O O7 0.811626 0.008453 0.318649
O O8 0.543950 0.826243 0.178021
O O9 0.901677 0.308724 0.576200
O O10 0.922329 0.802620 0.594933
O O11 0.695052 0.142096 0.001905
O O12 0.692639 0.453692 0.890435
O O13 0.759340 0.931330 0.903103
O O14 0.000000 0.500000 0.000000
O O15 0.000000 0.000000 0.500000
#
# Coordination Sequence:
#
# PCOD9083781 Si02
#       7
#     2   2   2   2   2   2   2
#     4  11  19  35  52  73 103 145 178 223 241 301
#     4   9  23  33  54  80 113 132 179 206 278 324
#     4   9  19  35  54  78 109 127 170 216 264 320
#     4  11  19  34  53  72 110 142 179 214 258 303
#     4  12  23  35  51  72 106 146 198 216 247 290
#     4  10  19  34  58  83 107 129 161 216 277 326
#     4  12  23  34  52  76 109 152 174 225 253 298
#
# _framework density 17.886004
#
# number of rings (size 3 to 8) (size 9 to 14) (size 15 to 20)
#    0.857    0.571    4.286    2.143    2.000    0.000 
#    0.000    3.571    0.000    0.000    0.000    6.000 
#    0.000    0.000    0.000    0.000    0.000    0.000 
#
# Total GULP energy -78066.089054 kJ/mol
# GULP energy per Si atom -5576.149218 kJ/mol
# Density = 1.784530 g / cm^3
# Si number density = 17.886004 Si / 1000 Ang^3
#
#
#
# Elastic Constant Matrix: (Units=GPa)
#
#
# Indices 1 2 3 4 5 6 
#
# 1 49.4051 -3.1442 34.6279 8.6527 -19.4492 9.2939
# 2 -3.1442 89.7640 12.7800 14.6050 -2.3488 16.3252
# 3 34.6279 12.7800 75.1336 19.2077 -39.5650 4.8435
# 4 8.6527 14.6050 19.2077 18.7857 -8.4756 -6.9174
# 5 -19.4492 -2.3488 -39.5650 -8.4756 26.0268 -1.8640
# 6 9.2939 16.3252 4.8435 -6.9174 -1.8640 24.9131
#
#
#
# Elastic Compliance Matrix: (Units=1/GPa)
#
#
# Indices 1 2 3 4 5 6 
#
# 1 0.039324 0.011974 -0.005434 -0.027096 0.011368 -0.028133
# 2 0.011974 0.022433 0.000934 -0.035188 -0.001158 -0.029205
# 3 -0.005434 0.000934 0.089397 -0.044519 0.116018 -0.019646
# 4 -0.027096 -0.035188 -0.044519 0.152551 -0.035585 0.081516
# 5 0.011368 -0.001158 0.116018 -0.035585 0.210144 -0.020195
# 6 -0.028133 -0.029205 -0.019646 0.081516 -0.020195 0.094714
#
#
# Mechanical properties :
#
#
# Convention : Reuss Voigt Hill
#
# Bulk Modulus (GPa) = 6.02037 33.64778 19.83407
# Shear Modulus (GPa) = 7.70437 25.28105 16.49271
#
# Velocity S-wave (km/s) = 2.07770 3.76367 3.03991
# Velocity P-wave (km/s) = 3.02143 6.14330 4.84093
#
# Compressibility (1/GPa) = 0.16610282
#
# Stress axis : x y z
#
# Youngs Moduli (GPa) = 25.42962 44.57693 11.18603
#
# Poissons Ratio (x) = -0.53375 0.06078
# Poissons Ratio (y) = -0.30448 -0.01045
# Poissons Ratio (z) = 0.13818 -0.04164
#
# Static dielectric constant tensor:
#      x y z
#    x 1.602880 -0.016430 -0.025940 
#    y -0.016430 1.626380 0.009790 
#    z -0.025940 0.009790 1.613020 
# 
# From -- ./inp_files/43326.got.cif
#   From: 2010.05.17/outbox.cif.g08.bks.cpg/sg2_22_cif.got.tgz:43326.got - 2010.06.03 11:33:40.
