data_PCOD9083747
_publ_section_title
;
Structure prediction by ZEFSAII (Michael W. Deem and Ramdas Pophale) SiO2 
 PCOD9083747
Probable space group: P -1
;
_chemical_formula_sum "Si O2"
_cell_formula_units_Z 14
_cell_length_a 14.893014
_cell_length_b 5.157421
_cell_length_c 10.500182
_cell_angle_alpha 55.355479
_cell_angle_beta 110.529985
_cell_angle_gamma 81.379116
_cell_volume 553.859349
_symmetry_space_group_name_H-M "P -1"
_symmetry_group_IT_number 2
_symmetry_cell_setting 'triclinic'
loop_
_space_group_symop_operation_xyz
x,y,z
-x,-y,-z
loop_
_atom_site_type_symbol
_atom_site_label
_atom_site_fract_x
_atom_site_fract_y
_atom_site_fract_z
Si Si1 0.795935 0.390558 0.747419
Si Si2 0.897507 0.840426 0.607586
Si Si3 0.328109 0.571207 0.571334
Si Si4 0.444944 0.740222 0.177857
Si Si5 0.377806 0.135633 0.298758
Si Si6 0.209362 0.172895 0.933946
Si Si7 0.909118 0.031127 0.279992
O O1 0.892617 0.485059 0.747298
O O2 0.715909 0.557777 0.538335
O O3 0.741009 0.578344 0.799538
O O4 0.806361 0.007901 0.892657
O O5 0.983499 0.924020 0.701664
O O6 0.779510 0.168306 0.481510
O O7 0.923888 0.819974 0.477644
O O8 0.433847 0.325283 0.776225
O O9 0.376378 0.807085 0.461857
O O10 0.439810 0.366511 0.297391
O O11 0.417974 0.976410 0.225705
O O12 0.328975 0.967037 0.988934
O O13 0.180125 0.572422 0.840547
O O14 0.128661 0.141380 0.801193
#
# Coordination Sequence:
#
# PCOD9083747 Si02
#       7
#     2   2   2   2   2   2   2
#     4  10  23  40  70 104 137 166 226 276 333 381
#     4  10  27  46  71  94 128 186 228 274 320 407
#     4  11  22  38  66 102 132 172 224 272 318 398
#     4  11  22  36  64  99 140 171 211 265 339 393
#     4  10  19  34  57  95 137 172 206 258 321 394
#     4  11  24  43  69 103 133 174 212 284 335 391
#     4  11  27  50  69  90 135 182 229 265 339 400
#
# _framework density 25.277172
#
# number of rings (size 3 to 8) (size 9 to 14) (size 15 to 20)
#    0.000    1.429    2.857    2.571   10.000    2.286 
#    0.000    1.429    0.000    0.000    0.000    0.000 
#    0.000    0.000    0.000    0.000    0.000    0.000 
#
# Total GULP energy -78069.122361 kJ/mol
# GULP energy per Si atom -5576.365883 kJ/mol
# Density = 2.521964 g / cm^3
# Si number density = 25.277172 Si / 1000 Ang^3
#
#
#
# Elastic Constant Matrix: (Units=GPa)
#
#
# Indices 1 2 3 4 5 6 
#
# 1 123.3314 8.8100 38.2153 -4.7800 18.9927 -12.3285
# 2 8.8100 118.7509 7.4065 38.2450 3.7974 17.9029
# 3 38.2153 7.4065 61.1949 14.1117 29.4764 -3.0842
# 4 -4.7800 38.2450 14.1117 51.1720 4.6132 35.7480
# 5 18.9927 3.7974 29.4764 4.6132 38.9350 -14.7700
# 6 -12.3285 17.9029 -3.0842 35.7480 -14.7700 53.7992
#
#
#
# Elastic Compliance Matrix: (Units=1/GPa)
#
#
# Indices 1 2 3 4 5 6 
#
# 1 0.010734 -0.001808 -0.007575 0.004965 -0.000187 -0.000724
# 2 -0.001808 0.011905 0.002320 -0.013347 0.001452 0.005024
# 3 -0.007575 0.002320 0.032726 -0.010124 -0.019864 0.000642
# 4 0.004965 -0.013347 -0.010124 0.063514 -0.016849 -0.041830
# 5 -0.000187 0.001452 -0.019864 -0.016849 0.051665 0.023715
# 6 -0.000724 0.005024 0.000642 -0.041830 0.023715 0.051092
#
#
# Mechanical properties :
#
#
# Convention : Reuss Voigt Hill
#
# Bulk Modulus (GPa) = 24.24946 45.79345 35.02145
# Shear Modulus (GPa) = 20.03943 45.37092 32.70517
#
# Velocity S-wave (km/s) = 2.81870 4.24127 3.60093
# Velocity P-wave (km/s) = 4.49530 6.49156 5.58337
#
# Compressibility (1/GPa) = 0.04123803
#
# Stress axis : x y z
#
# Youngs Moduli (GPa) = 93.16497 83.99748 30.55650
#
# Poissons Ratio (x) = 0.15186 0.23148
# Poissons Ratio (y) = 0.16843 -0.07089
# Poissons Ratio (z) = 0.70577 -0.19486
#
# Static dielectric constant tensor:
#      x y z
#    x 1.991070 0.008020 0.068770 
#    y 0.008020 2.066710 -0.082480 
#    z 0.068770 -0.082480 2.177730 
# 
# From -- ./inp_files/441654.got.cif
#   From: 2010.05.17/outbox.cif.g08.bks.cpg/sg2_221_cif.got.tgz:441654.got - 2010.06.03 11:33:40.
