data_PCOD9083701
_publ_section_title
;
Structure prediction by ZEFSAII (Michael W. Deem and Ramdas Pophale) SiO2 
 PCOD9083701
Probable space group: P -1
;
_chemical_formula_sum "Si O2"
_cell_formula_units_Z 16
_cell_length_a 8.101850
_cell_length_b 12.655100
_cell_length_c 8.699152
_cell_angle_alpha 97.447110
_cell_angle_beta 49.725683
_cell_angle_gamma 94.537837
_cell_volume 674.745997
_symmetry_space_group_name_H-M "P -1"
_symmetry_group_IT_number 2
_symmetry_cell_setting 'triclinic'
loop_
_space_group_symop_operation_xyz
x,y,z
-x,-y,-z
loop_
_atom_site_type_symbol
_atom_site_label
_atom_site_fract_x
_atom_site_fract_y
_atom_site_fract_z
Si Si1 0.847905 0.237723 0.576938
Si Si2 0.384517 0.098777 0.494005
Si Si3 0.743641 0.255428 0.292330
Si Si4 0.346542 0.593516 0.047885
Si Si5 0.930895 0.080788 0.925595
Si Si6 0.241021 0.359482 0.355088
Si Si7 0.240450 0.980406 0.284458
Si Si8 0.946142 0.470236 0.282308
O O1 0.836181 0.221786 0.398684
O O2 0.733242 0.340056 0.742971
O O3 0.723582 0.141387 0.712064
O O4 0.101643 0.255806 0.463627
O O5 0.501444 0.212313 0.450006
O O6 0.146320 0.109255 0.707945
O O7 0.500000 0.000000 0.500000
O O8 0.385101 0.057517 0.311162
O O9 0.809630 0.378490 0.265055
O O10 0.839999 0.185510 0.083058
O O11 0.129274 0.540470 0.100150
O O12 0.500000 0.500000 0.000000
O O13 0.511995 0.656166 0.849239
O O14 0.776983 0.018914 0.886926
O O15 0.000000 0.000000 0.000000
O O16 0.094179 0.409161 0.312035
O O17 0.214704 0.447445 0.520434
O O18 0.000000 0.000000 0.500000
#
# Coordination Sequence:
#
# PCOD9083701 Si02
#       8
#     2   2   2   2   2   2   2   2
#     4  10  19  34  57  87 123 160 197 255 304 356
#     4  11  21  40  59  85 122 160 201 251 302 366
#     4  11  20  34  56  87 121 154 204 246 301 358
#     4   9  16  30  53  89 123 155 202 247 304 365
#     4  11  23  40  61  83 116 160 206 255 309 362
#     4   8  15  29  50  79 119 157 197 241 299 360
#     4  10  22  42  61  84 125 165 200 256 308 357
#     4   8  16  28  48  81 119 154 193 250 295 351
#
# _framework density 23.712626
#
# number of rings (size 3 to 8) (size 9 to 14) (size 15 to 20)
#    0.000    2.250    2.500    3.000    0.000    4.500 
#    0.000    2.500    0.000    3.000    0.000   18.375 
#    0.000    0.000    0.000    1.000    0.000    0.625 
#
# Total GULP energy -89325.913530 kJ/mol
# GULP energy per Si atom -5582.869596 kJ/mol
# Density = 2.365865 g / cm^3
# Si number density = 23.712626 Si / 1000 Ang^3
#
#
#
# Elastic Constant Matrix: (Units=GPa)
#
#
# Indices 1 2 3 4 5 6 
#
# 1 70.7989 35.4750 45.7523 10.3566 19.7881 25.7170
# 2 35.4750 101.9927 32.2166 5.5626 11.9218 37.1408
# 3 45.7523 32.2166 145.6066 -1.3968 -8.1510 20.7414
# 4 10.3566 5.5626 -1.3968 37.2739 9.3281 1.6222
# 5 19.7881 11.9218 -8.1510 9.3281 42.5361 -1.9954
# 6 25.7170 37.1408 20.7414 1.6222 -1.9954 44.7476
#
#
#
# Elastic Compliance Matrix: (Units=1/GPa)
#
#
# Indices 1 2 3 4 5 6 
#
# 1 0.028961 -0.001099 -0.007912 -0.004033 -0.014386 -0.012560
# 2 -0.001099 0.015533 -0.001692 -0.000411 -0.004624 -0.011668
# 3 -0.007912 -0.001692 0.009839 0.001290 0.005833 0.001605
# 4 -0.004033 -0.000411 0.001290 0.029047 -0.004093 0.000825
# 5 -0.014386 -0.004624 0.005833 -0.004093 0.034032 0.011068
# 6 -0.012560 -0.011668 0.001605 0.000825 0.011068 0.038970
#
#
# Mechanical properties :
#
#
# Convention : Reuss Voigt Hill
#
# Bulk Modulus (GPa) = 30.37016 60.58734 45.47875
# Shear Modulus (GPa) = 26.48818 38.57515 32.53166
#
# Velocity S-wave (km/s) = 3.34585 4.03771 3.70795
# Velocity P-wave (km/s) = 5.26894 6.88067 6.12802
#
# Compressibility (1/GPa) = 0.03292705
#
# Stress axis : x y z
#
# Youngs Moduli (GPa) = 34.52931 64.37845 101.64057
#
# Poissons Ratio (x) = 0.07074 0.80415
# Poissons Ratio (y) = 0.03794 0.17200
# Poissons Ratio (z) = 0.27319 0.10895
#
# Static dielectric constant tensor:
#      x y z
#    x 1.941940 0.084410 0.048620 
#    y 0.084410 1.610490 -0.114110 
#    z 0.048620 -0.114110 1.912950 
# 
# From -- ./inp_files/202894.got.cif
#   From: 2010.05.17/outbox.cif.g08.bks.cpg/sg2_102_cif.got.tgz:202894.got - 2010.06.03 11:33:40.
