data_PCOD9083362
_publ_section_title
;
Structure prediction by ZEFSAII (Michael W. Deem and Ramdas Pophale) SiO2 
 PCOD9083362
Probable space group: P -1
;
_chemical_formula_sum "Si O2"
_cell_formula_units_Z 16
_cell_length_a 19.804019
_cell_length_b 17.374067
_cell_length_c 9.097810
_cell_angle_alpha 116.779877
_cell_angle_beta 52.606632
_cell_angle_gamma 159.924847
_cell_volume 766.853877
_symmetry_space_group_name_H-M "P -1"
_symmetry_group_IT_number 2
_symmetry_cell_setting 'triclinic'
loop_
_space_group_symop_operation_xyz
x,y,z
-x,-y,-z
loop_
_atom_site_type_symbol
_atom_site_label
_atom_site_fract_x
_atom_site_fract_y
_atom_site_fract_z
Si Si1 0.292829 0.462356 0.917151
Si Si2 0.134845 0.716090 0.705157
Si Si3 0.256408 0.985768 0.225804
Si Si4 0.004349 0.719322 0.631097
Si Si5 0.628671 0.645428 0.800761
Si Si6 0.962667 0.566545 0.102400
Si Si7 0.323756 0.707921 0.480195
Si Si8 0.087664 0.207522 0.657619
O O1 0.444751 0.529294 0.848119
O O2 0.209031 0.358903 0.775376
O O3 0.478237 0.720325 0.893538
O O4 0.064601 0.270328 0.157856
O O5 0.089490 0.719834 0.616524
O O6 0.158595 0.635253 0.597027
O O7 0.399132 0.000437 0.657365
O O8 0.947539 0.570406 0.952934
O O9 0.191514 0.920570 0.427692
O O10 0.193091 0.833408 0.105515
O O11 0.060852 0.861185 0.294113
O O12 0.761146 0.454264 0.639957
O O13 0.714407 0.646565 0.588582
O O14 0.500000 0.500000 0.000000
O O15 0.881046 0.939816 0.744219
O O16 0.732188 0.366355 0.339146
O O17 0.000000 0.500000 0.000000
#
# Coordination Sequence:
#
# PCOD9083362 Si02
#       8
#     2   2   2   2   2   2   2   2
#     4  11  23  38  60  88 118 153 189 233 288 344
#     4  10  19  34  55  77 104 146 193 238 288 335
#     4  10  22  38  55  84 120 153 194 240 286 337
#     4  11  22  34  54  82 111 146 190 234 281 338
#     4  10  22  41  64  89 117 149 187 233 285 342
#     4   9  18  35  57  79 111 153 193 237 286 333
#     4   9  20  36  53  76 109 145 188 240 287 333
#     4  10  22  40  61  86 118 152 189 233 282 345
#
# _framework density 20.864471000000002
#
# number of rings (size 3 to 8) (size 9 to 14) (size 15 to 20)
#    0.000    2.000    0.000    3.000    0.000    5.500 
#    0.000    0.000    0.000   13.500    0.000    0.000 
#    0.000    0.000    0.000    0.000    0.000    0.000 
#
# Total GULP energy -89343.365504 kJ/mol
# GULP energy per Si atom -5583.960344 kJ/mol
# Density = 2.081698 g / cm^3
# Si number density = 20.864471 Si / 1000 Ang^3
#
#
#
# Elastic Constant Matrix: (Units=GPa)
#
#
# Indices 1 2 3 4 5 6 
#
# 1 78.1550 20.4331 44.9624 -2.2546 23.6842 7.8873
# 2 20.4331 37.3845 33.2649 13.7663 2.6595 -8.8237
# 3 44.9624 33.2649 139.8754 11.8775 31.9130 -0.3597
# 4 -2.2546 13.7663 11.8775 23.4187 -4.8373 0.7773
# 5 23.6842 2.6595 31.9130 -4.8373 30.3985 -0.4270
# 6 7.8873 -8.8237 -0.3597 0.7773 -0.4270 17.4950
#
#
#
# Elastic Compliance Matrix: (Units=1/GPa)
#
#
# Indices 1 2 3 4 5 6 
#
# 1 0.028114 -0.025839 -0.000343 0.015405 -0.017209 -0.026818
# 2 -0.025839 0.075628 -0.010549 -0.039377 0.019052 0.051790
# 3 -0.000343 -0.010549 0.012956 -0.002908 -0.012945 -0.005087
# 4 0.015405 -0.039377 -0.002908 0.070905 0.005358 -0.029885
# 5 -0.017209 0.019052 -0.012945 0.005358 0.059337 0.018311
# 6 -0.026818 0.051790 -0.005087 -0.029885 0.018311 0.097041
#
#
# Mechanical properties :
#
#
# Convention : Reuss Voigt Hill
#
# Bulk Modulus (GPa) = 23.13025 50.30398 36.71711
# Shear Modulus (GPa) = 11.57798 24.71274 18.14536
#
# Velocity S-wave (km/s) = 2.35822 3.44530 2.95223
# Velocity P-wave (km/s) = 4.30406 6.32369 5.40897
#
# Compressibility (1/GPa) = 0.04323343
#
# Stress axis : x y z
#
# Youngs Moduli (GPa) = 35.56981 13.22269 77.18693
#
# Poissons Ratio (x) = 0.34167 0.02647
# Poissons Ratio (y) = 0.91910 0.81428
# Poissons Ratio (z) = 0.01220 0.13949
#
# Static dielectric constant tensor:
#      x y z
#    x 1.755610 -0.020950 0.005260 
#    y -0.020950 1.725970 0.010180 
#    z 0.005260 0.010180 1.769530 
# 
# From -- ./inp_files/348511.got.cif
#   From: 2010.05.17/outbox.cif.g08.bks.cpg/sg2_175_cif.got.tgz:348511.got - 2010.06.03 11:33:40.
