data_PCOD9083055
_publ_section_title
;
Structure prediction by ZEFSAII (Michael W. Deem and Ramdas Pophale) SiO2 
 PCOD9083055
Probable space group: P -1
;
_chemical_formula_sum "Si O2"
_cell_formula_units_Z 16
_cell_length_a 14.665220
_cell_length_b 9.070754
_cell_length_c 7.822923
_cell_angle_alpha 72.336160
_cell_angle_beta 107.331697
_cell_angle_gamma 131.693121
_cell_volume 733.647813
_symmetry_space_group_name_H-M "P -1"
_symmetry_group_IT_number 2
_symmetry_cell_setting 'triclinic'
loop_
_space_group_symop_operation_xyz
x,y,z
-x,-y,-z
loop_
_atom_site_type_symbol
_atom_site_label
_atom_site_fract_x
_atom_site_fract_y
_atom_site_fract_z
Si Si1 0.509585 0.862586 0.682886
Si Si2 0.853811 0.675534 0.619502
Si Si3 0.849123 0.202680 0.411231
Si Si4 0.573852 0.416549 0.566447
Si Si5 0.399896 0.991848 0.783719
Si Si6 0.936907 0.409770 0.739847
Si Si7 0.108360 0.037685 0.725595
Si Si8 0.744817 0.031874 0.961137
O O1 0.437854 0.659851 0.607515
O O2 0.500000 0.000000 0.500000
O O3 0.448940 0.869808 0.819864
O O4 0.645496 0.942622 0.784513
O O5 0.716832 0.575870 0.636647
O O6 0.869847 0.508330 0.665406
O O7 0.963816 0.852909 0.739524
O O8 0.873878 0.776715 0.410399
O O9 0.911218 0.285237 0.599142
O O10 0.862777 0.050686 0.384990
O O11 0.920157 0.397509 0.259262
O O12 0.706834 0.093603 0.386132
O O13 0.500000 0.500000 0.500000
O O14 0.506525 0.223866 0.719891
O O15 0.326048 0.957677 0.925553
O O16 0.871201 0.249434 0.908761
O O17 0.205017 0.083422 0.907166
#
# Coordination Sequence:
#
# PCOD9083055 Si02
#       8
#     2   2   2   2   2   2   2   2
#     4  10  21  37  59  83 116 156 192 238 291 349
#     4  10  20  38  59  84 114 155 197 233 293 352
#     4   9  18  34  57  86 114 153 197 235 288 350
#     4  11  21  36  61  85 113 158 201 235 287 363
#     4  10  20  35  55  85 120 150 189 245 295 341
#     4  10  19  33  61  86 113 152 200 244 280 347
#     4   9  21  38  61  83 117 154 191 247 295 344
#     4  11  21  37  60  92 120 151 199 248 297 339
#
# _framework density 21.808827999999998
#
# number of rings (size 3 to 8) (size 9 to 14) (size 15 to 20)
#    0.000    2.000    0.000    5.625    0.000    4.500 
#    0.000    2.500    0.000   30.750    0.000    0.000 
#    0.000    1.000    0.000    0.000    0.000    0.000 
#
# Total GULP energy -89228.788460 kJ/mol
# GULP energy per Si atom -5576.799279 kJ/mol
# Density = 2.175919 g / cm^3
# Si number density = 21.808828 Si / 1000 Ang^3
#
#
#
# Elastic Constant Matrix: (Units=GPa)
#
#
# Indices 1 2 3 4 5 6 
#
# 1 85.0019 18.9580 -3.5194 2.1392 13.8902 39.1883
# 2 18.9580 41.1503 3.8616 -1.0842 1.1204 18.6881
# 3 -3.5194 3.8616 68.3092 5.7104 11.8330 22.7676
# 4 2.1392 -1.0842 5.7104 26.9243 8.9717 4.2962
# 5 13.8902 1.1204 11.8330 8.9717 42.6964 -4.2506
# 6 39.1883 18.6881 22.7676 4.2962 -4.2506 34.7784
#
#
#
# Elastic Compliance Matrix: (Units=1/GPa)
#
#
# Indices 1 2 3 4 5 6 
#
# 1 -1.135670 -0.479511 -0.935654 -0.420829 0.960677 2.319261
# 2 -0.479511 -0.167009 -0.388002 -0.171492 0.398923 0.954001
# 3 -0.935654 -0.388002 -0.748770 -0.345144 0.782902 1.891291
# 4 -0.420829 -0.171492 -0.345144 -0.113625 0.345413 0.848541
# 5 0.960677 0.398923 0.782902 0.345413 -0.783045 -1.947750
# 6 2.319261 0.954001 1.891291 0.848541 -1.947750 -4.678227
#
#
# Mechanical properties :
#
#
# Convention : Reuss Voigt Hill
#
# Bulk Modulus (GPa) = -0.17675 25.89575 12.85950
# Shear Modulus (GPa) = -0.84661 32.55722 15.85531
#
# Velocity S-wave (km/s) = -0.62373 3.86793 2.69924
# Velocity P-wave (km/s) = 0.77456 5.64337 3.95270
#
# Compressibility (1/GPa) = -5.65778383
#
# Stress axis : x y z
#
# Youngs Moduli (GPa) = -0.88054 -5.98770 -1.33552
#
# Poissons Ratio (x) = -2.87117 -1.24959
# Poissons Ratio (y) = -0.42223 -0.51819
# Poissons Ratio (z) = -0.82388 -2.32324
#
# Static dielectric constant tensor:
#      x y z
#    x 1.824990 0.020760 -0.022740 
#    y 0.020760 1.791210 0.041360 
#    z -0.022740 0.041360 1.945820 
# 
# From -- ./inp_files/297951.got.cif
#   From: 2010.05.17/outbox.cif.g08.bks.cpg/sg2_149_cif.got.tgz:297951.got - 2010.06.03 11:33:40.
