data_PCOD9083423
_publ_section_title
;
Structure prediction by ZEFSAII (Michael W. Deem and Ramdas Pophale) SiO2 
 PCOD9083423
Probable space group: P -1
;
_chemical_formula_sum "Si O2"
_cell_formula_units_Z 14
_cell_length_a 7.763953
_cell_length_b 12.878908
_cell_length_c 8.408778
_cell_angle_alpha 64.645531
_cell_angle_beta 94.629610
_cell_angle_gamma 131.919889
_cell_volume 538.346141
_symmetry_space_group_name_H-M "P -1"
_symmetry_group_IT_number 2
_symmetry_cell_setting 'triclinic'
loop_
_space_group_symop_operation_xyz
x,y,z
-x,-y,-z
loop_
_atom_site_type_symbol
_atom_site_label
_atom_site_fract_x
_atom_site_fract_y
_atom_site_fract_z
Si Si1 0.270488 0.077372 0.987698
Si Si2 0.168197 0.252247 0.285495
Si Si3 0.251184 0.658540 0.695638
Si Si4 0.283777 0.035895 0.374877
Si Si5 0.735002 0.387789 0.901461
Si Si6 0.913885 0.213464 0.978576
Si Si7 0.375757 0.486698 0.658568
O O1 0.303695 0.033319 0.190058
O O2 0.471783 0.271704 0.876530
O O3 0.278052 0.979255 0.924918
O O4 0.000000 0.000000 0.000000
O O5 0.225794 0.145088 0.325171
O O6 0.410512 0.426688 0.250787
O O7 0.070160 0.263450 0.113162
O O8 0.943667 0.139885 0.463194
O O9 0.456171 0.852048 0.591288
O O10 0.271236 0.608879 0.908303
O O11 0.314893 0.595360 0.606112
O O12 0.968639 0.561829 0.733942
O O13 0.799153 0.284404 0.935633
O O14 0.115082 0.308633 0.791639
O O15 0.500000 0.500000 0.500000
#
# Coordination Sequence:
#
# PCOD9083423 Si02
#       7
#     2   2   2   2   2   2   2
#     4  11  20  35  57  90 119 154 201 245 299 358
#     4  10  19  34  55  86 118 156 199 246 295 345
#     4   8  17  36  59  79 115 162 198 229 305 349
#     4   9  18  34  57  82 118 157 196 245 292 351
#     4   9  19  36  60  85 122 156 198 247 294 358
#     4  11  21  35  58  92 118 155 205 243 297 355
#     4  10  20  35  58  89 122 153 198 252 297 349
#
# _framework density 26.005572999999998
#
# number of rings (size 3 to 8) (size 9 to 14) (size 15 to 20)
#    0.000    2.286    1.429    1.714    0.000    0.000 
#    2.571    2.857    0.000    1.714    0.000    0.000 
#    0.000    0.000    0.000    0.000    0.000    0.000 
#
# Total GULP energy -78353.110412 kJ/mol
# GULP energy per Si atom -5596.650744 kJ/mol
# Density = 2.594638 g / cm^3
# Si number density = 26.005573 Si / 1000 Ang^3
#
#
#
# Elastic Constant Matrix: (Units=GPa)
#
#
# Indices 1 2 3 4 5 6 
#
# 1 106.4938 37.2330 22.2132 -7.1831 -21.3826 8.5216
# 2 37.2330 172.5523 16.5400 -13.2236 -0.2217 6.9045
# 3 22.2132 16.5400 62.6241 -6.3059 -33.5201 -4.5856
# 4 -7.1831 -13.2236 -6.3059 42.1217 -3.8626 -6.4617
# 5 -21.3826 -0.2217 -33.5201 -3.8626 35.4420 -6.6153
# 6 8.5216 6.9045 -4.5856 -6.4617 -6.6153 54.4893
#
#
#
# Elastic Compliance Matrix: (Units=1/GPa)
#
#
# Indices 1 2 3 4 5 6 
#
# 1 0.011876 -0.002494 0.001201 0.002178 0.008495 -0.000151
# 2 -0.002494 0.006776 -0.003750 0.000453 -0.005214 -0.001363
# 3 0.001201 -0.003750 0.041276 0.010702 0.042815 0.010228
# 4 0.002178 0.000453 0.010702 0.028165 0.015578 0.005734
# 5 0.008495 -0.005214 0.042815 0.015578 0.078162 0.014272
# 6 -0.000151 -0.001363 0.010228 0.005734 0.014272 0.021822
#
#
# Mechanical properties :
#
#
# Convention : Reuss Voigt Hill
#
# Bulk Modulus (GPa) = 20.06301 54.84918 37.45609
# Shear Modulus (GPa) = 23.28012 44.12286 33.70149
#
# Velocity S-wave (km/s) = 2.99523 4.12353 3.60381
# Velocity P-wave (km/s) = 4.43774 6.61880 5.63480
#
# Compressibility (1/GPa) = 0.04984298
#
# Stress axis : x y z
#
# Youngs Moduli (GPa) = 84.20197 147.59048 24.22718
#
# Poissons Ratio (x) = 0.36808 -0.02911
# Poissons Ratio (y) = 0.20999 0.09085
# Poissons Ratio (z) = -0.10116 0.55344
#
# Static dielectric constant tensor:
#      x y z
#    x 2.140420 0.022960 0.004440 
#    y 0.022960 2.074690 -0.043190 
#    z 0.004440 -0.043190 2.004700 
# 
# From -- ./inp_files/200908.got.cif
#   From: 2010.05.17/outbox.cif.g08.bks.cpg/sg2_101_cif.got.tgz:200908.got - 2010.06.03 11:33:40.
