data_PCOD9083140
_publ_section_title
;
Structure prediction by ZEFSAII (Michael W. Deem and Ramdas Pophale) SiO2 
 PCOD9083140
Probable space group: P -1
;
_chemical_formula_sum "Si O2"
_cell_formula_units_Z 16
_cell_length_a 14.112317
_cell_length_b 14.429487
_cell_length_c 15.823692
_cell_angle_alpha 111.028023
_cell_angle_beta 101.823722
_cell_angle_gamma 19.932391
_cell_volume 932.329926
_symmetry_space_group_name_H-M "P -1"
_symmetry_group_IT_number 2
_symmetry_cell_setting 'triclinic'
loop_
_space_group_symop_operation_xyz
x,y,z
-x,-y,-z
loop_
_atom_site_type_symbol
_atom_site_label
_atom_site_fract_x
_atom_site_fract_y
_atom_site_fract_z
Si Si1 0.293437 0.755252 0.422292
Si Si2 0.622226 0.757305 0.501770
Si Si3 0.995513 0.281759 0.814997
Si Si4 0.184378 0.637758 0.514189
Si Si5 0.411953 0.422650 0.298721
Si Si6 0.173365 0.355631 0.165295
Si Si7 0.980272 0.543280 0.380570
Si Si8 0.845485 0.751435 0.022333
O O1 0.548926 0.547965 0.464660
O O2 0.419203 0.534475 0.327560
O O3 0.000000 0.000000 0.500000
O O4 0.143519 0.988728 0.414881
O O5 0.740533 0.534028 0.475816
O O6 0.775287 0.650038 0.409219
O O7 0.757934 0.694194 0.580426
O O8 0.259890 0.130461 0.555128
O O9 0.725559 0.494437 0.782454
O O10 0.055278 0.331755 0.799678
O O11 0.981658 0.326333 0.925972
O O12 0.266391 0.940705 0.743643
O O13 0.223143 0.581669 0.402106
O O14 0.133984 0.381489 0.265347
O O15 0.497547 0.083513 0.101269
O O16 0.140019 0.283447 0.086347
O O17 0.000000 0.500000 0.000000
#
# Coordination Sequence:
#
# PCOD9083140 Si02
#       8
#     2   2   2   2   2   2   2   2
#     4  10  20  32  45  67  94 127 165 204 241 292
#     4  10  21  35  49  75  98 134 173 208 230 281
#     4  11  19  30  45  70  96 126 161 192 233 299
#     4  11  19  32  48  65  97 132 165 199 243 286
#     4  11  19  29  46  68  94 127 163 195 241 289
#     4  10  19  34  49  71 100 139 159 200 250 284
#     4  10  21  34  51  72 103 129 174 207 237 273
#     4   9  20  32  48  71 100 131 165 199 240 306
#
# _framework density 17.161307000000001
#
# number of rings (size 3 to 8) (size 9 to 14) (size 15 to 20)
#    0.000    1.750    1.250    6.000    3.500    0.000 
#    0.000    0.000    0.000    0.000    0.000    0.000 
#    0.000    6.000    0.000    0.000    0.000    0.000 
#
# Total GULP energy -89108.743501 kJ/mol
# GULP energy per Si atom -5569.296469 kJ/mol
# Density = 1.712225 g / cm^3
# Si number density = 17.161307 Si / 1000 Ang^3
#
#
#
# Elastic Constant Matrix: (Units=GPa)
#
#
# Indices 1 2 3 4 5 6 
#
# 1 52.8659 8.5064 20.7814 -1.8702 11.1037 13.7191
# 2 8.5064 80.3568 8.6633 3.6086 1.9748 7.4588
# 3 20.7814 8.6633 66.6903 -7.1493 6.4624 3.2984
# 4 -1.8702 3.6086 -7.1493 27.4405 1.6869 14.0442
# 5 11.1037 1.9748 6.4624 1.6869 18.8947 -0.5541
# 6 13.7191 7.4588 3.2984 14.0442 -0.5541 36.9444
#
#
#
# Elastic Compliance Matrix: (Units=1/GPa)
#
#
# Indices 1 2 3 4 5 6 
#
# 1 0.028331 -0.001158 -0.005605 0.008344 -0.015743 -0.013194
# 2 -0.001158 0.012922 -0.001372 -0.001334 -0.000127 -0.001551
# 3 -0.005605 -0.001372 0.017863 0.005316 -0.003185 -0.001305
# 4 0.008344 -0.001334 0.005316 0.051002 -0.011806 -0.022869
# 5 -0.015743 -0.000127 -0.003185 -0.011806 0.064674 0.011614
# 6 -0.013194 -0.001551 -0.001305 -0.022869 0.011614 0.041265
#
#
# Mechanical properties :
#
#
# Convention : Reuss Voigt Hill
#
# Bulk Modulus (GPa) = 23.33947 30.64615 26.99281
# Shear Modulus (GPa) = 20.27512 27.45340 23.86426
#
# Velocity S-wave (km/s) = 3.44094 4.00400 3.73310
# Velocity P-wave (km/s) = 5.42368 6.26677 5.86041
#
# Compressibility (1/GPa) = 0.04284588
#
# Stress axis : x y z
#
# Youngs Moduli (GPa) = 35.29667 77.38760 55.98294
#
# Poissons Ratio (x) = 0.08961 0.31381
# Poissons Ratio (y) = 0.04087 0.07679
# Poissons Ratio (z) = 0.19785 0.10616
#
# Static dielectric constant tensor:
#      x y z
#    x 1.628890 0.005030 0.034080 
#    y 0.005030 1.675940 -0.006350 
#    z 0.034080 -0.006350 1.621350 
# 
# From -- ./inp_files/533348.got.cif
#   From: 2010.05.17/outbox.cif.g08.bks.cpg/sg2_267_cif.got.tgz:533348.got - 2010.06.03 11:33:40.
