data_PCOD9083192
_publ_section_title
;
Structure prediction by ZEFSAII (Michael W. Deem and Ramdas Pophale) SiO2 
 PCOD9083192
Probable space group: P -1
;
_chemical_formula_sum "Si O2"
_cell_formula_units_Z 16
_cell_length_a 14.421008
_cell_length_b 12.016368
_cell_length_c 14.285685
_cell_angle_alpha 30.803018
_cell_angle_beta 43.084622
_cell_angle_gamma 37.292288
_cell_volume 759.202144
_symmetry_space_group_name_H-M "P -1"
_symmetry_group_IT_number 2
_symmetry_cell_setting 'triclinic'
loop_
_space_group_symop_operation_xyz
x,y,z
-x,-y,-z
loop_
_atom_site_type_symbol
_atom_site_label
_atom_site_fract_x
_atom_site_fract_y
_atom_site_fract_z
Si Si1 0.323519 0.002252 0.675393
Si Si2 0.128625 0.720692 0.767781
Si Si3 0.167612 0.210527 0.158706
Si Si4 0.926099 0.576073 0.721680
Si Si5 0.044554 0.923685 0.891247
Si Si6 0.412784 0.055892 0.368527
Si Si7 0.882428 0.438105 0.572673
Si Si8 0.609765 0.229515 0.575566
O O1 0.382984 0.942922 0.567397
O O2 0.268379 0.297645 0.511828
O O3 0.177846 0.955079 0.823861
O O4 0.458143 0.871374 0.746668
O O5 0.116921 0.812180 0.816500
O O6 0.241636 0.778900 0.580316
O O7 0.954644 0.839570 0.770949
O O8 0.189719 0.424498 0.937241
O O9 0.087427 0.332493 0.228782
O O10 0.323191 0.967377 0.247287
O O11 0.753532 0.718141 0.702269
O O12 0.040003 0.633492 0.534751
O O13 0.985502 0.283694 0.889726
O O14 0.897323 0.192811 0.787123
O O15 0.464052 0.868432 0.378841
O O16 0.000000 0.500000 0.500000
O O17 0.500000 0.500000 0.500000
#
# Coordination Sequence:
#
# PCOD9083192 Si02
#       8
#     2   2   2   2   2   2   2   2
#     4  10  20  35  56  74 112 149 172 218 269 313
#     4  10  19  38  58  80 110 144 185 225 273 326
#     4   9  21  36  58  82 108 144 183 230 271 320
#     4  10  19  35  58  80 108 139 185 220 267 325
#     4  10  19  34  60  79 106 147 180 219 269 322
#     4  10  20  38  53  78 110 144 182 215 263 328
#     4  10  19  34  52  81 107 139 172 230 269 307
#     4  11  22  36  59  84 108 145 182 228 277 327
#
# _framework density 21.074756000000001
#
# number of rings (size 3 to 8) (size 9 to 14) (size 15 to 20)
#    0.000    2.000    3.750    1.125    0.000    5.000 
#    0.000    0.000    0.000    0.000    0.000    0.000 
#    0.000    0.000    0.000    0.000    0.000    0.000 
#
# Total GULP energy -89324.354817 kJ/mol
# GULP energy per Si atom -5582.772176 kJ/mol
# Density = 2.102679 g / cm^3
# Si number density = 21.074756 Si / 1000 Ang^3
#
#
#
# Elastic Constant Matrix: (Units=GPa)
#
#
# Indices 1 2 3 4 5 6 
#
# 1 109.5597 12.5331 20.2637 -8.3480 2.4476 4.9835
# 2 12.5331 55.0412 5.0089 -23.0379 5.4737 7.4583
# 3 20.2637 5.0089 76.1465 -16.1145 4.1170 5.8377
# 4 -8.3480 -23.0379 -16.1145 26.3870 -1.5960 -2.1696
# 5 2.4476 5.4737 4.1170 -1.5960 20.7661 -3.0450
# 6 4.9835 7.4583 5.8377 -2.1696 -3.0450 12.9327
#
#
#
# Elastic Compliance Matrix: (Units=1/GPa)
#
#
# Indices 1 2 3 4 5 6 
#
# 1 0.009854 -0.001729 -0.002338 -0.000005 -0.000516 -0.001867
# 2 -0.001729 0.035191 0.007083 0.032198 -0.010935 -0.019999
# 3 -0.002338 0.007083 0.017507 0.015004 -0.005351 -0.009829
# 4 -0.000005 0.032198 0.015004 0.073462 -0.008000 -0.014899
# 5 -0.000516 -0.010935 -0.005351 -0.008000 0.054539 0.020419
# 6 -0.001867 -0.019999 -0.009829 -0.014899 0.020419 0.096322
#
#
# Mechanical properties :
#
#
# Convention : Reuss Voigt Hill
#
# Bulk Modulus (GPa) = 14.58042 35.15100 24.86571
# Shear Modulus (GPa) = 16.46345 25.54658 21.00501
#
# Velocity S-wave (km/s) = 2.79802 3.48543 3.16047
# Velocity P-wave (km/s) = 4.16797 5.73699 5.01423
#
# Compressibility (1/GPa) = 0.06858511
#
# Stress axis : x y z
#
# Youngs Moduli (GPa) = 101.48370 28.41612 57.11979
#
# Poissons Ratio (x) = 0.04912 0.13357
# Poissons Ratio (y) = 0.17542 -0.40460
# Poissons Ratio (z) = 0.23731 -0.20128
#
# Static dielectric constant tensor:
#      x y z
#    x 1.758140 0.011360 0.001690 
#    y 0.011360 1.785840 -0.018720 
#    z 0.001690 -0.018720 1.778550 
# 
# From -- ./inp_files/255934.got.cif
#   From: 2010.05.17/outbox.cif.g08.bks.cpg/sg2_128_cif.got.tgz:255934.got - 2010.06.03 11:33:40.
