data_PCOD9083804
_publ_section_title
;
Structure prediction by ZEFSAII (Michael W. Deem and Ramdas Pophale) SiO2 
 PCOD9083804
Probable space group: P -1
;
_chemical_formula_sum "Si O2"
_cell_formula_units_Z 16
_cell_length_a 13.940005
_cell_length_b 9.134891
_cell_length_c 15.050874
_cell_angle_alpha 117.413885
_cell_angle_beta 144.541223
_cell_angle_gamma 38.995946
_cell_volume 616.466675
_symmetry_space_group_name_H-M "P -1"
_symmetry_group_IT_number 2
_symmetry_cell_setting 'triclinic'
loop_
_space_group_symop_operation_xyz
x,y,z
-x,-y,-z
loop_
_atom_site_type_symbol
_atom_site_label
_atom_site_fract_x
_atom_site_fract_y
_atom_site_fract_z
Si Si1 0.293008 0.594148 0.145776
Si Si2 0.180032 0.302886 0.179792
Si Si3 0.225682 0.084300 0.995091
Si Si4 0.032688 0.229355 0.591304
Si Si5 0.110496 0.964489 0.243151
Si Si6 0.767395 0.166742 0.501410
Si Si7 0.895592 0.650122 0.680029
Si Si8 0.515972 0.773866 0.944899
O O1 0.247062 0.812082 0.209405
O O2 0.476185 0.378283 0.301538
O O3 0.439387 0.446875 0.121701
O O4 0.033905 0.681475 0.972358
O O5 0.021043 0.597296 0.123678
O O6 0.297091 0.224177 0.345284
O O7 0.359888 0.090407 0.176271
O O8 0.130918 0.977162 0.925205
O O9 0.381402 0.913174 0.975942
O O10 0.885762 0.517765 0.561711
O O11 0.884939 0.232943 0.555720
O O12 0.053464 0.120799 0.482896
O O13 0.332421 0.992646 0.790539
O O14 0.238791 0.817816 0.393679
O O15 0.079380 0.183060 0.285261
O O16 0.188451 0.387481 0.869950
#
# Coordination Sequence:
#
# PCOD9083804 Si02
#       8
#     2   2   2   2   2   2   2   2
#     4   9  21  34  60  84 107 146 191 230 266 322
#     4   9  19  35  58  86 111 143 182 230 278 325
#     4  10  19  34  58  84 113 141 187 226 270 333
#     4  10  20  37  61  83 106 144 191 235 268 317
#     4  11  22  38  53  85 118 147 178 226 284 332
#     4  10  20  37  62  79 105 147 197 231 259 320
#     4  11  22  35  59  81 121 145 172 231 289 334
#     4  10  19  35  61  86 106 143 189 226 272 330
#
# _framework density 25.954363000000001
#
# number of rings (size 3 to 8) (size 9 to 14) (size 15 to 20)
#    0.000    2.000    2.500    0.750    3.500    5.500 
#    0.000    0.625    0.000    0.000    0.000    0.000 
#    0.000    0.000    0.000    0.000    0.000    0.000 
#
# Total GULP energy -89219.948971 kJ/mol
# GULP energy per Si atom -5576.246811 kJ/mol
# Density = 2.589529 g / cm^3
# Si number density = 25.954363 Si / 1000 Ang^3
#
#
#
# Elastic Constant Matrix: (Units=GPa)
#
#
# Indices 1 2 3 4 5 6 
#
# 1 89.1330 74.1083 15.5164 11.8995 -12.1557 -20.0206
# 2 74.1083 187.9709 13.7054 65.9402 -5.9244 -2.9580
# 3 15.5164 13.7054 45.8157 5.2170 -3.2628 -6.8901
# 4 11.8995 65.9402 5.2170 32.7772 -4.3384 -8.8873
# 5 -12.1557 -5.9244 -3.2628 -4.3384 31.3733 14.1233
# 6 -20.0206 -2.9580 -6.8901 -8.8873 14.1233 42.7425
#
#
#
# Elastic Compliance Matrix: (Units=1/GPa)
#
#
# Indices 1 2 3 4 5 6 
#
# 1 0.076935 -0.085792 -0.009419 0.163484 0.008302 0.059830
# 2 -0.085792 0.116061 0.008116 -0.225016 -0.007810 -0.075051
# 3 -0.009419 0.008116 0.024048 -0.017751 -0.000494 -0.003501
# 4 0.163484 -0.225016 -0.017751 0.469597 0.016227 0.150422
# 5 0.008302 -0.007810 -0.000494 0.016227 0.038553 -0.006097
# 6 0.059830 -0.075051 -0.003501 0.150422 -0.006097 0.078953
#
#
# Mechanical properties :
#
#
# Convention : Reuss Voigt Hill
#
# Bulk Modulus (GPa) = 23.33461 58.84222 41.08842
# Shear Modulus (GPa) = 5.03717 36.01790 20.52753
#
# Velocity S-wave (km/s) = 1.39463 3.72928 2.81536
# Velocity P-wave (km/s) = 3.40639 6.42371 5.14137
#
# Compressibility (1/GPa) = 0.04285480
#
# Stress axis : x y z
#
# Youngs Moduli (GPa) = 12.99802 8.61618 41.58342
#
# Poissons Ratio (x) = 0.73920 0.39165
# Poissons Ratio (y) = 1.11513 -0.33751
# Poissons Ratio (z) = 0.12242 -0.06993
#
# Static dielectric constant tensor:
#      x y z
#    x 2.139960 -0.094950 0.007660 
#    y -0.094950 2.145270 -0.002070 
#    z 0.007660 -0.002070 2.130550 
# 
# From -- ./inp_files/572743.got.cif
#   From: 2010.05.17/outbox.cif.g08.bks.cpg/sg2_287_cif.got.tgz:572743.got - 2010.06.03 11:33:40.
