data_PCOD9083195
_publ_section_title
;
Structure prediction by ZEFSAII (Michael W. Deem and Ramdas Pophale) SiO2 
 PCOD9083195
Probable space group: P -1
;
_chemical_formula_sum "Si O2"
_cell_formula_units_Z 16
_cell_length_a 10.705463
_cell_length_b 11.552858
_cell_length_c 7.597116
_cell_angle_alpha 72.872942
_cell_angle_beta 110.333815
_cell_angle_gamma 128.545602
_cell_volume 685.175237
_symmetry_space_group_name_H-M "P -1"
_symmetry_group_IT_number 2
_symmetry_cell_setting 'triclinic'
loop_
_space_group_symop_operation_xyz
x,y,z
-x,-y,-z
loop_
_atom_site_type_symbol
_atom_site_label
_atom_site_fract_x
_atom_site_fract_y
_atom_site_fract_z
Si Si1 0.846398 0.786565 0.158295
Si Si2 0.836788 0.912375 0.716078
Si Si3 0.499785 0.692412 0.121696
Si Si4 0.870878 0.351779 0.386432
Si Si5 0.076246 0.286819 0.332556
Si Si6 0.407801 0.571374 0.481003
Si Si7 0.157831 0.439622 0.950759
Si Si8 0.506819 0.210958 0.298154
O O1 0.674439 0.720312 0.194647
O O2 0.874464 0.662008 0.185477
O O3 0.832904 0.842312 0.934991
O O4 0.997335 0.923999 0.271773
O O5 0.861581 0.817072 0.629015
O O6 0.670170 0.904364 0.645899
O O7 0.456342 0.698624 0.300570
O O8 0.347377 0.527420 0.063458
O O9 0.509927 0.794106 0.920240
O O10 0.862645 0.433325 0.171841
O O11 0.683357 0.245021 0.414404
O O12 0.000000 0.500000 0.500000
O O13 0.924535 0.247407 0.394312
O O14 0.220086 0.440778 0.423050
O O15 0.052373 0.332654 0.106825
O O16 0.500000 0.500000 0.500000
O O17 0.458656 0.637463 0.670135
#
# Coordination Sequence:
#
# PCOD9083195 Si02
#       8
#     2   2   2   2   2   2   2   2
#     4   9  17  32  57  83 108 141 184 223 267 331
#     4   9  18  34  57  80 110 145 180 221 273 324
#     4   9  20  31  54  83 108 138 176 228 279 318
#     4  11  21  32  54  79 107 142 180 227 278 322
#     4  10  19  34  52  82 111 141 178 223 274 327
#     4  11  20  30  54  81 112 137 177 233 275 320
#     4   9  19  32  54  79 109 139 177 230 276 319
#     4  10  20  36  53  79 109 146 178 227 276 320
#
# _framework density 23.351689
#
# number of rings (size 3 to 8) (size 9 to 14) (size 15 to 20)
#    0.000    2.250    2.500    0.750    5.250    0.000 
#    0.000    0.625    0.000   22.500    0.000    0.000 
#    0.000    0.000    0.000    0.000    0.000    0.000 
#
# Total GULP energy -89184.737220 kJ/mol
# GULP energy per Si atom -5574.046076 kJ/mol
# Density = 2.329854 g / cm^3
# Si number density = 23.351689 Si / 1000 Ang^3
#
#
#
# Elastic Constant Matrix: (Units=GPa)
#
#
# Indices 1 2 3 4 5 6 
#
# 1 159.6128 36.6476 21.6592 7.2719 -12.2410 28.9741
# 2 36.6476 54.2539 16.1800 11.4548 -2.9232 16.4461
# 3 21.6592 16.1800 99.0007 -1.3971 -5.4847 7.7523
# 4 7.2719 11.4548 -1.3971 24.3747 2.2776 9.1293
# 5 -12.2410 -2.9232 -5.4847 2.2776 20.6688 -1.1368
# 6 28.9741 16.4461 7.7523 9.1293 -1.1368 20.4814
#
#
#
# Elastic Compliance Matrix: (Units=1/GPa)
#
#
# Indices 1 2 3 4 5 6 
#
# 1 0.009287 -0.002991 -0.000382 0.002540 0.004064 -0.011498
# 2 -0.002991 0.026780 -0.002730 -0.007109 0.001360 -0.012994
# 3 -0.000382 -0.002730 0.010974 0.002818 0.001848 -0.002575
# 4 0.002540 -0.007109 0.002818 0.052871 -0.005836 -0.022842
# 5 0.004064 0.001360 0.001848 -0.005836 0.052002 -0.002053
# 6 -0.011498 -0.012994 -0.002575 -0.022842 -0.002053 0.086567
#
#
# Mechanical properties :
#
#
# Convention : Reuss Voigt Hill
#
# Bulk Modulus (GPa) = 28.70598 51.31567 40.01083
# Shear Modulus (GPa) = 19.06227 28.99701 24.02964
#
# Velocity S-wave (km/s) = 2.86022 3.52767 3.21133
# Velocity P-wave (km/s) = 4.81948 6.21414 5.56070
#
# Compressibility (1/GPa) = 0.03483594
#
# Stress axis : x y z
#
# Youngs Moduli (GPa) = 107.67911 37.34154 91.12145
#
# Poissons Ratio (x) = 0.11170 0.03477
# Poissons Ratio (y) = 0.32209 0.24874
# Poissons Ratio (z) = 0.04109 0.10193
#
# Static dielectric constant tensor:
#      x y z
#    x 1.922930 0.033220 0.034610 
#    y 0.033220 1.843940 -0.045610 
#    z 0.034610 -0.045610 1.950440 
# 
# From -- ./inp_files/179256.got.cif
#   From: 2010.05.17/outbox.cif.g08.bks.cpg/sg2_90_cif.got.tgz:179256.got - 2010.06.03 11:33:40.
