data_PCOD9083038
_publ_section_title
;
Structure prediction by ZEFSAII (Michael W. Deem and Ramdas Pophale) SiO2 
 PCOD9083038
Probable space group: P -1
;
_chemical_formula_sum "Si O2"
_cell_formula_units_Z 11
_cell_length_a 12.715358
_cell_length_b 9.131059
_cell_length_c 5.181538
_cell_angle_alpha 85.017423
_cell_angle_beta 101.590773
_cell_angle_gamma 137.142817
_cell_volume 399.196278
_symmetry_space_group_name_H-M "P -1"
_symmetry_group_IT_number 2
_symmetry_cell_setting 'triclinic'
loop_
_space_group_symop_operation_xyz
x,y,z
-x,-y,-z
loop_
_atom_site_type_symbol
_atom_site_label
_atom_site_fract_x
_atom_site_fract_y
_atom_site_fract_z
Si Si1 0.767443 0.046262 0.372067
Si Si2 0.771438 0.867975 0.899278
Si Si3 0.767700 0.383880 0.396270
Si Si4 0.500000 0.500000 0.500000
Si Si5 0.132027 0.232745 0.400548
Si Si6 0.425604 0.788847 0.152534
O O1 0.814748 0.025824 0.668406
O O2 0.810406 0.261151 0.353572
O O3 0.571385 0.831152 0.296944
O O4 0.810025 0.996185 0.151689
O O5 0.588183 0.651235 0.781616
O O6 0.859626 0.803550 0.890973
O O7 0.887944 0.620616 0.541629
O O8 0.652112 0.245678 0.609229
O O9 0.694432 0.381905 0.101333
O O10 0.317665 0.376746 0.528042
O O11 0.000000 0.000000 0.500000
O O12 0.500000 0.000000 0.000000
#
# Coordination Sequence:
#
# PCOD9083038 Si02
#       6
#     2   2   2   1   2   2
#     4  11  19  37  62  96 132 169 224 284 330 397
#     4  10  23  39  66  96 133 173 225 277 338 401
#     4  11  22  38  63 100 132 180 227 281 339 406
#     4   8  20  42  68  92 134 174 228 266 348 386
#     4  10  23  46  68  99 139 184 229 279 345 418
#     4  10  19  33  60  97 136 168 222 280 335 401
#
# _framework density 27.555367
#
# number of rings (size 3 to 8) (size 9 to 14) (size 15 to 20)
#    1.091    0.727    0.000    7.636    0.000    2.182 
#    0.000    5.455    0.000    0.000    0.000    0.000 
#    0.000    0.000    0.000    0.000    0.000    0.000 
#
# Total GULP energy -61247.568796 kJ/mol
# GULP energy per Si atom -5567.960800 kJ/mol
# Density = 2.749265 g / cm^3
# Si number density = 27.555367 Si / 1000 Ang^3
#
#
#
# Elastic Constant Matrix: (Units=GPa)
#
#
# Indices 1 2 3 4 5 6 
#
# 1 145.0009 39.3983 89.8093 3.7384 -32.4351 -7.8897
# 2 39.3983 167.8532 60.5700 20.9061 -21.1077 -5.9622
# 3 89.8093 60.5700 224.9828 15.7240 -28.7897 -20.6317
# 4 3.7384 20.9061 15.7240 66.3074 -8.9509 -6.1588
# 5 -32.4351 -21.1077 -28.7897 -8.9509 57.5224 12.0334
# 6 -7.8897 -5.9622 -20.6317 -6.1588 12.0334 40.6749
#
#
#
# Elastic Compliance Matrix: (Units=1/GPa)
#
#
# Indices 1 2 3 4 5 6 
#
# 1 0.010063 -0.000763 -0.003452 0.000945 0.004014 -0.000955
# 2 -0.000763 0.006976 -0.001329 -0.001708 0.001290 -0.000440
# 3 -0.003452 -0.001329 0.006463 -0.000680 0.000225 0.002244
# 4 0.000945 -0.001708 -0.000680 0.016105 0.001757 0.001507
# 5 0.004014 0.001290 0.000225 0.001757 0.021560 -0.005030
# 6 -0.000955 -0.000440 0.002244 0.001507 -0.005030 0.027190
#
#
# Mechanical properties :
#
#
# Convention : Reuss Voigt Hill
#
# Bulk Modulus (GPa) = 80.55919 101.93246 91.24582
# Shear Modulus (GPa) = 48.27095 56.10488 52.18792
#
# Velocity S-wave (km/s) = 4.18997 4.51719 4.35665
# Velocity P-wave (km/s) = 7.25993 8.01741 7.64805
#
# Compressibility (1/GPa) = 0.01241323
#
# Stress axis : x y z
#
# Youngs Moduli (GPa) = 99.37213 143.35393 154.73738
#
# Poissons Ratio (x) = 0.10944 0.53408
# Poissons Ratio (y) = 0.07586 0.20567
# Poissons Ratio (z) = 0.34299 0.19054
#
# Static dielectric constant tensor:
#      x y z
#    x 2.286300 0.111580 -0.011340 
#    y 0.111580 2.044910 0.120680 
#    z -0.011340 0.120680 2.119030 
# 
# From -- ./inp_files/108202.got.cif
#   From: 2010.05.17/outbox.cif.g08.bks.cpg/sg2_55_cif.got.tgz:108202.got - 2010.06.03 11:33:40.
