data_PCOD9083242
_publ_section_title
;
Structure prediction by ZEFSAII (Michael W. Deem and Ramdas Pophale) SiO2 
 PCOD9083242
Probable space group: P -1
;
_chemical_formula_sum "Si O2"
_cell_formula_units_Z 16
_cell_length_a 6.223853
_cell_length_b 20.738438
_cell_length_c 18.220335
_cell_angle_alpha 27.921225
_cell_angle_beta 74.136021
_cell_angle_gamma 93.085841
_cell_volume 799.733180
_symmetry_space_group_name_H-M "P -1"
_symmetry_group_IT_number 2
_symmetry_cell_setting 'triclinic'
loop_
_space_group_symop_operation_xyz
x,y,z
-x,-y,-z
loop_
_atom_site_type_symbol
_atom_site_label
_atom_site_fract_x
_atom_site_fract_y
_atom_site_fract_z
Si Si1 0.642826 0.863090 0.174580
Si Si2 0.593314 0.136955 0.961662
Si Si3 0.766866 0.229013 0.278840
Si Si4 0.815437 0.542721 0.330256
Si Si5 0.753186 0.789440 0.991209
Si Si6 0.226647 0.873205 0.764131
Si Si7 0.288126 0.521260 0.036476
Si Si8 0.230281 0.584285 0.136452
O O1 0.494437 0.847672 0.126797
O O2 0.482995 0.653418 0.418295
O O3 0.584228 0.967433 0.130621
O O4 0.000000 0.000000 0.000000
O O5 0.351091 0.110536 0.063422
O O6 0.916986 0.322628 0.771640
O O7 0.940818 0.225938 0.198224
O O8 0.976317 0.376038 0.172281
O O9 0.536719 0.046038 0.529023
O O10 0.601198 0.283886 0.195453
O O11 0.761624 0.669862 0.170307
O O12 0.948162 0.490628 0.309343
O O13 0.499333 0.651366 0.095361
O O14 0.055259 0.910005 0.795196
O O15 0.262997 0.751452 0.931742
O O16 0.234228 0.491296 0.158026
O O17 0.500000 0.500000 0.000000
#
# Coordination Sequence:
#
# PCOD9083242 Si02
#       8
#     2   2   2   2   2   2   2   2
#     4  11  24  42  66  96 124 158 201 255 305 368
#     4  10  23  42  65  93 124 157 205 252 299 370
#     4   9  19  34  55  81 113 151 198 245 294 348
#     4  10  22  43  64  87 126 166 198 249 310 363
#     4  10  20  38  64  85 117 162 201 242 302 361
#     4   9  18  36  58  81 112 155 196 246 297 349
#     4  10  19  34  53  81 116 152 195 244 293 349
#     4   9  20  37  56  81 117 154 194 244 296 359
#
# _framework density 20.006674
#
# number of rings (size 3 to 8) (size 9 to 14) (size 15 to 20)
#    0.000    2.250    0.000    1.875    0.000    8.000 
#   11.250    3.750    0.000    0.000    0.000    0.000 
#    0.000    0.000    0.000    0.000    0.000    0.000 
#
# Total GULP energy -89110.542625 kJ/mol
# GULP energy per Si atom -5569.408914 kJ/mol
# Density = 1.996114 g / cm^3
# Si number density = 20.006674 Si / 1000 Ang^3
#
#
#
# Elastic Constant Matrix: (Units=GPa)
#
#
# Indices 1 2 3 4 5 6 
#
# 1 71.5327 45.8103 19.5251 4.0332 -14.1413 1.7621
# 2 45.8103 127.3561 22.5020 -1.1339 -4.0357 -6.4365
# 3 19.5251 22.5020 86.0769 -0.5141 -6.0430 3.8088
# 4 4.0332 -1.1339 -0.5141 18.0786 -1.3872 -0.1651
# 5 -14.1413 -4.0357 -6.0430 -1.3872 10.2347 2.9779
# 6 1.7621 -6.4365 3.8088 -0.1651 2.9779 42.7267
#
#
#
# Elastic Compliance Matrix: (Units=1/GPa)
#
#
# Indices 1 2 3 4 5 6 
#
# 1 0.026892 -0.008647 -0.001284 -0.004027 0.033801 -0.004669
# 2 -0.008647 0.011134 -0.001704 0.001904 -0.009128 0.002829
# 3 -0.001284 -0.001704 0.012843 0.000972 0.005777 -0.001747
# 4 -0.004027 0.001904 0.000972 0.056619 0.003332 0.000353
# 5 0.033801 -0.009128 0.005777 0.003332 0.148639 -0.013631
# 6 -0.004669 0.002829 -0.001747 0.000353 -0.013631 0.025130
#
#
# Mechanical properties :
#
#
# Convention : Reuss Voigt Hill
#
# Bulk Modulus (GPa) = 36.23280 51.18228 43.70754
# Shear Modulus (GPa) = 15.93746 27.34988 21.64367
#
# Velocity S-wave (km/s) = 2.82548 3.70136 3.29268
# Velocity P-wave (km/s) = 5.36602 6.62608 6.02906
#
# Compressibility (1/GPa) = 0.02759930
#
# Stress axis : x y z
#
# Youngs Moduli (GPa) = 37.18598 89.81454 77.86394
#
# Poissons Ratio (x) = 0.77662 0.09997
# Poissons Ratio (y) = 0.32154 0.13267
# Poissons Ratio (z) = 0.04775 0.15304
#
# Static dielectric constant tensor:
#      x y z
#    x 1.737710 -0.023270 0.005880 
#    y -0.023270 1.809960 -0.035740 
#    z 0.005880 -0.035740 1.735860 
# 
# From -- ./inp_files/112228.got.cif
#   From: 2010.05.17/outbox.cif.g08.bks.cpg/sg2_57_cif.got.tgz:112228.got - 2010.06.03 11:33:40.
