data_PCOD9083575
_publ_section_title
;
Structure prediction by ZEFSAII (Michael W. Deem and Ramdas Pophale) SiO2 
 PCOD9083575
Probable space group: P -1
;
_chemical_formula_sum "Si O2"
_cell_formula_units_Z 12
_cell_length_a 8.753248
_cell_length_b 10.711149
_cell_length_c 7.864416
_cell_angle_alpha 95.408377
_cell_angle_beta 90.728884
_cell_angle_gamma 138.707576
_cell_volume 480.478423
_symmetry_space_group_name_H-M "P -1"
_symmetry_group_IT_number 2
_symmetry_cell_setting 'triclinic'
loop_
_space_group_symop_operation_xyz
x,y,z
-x,-y,-z
loop_
_atom_site_type_symbol
_atom_site_label
_atom_site_fract_x
_atom_site_fract_y
_atom_site_fract_z
Si Si1 0.193110 0.540175 0.168081
Si Si2 0.220392 0.891302 0.848451
Si Si3 0.387149 0.249770 0.017931
Si Si4 0.995587 0.848770 0.486828
Si Si5 0.527384 0.546563 0.280205
Si Si6 0.337510 0.895728 0.316956
O O1 0.350997 0.552694 0.298367
O O2 0.194263 0.677864 0.265311
O O3 0.951038 0.320164 0.109554
O O4 0.348853 0.629838 0.011069
O O5 0.107544 0.867420 0.664702
O O6 0.240078 0.032133 0.973634
O O7 0.472401 0.989996 0.816053
O O8 0.392805 0.337353 0.196232
O O9 0.334966 0.315301 0.870969
O O10 0.153945 0.891154 0.343311
O O11 0.726073 0.645859 0.430994
O O12 0.000000 0.000000 0.500000
O O13 0.500000 0.000000 0.500000
#
# Coordination Sequence:
#
# PCOD9083575 Si02
#       6
#     2   2   2   2   2   2
#     4   9  18  34  54  77 100 139 177 202 251 314
#     4  10  19  34  57  75 104 140 169 209 254 306
#     4   8  17  35  54  75 103 139 171 207 252 304
#     4  11  19  33  55  79 103 131 171 217 261 297
#     4   9  17  34  54  76 106 133 173 213 252 298
#     4   9  19  34  52  73 106 140 167 207 256 309
#
# _framework density 24.975107000000001
#
# number of rings (size 3 to 8) (size 9 to 14) (size 15 to 20)
#    1.000    1.667    1.667    1.000    0.000    4.000 
#    0.000    5.000    0.000    2.000    0.000    0.000 
#    0.000    0.000    0.000    0.000    0.000    0.000 
#
# Total GULP energy -67091.187914 kJ/mol
# GULP energy per Si atom -5590.932326 kJ/mol
# Density = 2.491826 g / cm^3
# Si number density = 24.975107 Si / 1000 Ang^3
#
#
#
# Elastic Constant Matrix: (Units=GPa)
#
#
# Indices 1 2 3 4 5 6 
#
# 1 151.4199 48.5040 48.9881 19.3315 -23.8104 2.4363
# 2 48.5040 170.3705 33.6946 21.6438 -17.9132 -7.7550
# 3 48.9881 33.6946 81.7979 15.7313 -1.0373 -17.7725
# 4 19.3315 21.6438 15.7313 31.1735 -6.6055 -13.9569
# 5 -23.8104 -17.9132 -1.0373 -6.6055 40.8072 8.4603
# 6 2.4363 -7.7550 -17.7725 -13.9569 8.4603 29.3271
#
#
#
# Elastic Compliance Matrix: (Units=1/GPa)
#
#
# Indices 1 2 3 4 5 6 
#
# 1 0.011393 -0.000685 -0.007630 -0.005974 0.007411 -0.010732
# 2 -0.000685 0.007148 -0.002189 -0.003751 0.002464 -0.001875
# 3 -0.007630 -0.002189 0.020748 0.000992 -0.007914 0.015383
# 4 -0.005974 -0.003751 0.000992 0.047971 -0.002230 0.023578
# 5 0.007411 0.002464 -0.007914 -0.002230 0.032500 -0.015197
# 6 -0.010732 -0.001875 0.015383 0.023578 -0.015197 0.059421
#
#
# Mechanical properties :
#
#
# Convention : Reuss Voigt Hill
#
# Bulk Modulus (GPa) = 54.70274 73.99574 64.34924
# Shear Modulus (GPa) = 24.23888 38.42167 31.33028
#
# Velocity S-wave (km/s) = 3.11870 3.92650 3.54568
# Velocity P-wave (km/s) = 5.90922 7.08863 6.52562
#
# Compressibility (1/GPa) = 0.01828062
#
# Stress axis : x y z
#
# Youngs Moduli (GPa) = 87.77614 139.90540 48.19819
#
# Poissons Ratio (x) = 0.09582 0.36774
# Poissons Ratio (y) = 0.06012 0.10551
# Poissons Ratio (z) = 0.66971 0.30625
#
# Static dielectric constant tensor:
#      x y z
#    x 1.953900 0.039840 0.038360 
#    y 0.039840 1.988290 -0.088720 
#    z 0.038360 -0.088720 2.110010 
# 
# From -- ./inp_files/180130.got.cif
#   From: 2010.05.17/outbox.cif.g08.bks.cpg/sg2_91_cif.got.tgz:180130.got - 2010.06.03 11:33:40.
