data_PCOD9083561
_publ_section_title
;
Structure prediction by ZEFSAII (Michael W. Deem and Ramdas Pophale) SiO2 
 PCOD9083561
Probable space group: P -1
;
_chemical_formula_sum "Si O2"
_cell_formula_units_Z 14
_cell_length_a 14.708530
_cell_length_b 5.580562
_cell_length_c 13.035485
_cell_angle_alpha 68.863693
_cell_angle_beta 149.702479
_cell_angle_gamma 109.880830
_cell_volume 502.539357
_symmetry_space_group_name_H-M "P -1"
_symmetry_group_IT_number 2
_symmetry_cell_setting 'triclinic'
loop_
_space_group_symop_operation_xyz
x,y,z
-x,-y,-z
loop_
_atom_site_type_symbol
_atom_site_label
_atom_site_fract_x
_atom_site_fract_y
_atom_site_fract_z
Si Si1 0.264566 0.064690 0.846431
Si Si2 0.150228 0.979890 0.528496
Si Si3 0.343298 0.715536 0.448019
Si Si4 0.720787 0.430713 0.142970
Si Si5 0.021968 0.381791 0.820022
Si Si6 0.834068 0.172799 0.959267
Si Si7 0.546776 0.840432 0.365671
O O1 0.372090 0.314338 0.956411
O O2 0.061926 0.004958 0.706872
O O3 0.196184 0.136122 0.653477
O O4 0.374700 0.814100 0.969434
O O5 0.187553 0.695305 0.650375
O O6 0.290378 0.069309 0.564004
O O7 0.191599 0.617457 0.397432
O O8 0.465505 0.471717 0.593197
O O9 0.242501 0.744582 0.237791
O O10 0.414922 0.992658 0.518705
O O11 0.868192 0.524723 0.186979
O O12 0.074528 0.577480 0.934265
O O13 0.062065 0.082884 0.922025
O O14 0.656841 0.089098 0.867914
#
# Coordination Sequence:
#
# PCOD9083561 Si02
#       7
#     2   2   2   2   2   2   2
#     4   9  18  31  56  85 130 151 207 262 304 344
#     4   9  21  32  59  88 128 157 205 257 311 374
#     4  12  25  44  71  96 122 170 229 266 312 381
#     4  10  19  34  56  89 120 160 205 254 300 374
#     4  12  24  43  70  94 129 176 215 258 323 384
#     4  12  26  46  63  96 137 167 209 275 327 379
#     4  12  25  42  69  99 129 169 211 268 334 375
#
# _framework density 27.858516000000002
#
# number of rings (size 3 to 8) (size 9 to 14) (size 15 to 20)
#    0.857    0.286    0.000    7.286    2.000    0.000 
#    0.000    1.429    0.000    0.000    0.000    0.000 
#    0.000    0.000    0.000    0.000    0.000    0.000 
#
# Total GULP energy -78354.468707 kJ/mol
# GULP energy per Si atom -5596.747765 kJ/mol
# Density = 2.779511 g / cm^3
# Si number density = 27.858516 Si / 1000 Ang^3
#
#
#
# Elastic Constant Matrix: (Units=GPa)
#
#
# Indices 1 2 3 4 5 6 
#
# 1 102.5084 42.7316 -4.0379 -5.5485 20.3954 1.0032
# 2 42.7316 208.9517 33.7800 -22.9552 13.4639 -64.4931
# 3 -4.0379 33.7800 74.1989 -21.0035 30.5262 -5.4628
# 4 -5.5485 -22.9552 -21.0035 49.7448 0.1647 10.5803
# 5 20.3954 13.4639 30.5262 0.1647 36.4296 -2.1857
# 6 1.0032 -64.4931 -5.4628 10.5803 -2.1857 57.0350
#
#
#
# Elastic Compliance Matrix: (Units=1/GPa)
#
#
# Indices 1 2 3 4 5 6 
#
# 1 0.016534 -0.005854 0.011857 0.005807 -0.017506 -0.007523
# 2 -0.005854 0.010048 -0.006946 -0.001370 0.006068 0.011286
# 3 0.011857 -0.006946 0.034690 0.014740 -0.033732 -0.008768
# 4 0.005807 -0.001370 0.014740 0.027663 -0.015580 -0.005968
# 5 -0.017506 0.006068 -0.033732 -0.015580 0.063901 0.009277
# 6 -0.007523 0.011286 -0.008768 -0.005968 0.009277 0.031050
#
#
# Mechanical properties :
#
#
# Convention : Reuss Voigt Hill
#
# Bulk Modulus (GPa) = 16.83920 58.95629 37.89775
# Shear Modulus (GPa) = 24.32296 49.52089 36.92193
#
# Velocity S-wave (km/s) = 2.95801 4.22072 3.64447
# Velocity P-wave (km/s) = 4.21000 6.70532 5.59846
#
# Compressibility (1/GPa) = 0.05938524
#
# Stress axis : x y z
#
# Youngs Moduli (GPa) = 60.48242 99.52282 28.82705
#
# Poissons Ratio (x) = 0.58261 -0.34181
# Poissons Ratio (y) = 0.35407 0.20024
# Poissons Ratio (z) = -0.71715 0.69130
#
# Static dielectric constant tensor:
#      x y z
#    x 2.281430 0.013310 -0.078810 
#    y 0.013310 2.168810 -0.011870 
#    z -0.078810 -0.011870 2.098360 
# 
# From -- ./inp_files/525565.got.cif
#   From: 2010.05.17/outbox.cif.g08.bks.cpg/sg2_263_cif.got.tgz:525565.got - 2010.06.03 11:33:40.
