data_PCOD9083213
_publ_section_title
;
Structure prediction by ZEFSAII (Michael W. Deem and Ramdas Pophale) SiO2 
 PCOD9083213
Probable space group: P -1
;
_chemical_formula_sum "Si O2"
_cell_formula_units_Z 16
_cell_length_a 16.093485
_cell_length_b 9.604875
_cell_length_c 13.793468
_cell_angle_alpha 75.745997
_cell_angle_beta 131.552628
_cell_angle_gamma 64.222456
_cell_volume 874.514952
_symmetry_space_group_name_H-M "P -1"
_symmetry_group_IT_number 2
_symmetry_cell_setting 'triclinic'
loop_
_space_group_symop_operation_xyz
x,y,z
-x,-y,-z
loop_
_atom_site_type_symbol
_atom_site_label
_atom_site_fract_x
_atom_site_fract_y
_atom_site_fract_z
Si Si1 0.300308 0.801640 0.274667
Si Si2 0.620811 0.467879 0.242965
Si Si3 0.046124 0.914566 0.186136
Si Si4 0.927872 0.986446 0.298897
Si Si5 0.524068 0.945314 0.870056
Si Si6 0.595540 0.559885 0.993281
Si Si7 0.425554 0.327791 0.622207
Si Si8 0.799673 0.795183 0.267090
O O1 0.500000 0.500000 0.500000
O O2 0.172649 0.922238 0.254265
O O3 0.395480 0.833625 0.285864
O O4 0.138955 0.907973 0.058391
O O5 0.543774 0.621635 0.057392
O O6 0.551598 0.608279 0.268121
O O7 0.561214 0.365827 0.201386
O O8 0.851516 0.243672 0.454096
O O9 0.216739 0.607833 0.369873
O O10 0.951723 0.004913 0.202487
O O11 0.787456 0.255780 0.188957
O O12 0.850659 0.907569 0.268457
O O13 0.435550 0.151806 0.690205
O O14 0.346560 0.086972 0.778418
O O15 0.612922 0.701118 0.942878
O O16 0.690569 0.847155 0.079335
O O17 0.000000 0.500000 0.500000
#
# Coordination Sequence:
#
# PCOD9083213 Si02
#       8
#     2   2   2   2   2   2   2   2
#     4   9  17  31  54  82 103 122 160 219 272 310
#     4  10  20  34  51  73 101 141 184 214 250 301
#     4   9  18  32  53  80 101 126 169 216 263 311
#     4  11  21  35  54  75 105 143 178 213 257 305
#     4  11  22  33  48  76 106 138 178 213 258 312
#     4  11  21  33  49  72 109 146 178 214 248 300
#     4  10  19  34  53  75 104 134 170 217 262 305
#     4  11  21  34  52  73 103 141 180 222 261 301
#
# _framework density 18.295856000000001
#
# number of rings (size 3 to 8) (size 9 to 14) (size 15 to 20)
#    0.000    1.750    0.000    7.875    0.000    1.000 
#    0.000    0.000    0.000    0.750    0.000   35.875 
#    0.000    0.000    0.000    0.000    0.000    0.000 
#
# Total GULP energy -89073.752028 kJ/mol
# GULP energy per Si atom -5567.109502 kJ/mol
# Density = 1.825421 g / cm^3
# Si number density = 18.295856 Si / 1000 Ang^3
#
#
#
# Elastic Constant Matrix: (Units=GPa)
#
#
# Indices 1 2 3 4 5 6 
#
# 1 106.6181 29.7542 20.4772 -12.0310 -11.8191 19.6359
# 2 29.7542 52.8354 16.2484 -17.2192 -21.7265 32.6132
# 3 20.4772 16.2484 82.7986 -9.5420 -7.9066 7.5897
# 4 -12.0310 -17.2192 -9.5420 16.8671 -9.0088 4.9064
# 5 -11.8191 -21.7265 -7.9066 -9.0088 2.7805 4.1388
# 6 19.6359 32.6132 7.5897 4.9064 4.1388 21.7724
#
#
#
# Elastic Compliance Matrix: (Units=1/GPa)
#
#
# Indices 1 2 3 4 5 6 
#
# 1 0.011363 -0.006018 -0.001668 0.000421 -0.001381 -0.000484
# 2 -0.006018 0.007523 -0.004060 -0.012771 -0.024283 0.003067
# 3 -0.001668 -0.004060 0.013268 0.001599 0.000312 0.002541
# 4 0.000421 -0.012771 0.001599 0.028394 -0.026517 0.016835
# 5 -0.001381 -0.024283 0.000312 -0.026517 0.019903 0.039703
# 6 -0.000484 0.003067 0.002541 0.016835 0.039703 0.029545
#
#
# Mechanical properties :
#
#
# Convention : Reuss Voigt Hill
#
# Bulk Modulus (GPa) = 115.44540 41.69022 78.56781
# Shear Modulus (GPa) = 36.66375 20.00215 28.33295
#
# Velocity S-wave (km/s) = 4.48139 3.31004 3.93949
# Velocity P-wave (km/s) = 9.48754 6.11920 7.98304
#
# Compressibility (1/GPa) = 0.00866210
#
# Stress axis : x y z
#
# Youngs Moduli (GPa) = 88.00791 132.92382 75.36964
#
# Poissons Ratio (x) = 0.79989 0.12573
# Poissons Ratio (y) = 0.52960 0.30599
# Poissons Ratio (z) = 0.14682 0.53966
#
# Static dielectric constant tensor:
#      x y z
#    x 1.699840 -0.009220 -0.016510 
#    y -0.009220 1.636400 -0.006300 
#    z -0.016510 -0.006300 1.669930 
# 
# From -- ./inp_files/528410.got.cif
#   From: 2010.05.17/outbox.cif.g08.bks.cpg/sg2_265_cif.got.tgz:528410.got - 2010.06.03 11:33:40.
