data_PCOD9083339
_publ_section_title
;
Structure prediction by ZEFSAII (Michael W. Deem and Ramdas Pophale) SiO2 
 PCOD9083339
Probable space group: P -1
;
_chemical_formula_sum "Si O2"
_cell_formula_units_Z 16
_cell_length_a 8.301350
_cell_length_b 9.240748
_cell_length_c 11.499351
_cell_angle_alpha 111.088695
_cell_angle_beta 58.395810
_cell_angle_gamma 128.309223
_cell_volume 588.716130
_symmetry_space_group_name_H-M "P -1"
_symmetry_group_IT_number 2
_symmetry_cell_setting 'triclinic'
loop_
_space_group_symop_operation_xyz
x,y,z
-x,-y,-z
loop_
_atom_site_type_symbol
_atom_site_label
_atom_site_fract_x
_atom_site_fract_y
_atom_site_fract_z
Si Si1 0.123075 0.535681 0.711966
Si Si2 0.114573 0.823695 0.583337
Si Si3 0.340912 0.461451 0.794190
Si Si4 0.261416 0.105439 0.272708
Si Si5 0.284915 0.600175 0.407505
Si Si6 0.796444 0.920807 0.965059
Si Si7 0.761240 0.572635 0.921090
Si Si8 0.408198 0.956835 0.742629
O O1 0.182485 0.414777 0.730580
O O2 0.257809 0.579158 0.552647
O O3 0.221178 0.739358 0.789146
O O4 0.859378 0.458977 0.799236
O O5 0.264932 0.772501 0.432359
O O6 0.284898 0.937686 0.658452
O O7 0.970059 0.903955 0.615712
O O8 0.917947 0.604086 0.612711
O O9 0.535703 0.679641 0.767568
O O10 0.480226 0.365379 0.710486
O O11 0.198867 0.412351 0.951130
O O12 0.364463 0.041090 0.314381
O O13 0.216432 0.006373 0.134903
O O14 0.822266 0.750132 0.873589
O O15 0.610858 0.914445 0.117785
O O16 0.000000 0.000000 0.000000
O O17 0.500000 0.500000 0.000000
#
# Coordination Sequence:
#
# PCOD9083339 Si02
#       8
#     2   2   2   2   2   2   2   2
#     4  10  20  37  58  89 119 158 199 250 289 360
#     4   9  17  31  53  83 115 145 193 245 291 333
#     4  10  21  36  57  89 125 150 196 250 307 348
#     4  10  19  34  54  87 115 152 192 252 289 350
#     4   9  18  32  61  87 115 157 201 240 297 351
#     4  12  20  37  58  82 115 164 205 238 294 359
#     4  12  24  37  59  87 126 159 188 245 315 352
#     4  10  20  33  57  84 115 150 206 243 288 340
#
# _framework density 27.177785
#
# number of rings (size 3 to 8) (size 9 to 14) (size 15 to 20)
#    0.000    1.750    3.750    1.875    5.250    1.000 
#    0.000    1.875    0.000    3.000    0.000    1.750 
#    0.000    0.000    0.000    0.000    0.000    0.000 
#
# Total GULP energy -89095.933516 kJ/mol
# GULP energy per Si atom -5568.495845 kJ/mol
# Density = 2.711593 g / cm^3
# Si number density = 27.177785 Si / 1000 Ang^3
#
#
#
# Elastic Constant Matrix: (Units=GPa)
#
#
# Indices 1 2 3 4 5 6 
#
# 1 196.4505 42.6189 50.7565 6.9059 -12.5532 -13.7088
# 2 42.6189 60.7181 16.3042 3.9652 13.2849 -3.8823
# 3 50.7565 16.3042 141.2417 21.6537 -2.0994 -11.6184
# 4 6.9059 3.9652 21.6537 30.4379 -6.2465 3.0960
# 5 -12.5532 13.2849 -2.0994 -6.2465 44.0963 -5.6848
# 6 -13.7088 -3.8823 -11.6184 3.0960 -5.6848 33.2790
#
#
#
# Elastic Compliance Matrix: (Units=1/GPa)
#
#
# Indices 1 2 3 4 5 6 
#
# 1 0.007081 -0.005257 -0.001844 0.000970 0.003938 0.002243
# 2 -0.005257 0.022345 -0.000416 -0.003137 -0.008811 -0.000917
# 3 -0.001844 -0.000416 0.008983 -0.006309 -0.000501 0.002830
# 4 0.000970 -0.003137 -0.006309 0.039222 0.005856 -0.004818
# 5 0.003938 -0.008811 -0.000501 0.005856 0.027856 0.004633
# 6 0.002243 -0.000917 0.002830 -0.004818 0.004633 0.033093
#
#
# Mechanical properties :
#
#
# Convention : Reuss Voigt Hill
#
# Bulk Modulus (GPa) = 42.77699 68.64105 55.70902
# Shear Modulus (GPa) = 30.97772 40.81134 35.89453
#
# Velocity S-wave (km/s) = 3.37978 3.87931 3.63813
# Velocity P-wave (km/s) = 5.56816 6.73621 6.17984
#
# Compressibility (1/GPa) = 0.02337705
#
# Stress axis : x y z
#
# Youngs Moduli (GPa) = 141.21913 44.75231 111.32085
#
# Poissons Ratio (x) = 0.23526 0.20522
# Poissons Ratio (y) = 0.74239 0.04627
# Poissons Ratio (z) = 0.26034 0.01860
#
# Static dielectric constant tensor:
#      x y z
#    x 2.245460 0.205940 -0.044870 
#    y 0.205940 2.033640 -0.021610 
#    z -0.044870 -0.021610 2.283590 
# 
# From -- ./inp_files/388005.got.cif
#   From: 2010.05.17/outbox.cif.g08.bks.cpg/sg2_195_cif.got.tgz:388005.got - 2010.06.03 11:33:40.
