data_PCOD9083820
_publ_section_title
;
Structure prediction by ZEFSAII (Michael W. Deem and Ramdas Pophale) SiO2 
 PCOD9083820
Probable space group: P -1
;
_chemical_formula_sum "Si O2"
_cell_formula_units_Z 14
_cell_length_a 10.266302
_cell_length_b 12.998220
_cell_length_c 7.848670
_cell_angle_alpha 51.749995
_cell_angle_beta 136.259527
_cell_angle_gamma 118.927071
_cell_volume 567.394337
_symmetry_space_group_name_H-M "P -1"
_symmetry_group_IT_number 2
_symmetry_cell_setting 'triclinic'
loop_
_space_group_symop_operation_xyz
x,y,z
-x,-y,-z
loop_
_atom_site_type_symbol
_atom_site_label
_atom_site_fract_x
_atom_site_fract_y
_atom_site_fract_z
Si Si1 0.498463 0.869850 0.823328
Si Si2 0.810951 0.075595 0.745583
Si Si3 0.644280 0.624606 0.013744
Si Si4 0.953209 0.180696 0.092571
Si Si5 0.771645 0.903959 0.316009
Si Si6 0.904191 0.646831 0.550657
Si Si7 0.840759 0.568492 0.918759
O O1 0.283137 0.890330 0.555393
O O2 0.643442 0.987078 0.770350
O O3 0.546159 0.747372 0.876415
O O4 0.562531 0.864570 0.086473
O O5 0.879476 0.190978 0.819998
O O6 0.000000 0.000000 0.000000
O O7 0.815541 0.612790 0.319485
O O8 0.500000 0.500000 0.000000
O O9 0.719877 0.629990 0.887790
O O10 0.160221 0.131642 0.394177
O O11 0.971389 0.329606 0.019729
O O12 0.828004 0.057307 0.180016
O O13 0.891800 0.802986 0.417092
O O14 0.772918 0.581021 0.647774
O O15 0.097325 0.573192 0.821805
#
# Coordination Sequence:
#
# PCOD9083820 Si02
#       7
#     2   2   2   2   2   2   2
#     4   9  20  37  54  82 122 152 196 254 303 361
#     4  10  19  34  58  85 114 153 198 250 307 366
#     4  11  23  38  57  85 124 163 202 250 305 371
#     4   9  17  31  60  86 111 156 206 242 303 377
#     4   8  16  35  56  84 122 154 191 255 312 361
#     4   9  20  38  60  87 122 155 202 261 303 366
#     4  10  20  37  62  88 117 161 206 254 308 364
#
# _framework density 24.674198000000001
#
# number of rings (size 3 to 8) (size 9 to 14) (size 15 to 20)
#    0.000    2.571    0.000    1.286    2.000    0.571 
#    7.714    0.714    0.000    6.857    0.000    0.000 
#    0.000    0.000    0.000    0.000    0.000    0.000 
#
# Total GULP energy -77958.706815 kJ/mol
# GULP energy per Si atom -5568.479058 kJ/mol
# Density = 2.461804 g / cm^3
# Si number density = 24.674198 Si / 1000 Ang^3
#
#
#
# Elastic Constant Matrix: (Units=GPa)
#
#
# Indices 1 2 3 4 5 6 
#
# 1 76.4922 22.2987 27.7952 3.6551 -4.8337 -2.8906
# 2 22.2987 100.7435 13.8545 -2.0244 -0.7450 -3.3512
# 3 27.7952 13.8545 123.1254 26.5782 12.5498 13.9196
# 4 3.6551 -2.0244 26.5782 39.9893 -0.4424 -2.4015
# 5 -4.8337 -0.7450 12.5498 -0.4424 22.4950 -5.9352
# 6 -2.8906 -3.3512 13.9196 -2.4015 -5.9352 22.1500
#
#
#
# Elastic Compliance Matrix: (Units=1/GPa)
#
#
# Indices 1 2 3 4 5 6 
#
# 1 0.016728 -0.002472 -0.006006 0.002940 0.009124 0.008347
# 2 -0.002472 0.010842 -0.001588 0.002024 0.001530 0.002945
# 3 -0.006006 -0.001588 0.015148 -0.010685 -0.014088 -0.015477
# 4 0.002940 0.002024 -0.010685 0.032899 0.010978 0.013913
# 5 0.009124 0.001530 -0.014088 0.010978 0.061946 0.028064
# 6 0.008347 0.002945 -0.015477 0.013913 0.028064 0.065436
#
#
# Mechanical properties :
#
#
# Convention : Reuss Voigt Hill
#
# Bulk Modulus (GPa) = 44.27584 47.58422 45.93003
# Shear Modulus (GPa) = 21.67690 32.68769 27.18229
#
# Velocity S-wave (km/s) = 2.96721 3.64369 3.32271
# Velocity P-wave (km/s) = 5.45181 6.08513 5.77716
#
# Compressibility (1/GPa) = 0.02258568
#
# Stress axis : x y z
#
# Youngs Moduli (GPa) = 59.78003 92.23639 66.01314
#
# Poissons Ratio (x) = 0.22804 0.39650
# Poissons Ratio (y) = 0.14780 0.10480
# Poissons Ratio (z) = 0.35906 0.14643
#
# Static dielectric constant tensor:
#      x y z
#    x 2.438260 -0.162830 -0.115800 
#    y -0.162830 1.990720 0.002610 
#    z -0.115800 0.002610 2.096870 
# 
# From -- ./inp_files/266945.got.cif
#   From: 2010.05.17/outbox.cif.g08.bks.cpg/sg2_134_cif.got.tgz:266945.got - 2010.06.03 11:33:40.
