data_PCOD9083603
_publ_section_title
;
Structure prediction by ZEFSAII (Michael W. Deem and Ramdas Pophale) SiO2 
 PCOD9083603
Probable space group: P -1
;
_chemical_formula_sum "Si O2"
_cell_formula_units_Z 16
_cell_length_a 20.957549
_cell_length_b 12.480870
_cell_length_c 6.492001
_cell_angle_alpha 43.417805
_cell_angle_beta 54.634676
_cell_angle_gamma 35.439801
_cell_volume 676.396271
_symmetry_space_group_name_H-M "P -1"
_symmetry_group_IT_number 2
_symmetry_cell_setting 'triclinic'
loop_
_space_group_symop_operation_xyz
x,y,z
-x,-y,-z
loop_
_atom_site_type_symbol
_atom_site_label
_atom_site_fract_x
_atom_site_fract_y
_atom_site_fract_z
Si Si1 0.317090 0.010918 0.790903
Si Si2 0.706447 0.309632 0.585456
Si Si3 0.543130 0.616293 0.749793
Si Si4 0.997605 0.680850 0.518441
Si Si5 0.826732 0.713416 0.974311
Si Si6 0.167731 0.458377 0.199486
Si Si7 0.240125 0.682009 0.959546
Si Si8 0.085215 0.856472 0.353593
O O1 0.441055 0.856554 0.691569
O O2 0.240180 0.215706 0.494737
O O3 0.290600 0.863222 0.066844
O O4 0.287788 0.110500 0.937532
O O5 0.592287 0.556955 0.509604
O O6 0.803006 0.280332 0.534793
O O7 0.727383 0.258021 0.378000
O O8 0.650683 0.485834 0.872332
O O9 0.500000 0.500000 0.000000
O O10 0.040743 0.629621 0.275291
O O11 0.031208 0.785609 0.437995
O O12 0.877954 0.782744 0.649334
O O13 0.084497 0.435895 0.801045
O O14 0.827047 0.570816 0.013148
O O15 0.212248 0.552952 0.090541
O O16 0.134707 0.876642 0.025627
O O17 0.000000 0.000000 0.500000
#
# Coordination Sequence:
#
# PCOD9083603 Si02
#       8
#     2   2   2   2   2   2   2   2
#     4  10  22  37  57  85 113 147 193 238 284 338
#     4  10  21  39  60  83 115 151 188 236 285 337
#     4   9  21  40  60  82 114 150 186 238 291 335
#     4   9  19  35  54  82 115 151 187 228 282 340
#     4  10  19  34  57  81 114 151 190 233 278 334
#     4  10  21  37  57  84 116 150 187 232 284 339
#     4  10  22  39  61  86 112 150 193 228 284 345
#     4  10  20  36  57  85 118 147 184 236 284 332
#
# _framework density 23.654772999999999
#
# number of rings (size 3 to 8) (size 9 to 14) (size 15 to 20)
#    0.000    2.250    0.000    1.875    0.000    8.000 
#    0.000    5.000    0.000    0.000    0.000    0.000 
#    0.000    0.000    0.000    0.000    0.000    0.000 
#
# Total GULP energy -89144.075396 kJ/mol
# GULP energy per Si atom -5571.504712 kJ/mol
# Density = 2.360093 g / cm^3
# Si number density = 23.654773 Si / 1000 Ang^3
#
#
#
# Elastic Constant Matrix: (Units=GPa)
#
#
# Indices 1 2 3 4 5 6 
#
# 1 65.1153 31.3157 12.4705 18.1367 4.5483 5.8268
# 2 31.3157 180.0641 49.8166 60.8061 5.4974 -9.0574
# 3 12.4705 49.8166 79.8073 26.3102 3.8753 -6.2449
# 4 18.1367 60.8061 26.3102 45.0750 0.7105 -2.7204
# 5 4.5483 5.4974 3.8753 0.7105 26.6617 7.7999
# 6 5.8268 -9.0574 -6.2449 -2.7204 7.7999 32.1442
#
#
#
# Elastic Compliance Matrix: (Units=1/GPa)
#
#
# Indices 1 2 3 4 5 6 
#
# 1 0.018036 -0.001340 -0.000427 -0.005408 -0.001474 -0.003830
# 2 -0.001340 0.010820 -0.002090 -0.012666 -0.002036 0.002308
# 3 -0.000427 -0.002090 0.016324 -0.006334 -0.002499 0.002730
# 4 -0.005408 -0.012666 -0.006334 0.045038 0.003506 -0.000858
# 5 -0.001474 -0.002036 -0.002499 0.003506 0.041542 -0.010576
# 6 -0.003830 0.002308 0.002730 -0.000858 -0.010576 0.035478
#
#
# Mechanical properties :
#
#
# Convention : Reuss Voigt Hill
#
# Bulk Modulus (GPa) = 26.69012 56.91026 41.80019
# Shear Modulus (GPa) = 26.67511 36.20178 31.43844
#
# Velocity S-wave (km/s) = 3.36174 3.91630 3.64957
# Velocity P-wave (km/s) = 5.13577 6.67539 5.95554
#
# Compressibility (1/GPa) = 0.03746705
#
# Stress axis : x y z
#
# Youngs Moduli (GPa) = 55.44610 92.41906 61.25850
#
# Poissons Ratio (x) = 0.12383 0.02616
# Poissons Ratio (y) = 0.07429 0.12800
# Poissons Ratio (z) = 0.02368 0.19311
#
# Static dielectric constant tensor:
#      x y z
#    x 1.835820 0.027380 -0.023550 
#    y 0.027380 1.989420 -0.012710 
#    z -0.023550 -0.012710 2.082900 
# 
# From -- ./inp_files/113365.got.cif
#   From: 2010.05.17/outbox.cif.g08.bks.cpg/sg2_57_cif.got.tgz:113365.got - 2010.06.03 11:33:40.
