data_PCOD9083645
_publ_section_title
;
Structure prediction by ZEFSAII (Michael W. Deem and Ramdas Pophale) SiO2 
 PCOD9083645
Probable space group: P -1
;
_chemical_formula_sum "Si O2"
_cell_formula_units_Z 16
_cell_length_a 13.506317
_cell_length_b 8.778001
_cell_length_c 13.731061
_cell_angle_alpha 137.471807
_cell_angle_beta 138.612555
_cell_angle_gamma 51.151607
_cell_volume 717.388011
_symmetry_space_group_name_H-M "P -1"
_symmetry_group_IT_number 2
_symmetry_cell_setting 'triclinic'
loop_
_space_group_symop_operation_xyz
x,y,z
-x,-y,-z
loop_
_atom_site_type_symbol
_atom_site_label
_atom_site_fract_x
_atom_site_fract_y
_atom_site_fract_z
Si Si1 0.905664 0.220112 0.841251
Si Si2 0.488811 0.813574 0.985443
Si Si3 0.746121 0.405075 0.997886
Si Si4 0.461149 0.803832 0.659090
Si Si5 0.374936 0.031035 0.506392
Si Si6 0.339641 0.494317 0.819767
Si Si7 0.758727 0.494608 0.683434
Si Si8 0.142883 0.065392 0.078556
O O1 0.875323 0.356710 0.782036
O O2 0.076564 0.099494 0.935558
O O3 0.786631 0.042004 0.674082
O O4 0.858203 0.380365 0.976872
O O5 0.603411 0.581308 0.936888
O O6 0.541387 0.952241 0.180386
O O7 0.335041 0.721337 0.857284
O O8 0.500000 0.000000 0.000000
O O9 0.779188 0.497847 0.174419
O O10 0.728311 0.146824 0.897352
O O11 0.621460 0.641031 0.714542
O O12 0.321045 0.677182 0.521475
O O13 0.441234 0.848218 0.550995
O O14 0.346813 0.278858 0.653294
O O15 0.500000 0.000000 0.500000
O O16 0.500000 0.500000 0.000000
O O17 0.815439 0.689095 0.752607
O O18 0.000000 0.000000 0.000000
#
# Coordination Sequence:
#
# PCOD9083645 Si02
#       8
#     2   2   2   2   2   2   2   2
#     4  10  22  38  58  92 115 162 211 248 297 362
#     4  11  21  35  56  87 123 159 200 238 315 370
#     4  10  20  37  59  82 119 159 202 250 294 358
#     4  10  21  36  59  94 123 158 189 258 314 356
#     4  11  21  34  60  92 125 153 200 251 306 360
#     4  10  19  34  57  83 121 162 187 248 305 359
#     4  10  21  37  61  88 127 153 201 254 309 358
#     4  10  22  38  62  86 117 168 209 249 294 358
#
# _framework density 22.303132000000002
#
# number of rings (size 3 to 8) (size 9 to 14) (size 15 to 20)
#    0.000    1.750    2.500    3.375    5.250    2.000 
#    0.000    0.625    0.000    3.000    0.000    0.000 
#    0.000    0.000    0.000    0.000    0.000    0.000 
#
# Total GULP energy -89085.698917 kJ/mol
# GULP energy per Si atom -5567.856182 kJ/mol
# Density = 2.225237 g / cm^3
# Si number density = 22.303132 Si / 1000 Ang^3
#
#
#
# Elastic Constant Matrix: (Units=GPa)
#
#
# Indices 1 2 3 4 5 6 
#
# 1 68.6184 8.4114 30.3077 21.8532 -3.1915 12.0926
# 2 8.4114 112.1571 25.0867 15.4791 9.8125 13.3156
# 3 30.3077 25.0867 102.8533 29.8285 9.0227 -0.6278
# 4 21.8532 15.4791 29.8285 39.7061 5.7276 3.8252
# 5 -3.1915 9.8125 9.0227 5.7276 30.6283 8.3642
# 6 12.0926 13.3156 -0.6278 3.8252 8.3642 32.9105
#
#
#
# Elastic Compliance Matrix: (Units=1/GPa)
#
#
# Indices 1 2 3 4 5 6 
#
# 1 0.021284 0.001116 -0.004698 -0.008800 0.007408 -0.009222
# 2 0.001116 0.010199 -0.002017 -0.002545 -0.000981 -0.004030
# 3 -0.004698 -0.002017 0.014011 -0.007034 -0.003918 0.004623
# 4 -0.008800 -0.002545 -0.007034 0.036950 -0.005259 0.001171
# 5 0.007408 -0.000981 -0.003918 -0.005259 0.039074 -0.011719
# 6 -0.009222 -0.004030 0.004623 0.001171 -0.011719 0.038335
#
#
# Mechanical properties :
#
#
# Convention : Reuss Voigt Hill
#
# Bulk Modulus (GPa) = 29.15832 45.69340 37.42586
# Shear Modulus (GPa) = 27.39997 35.30384 31.35190
#
# Velocity S-wave (km/s) = 3.50884 3.98290 3.75336
# Velocity P-wave (km/s) = 5.43304 6.45625 5.96662
#
# Compressibility (1/GPa) = 0.03429553
#
# Stress axis : x y z
#
# Youngs Moduli (GPa) = 46.98402 98.04856 71.37484
#
# Poissons Ratio (x) = -0.10940 0.33531
# Poissons Ratio (y) = -0.05242 0.14395
# Poissons Ratio (z) = 0.22073 0.19775
#
# Static dielectric constant tensor:
#      x y z
#    x 1.954940 0.008420 0.027930 
#    y 0.008420 1.938500 -0.043610 
#    z 0.027930 -0.043610 1.905850 
# 
# From -- ./inp_files/529170.got.cif
#   From: 2010.05.17/outbox.cif.g08.bks.cpg/sg2_265_cif.got.tgz:529170.got - 2010.06.03 11:33:40.
