data_PCOD9083113
_publ_section_title
;
Structure prediction by ZEFSAII (Michael W. Deem and Ramdas Pophale) SiO2 
 PCOD9083113
Probable space group: P -1
;
_chemical_formula_sum "Si O2"
_cell_formula_units_Z 14
_cell_length_a 12.277998
_cell_length_b 9.225031
_cell_length_c 9.662887
_cell_angle_alpha 117.890956
_cell_angle_beta 143.749535
_cell_angle_gamma 80.350057
_cell_volume 523.975595
_symmetry_space_group_name_H-M "P -1"
_symmetry_group_IT_number 2
_symmetry_cell_setting 'triclinic'
loop_
_space_group_symop_operation_xyz
x,y,z
-x,-y,-z
loop_
_atom_site_type_symbol
_atom_site_label
_atom_site_fract_x
_atom_site_fract_y
_atom_site_fract_z
Si Si1 0.078092 0.376604 0.173821
Si Si2 0.084997 0.787909 0.605164
Si Si3 0.517426 0.114502 0.783508
Si Si4 0.490399 0.563368 0.725848
Si Si5 0.092475 0.165675 0.826897
Si Si6 0.260048 0.338937 0.623927
Si Si7 0.633866 0.268706 0.664355
O O1 0.279081 0.557997 0.454026
O O2 0.108183 0.294886 0.314739
O O3 0.080012 0.247373 0.996314
O O4 0.869376 0.393889 0.957228
O O5 0.062031 0.809579 0.428835
O O6 0.880758 0.633542 0.388303
O O7 0.066034 0.963900 0.725526
O O8 0.299357 0.801556 0.883015
O O9 0.342658 0.184754 0.663373
O O10 0.600434 0.186512 0.748195
O O11 0.436298 0.899603 0.586505
O O12 0.446016 0.504526 0.814945
O O13 0.513745 0.395647 0.598397
O O14 0.688756 0.732724 0.974529
#
# Coordination Sequence:
#
# PCOD9083113 Si02
#       7
#     2   2   2   2   2   2   2
#     4  10  20  38  63  91 114 151 198 250 285 349
#     4  11  23  42  59  86 123 162 189 245 291 359
#     4  10  19  35  61  94 115 149 201 253 279 345
#     4   9  21  40  59  91 118 152 196 251 285 354
#     4  11  24  39  60  87 128 156 190 237 314 345
#     4   9  21  38  67  87 113 151 211 237 288 340
#     4  10  19  33  63  93 113 149 202 246 295 328
#
# _framework density 26.718803000000001
#
# number of rings (size 3 to 8) (size 9 to 14) (size 15 to 20)
#    0.857    1.143    1.429    2.143    2.000    2.286 
#    0.000   13.571    0.000    0.000    0.000    0.000 
#    0.000    0.000    0.000    0.000    0.000    0.000 
#
# Total GULP energy -78421.581749 kJ/mol
# GULP energy per Si atom -5601.541554 kJ/mol
# Density = 2.665799 g / cm^3
# Si number density = 26.718803 Si / 1000 Ang^3
#
#
#
# Elastic Constant Matrix: (Units=GPa)
#
#
# Indices 1 2 3 4 5 6 
#
# 1 60.9826 25.2384 1.4613 -10.2515 -0.4962 -8.3560
# 2 25.2384 104.6685 43.1696 -11.4569 8.0270 -9.7136
# 3 1.4613 43.1696 112.3787 -26.7957 27.5824 -14.1608
# 4 -10.2515 -11.4569 -26.7957 54.6857 -2.2720 -3.3698
# 5 -0.4962 8.0270 27.5824 -2.2720 46.6008 -4.9404
# 6 -8.3560 -9.7136 -14.1608 -3.3698 -4.9404 38.0144
#
#
#
# Elastic Compliance Matrix: (Units=1/GPa)
#
#
# Indices 1 2 3 4 5 6 
#
# 1 0.019933 -0.005301 0.003538 0.004641 -0.000242 0.004725
# 2 -0.005301 0.012860 -0.005241 -0.000821 0.000812 0.000201
# 3 0.003538 -0.005241 0.014790 0.006808 -0.006989 0.004643
# 4 0.004641 -0.000821 0.006808 0.022540 -0.002203 0.005058
# 5 -0.000242 0.000812 -0.006989 -0.002203 0.025416 0.000658
# 6 0.004725 0.000201 0.004643 0.005058 0.000658 0.029659
#
#
# Mechanical properties :
#
#
# Convention : Reuss Voigt Hill
#
# Bulk Modulus (GPa) = 29.78310 46.41872 38.10091
# Shear Modulus (GPa) = 33.24551 41.73753 37.49152
#
# Velocity S-wave (km/s) = 3.53125 3.95663 3.74998
# Velocity P-wave (km/s) = 5.27232 6.18741 5.74811
#
# Compressibility (1/GPa) = 0.03357609
#
# Stress axis : x y z
#
# Youngs Moduli (GPa) = 50.16869 77.75916 67.61545
#
# Poissons Ratio (x) = 0.41218 -0.23925
# Poissons Ratio (y) = 0.26593 0.35437
# Poissons Ratio (z) = -0.17752 0.40753
#
# Static dielectric constant tensor:
#      x y z
#    x 2.069580 0.065840 -0.019170 
#    y 0.065840 2.054450 -0.000460 
#    z -0.019170 -0.000460 2.116450 
# 
# From -- ./inp_files/449211.got.cif
#   From: 2010.05.17/outbox.cif.g08.bks.cpg/sg2_225_cif.got.tgz:449211.got - 2010.06.03 11:33:40.
