data_PCOD9083184
_publ_section_title
;
Structure prediction by ZEFSAII (Michael W. Deem and Ramdas Pophale) SiO2 
 PCOD9083184
Probable space group: P -1
;
_chemical_formula_sum "Si O2"
_cell_formula_units_Z 6
_cell_length_a 20.823850
_cell_length_b 5.539620
_cell_length_c 13.592232
_cell_angle_alpha 114.051499
_cell_angle_beta 9.117089
_cell_angle_gamma 113.517814
_cell_volume 226.813588
_symmetry_space_group_name_H-M "P -1"
_symmetry_group_IT_number 2
_symmetry_cell_setting 'triclinic'
loop_
_space_group_symop_operation_xyz
x,y,z
-x,-y,-z
loop_
_atom_site_type_symbol
_atom_site_label
_atom_site_fract_x
_atom_site_fract_y
_atom_site_fract_z
Si Si1 0.331928 0.898181 0.400289
Si Si2 0.723932 0.715300 0.129401
Si Si3 0.493508 0.473376 0.233113
O O1 0.571395 0.663520 0.054315
O O2 0.571395 0.159294 0.054315
O O3 0.112320 0.787425 0.618945
O O4 0.000000 0.000000 0.000000
O O5 0.500000 0.500000 0.500000
O O6 0.700380 0.586391 0.035821
O O7 0.500000 0.000000 0.500000
O O8 0.000000 0.500000 0.000000
#
# Coordination Sequence:
#
# PCOD9083184 Si02
#       3
#     2   2   2
#     4  10  16  22  26  32  38  42  48  54  58  64
#     4  12  16  20  28  32  36  44  48  52  60  64
#     4  10  16  22  26  32  38  42  48  54  58  64
#
# _framework density 26.453440000000001
#
# number of rings (size 3 to 8) (size 9 to 14) (size 15 to 20)
#    0.000    1.333   13.333    0.000    0.000    0.000 
#    0.000    0.000    0.000    0.000    0.000    0.000 
#    0.000    0.000    0.000    0.000    0.000    0.000 
#
# Total GULP energy -33627.267178 kJ/mol
# GULP energy per Si atom -5604.544530 kJ/mol
# Density = 2.639323 g / cm^3
# Si number density = 26.453440 Si / 1000 Ang^3
#
#
#
# Elastic Constant Matrix: (Units=GPa)
#
#
# Indices 1 2 3 4 5 6 
#
# 1 263.1626 149.4881 83.3729 -10.2061 -67.1607 11.2164
# 2 149.4881 335.1582 84.3189 -24.0494 -58.6740 -29.4996
# 3 83.3729 84.3189 122.5050 -17.1649 -56.1954 2.2278
# 4 -10.2061 -24.0494 -17.1649 56.9760 4.9057 -14.7370
# 5 -67.1607 -58.6740 -56.1954 4.9057 71.1835 2.3816
# 6 11.2164 -29.4996 2.2278 -14.7370 2.3816 71.7239
#
#
#
# Elastic Compliance Matrix: (Units=1/GPa)
#
#
# Indices 1 2 3 4 5 6 
#
# 1 0.006373 -0.002178 -0.001483 -0.001061 0.003193 -0.002170
# 2 -0.002178 0.004763 -0.001294 0.001876 0.000631 0.002704
# 3 -0.001483 -0.001294 0.014482 0.002666 0.008800 -0.000494
# 4 -0.001061 0.001876 0.002666 0.020144 0.001096 0.004957
# 5 0.003193 0.000631 0.008800 0.001096 0.024489 -0.001101
# 6 -0.002170 0.002704 -0.000494 0.004957 -0.001101 0.016464
#
#
# Mechanical properties :
#
#
# Convention : Reuss Voigt Hill
#
# Bulk Modulus (GPa) = 63.65370 150.57618 107.11494
# Shear Modulus (GPa) = 49.08686 66.88641 57.98664
#
# Velocity S-wave (km/s) = 4.31233 5.03383 4.68699
# Velocity P-wave (km/s) = 6.99355 9.53052 8.35884
#
# Compressibility (1/GPa) = 0.01571001
#
# Stress axis : x y z
#
# Youngs Moduli (GPa) = 156.91531 209.93332 69.05260
#
# Poissons Ratio (x) = 0.45713 0.10240
# Poissons Ratio (y) = 0.34169 0.08933
# Poissons Ratio (z) = 0.23269 0.27157
#
# Static dielectric constant tensor:
#      x y z
#    x 1.979850 -0.008820 0.136060 
#    y -0.008820 1.968400 0.036140 
#    z 0.136060 0.036140 2.213820 
# 
# From -- ./inp_files/15147.got.cif
#   From: 2010.05.17/outbox.cif.g08.bks.cpg/sg2_8_cif.got.tgz:15147.got - 2010.06.03 11:33:40.
