data_PCOD9083911
_publ_section_title
;
Structure prediction by ZEFSAII (Michael W. Deem and Ramdas Pophale) SiO2 
 PCOD9083911
Probable space group: P -1
;
_chemical_formula_sum "Si O2"
_cell_formula_units_Z 16
_cell_length_a 7.869869
_cell_length_b 7.692701
_cell_length_c 13.886357
_cell_angle_alpha 117.607796
_cell_angle_beta 83.609155
_cell_angle_gamma 72.882088
_cell_volume 680.829249
_symmetry_space_group_name_H-M "P -1"
_symmetry_group_IT_number 2
_symmetry_cell_setting 'triclinic'
loop_
_space_group_symop_operation_xyz
x,y,z
-x,-y,-z
loop_
_atom_site_type_symbol
_atom_site_label
_atom_site_fract_x
_atom_site_fract_y
_atom_site_fract_z
Si Si1 0.982612 0.014045 0.864999
Si Si2 0.130147 0.919933 0.317197
Si Si3 0.999118 0.420779 0.697899
Si Si4 0.100706 0.631778 0.905709
Si Si5 0.453349 0.888980 0.066103
Si Si6 0.803724 0.671615 0.517174
Si Si7 0.482028 0.504403 0.150364
Si Si8 0.394310 0.281803 0.278059
O O1 0.004374 0.988734 0.742899
O O2 0.765028 0.065218 0.911576
O O3 0.008933 0.218701 0.961035
O O4 0.090859 0.805654 0.867580
O O5 0.319018 0.734576 0.218758
O O6 0.046458 0.789321 0.357038
O O7 0.182698 0.101412 0.407608
O O8 0.018242 0.478806 0.821191
O O9 0.179625 0.379715 0.610486
O O10 0.820800 0.620572 0.721146
O O11 0.315332 0.499798 0.879452
O O12 0.482537 0.028606 0.187250
O O13 0.554140 0.642741 0.967206
O O14 0.500000 0.000000 0.000000
O O15 0.636444 0.667530 0.593460
O O16 0.000000 0.500000 0.500000
O O17 0.480346 0.400183 0.229431
#
# Coordination Sequence:
#
# PCOD9083911 Si02
#       8
#     2   2   2   2   2   2   2   2
#     4  10  19  34  59  80 114 153 188 226 267 339
#     4  11  21  37  57  87 113 140 192 236 280 329
#     4  10  20  34  57  80 114 151 184 234 280 322
#     4  10  20  37  55  81 118 153 185 218 282 338
#     4   9  15  29  53  82 108 142 180 223 267 322
#     4  10  19  35  61  83 104 144 199 240 268 323
#     4   9  21  33  56  86 118 144 177 237 285 326
#     4   9  16  34  56  83 107 148 198 226 264 333
#
# _framework density 23.500751999999999
#
# number of rings (size 3 to 8) (size 9 to 14) (size 15 to 20)
#    0.000    2.250    2.500    1.125    0.000    2.500 
#    0.000    2.500    2.750    0.000    0.000    0.000 
#    0.000    0.000    0.000    0.000    0.000    0.000 
#
# Total GULP energy -89288.182290 kJ/mol
# GULP energy per Si atom -5580.511393 kJ/mol
# Density = 2.344726 g / cm^3
# Si number density = 23.500752 Si / 1000 Ang^3
#
#
#
# Elastic Constant Matrix: (Units=GPa)
#
#
# Indices 1 2 3 4 5 6 
#
# 1 23.9234 5.7125 10.0555 -0.3149 -9.5012 0.6646
# 2 5.7125 77.5411 21.5371 10.0919 -7.2405 9.9040
# 3 10.0555 21.5371 80.0431 10.4846 -9.2774 0.5630
# 4 -0.3149 10.0919 10.4846 39.4312 5.9088 -0.1309
# 5 -9.5012 -7.2405 -9.2774 5.9088 29.1466 2.4089
# 6 0.6646 9.9040 0.5630 -0.1309 2.4089 18.0388
#
#
#
# Elastic Compliance Matrix: (Units=1/GPa)
#
#
# Indices 1 2 3 4 5 6 
#
# 1 0.049826 -0.000558 -0.004248 -0.000613 0.015159 -0.003426
# 2 -0.000558 0.015898 -0.003127 -0.003921 0.004329 -0.009217
# 3 -0.004248 -0.003127 0.014703 -0.003615 0.003171 0.000965
# 4 -0.000613 -0.003921 -0.003615 0.028594 -0.008420 0.003620
# 5 0.015159 0.004329 0.003171 -0.008420 0.043782 -0.008942
# 6 -0.003426 -0.009217 0.000965 0.003620 -0.008942 0.061813
#
#
# Mechanical properties :
#
#
# Convention : Reuss Voigt Hill
#
# Bulk Modulus (GPa) = 15.48945 28.45753 21.97349
# Shear Modulus (GPa) = 19.84108 26.93683 23.38895
#
# Velocity S-wave (km/s) = 2.90879 3.38925 3.15817
# Velocity P-wave (km/s) = 4.22928 5.23942 4.76121
#
# Compressibility (1/GPa) = 0.06456005
#
# Stress axis : x y z
#
# Youngs Moduli (GPa) = 20.06971 62.90159 68.01475
#
# Poissons Ratio (x) = 0.03511 0.28892
# Poissons Ratio (y) = 0.01120 0.21271
# Poissons Ratio (z) = 0.08525 0.19672
#
# Static dielectric constant tensor:
#      x y z
#    x 1.875320 0.034480 0.009420 
#    y 0.034480 1.958830 -0.045910 
#    z 0.009420 -0.045910 1.962120 
# 
# From -- ./inp_files/207426.got.cif
#   From: 2010.05.17/outbox.cif.g08.bks.cpg/sg2_104_cif.got.tgz:207426.got - 2010.06.03 11:33:40.
