data_PCOD9083793
_publ_section_title
;
Structure prediction by ZEFSAII (Michael W. Deem and Ramdas Pophale) SiO2 
 PCOD9083793
Probable space group: P -1
;
_chemical_formula_sum "Si O2"
_cell_formula_units_Z 16
_cell_length_a 12.267662
_cell_length_b 9.641136
_cell_length_c 14.351111
_cell_angle_alpha 85.918145
_cell_angle_beta 31.020255
_cell_angle_gamma 68.914148
_cell_volume 709.999011
_symmetry_space_group_name_H-M "P -1"
_symmetry_group_IT_number 2
_symmetry_cell_setting 'triclinic'
loop_
_space_group_symop_operation_xyz
x,y,z
-x,-y,-z
loop_
_atom_site_type_symbol
_atom_site_label
_atom_site_fract_x
_atom_site_fract_y
_atom_site_fract_z
Si Si1 0.271886 0.226070 0.832454
Si Si2 0.321096 0.053611 0.987567
Si Si3 0.879527 0.617460 0.420605
Si Si4 0.368900 0.541711 0.312604
Si Si5 0.072952 0.565352 0.083359
Si Si6 0.066186 0.811729 0.362705
Si Si7 0.602725 0.744522 0.919717
Si Si8 0.203100 0.846050 0.544641
O O1 0.157265 0.395088 0.973169
O O2 0.549399 0.171401 0.593252
O O3 0.319034 0.087679 0.879158
O O4 0.072914 0.281832 0.891588
O O5 0.352677 0.179730 0.023290
O O6 0.048477 0.086189 0.212682
O O7 0.550565 0.869465 0.867307
O O8 0.904290 0.768521 0.419580
O O9 0.149041 0.444696 0.266190
O O10 0.666024 0.605007 0.628292
O O11 0.888734 0.599551 0.303123
O O12 0.661252 0.467263 0.071979
O O13 0.156532 0.686883 0.390834
O O14 0.307677 0.657692 0.442924
O O15 0.343382 0.753607 0.120826
O O16 0.895208 0.019011 0.476676
#
# Coordination Sequence:
#
# PCOD9083793 Si02
#       8
#     2   2   2   2   2   2   2   2
#     4  10  20  38  61  84 114 151 199 238 278 335
#     4  10  19  35  58  90 114 148 193 237 285 334
#     4  12  22  39  56  87 123 153 183 235 296 341
#     4  11  21  37  60  86 116 150 194 235 283 345
#     4  10  22  38  58  85 116 154 193 238 283 335
#     4  11  23  36  58  89 120 152 185 235 295 347
#     4  10  19  34  58  83 120 151 179 235 288 341
#     4  10  21  37  59  87 114 149 192 239 282 336
#
# _framework density 22.535240999999999
#
# number of rings (size 3 to 8) (size 9 to 14) (size 15 to 20)
#    0.000    1.500    3.750    1.875    1.750    1.000 
#    0.000    4.375    0.000    3.750    0.000    0.000 
#    0.000    0.000    0.000    0.000    0.000    0.000 
#
# Total GULP energy -89424.118000 kJ/mol
# GULP energy per Si atom -5589.007375 kJ/mol
# Density = 2.248395 g / cm^3
# Si number density = 22.535241 Si / 1000 Ang^3
#
#
#
# Elastic Constant Matrix: (Units=GPa)
#
#
# Indices 1 2 3 4 5 6 
#
# 1 54.7226 35.2105 15.2019 -3.2439 -8.4110 -14.9355
# 2 35.2105 83.0871 6.7379 -15.0441 1.5906 -6.6524
# 3 15.2019 6.7379 89.9098 -10.2996 1.3770 -16.4268
# 4 -3.2439 -15.0441 -10.2996 31.3731 -2.1802 -5.9198
# 5 -8.4110 1.5906 1.3770 -2.1802 19.1265 -3.8858
# 6 -14.9355 -6.6524 -16.4268 -5.9198 -3.8858 41.2423
#
#
#
# Elastic Compliance Matrix: (Units=1/GPa)
#
#
# Indices 1 2 3 4 5 6 
#
# 1 0.033393 -0.013589 -0.003142 -0.000916 0.018012 0.010215
# 2 -0.013589 0.019130 0.001728 0.007721 -0.006952 -0.000694
# 3 -0.003142 0.001728 0.013127 0.005725 -0.000778 0.005118
# 4 -0.000916 0.007721 0.005725 0.039464 0.004935 0.009324
# 5 0.018012 -0.006952 -0.000778 0.004935 0.063801 0.011811
# 6 0.010215 -0.000694 0.005118 0.009324 0.011811 0.032324
#
#
# Mechanical properties :
#
#
# Convention : Reuss Voigt Hill
#
# Bulk Modulus (GPa) = 28.05568 38.00222 33.02895
# Shear Modulus (GPa) = 20.56557 29.71968 25.14262
#
# Velocity S-wave (km/s) = 3.02420 3.63548 3.34384
# Velocity P-wave (km/s) = 4.96700 5.87557 5.44029
#
# Compressibility (1/GPa) = 0.03564341
#
# Stress axis : x y z
#
# Youngs Moduli (GPa) = 29.94661 52.27445 76.18033
#
# Poissons Ratio (x) = 0.71036 0.23937
# Poissons Ratio (y) = 0.40695 -0.13166
# Poissons Ratio (z) = 0.09410 -0.09034
#
# Static dielectric constant tensor:
#      x y z
#    x 1.842790 0.013280 0.012800 
#    y 0.013280 1.851570 -0.006570 
#    z 0.012800 -0.006570 1.834610 
# 
# From -- ./inp_files/302962.got.cif
#   From: 2010.05.17/outbox.cif.g08.bks.cpg/sg2_152_cif.got.tgz:302962.got - 2010.06.03 11:33:40.
