data_PCOD9083075
_publ_section_title
;
Structure prediction by ZEFSAII (Michael W. Deem and Ramdas Pophale) SiO2 
 PCOD9083075
Probable space group: P -1
;
_chemical_formula_sum "Si O2"
_cell_formula_units_Z 16
_cell_length_a 15.386178
_cell_length_b 9.262258
_cell_length_c 24.526909
_cell_angle_alpha 145.551315
_cell_angle_beta 18.528233
_cell_angle_gamma 138.541108
_cell_volume 617.972018
_symmetry_space_group_name_H-M "P -1"
_symmetry_group_IT_number 2
_symmetry_cell_setting 'triclinic'
loop_
_space_group_symop_operation_xyz
x,y,z
-x,-y,-z
loop_
_atom_site_type_symbol
_atom_site_label
_atom_site_fract_x
_atom_site_fract_y
_atom_site_fract_z
Si Si1 0.983633 0.511322 0.803101
Si Si2 0.162020 0.255030 0.731174
Si Si3 0.322989 0.034165 0.060947
Si Si4 0.314991 0.785973 0.188780
Si Si5 0.230447 0.976784 0.807755
Si Si6 0.935967 0.539486 0.487127
Si Si7 0.581206 0.703103 0.295369
Si Si8 0.380238 0.870126 0.295510
O O1 0.944631 0.303664 0.715188
O O2 0.130407 0.404480 0.739037
O O3 0.153236 0.725869 0.745392
O O4 0.663109 0.642795 0.052254
O O5 0.269342 0.363812 0.756724
O O6 0.373260 0.982944 0.511191
O O7 0.863279 0.183531 0.899610
O O8 0.107426 0.303952 0.276825
O O9 0.531806 0.061755 0.897717
O O10 0.500000 0.000000 0.000000
O O11 0.320130 0.942160 0.290771
O O12 0.500000 0.500000 0.000000
O O13 0.229245 0.217875 0.842420
O O14 0.512792 0.951752 0.666922
O O15 0.000000 0.000000 0.000000
O O16 0.618449 0.503816 0.659976
O O17 0.000000 0.500000 0.500000
O O18 0.100917 0.768798 0.446408
#
# Coordination Sequence:
#
# PCOD9083075 Si02
#       8
#     2   2   2   2   2   2   2   2
#     4  10  20  38  63  90 118 154 198 258 302 350
#     4  10  22  38  59  91 119 151 205 253 301 359
#     4  11  20  37  64  92 120 154 210 260 295 355
#     4  10  19  33  61  95 112 153 206 248 295 349
#     4  10  22  38  60  84 123 157 195 243 307 368
#     4  11  20  37  64  84 124 159 204 246 305 380
#     4  10  23  38  61  89 115 162 199 246 310 363
#     4  10  20  38  62  93 117 160 207 246 305 362
#
# _framework density 25.891141000000001
#
# number of rings (size 3 to 8) (size 9 to 14) (size 15 to 20)
#    0.000    1.750    5.000    0.000    5.250    1.500 
#    0.000    3.750    0.000    2.250    0.000    0.000 
#    0.000    0.000    0.000    0.000    0.000    0.000 
#
# Total GULP energy -89482.920766 kJ/mol
# GULP energy per Si atom -5592.682548 kJ/mol
# Density = 2.583221 g / cm^3
# Si number density = 25.891141 Si / 1000 Ang^3
#
#
#
# Elastic Constant Matrix: (Units=GPa)
#
#
# Indices 1 2 3 4 5 6 
#
# 1 212.4119 70.6244 46.2609 -39.3543 -17.5498 -0.7142
# 2 70.6244 162.9780 42.9723 -44.1651 -13.2726 18.9950
# 3 46.2609 42.9723 112.2357 -19.5272 -13.7708 -5.3222
# 4 -39.3543 -44.1651 -19.5272 52.7874 -4.8383 -2.7745
# 5 -17.5498 -13.2726 -13.7708 -4.8383 53.0416 -6.9038
# 6 -0.7142 18.9950 -5.3222 -2.7745 -6.9038 48.9456
#
#
#
# Elastic Compliance Matrix: (Units=1/GPa)
#
#
# Indices 1 2 3 4 5 6 
#
# 1 0.006192 -0.001488 -0.001168 0.003154 0.001787 0.000972
# 2 -0.001488 0.009433 -0.001925 0.006031 0.001483 -0.003341
# 3 -0.001168 -0.001925 0.010867 0.001885 0.002432 0.002362
# 4 0.003154 0.006031 0.001885 0.027564 0.005590 0.000262
# 5 0.001787 0.001483 0.002432 0.005590 0.021353 0.003044
# 6 0.000972 -0.003341 0.002362 0.000262 0.003044 0.022442
#
#
# Mechanical properties :
#
#
# Convention : Reuss Voigt Hill
#
# Bulk Modulus (GPa) = 57.70977 89.70454 73.70716
# Shear Modulus (GPa) = 44.32923 52.80613 48.56768
#
# Velocity S-wave (km/s) = 4.14229 4.52103 4.33580
# Velocity P-wave (km/s) = 6.72427 7.87242 7.32089
#
# Compressibility (1/GPa) = 0.01732809
#
# Stress axis : x y z
#
# Youngs Moduli (GPa) = 161.48675 106.01335 92.02210
#
# Poissons Ratio (x) = 0.15778 0.10752
# Poissons Ratio (y) = 0.24035 0.17717
# Poissons Ratio (z) = 0.18868 0.20411
#
# Static dielectric constant tensor:
#      x y z
#    x 1.996300 0.036180 0.030230 
#    y 0.036180 2.037730 0.148040 
#    z 0.030230 0.148040 2.137270 
# 
# From -- ./inp_files/457539.got.cif
#   From: 2010.05.17/outbox.cif.g08.bks.cpg/sg2_229_cif.got.tgz:457539.got - 2010.06.03 11:33:40.
