data_PCOD9083092
_publ_section_title
;
Structure prediction by ZEFSAII (Michael W. Deem and Ramdas Pophale) SiO2 
 PCOD9083092
Probable space group: P -1
;
_chemical_formula_sum "Si O2"
_cell_formula_units_Z 12
_cell_length_a 9.134758
_cell_length_b 9.446149
_cell_length_c 12.577590
_cell_angle_alpha 36.714005
_cell_angle_beta 121.576091
_cell_angle_gamma 117.312356
_cell_volume 551.124651
_symmetry_space_group_name_H-M "P -1"
_symmetry_group_IT_number 2
_symmetry_cell_setting 'triclinic'
loop_
_space_group_symop_operation_xyz
x,y,z
-x,-y,-z
loop_
_atom_site_type_symbol
_atom_site_label
_atom_site_fract_x
_atom_site_fract_y
_atom_site_fract_z
Si Si1 0.344952 0.998272 0.728386
Si Si2 0.657343 0.866659 0.593857
Si Si3 0.740502 0.947716 0.917578
Si Si4 0.003451 0.361504 0.697004
Si Si5 0.323232 0.464150 0.019689
Si Si6 0.997992 0.857854 0.473417
O O1 0.363215 0.132913 0.540823
O O2 0.193634 0.117879 0.660738
O O3 0.541098 0.977707 0.852983
O O4 0.265080 0.727905 0.841205
O O5 0.500000 0.000000 0.500000
O O6 0.654220 0.616936 0.801875
O O7 0.838167 0.013863 0.600558
O O8 0.834521 0.196881 0.766004
O O9 0.759499 0.765451 0.935514
O O10 0.844282 0.815774 0.127149
O O11 0.026574 0.580972 0.656068
O O12 0.000000 0.500000 0.500000
O O13 0.500000 0.500000 0.000000
O O14 0.000000 0.000000 0.500000
#
# Coordination Sequence:
#
# PCOD9083092 Si02
#       6
#     2   2   2   2   2   2
#     4  10  22  38  60  94 128 163 200 263 308 362
#     4  11  19  34  62  94 120 161 204 249 304 367
#     4  10  21  37  60  88 120 164 212 243 311 361
#     4  11  24  40  63  90 122 166 210 257 298 376
#     4  10  19  33  62  92 123 159 207 254 300 367
#     4  10  23  41  63  93 130 158 204 258 316 359
#
# _framework density 21.773658000000001
#
# number of rings (size 3 to 8) (size 9 to 14) (size 15 to 20)
#    0.000    1.667    3.333    3.000    2.333    1.333 
#    0.000    7.500    0.000    0.000    0.000    0.000 
#    0.000    0.000    0.000    0.000    0.000    0.000 
#
# Total GULP energy -66864.834994 kJ/mol
# GULP energy per Si atom -5572.069583 kJ/mol
# Density = 2.172410 g / cm^3
# Si number density = 21.773658 Si / 1000 Ang^3
#
#
#
# Elastic Constant Matrix: (Units=GPa)
#
#
# Indices 1 2 3 4 5 6 
#
# 1 130.9644 26.9626 53.8484 2.3748 17.6564 38.6220
# 2 26.9626 63.3787 35.9625 -13.3817 -14.2899 16.7748
# 3 53.8484 35.9625 154.7805 -9.2991 -13.0736 16.8976
# 4 2.3748 -13.3817 -9.2991 33.3915 8.9000 3.5648
# 5 17.6564 -14.2899 -13.0736 8.9000 35.3873 9.7481
# 6 38.6220 16.7748 16.8976 3.5648 9.7481 36.1765
#
#
#
# Elastic Compliance Matrix: (Units=1/GPa)
#
#
# Indices 1 2 3 4 5 6 
#
# 1 0.013311 -0.002572 -0.003522 -0.000260 -0.006254 -0.009662
# 2 -0.002572 0.025847 -0.002257 0.007953 0.012268 -0.012275
# 3 -0.003522 -0.002257 0.008627 0.000735 0.003948 -0.000359
# 4 -0.000260 0.007953 0.000735 0.034947 -0.003450 -0.006268
# 5 -0.006254 0.012268 0.003948 -0.003450 0.041912 -0.011809
# 6 -0.009662 -0.012275 -0.000359 -0.006268 -0.011809 0.047616
#
#
# Mechanical properties :
#
#
# Convention : Reuss Voigt Hill
#
# Bulk Modulus (GPa) = 32.17149 64.74115 48.45632
# Shear Modulus (GPa) = 25.08501 36.48108 30.78304
#
# Velocity S-wave (km/s) = 3.39791 4.09769 3.76410
# Velocity P-wave (km/s) = 5.49563 7.22401 6.41826
#
# Compressibility (1/GPa) = 0.03108342
#
# Stress axis : x y z
#
# Youngs Moduli (GPa) = 75.12814 38.68965 115.91139
#
# Poissons Ratio (x) = 0.09950 0.40828
# Poissons Ratio (y) = 0.19320 0.26156
# Poissons Ratio (z) = 0.26463 0.08731
#
# Static dielectric constant tensor:
#      x y z
#    x 1.803630 0.008920 0.019030 
#    y 0.008920 1.928890 -0.018560 
#    z 0.019030 -0.018560 1.952440 
# 
# From -- ./inp_files/403684.got.cif
#   From: 2010.05.17/outbox.cif.g08.bks.cpg/sg2_202_cif.got.tgz:403684.got - 2010.06.03 11:33:40.
