data_PCOD9083117
_publ_section_title
;
Structure prediction by ZEFSAII (Michael W. Deem and Ramdas Pophale) SiO2 
 PCOD9083117
Probable space group: P -1
;
_chemical_formula_sum "Si O2"
_cell_formula_units_Z 16
_cell_length_a 16.704489
_cell_length_b 15.947294
_cell_length_c 12.080394
_cell_angle_alpha 43.144203
_cell_angle_beta 31.914089
_cell_angle_gamma 25.234777
_cell_volume 714.795255
_symmetry_space_group_name_H-M "P -1"
_symmetry_group_IT_number 2
_symmetry_cell_setting 'triclinic'
loop_
_space_group_symop_operation_xyz
x,y,z
-x,-y,-z
loop_
_atom_site_type_symbol
_atom_site_label
_atom_site_fract_x
_atom_site_fract_y
_atom_site_fract_z
Si Si1 0.404832 0.185347 0.378068
Si Si2 0.220245 0.754701 0.159212
Si Si3 0.972228 0.380489 0.058566
Si Si4 0.064355 0.095658 0.070440
Si Si5 0.740499 0.764354 0.924993
Si Si6 0.593555 0.743957 0.451298
Si Si7 0.657998 0.336097 0.139397
Si Si8 0.152222 0.217005 0.461660
O O1 0.341478 0.301298 0.450322
O O2 0.187745 0.288878 0.450326
O O3 0.500000 0.000000 0.500000
O O4 0.645115 0.074165 0.134356
O O5 0.479826 0.561093 0.098166
O O6 0.090741 0.707706 0.337716
O O7 0.253758 0.779141 0.969872
O O8 0.055692 0.953897 0.230842
O O9 0.979622 0.245284 0.118999
O O10 0.182550 0.331249 0.800491
O O11 0.734619 0.621241 0.094095
O O12 0.058228 0.313703 0.148448
O O13 0.890343 0.231247 0.038383
O O14 0.803843 0.744564 0.742496
O O15 0.500000 0.000000 0.000000
O O16 0.500250 0.666587 0.608378
O O17 0.363251 0.979806 0.467153
#
# Coordination Sequence:
#
# PCOD9083117 Si02
#       8
#     2   2   2   2   2   2   2   2
#     4  10  19  33  63  96 129 166 205 255 314 372
#     4  11  24  38  59  95 131 178 208 245 310 388
#     4  11  25  40  70  95 121 164 215 272 317 367
#     4  12  21  39  62  92 132 168 205 257 311 374
#     4  11  23  46  66  92 122 160 218 274 323 366
#     4  11  19  39  64  97 129 167 209 254 317 380
#     4  11  23  38  60  91 138 178 205 242 312 388
#     4  11  21  40  69  89 127 175 206 263 320 371
#
# _framework density 22.384032000000001
#
# number of rings (size 3 to 8) (size 9 to 14) (size 15 to 20)
#    0.000    1.000    6.250    2.625    0.000    2.000 
#    0.000    1.875    0.000    7.500    0.000    0.000 
#    0.000    0.000    0.000    0.000    0.000    0.000 
#
# Total GULP energy -89334.008926 kJ/mol
# GULP energy per Si atom -5583.375558 kJ/mol
# Density = 2.233309 g / cm^3
# Si number density = 22.384032 Si / 1000 Ang^3
#
#
#
# Elastic Constant Matrix: (Units=GPa)
#
#
# Indices 1 2 3 4 5 6 
#
# 1 126.7250 65.3030 11.2578 -24.8482 3.3731 18.3918
# 2 65.3030 153.6783 0.7216 -5.8404 -0.3568 0.9188
# 3 11.2578 0.7216 29.0360 -8.3248 -4.7411 -4.3939
# 4 -24.8482 -5.8404 -8.3248 18.9864 -4.7179 8.4366
# 5 3.3731 -0.3568 -4.7411 -4.7179 28.0144 -4.9355
# 6 18.3918 0.9188 -4.3939 8.4366 -4.9355 25.5590
#
#
#
# Elastic Compliance Matrix: (Units=1/GPa)
#
#
# Indices 1 2 3 4 5 6 
#
# 1 0.028035 -0.009856 -0.002736 0.048164 -0.002307 -0.036633
# 2 -0.009856 0.010085 0.001546 -0.014081 0.001301 0.011895
# 3 -0.002736 0.001546 0.042754 0.015665 0.011329 0.006280
# 4 0.048164 -0.014081 0.015665 0.156603 0.008693 -0.081472
# 5 -0.002307 0.001301 0.011329 0.008693 0.040884 0.008586
# 6 -0.036633 0.011895 0.006280 -0.081472 0.008586 0.094688
#
#
# Mechanical properties :
#
#
# Convention : Reuss Voigt Hill
#
# Bulk Modulus (GPa) = 17.01212 51.55600 34.28406
# Shear Modulus (GPa) = 12.05585 29.98907 21.02246
#
# Velocity S-wave (km/s) = 2.32328 3.66423 3.06792
# Velocity P-wave (km/s) = 3.84882 6.40192 5.28195
#
# Compressibility (1/GPa) = 0.05878163
#
# Stress axis : x y z
#
# Youngs Moduli (GPa) = 35.66947 99.15915 23.38960
#
# Poissons Ratio (x) = 0.97733 0.06400
# Poissons Ratio (y) = 0.35156 -0.03616
# Poissons Ratio (z) = 0.09759 -0.15330
#
# Static dielectric constant tensor:
#      x y z
#    x 1.838050 0.029820 -0.039830 
#    y 0.029820 1.885830 0.037830 
#    z -0.039830 0.037830 1.937600 
# 
# From -- ./inp_files/455528.got.cif
#   From: 2010.05.17/outbox.cif.g08.bks.cpg/sg2_228_cif.got.tgz:455528.got - 2010.06.03 11:33:40.
