data_PCOD9083477
_publ_section_title
;
Structure prediction by ZEFSAII (Michael W. Deem and Ramdas Pophale) SiO2 
 PCOD9083477
Probable space group: P -1
;
_chemical_formula_sum "Si O2"
_cell_formula_units_Z 14
_cell_length_a 22.470570
_cell_length_b 5.203653
_cell_length_c 8.046575
_cell_angle_alpha 121.467647
_cell_angle_beta 40.362283
_cell_angle_gamma 116.839565
_cell_volume 517.254081
_symmetry_space_group_name_H-M "P -1"
_symmetry_group_IT_number 2
_symmetry_cell_setting 'triclinic'
loop_
_space_group_symop_operation_xyz
x,y,z
-x,-y,-z
loop_
_atom_site_type_symbol
_atom_site_label
_atom_site_fract_x
_atom_site_fract_y
_atom_site_fract_z
Si Si1 0.512907 0.845614 0.152929
Si Si2 0.050958 0.332361 0.978153
Si Si3 0.206801 0.382257 0.123573
Si Si4 0.306810 0.708038 0.548241
Si Si5 0.764751 0.875159 0.392895
Si Si6 0.857042 0.196223 0.814440
Si Si7 0.580267 0.501482 0.191646
O O1 0.404677 0.898476 0.423451
O O2 0.564657 0.772063 0.188700
O O3 0.560344 0.144017 0.060691
O O4 0.500000 0.500000 0.000000
O O5 0.065987 0.583865 0.179840
O O6 0.154428 0.233297 0.701586
O O7 0.000000 0.500000 0.000000
O O8 0.000000 0.000000 0.000000
O O9 0.160618 0.688081 0.291776
O O10 0.313718 0.449873 0.961623
O O11 0.204439 0.233497 0.893052
O O12 0.140390 0.160446 0.302825
O O13 0.262472 0.797821 0.496082
O O14 0.238310 0.783005 0.868596
O O15 0.318098 0.353995 0.436635
O O16 0.500000 0.500000 0.500000
#
# Coordination Sequence:
#
# PCOD9083477 Si02
#       7
#     2   2   2   2   2   2   2
#     4  12  25  38  53  80 113 142 178 243 296 305
#     4  10  16  24  39  65 100 135 161 195 257 326
#     4   9  16  28  43  64  89 120 170 210 242 294
#     4   9  16  31  45  59  90 133 171 194 252 326
#     4   9  17  28  45  67  93 132 168 210 253 309
#     4   9  16  27  43  66  94 131 165 209 254 307
#     4  12  22  36  58  79 100 141 194 233 264 331
#
# _framework density 27.066002000000001
#
# number of rings (size 3 to 8) (size 9 to 14) (size 15 to 20)
#    0.000    2.286    0.000    9.429    0.000    0.000 
#    0.000    0.000    0.000    0.000    0.000    0.000 
#    0.000    0.000    0.000  470.571    0.000    0.000 
#
# Total GULP energy -78102.781241 kJ/mol
# GULP energy per Si atom -5578.770089 kJ/mol
# Density = 2.700440 g / cm^3
# Si number density = 27.066002 Si / 1000 Ang^3
#
#
#
# Elastic Constant Matrix: (Units=GPa)
#
#
# Indices 1 2 3 4 5 6 
#
# 1 132.7698 43.0582 19.0381 17.6170 -46.9073 -21.2260
# 2 43.0582 214.9589 10.1524 21.5313 -36.5161 -26.5042
# 3 19.0381 10.1524 49.3472 21.2483 5.6026 6.0388
# 4 17.6170 21.5313 21.2483 29.9437 -1.2842 -17.1845
# 5 -46.9073 -36.5161 5.6026 -1.2842 38.7208 11.7602
# 6 -21.2260 -26.5042 6.0388 -17.1845 11.7602 65.4940
#
#
#
# Elastic Compliance Matrix: (Units=1/GPa)
#
#
# Indices 1 2 3 4 5 6 
#
# 1 0.016789 0.001310 -0.008280 -0.002833 0.022061 0.002030
# 2 0.001310 0.006117 -0.001100 -0.003646 0.007164 0.000758
# 3 -0.008280 -0.001100 0.039752 -0.030133 -0.014125 -0.012164
# 4 -0.002833 -0.003646 -0.030133 0.070239 -0.006235 0.019934
# 5 0.022061 0.007164 -0.014125 -0.006235 0.061550 -0.001337
# 6 0.002030 0.000758 -0.012164 0.019934 -0.001337 0.022825
#
#
# Mechanical properties :
#
#
# Convention : Reuss Voigt Hill
#
# Bulk Modulus (GPa) = 21.49704 60.17479 40.83592
# Shear Modulus (GPa) = 20.08676 48.48686 34.28681
#
# Velocity S-wave (km/s) = 2.72718 4.23712 3.56305
# Velocity P-wave (km/s) = 4.22805 6.79842 5.66104
#
# Compressibility (1/GPa) = 0.04651803
#
# Stress axis : x y z
#
# Youngs Moduli (GPa) = 59.56279 163.47120 25.15572
#
# Poissons Ratio (x) = -0.21411 0.20829
# Poissons Ratio (y) = -0.07801 0.02767
# Poissons Ratio (z) = 0.49319 0.17981
#
# Static dielectric constant tensor:
#      x y z
#    x 2.236630 0.010250 0.009650 
#    y 0.010250 2.337980 0.215340 
#    z 0.009650 0.215340 2.363860 
# 
# From -- ./inp_files/473329.got.cif
#   From: 2010.05.17/outbox.cif.g08.bks.cpg/sg2_237_cif.got.tgz:473329.got - 2010.06.03 11:33:40.
