data_PCOD9083768
_publ_section_title
;
Structure prediction by ZEFSAII (Michael W. Deem and Ramdas Pophale) SiO2 
 PCOD9083768
Probable space group: P -1
;
_chemical_formula_sum "Si O2"
_cell_formula_units_Z 14
_cell_length_a 9.080483
_cell_length_b 23.579276
_cell_length_c 8.477680
_cell_angle_alpha 27.400842
_cell_angle_beta 50.805072
_cell_angle_gamma 54.346703
_cell_volume 646.194026
_symmetry_space_group_name_H-M "P -1"
_symmetry_group_IT_number 2
_symmetry_cell_setting 'triclinic'
loop_
_space_group_symop_operation_xyz
x,y,z
-x,-y,-z
loop_
_atom_site_type_symbol
_atom_site_label
_atom_site_fract_x
_atom_site_fract_y
_atom_site_fract_z
Si Si1 0.225560 0.471016 0.388955
Si Si2 0.492004 0.306252 0.404572
Si Si3 0.536099 0.846959 0.511952
Si Si4 0.494400 0.614252 0.333885
Si Si5 0.107022 0.123537 0.589696
Si Si6 0.316252 0.989346 0.538435
Si Si7 0.237033 0.753516 0.363763
O O1 0.303532 0.385955 0.397581
O O2 0.319521 0.396794 0.656860
O O3 0.000000 0.500000 0.500000
O O4 0.349915 0.594025 0.991805
O O5 0.460680 0.211399 0.518863
O O6 0.591988 0.229928 0.669749
O O7 0.735806 0.878851 0.373477
O O8 0.384321 0.958957 0.389524
O O9 0.487733 0.733633 0.936303
O O10 0.500000 0.500000 0.500000
O O11 0.308325 0.629042 0.534194
O O12 0.959395 0.239577 0.427801
O O13 0.185731 0.106003 0.401086
O O14 0.000000 0.000000 0.000000
O O15 0.500000 0.000000 0.500000
O O16 0.224181 0.865912 0.970963
#
# Coordination Sequence:
#
# PCOD9083768 Si02
#       7
#     2   2   2   2   2   2   2
#     4  10  22  38  55  76 120 157 181 226 276 326
#     4  10  21  38  53  83 117 146 186 230 277 330
#     4  10  19  34  58  81 109 146 185 228 275 332
#     4  10  19  35  54  81 110 146 188 223 271 334
#     4   9  18  35  55  79 104 140 187 229 277 329
#     4   8  16  34  56  75 104 141 181 229 276 325
#     4   9  19  33  55  78 110 146 177 230 282 327
#
# _framework density 21.665322
#
# number of rings (size 3 to 8) (size 9 to 14) (size 15 to 20)
#    0.000    2.571    1.429    0.000    2.000    1.143 
#    2.571    8.571    0.000    0.000    0.000    0.000 
#    0.000    0.000    0.000    0.000    0.000    0.000 
#
# Total GULP energy -77949.966017 kJ/mol
# GULP energy per Si atom -5567.854716 kJ/mol
# Density = 2.161601 g / cm^3
# Si number density = 21.665322 Si / 1000 Ang^3
#
#
#
# Elastic Constant Matrix: (Units=GPa)
#
#
# Indices 1 2 3 4 5 6 
#
# 1 58.2703 93.0520 5.5295 0.6935 -7.1842 14.2456
# 2 93.0520 276.6562 21.9854 0.7681 -22.3285 3.6266
# 3 5.5295 21.9854 50.0267 -1.6904 -5.5870 1.9939
# 4 0.6935 0.7681 -1.6904 12.3053 0.0894 -6.9267
# 5 -7.1842 -22.3285 -5.5870 0.0894 29.5159 -4.2286
# 6 14.2456 3.6266 1.9939 -6.9267 -4.2286 48.2514
#
#
#
# Elastic Compliance Matrix: (Units=1/GPa)
#
#
# Indices 1 2 3 4 5 6 
#
# 1 0.043798 -0.014837 0.001676 -0.008803 -0.002130 -0.013335
# 2 -0.014837 0.008977 -0.002016 0.002476 0.003427 0.004445
# 3 0.001676 -0.002016 0.021112 0.002572 0.002785 -0.000602
# 4 -0.008803 0.002476 0.002572 0.090678 0.002165 0.015514
# 5 -0.002130 0.003427 0.002785 0.002165 0.037021 0.003812
# 6 -0.013335 0.004445 -0.000602 0.015514 0.003812 0.026914
#
#
# Mechanical properties :
#
#
# Convention : Reuss Voigt Hill
#
# Bulk Modulus (GPa) = 22.97154 69.56522 46.26838
# Shear Modulus (GPa) = 18.29060 35.64028 26.96544
#
# Velocity S-wave (km/s) = 2.90872 4.06031 3.53177
# Velocity P-wave (km/s) = 4.68047 7.35936 6.16713
#
# Compressibility (1/GPa) = 0.04353212
#
# Stress axis : x y z
#
# Youngs Moduli (GPa) = 22.83204 111.40029 47.36648
#
# Poissons Ratio (x) = 1.65286 -0.07937
# Poissons Ratio (y) = 0.33876 0.09548
# Poissons Ratio (z) = -0.03826 0.22456
#
# Static dielectric constant tensor:
#      x y z
#    x 1.748440 -0.017160 0.012980 
#    y -0.017160 1.964590 0.036460 
#    z 0.012980 0.036460 1.879690 
# 
# From -- ./inp_files/178411.got.cif
#   From: 2010.05.17/outbox.cif.g08.bks.cpg/sg2_90_cif.got.tgz:178411.got - 2010.06.03 11:33:40.
