data_PCOD9083098
_publ_section_title
;
Structure prediction by ZEFSAII (Michael W. Deem and Ramdas Pophale) SiO2 
 PCOD9083098
Probable space group: P -1
;
_chemical_formula_sum "Si O2"
_cell_formula_units_Z 16
_cell_length_a 12.191345
_cell_length_b 15.138735
_cell_length_c 20.784512
_cell_angle_alpha 157.327281
_cell_angle_beta 29.995899
_cell_angle_gamma 151.413596
_cell_volume 674.330440
_symmetry_space_group_name_H-M "P -1"
_symmetry_group_IT_number 2
_symmetry_cell_setting 'triclinic'
loop_
_space_group_symop_operation_xyz
x,y,z
-x,-y,-z
loop_
_atom_site_type_symbol
_atom_site_label
_atom_site_fract_x
_atom_site_fract_y
_atom_site_fract_z
Si Si1 0.286263 0.862592 0.468186
Si Si2 0.058180 0.247070 0.678148
Si Si3 0.191631 0.569277 0.712750
Si Si4 0.860235 0.047177 0.201680
Si Si5 0.815712 0.647581 0.868789
Si Si6 0.148464 0.168732 0.259606
Si Si7 0.509673 0.690643 0.419274
Si Si8 0.714007 0.892752 0.711657
O O1 0.332352 0.646249 0.263398
O O2 0.036160 0.734973 0.546507
O O3 0.500000 0.000000 0.500000
O O4 0.286992 0.090830 0.578166
O O5 0.042169 0.448884 0.772480
O O6 0.338131 0.335657 0.615297
O O7 0.000000 0.000000 0.500000
O O8 0.875770 0.150200 0.765251
O O9 0.438763 0.788441 0.758137
O O10 0.222172 0.338286 0.503564
O O11 0.051283 0.669235 0.802921
O O12 0.688581 0.194101 0.395843
O O13 0.088065 0.216323 0.155883
O O14 0.975105 0.001325 0.178923
O O15 0.713300 0.803365 0.069484
O O16 0.364322 0.407211 0.279020
O O17 0.248514 0.075750 0.208783
#
# Coordination Sequence:
#
# PCOD9083098 Si02
#       8
#     2   2   2   2   2   2   2   2
#     4  12  22  37  63  93 124 159 209 255 304 369
#     4  10  20  31  57  96 120 151 207 261 308 352
#     4  10  19  37  60  87 122 162 198 264 305 349
#     4  11  25  40  65  89 128 173 202 251 319 371
#     4  11  24  45  60  92 130 165 213 249 307 387
#     4  12  21  41  62  96 127 158 210 262 308 367
#     4  12  21  36  64  94 123 159 207 257 306 365
#     4  10  19  33  62  94 119 152 208 261 305 356
#
# _framework density 23.727240999999999
#
# number of rings (size 3 to 8) (size 9 to 14) (size 15 to 20)
#    0.000    1.000    6.250    1.875    3.500    0.500 
#    0.000    0.625    0.000    0.750    0.000    0.000 
#    0.000    0.125    0.000    0.000    0.000    0.000 
#
# Total GULP energy -89310.672020 kJ/mol
# GULP energy per Si atom -5581.917001 kJ/mol
# Density = 2.367324 g / cm^3
# Si number density = 23.727241 Si / 1000 Ang^3
#
#
#
# Elastic Constant Matrix: (Units=GPa)
#
#
# Indices 1 2 3 4 5 6 
#
# 1 136.6479 23.0274 16.3863 4.4931 21.7184 -3.6662
# 2 23.0274 97.6737 15.1881 10.7197 7.9721 -12.1271
# 3 16.3863 15.1881 10.8690 3.8405 9.2986 -7.1051
# 4 4.4931 10.7197 3.8405 18.6163 0.7619 3.9153
# 5 21.7184 7.9721 9.2986 0.7619 24.8023 4.2179
# 6 -3.6662 -12.1271 -7.1051 3.9153 4.2179 42.6178
#
#
#
# Elastic Compliance Matrix: (Units=1/GPa)
#
#
# Indices 1 2 3 4 5 6 
#
# 1 0.009248 -0.000324 -0.011013 0.000550 -0.003744 -0.000813
# 2 -0.000324 0.013591 -0.019383 -0.004019 0.003193 0.000661
# 3 -0.011013 -0.019383 0.261663 -0.047090 -0.089338 0.050329
# 4 0.000550 -0.004019 -0.047090 0.068428 0.019277 -0.017141
# 5 -0.003744 0.003193 -0.089338 0.019277 0.079546 -0.023952
# 6 -0.000813 0.000661 0.050329 -0.017141 -0.023952 0.035919
#
#
# Mechanical properties :
#
#
# Convention : Reuss Voigt Hill
#
# Bulk Modulus (GPa) = 4.48304 39.37713 21.93009
# Shear Modulus (GPa) = 8.27554 29.91322 19.09438
#
# Velocity S-wave (km/s) = 1.86959 3.55450 2.83988
# Velocity P-wave (km/s) = 2.56007 5.78600 4.47391
#
# Compressibility (1/GPa) = 0.22306283
#
# Stress axis : x y z
#
# Youngs Moduli (GPa) = 108.12591 73.57759 3.82170
#
# Poissons Ratio (x) = 0.02380 0.04209
# Poissons Ratio (y) = 0.03498 0.07408
# Poissons Ratio (z) = 1.19084 1.42616
#
# Static dielectric constant tensor:
#      x y z
#    x 2.185840 0.004470 -0.243820 
#    y 0.004470 1.997930 -0.096160 
#    z -0.243820 -0.096160 2.209940 
# 
# From -- ./inp_files/595534.got.cif
#   From: 2010.05.17/outbox.cif.g08.bks.cpg/sg2_298_cif.got.tgz:595534.got - 2010.06.03 11:33:40.
