data_PCOD9083114
_publ_section_title
;
Structure prediction by ZEFSAII (Michael W. Deem and Ramdas Pophale) SiO2 
 PCOD9083114
Probable space group: P -1
;
_chemical_formula_sum "Si O2"
_cell_formula_units_Z 14
_cell_length_a 13.269001
_cell_length_b 8.879114
_cell_length_c 10.736292
_cell_angle_alpha 41.996278
_cell_angle_beta 43.487658
_cell_angle_gamma 59.938939
_cell_volume 580.429634
_symmetry_space_group_name_H-M "P -1"
_symmetry_group_IT_number 2
_symmetry_cell_setting 'triclinic'
loop_
_space_group_symop_operation_xyz
x,y,z
-x,-y,-z
loop_
_atom_site_type_symbol
_atom_site_label
_atom_site_fract_x
_atom_site_fract_y
_atom_site_fract_z
Si Si1 0.965658 0.740535 0.151992
Si Si2 0.263244 0.704539 0.990631
Si Si3 0.740211 0.792337 0.632703
Si Si4 0.293307 0.980992 0.225984
Si Si5 0.922044 0.260090 0.612717
Si Si6 0.515490 0.602427 0.284808
Si Si7 0.647014 0.814003 0.418810
O O1 0.934682 0.520144 0.400651
O O2 0.796300 0.751857 0.246444
O O3 0.139678 0.697672 0.993761
O O4 0.000000 0.000000 0.000000
O O5 0.314405 0.456893 0.114800
O O6 0.177839 0.750318 0.169151
O O7 0.374803 0.925999 0.749343
O O8 0.700056 0.970220 0.662777
O O9 0.689536 0.811034 0.526782
O O10 0.916891 0.810175 0.461423
O O11 0.143933 0.888179 0.351320
O O12 0.395480 0.774311 0.243598
O O13 0.342464 0.221930 0.969123
O O14 0.500000 0.500000 0.500000
O O15 0.483849 0.373849 0.375134
#
# Coordination Sequence:
#
# PCOD9083114 Si02
#       7
#     2   2   2   2   2   2   2
#     4   9  16  29  57  89 117 150 197 244 285 355
#     4  10  19  33  63  94 123 158 202 243 306 371
#     4  11  22  38  62  99 130 154 197 262 323 368
#     4  11  25  42  63  91 127 164 206 255 316 369
#     4  11  18  39  63  94 131 162 197 249 313 380
#     4  11  25  46  66  83 118 172 221 256 298 367
#     4  11  20  38  64  90 121 162 214 255 294 364
#
# _framework density 24.120063999999999
#
# number of rings (size 3 to 8) (size 9 to 14) (size 15 to 20)
#    0.000    1.429    4.286    2.143    0.000    2.857 
#    0.000    1.429    0.000    6.000    0.000    0.000 
#    0.000    0.000    0.000    0.000    0.000    0.000 
#
# Total GULP energy -78037.340340 kJ/mol
# GULP energy per Si atom -5574.095739 kJ/mol
# Density = 2.406517 g / cm^3
# Si number density = 24.120064 Si / 1000 Ang^3
#
#
#
# Elastic Constant Matrix: (Units=GPa)
#
#
# Indices 1 2 3 4 5 6 
#
# 1 70.8970 7.0571 34.4389 -13.8574 -6.3150 21.8342
# 2 7.0571 68.2761 31.2141 -24.2283 -1.6121 16.7828
# 3 34.4389 31.2141 160.2082 -37.1044 -6.5850 17.4625
# 4 -13.8574 -24.2283 -37.1044 35.3118 -2.9518 -1.9180
# 5 -6.3150 -1.6121 -6.5850 -2.9518 24.1448 -2.6927
# 6 21.8342 16.7828 17.4625 -1.9180 -2.6927 40.0777
#
#
#
# Elastic Compliance Matrix: (Units=1/GPa)
#
#
# Indices 1 2 3 4 5 6 
#
# 1 0.020291 0.004985 -0.001681 0.009406 0.005035 -0.011621
# 2 0.004985 0.023258 -0.000189 0.017409 0.003674 -0.011293
# 3 -0.001681 -0.000189 0.009059 0.008840 0.002838 -0.002338
# 4 0.009406 0.017409 0.008840 0.053470 0.011125 -0.012960
# 5 0.005035 0.003674 0.002838 0.011125 0.044894 -0.001970
# 6 -0.011621 -0.011293 -0.002338 -0.012960 -0.001970 0.036278
#
#
# Mechanical properties :
#
#
# Convention : Reuss Voigt Hill
#
# Bulk Modulus (GPa) = 16.99607 49.42239 33.20923
# Shear Modulus (GPa) = 24.92120 35.01827 29.96973
#
# Velocity S-wave (km/s) = 3.21785 3.81442 3.52877
# Velocity P-wave (km/s) = 4.56813 6.31937 5.51372
#
# Compressibility (1/GPa) = 0.05883715
#
# Stress axis : x y z
#
# Youngs Moduli (GPa) = 49.28210 42.99619 110.38924
#
# Poissons Ratio (x) = -0.21432 0.18555
# Poissons Ratio (y) = -0.24565 0.02088
# Poissons Ratio (z) = 0.08284 0.00813
#
# Static dielectric constant tensor:
#      x y z
#    x 1.977230 -0.025810 -0.028010 
#    y -0.025810 1.994720 0.101400 
#    z -0.028010 0.101400 1.949590 
# 
# From -- ./inp_files/446590.got.cif
#   From: 2010.05.17/outbox.cif.g08.bks.cpg/sg2_224_cif.got.tgz:446590.got - 2010.06.03 11:33:40.
