data_PCOD9083570
_publ_section_title
;
Structure prediction by ZEFSAII (Michael W. Deem and Ramdas Pophale) SiO2 
 PCOD9083570
Probable space group: P -1
;
_chemical_formula_sum "Si O2"
_cell_formula_units_Z 14
_cell_length_a 8.555670
_cell_length_b 8.067974
_cell_length_c 11.917564
_cell_angle_alpha 48.330791
_cell_angle_beta 64.855817
_cell_angle_gamma 74.659293
_cell_volume 556.078105
_symmetry_space_group_name_H-M "P -1"
_symmetry_group_IT_number 2
_symmetry_cell_setting 'triclinic'
loop_
_space_group_symop_operation_xyz
x,y,z
-x,-y,-z
loop_
_atom_site_type_symbol
_atom_site_label
_atom_site_fract_x
_atom_site_fract_y
_atom_site_fract_z
Si Si1 0.980190 0.703364 0.202198
Si Si2 0.267719 0.000512 0.976606
Si Si3 0.707837 0.994421 0.432813
Si Si4 0.739412 0.296852 0.480781
Si Si5 0.549220 0.691099 0.032390
Si Si6 0.395276 0.466849 0.383427
Si Si7 0.838152 0.372921 0.050589
O O1 0.123522 0.850773 0.156517
O O2 0.910049 0.456959 0.356162
O O3 0.084688 0.708110 0.051517
O O4 0.814508 0.846513 0.161505
O O5 0.421938 0.861361 0.938111
O O6 0.346999 0.165343 0.971005
O O7 0.735377 0.747556 0.486258
O O8 0.500000 0.000000 0.500000
O O9 0.770031 0.069850 0.505259
O O10 0.775920 0.181957 0.241456
O O11 0.580589 0.402123 0.409913
O O12 0.671232 0.329505 0.613345
O O13 0.428026 0.530281 0.216873
O O14 0.685225 0.542499 0.995943
O O15 0.000000 0.500000 0.000000
#
# Coordination Sequence:
#
# PCOD9083570 Si02
#       7
#     2   2   2   2   2   2   2
#     4  11  22  39  62  94 117 160 212 254 313 371
#     4  10  23  37  63  86 126 157 207 259 308 374
#     4  10  19  34  56  96 120 163 207 250 307 371
#     4  10  19  35  58  92 119 156 212 260 290 380
#     4  11  21  42  57  94 123 160 205 260 311 368
#     4  10  20  34  61  88 122 163 208 251 309 371
#     4  12  20  36  64  91 126 157 204 264 306 361
#
# _framework density 25.17632
#
# number of rings (size 3 to 8) (size 9 to 14) (size 15 to 20)
#    0.000    1.429    7.143    0.000    4.000    1.714 
#    0.000    0.714    0.000    0.857    0.000    0.000 
#    0.000    0.000    0.000    0.000    0.000    0.000 
#
# Total GULP energy -78225.693563 kJ/mol
# GULP energy per Si atom -5587.549540 kJ/mol
# Density = 2.511902 g / cm^3
# Si number density = 25.176320 Si / 1000 Ang^3
#
#
#
# Elastic Constant Matrix: (Units=GPa)
#
#
# Indices 1 2 3 4 5 6 
#
# 1 53.2443 21.4853 23.0671 -15.4344 -5.2894 -10.0394
# 2 21.4853 118.2152 13.6680 -3.3011 12.5646 2.2011
# 3 23.0671 13.6680 107.5789 -4.2023 -38.1928 6.2004
# 4 -15.4344 -3.3011 -4.2023 35.8064 14.9536 -5.9895
# 5 -5.2894 12.5646 -38.1928 14.9536 35.9304 -9.5841
# 6 -10.0394 2.2011 6.2004 -5.9895 -9.5841 32.6969
#
#
#
# Elastic Compliance Matrix: (Units=1/GPa)
#
#
# Indices 1 2 3 4 5 6 
#
# 1 0.030434 -0.003493 -0.008740 0.016885 -0.007370 0.012170
# 2 -0.003493 0.010914 -0.004239 0.003010 -0.011077 -0.003698
# 3 -0.008740 -0.004239 0.021248 -0.013573 0.028263 -0.000630
# 4 0.016885 0.003010 -0.013573 0.048080 -0.031069 0.007256
# 5 -0.007370 -0.011077 0.028263 -0.031069 0.076198 0.009767
# 6 0.012170 -0.003698 -0.000630 0.007256 0.009767 0.038881
#
#
# Mechanical properties :
#
#
# Convention : Reuss Voigt Hill
#
# Bulk Modulus (GPa) = 33.72440 43.94216 38.83328
# Shear Modulus (GPa) = 18.61608 35.60794 27.11201
#
# Velocity S-wave (km/s) = 2.72219 3.76485 3.28515
# Velocity P-wave (km/s) = 4.82751 6.03245 5.46330
#
# Compressibility (1/GPa) = 0.02965212
#
# Stress axis : x y z
#
# Youngs Moduli (GPa) = 32.85759 91.62305 47.06261
#
# Poissons Ratio (x) = 0.32000 0.41135
# Poissons Ratio (y) = 0.11476 0.19952
# Poissons Ratio (z) = 0.28719 0.38843
#
# Static dielectric constant tensor:
#      x y z
#    x 2.266280 0.130790 -0.276710 
#    y 0.130790 2.094550 -0.172450 
#    z -0.276710 -0.172450 2.304240 
# 
# From -- ./inp_files/555818.got.cif
#   From: 2010.05.17/outbox.cif.g08.bks.cpg/sg2_278_cif.got.tgz:555818.got - 2010.06.03 11:33:40.
