data_PCOD9083925
_publ_section_title
;
Structure prediction by ZEFSAII (Michael W. Deem and Ramdas Pophale) SiO2 
 PCOD9083925
Probable space group: P -1
;
_chemical_formula_sum "Si O2"
_cell_formula_units_Z 13
_cell_length_a 13.771335
_cell_length_b 12.212478
_cell_length_c 8.833031
_cell_angle_alpha 49.665711
_cell_angle_beta 129.721139
_cell_angle_gamma 149.613657
_cell_volume 560.115504
_symmetry_space_group_name_H-M "P -1"
_symmetry_group_IT_number 2
_symmetry_cell_setting 'triclinic'
loop_
_space_group_symop_operation_xyz
x,y,z
-x,-y,-z
loop_
_atom_site_type_symbol
_atom_site_label
_atom_site_fract_x
_atom_site_fract_y
_atom_site_fract_z
Si Si1 0.260557 0.403527 0.492293
Si Si2 0.460740 0.297253 0.761968
Si Si3 0.000000 0.000000 0.500000
Si Si4 0.498111 0.898322 0.783439
Si Si5 0.822526 0.577454 0.278320
Si Si6 0.741035 0.066715 0.583869
Si Si7 0.211971 0.220732 0.185282
O O1 0.267049 0.230498 0.614923
O O2 0.425092 0.613610 0.361765
O O3 0.042470 0.218855 0.376780
O O4 0.272716 0.453757 0.631960
O O5 0.598483 0.525325 0.792423
O O6 0.440974 0.133408 0.977522
O O7 0.064353 0.075530 0.306875
O O8 0.324085 0.654758 0.747796
O O9 0.404518 0.973673 0.635553
O O10 0.672103 0.048788 0.700334
O O11 0.032530 0.694303 0.423117
O O12 0.861582 0.747489 0.056181
O O13 0.727487 0.884561 0.712953
#
# Coordination Sequence:
#
# PCOD9083925 Si02
#       7
#     2   2   1   2   2   2   2
#     4  10  19  34  59  83 112 145 191 235 286 320
#     4   9  20  37  57  82 116 151 180 239 281 338
#     4  10  20  32  52  88 112 134 182 244 272 334
#     4  10  23  38  57  83 122 148 191 222 289 338
#     4  11  21  37  62  86 110 151 191 238 277 336
#     4  11  21  36  60  85 116 152 185 236 276 339
#     4  10  20  35  59  87 111 140 194 231 286 321
#
# _framework density 23.209499000000001
#
# number of rings (size 3 to 8) (size 9 to 14) (size 15 to 20)
#    0.000    1.846    1.538    2.769    2.154    2.462 
#    0.000    0.769    3.385   10.154    0.000    0.000 
#    0.000    0.000    0.000    0.000    0.000    0.000 
#
# Total GULP energy -72509.072504 kJ/mol
# GULP energy per Si atom -5577.620962 kJ/mol
# Density = 2.315667 g / cm^3
# Si number density = 23.209499 Si / 1000 Ang^3
#
#
#
# Elastic Constant Matrix: (Units=GPa)
#
#
# Indices 1 2 3 4 5 6 
#
# 1 103.4809 27.5358 67.5793 -0.4859 -13.6270 14.7758
# 2 27.5358 73.7700 -1.6493 0.1654 -7.7618 10.0775
# 3 67.5793 -1.6493 156.9816 -0.3973 -7.9204 14.1976
# 4 -0.4859 0.1654 -0.3973 27.2422 -3.3006 -6.2612
# 5 -13.6270 -7.7618 -7.9204 -3.3006 27.6826 -14.8680
# 6 14.7758 10.0775 14.1976 -6.2612 -14.8680 39.1713
#
#
#
# Elastic Compliance Matrix: (Units=1/GPa)
#
#
# Indices 1 2 3 4 5 6 
#
# 1 0.016255 -0.005706 -0.006797 0.000635 0.004278 -0.000475
# 2 -0.005706 0.016242 0.002930 -0.000688 0.000985 -0.002824
# 3 -0.006797 0.002930 0.009464 -0.000608 -0.001019 -0.002104
# 4 0.000635 -0.000688 -0.000608 0.040413 0.010448 0.010583
# 5 0.004278 0.000985 -0.001019 0.010448 0.049680 0.019029
# 6 -0.000475 -0.002824 -0.002104 0.010583 0.019029 0.036112
#
#
# Mechanical properties :
#
#
# Convention : Reuss Voigt Hill
#
# Bulk Modulus (GPa) = 43.82890 57.90712 50.86801
# Shear Modulus (GPa) = 25.65193 34.87033 30.26113
#
# Velocity S-wave (km/s) = 3.32811 3.88031 3.61477
# Velocity P-wave (km/s) = 5.80461 6.71414 6.27587
#
# Compressibility (1/GPa) = 0.02281600
#
# Stress axis : x y z
#
# Youngs Moduli (GPa) = 61.51948 61.56893 105.65832
#
# Poissons Ratio (x) = 0.35130 0.71818
# Poissons Ratio (y) = 0.35102 -0.30962
# Poissons Ratio (z) = 0.41816 -0.18042
#
# Static dielectric constant tensor:
#      x y z
#    x 1.893710 0.010610 0.046500 
#    y 0.010610 2.058220 0.041310 
#    z 0.046500 0.041310 1.886700 
# 
# From -- ./inp_files/147993.got.cif
#   From: 2010.05.17/outbox.cif.g08.bks.cpg/sg2_74_cif.got.tgz:147993.got - 2010.06.03 11:33:40.
