data_PCOD9083527
_publ_section_title
;
Structure prediction by ZEFSAII (Michael W. Deem and Ramdas Pophale) SiO2 
 PCOD9083527
Probable space group: P -1
;
_chemical_formula_sum "Si O2"
_cell_formula_units_Z 16
_cell_length_a 12.962152
_cell_length_b 9.938580
_cell_length_c 17.472110
_cell_angle_alpha 21.722590
_cell_angle_beta 135.585543
_cell_angle_gamma 132.598176
_cell_volume 582.251447
_symmetry_space_group_name_H-M "P -1"
_symmetry_group_IT_number 2
_symmetry_cell_setting 'triclinic'
loop_
_space_group_symop_operation_xyz
x,y,z
-x,-y,-z
loop_
_atom_site_type_symbol
_atom_site_label
_atom_site_fract_x
_atom_site_fract_y
_atom_site_fract_z
Si Si1 0.685890 0.556924 0.392477
Si Si2 0.564426 0.789183 0.809906
Si Si3 0.834188 0.479411 0.057801
Si Si4 0.131576 0.420310 0.303647
Si Si5 0.035890 0.720942 0.253290
Si Si6 0.261312 0.597296 0.666737
Si Si7 0.416097 0.126246 0.681155
Si Si8 0.165233 0.412314 0.159595
O O1 0.860411 0.561724 0.500861
O O2 0.685404 0.591213 0.283369
O O3 0.605744 0.824133 0.266006
O O4 0.625582 0.154892 0.603124
O O5 0.691770 0.502654 0.022890
O O6 0.409825 0.697789 0.736851
O O7 0.530382 0.870289 0.836801
O O8 0.761489 0.429885 0.961769
O O9 0.914315 0.885778 0.893373
O O10 0.971616 0.250201 0.279470
O O11 0.088628 0.680672 0.213884
O O12 0.254543 0.164410 0.536227
O O13 0.198428 0.564475 0.181395
O O14 0.193985 0.985563 0.403862
O O15 0.867033 0.614813 0.240370
O O16 0.500000 0.500000 0.500000
O O17 0.000000 0.500000 0.000000
#
# Coordination Sequence:
#
# PCOD9083527 Si02
#       8
#     2   2   2   2   2   2   2   2
#     4   9  19  33  52  79 112 141 181 226 277 326
#     4  10  19  34  56  86 107 147 191 227 278 325
#     4  10  21  38  60  82 112 152 189 225 277 339
#     4  10  20  38  55  83 115 148 189 231 272 335
#     4  10  21  34  55  86 110 149 183 231 282 328
#     4  12  20  34  57  87 115 141 186 240 275 325
#     4   9  18  32  54  85 109 138 186 236 272 314
#     4  10  21  35  56  84 112 147 187 230 277 330
#
# _framework density 27.479536
#
# number of rings (size 3 to 8) (size 9 to 14) (size 15 to 20)
#    0.000    2.000    3.750    1.875    0.000    0.500 
#    0.000    0.625    0.000    0.000    6.500   15.750 
#    0.000    0.000    0.000    0.000    0.000    0.000 
#
# Total GULP energy -89473.884239 kJ/mol
# GULP energy per Si atom -5592.117765 kJ/mol
# Density = 2.741699 g / cm^3
# Si number density = 27.479536 Si / 1000 Ang^3
#
#
#
# Elastic Constant Matrix: (Units=GPa)
#
#
# Indices 1 2 3 4 5 6 
#
# 1 220.1390 65.3427 51.1482 -3.3119 12.2523 -15.6226
# 2 65.3427 103.0314 37.5832 1.7833 3.8992 -22.2105
# 3 51.1482 37.5832 119.4375 3.8434 15.8409 -7.5745
# 4 -3.3119 1.7833 3.8434 26.8731 -3.6522 14.5704
# 5 12.2523 3.8992 15.8409 -3.6522 49.8197 -3.5750
# 6 -15.6226 -22.2105 -7.5745 14.5704 -3.5750 73.1903
#
#
#
# Elastic Compliance Matrix: (Units=1/GPa)
#
#
# Indices 1 2 3 4 5 6 
#
# 1 0.005883 -0.003220 -0.001464 0.001129 -0.000656 -0.000130
# 2 -0.003220 0.013544 -0.002636 -0.002867 0.000629 0.003751
# 3 -0.001464 -0.002636 0.010281 -0.001972 -0.002833 0.000206
# 4 0.001129 -0.002867 -0.001972 0.043284 0.003080 -0.009300
# 5 -0.000656 0.000629 -0.002833 0.003080 0.021324 0.000186
# 6 -0.000130 0.003751 0.000206 -0.009300 0.000186 0.016655
#
#
# Mechanical properties :
#
#
# Convention : Reuss Voigt Hill
#
# Bulk Modulus (GPa) = 66.36348 83.41735 74.89042
# Shear Modulus (GPa) = 38.27508 49.21220 43.74364
#
# Velocity S-wave (km/s) = 3.73615 4.23645 3.99414
# Velocity P-wave (km/s) = 6.54327 7.37239 6.97017
#
# Compressibility (1/GPa) = 0.01506853
#
# Stress axis : x y z
#
# Youngs Moduli (GPa) = 169.99346 73.83461 97.26525
#
# Poissons Ratio (x) = 0.23771 0.14236
# Poissons Ratio (y) = 0.54729 0.25642
# Poissons Ratio (z) = 0.24881 0.19465
#
# Static dielectric constant tensor:
#      x y z
#    x 8.394080 -6.167290 2.968760 
#    y -6.167290 8.367580 -3.136980 
#    z 2.968760 -3.136980 3.682950 
# 
# From -- ./inp_files/416328.got.cif
#   From: 2010.05.17/outbox.cif.g08.bks.cpg/sg2_209_cif.got.tgz:416328.got - 2010.06.03 11:33:40.
