data_PCOD9083731
_publ_section_title
;
Structure prediction by ZEFSAII (Michael W. Deem and Ramdas Pophale) SiO2 
 PCOD9083731
Probable space group: P -1
;
_chemical_formula_sum "Si O2"
_cell_formula_units_Z 14
_cell_length_a 9.902669
_cell_length_b 7.747858
_cell_length_c 14.094010
_cell_angle_alpha 98.621354
_cell_angle_beta 46.280666
_cell_angle_gamma 130.029707
_cell_volume 506.575223
_symmetry_space_group_name_H-M "P -1"
_symmetry_group_IT_number 2
_symmetry_cell_setting 'triclinic'
loop_
_space_group_symop_operation_xyz
x,y,z
-x,-y,-z
loop_
_atom_site_type_symbol
_atom_site_label
_atom_site_fract_x
_atom_site_fract_y
_atom_site_fract_z
Si Si1 0.834755 0.368866 0.465296
Si Si2 0.190756 0.171503 0.218877
Si Si3 0.827453 0.143202 0.035010
Si Si4 0.742107 0.649337 0.588823
Si Si5 0.156875 0.756897 0.165700
Si Si6 0.792006 0.713526 0.967404
Si Si7 0.384689 0.072859 0.353266
O O1 0.026131 0.539335 0.292891
O O2 0.000000 0.500000 0.500000
O O3 0.627436 0.388605 0.582019
O O4 0.084375 0.884709 0.426528
O O5 0.236172 0.312185 0.304621
O O6 0.044443 0.165432 0.201818
O O7 0.525902 0.401081 0.049520
O O8 0.074801 0.895377 0.248576
O O9 0.949528 0.329202 0.898699
O O10 0.585357 0.096287 0.192915
O O11 0.052874 0.259072 0.016433
O O12 0.728192 0.875082 0.033021
O O13 0.568788 0.689062 0.634491
O O14 0.668959 0.071135 0.535903
O O15 0.500000 0.000000 0.000000
#
# Coordination Sequence:
#
# PCOD9083731 Si02
#       7
#     2   2   2   2   2   2   2
#     4  10  20  34  58  88 122 163 206 253 305 360
#     4  10  19  35  60  90 122 159 207 261 309 367
#     4  10  20  40  63  90 129 164 204 260 313 367
#     4  10  19  34  57  90 125 158 206 256 300 367
#     4  11  21  35  59  90 121 161 210 253 304 369
#     4   9  21  37  62  93 124 163 208 258 315 369
#     4  10  20  36  61  88 124 165 200 249 312 366
#
# _framework density 27.636568
#
# number of rings (size 3 to 8) (size 9 to 14) (size 15 to 20)
#    0.000    2.000    0.000    6.000    0.000    5.714 
#    0.000    3.571    0.000   28.286    0.000    1.000 
#    0.000   16.000    0.000    0.000    0.000    0.000 
#
# Total GULP energy -78127.977889 kJ/mol
# GULP energy per Si atom -5580.569849 kJ/mol
# Density = 2.757367 g / cm^3
# Si number density = 27.636568 Si / 1000 Ang^3
#
#
#
# Elastic Constant Matrix: (Units=GPa)
#
#
# Indices 1 2 3 4 5 6 
#
# 1 181.1118 55.8739 91.7049 2.4335 35.0124 -28.4817
# 2 55.8739 85.2503 40.6497 25.2114 -6.8447 -19.4954
# 3 91.7049 40.6497 165.9329 19.4694 19.4120 -32.2956
# 4 2.4335 25.2114 19.4694 31.6428 -16.5776 -14.4515
# 5 35.0124 -6.8447 19.4120 -16.5776 66.3677 -3.3335
# 6 -28.4817 -19.4954 -32.2956 -14.4515 -3.3335 46.3445
#
#
#
# Elastic Compliance Matrix: (Units=1/GPa)
#
#
# Indices 1 2 3 4 5 6 
#
# 1 0.010584 -0.006532 -0.004090 0.006371 -0.003336 0.002653
# 2 -0.006532 0.020541 0.000159 -0.014920 0.001802 0.000215
# 3 -0.004090 0.000159 0.009592 -0.005657 -0.001927 0.002335
# 4 0.006371 -0.014920 -0.005657 0.058670 0.012056 0.012858
# 5 -0.003336 0.001802 -0.001927 0.012056 0.020720 0.002614
# 6 0.002653 0.000215 0.002335 0.012858 0.002614 0.029123
#
#
# Mechanical properties :
#
#
# Convention : Reuss Voigt Hill
#
# Bulk Modulus (GPa) = 50.52531 89.86132 70.19332
# Shear Modulus (GPa) = 28.28813 45.14210 36.71512
#
# Velocity S-wave (km/s) = 3.20281 4.04594 3.64881
# Velocity P-wave (km/s) = 5.65677 7.37646 6.57310
#
# Compressibility (1/GPa) = 0.01979206
#
# Stress axis : x y z
#
# Youngs Moduli (GPa) = 94.48008 48.68215 104.25828
#
# Poissons Ratio (x) = 0.31799 0.42643
# Poissons Ratio (y) = 0.61713 -0.01662
# Poissons Ratio (z) = 0.38643 -0.00776
#
# Static dielectric constant tensor:
#      x y z
#    x 2.286920 -0.122340 0.043950 
#    y -0.122340 2.414400 -0.086030 
#    z 0.043950 -0.086030 2.335540 
# 
# From -- ./inp_files/292150.got.cif
#   From: 2010.05.17/outbox.cif.g08.bks.cpg/sg2_147_cif.got.tgz:292150.got - 2010.06.03 11:33:40.
