data_PCOD9083176
_publ_section_title
;
Structure prediction by ZEFSAII (Michael W. Deem and Ramdas Pophale) SiO2 
 PCOD9083176
Probable space group: P -1
;
_chemical_formula_sum "Si O2"
_cell_formula_units_Z 16
_cell_length_a 5.610923
_cell_length_b 13.943999
_cell_length_c 22.451365
_cell_angle_alpha 26.629068
_cell_angle_beta 69.925739
_cell_angle_gamma 81.510607
_cell_volume 684.567495
_symmetry_space_group_name_H-M "P -1"
_symmetry_group_IT_number 2
_symmetry_cell_setting 'triclinic'
loop_
_space_group_symop_operation_xyz
x,y,z
-x,-y,-z
loop_
_atom_site_type_symbol
_atom_site_label
_atom_site_fract_x
_atom_site_fract_y
_atom_site_fract_z
Si Si1 0.129889 0.268606 0.325050
Si Si2 0.439685 0.631352 0.009279
Si Si3 0.020162 0.776392 0.917636
Si Si4 0.689676 0.505587 0.213322
Si Si5 0.646340 0.034882 0.066201
Si Si6 0.745329 0.684755 0.414049
Si Si7 0.897866 0.689070 0.214009
Si Si8 0.846818 0.407170 0.654651
O O1 0.300435 0.374392 0.191194
O O2 0.377618 0.379233 0.289741
O O3 0.875424 0.353862 0.294416
O O4 0.000000 0.000000 0.500000
O O5 0.764473 0.709727 0.931227
O O6 0.241039 0.656066 0.961363
O O7 0.408246 0.813797 0.960792
O O8 0.854137 0.680784 0.048364
O O9 0.204411 0.048026 0.744808
O O10 0.692142 0.614354 0.217453
O O11 0.821944 0.876272 0.154377
O O12 0.372938 0.843434 0.171437
O O13 0.821630 0.199654 0.908588
O O14 0.500000 0.500000 0.500000
O O15 0.732195 0.588664 0.535765
O O16 0.012772 0.669530 0.369731
O O17 0.938731 0.509099 0.356307
#
# Coordination Sequence:
#
# PCOD9083176 Si02
#       8
#     2   2   2   2   2   2   2   2
#     4  10  20  36  56  82 114 144 175 226 293 345
#     4  10  19  34  54  78 107 143 185 224 268 325
#     4  10  19  34  52  72 103 143 186 224 272 312
#     4  10  22  36  57  83 113 147 183 231 273 345
#     4  11  21  34  51  77 112 154 192 225 267 333
#     4  11  23  35  48  69 107 157 198 243 267 308
#     4  11  23  33  53  80 110 154 194 227 272 335
#     4  11  23  34  50  72 107 153 200 232 274 318
#
# _framework density 23.372422
#
# number of rings (size 3 to 8) (size 9 to 14) (size 15 to 20)
#    0.000    1.500    3.750    3.000    5.250    0.000 
#    0.000    0.000    0.000    0.000    0.000    0.000 
#    0.000   24.000    0.000    0.000    0.000    0.000 
#
# Total GULP energy -89201.001624 kJ/mol
# GULP energy per Si atom -5575.062602 kJ/mol
# Density = 2.331922 g / cm^3
# Si number density = 23.372422 Si / 1000 Ang^3
#
#
#
# Elastic Constant Matrix: (Units=GPa)
#
#
# Indices 1 2 3 4 5 6 
#
# 1 159.3650 19.2755 48.2373 -8.5785 9.1380 23.9309
# 2 19.2755 48.3059 18.7485 -1.0936 6.0319 8.4902
# 3 48.2373 18.7485 141.7795 -18.5539 12.8634 17.1681
# 4 -8.5785 -1.0936 -18.5539 19.7204 6.8004 6.2778
# 5 9.1380 6.0319 12.8634 6.8004 41.8645 2.4312
# 6 23.9309 8.4902 17.1681 6.2778 2.4312 13.5358
#
#
#
# Elastic Compliance Matrix: (Units=1/GPa)
#
#
# Indices 1 2 3 4 5 6 
#
# 1 0.011729 0.001222 0.003199 0.020870 -0.005116 -0.034321
# 2 0.001222 0.024893 0.001369 0.012698 -0.004913 -0.024516
# 3 0.003199 0.001369 0.015346 0.031205 -0.008419 -0.038939
# 4 0.020870 0.012698 0.031205 0.147546 -0.031390 -0.147233
# 5 -0.005116 -0.004913 -0.008419 -0.031390 0.031556 0.031695
# 6 -0.034321 -0.024516 -0.038939 -0.147233 0.031695 0.261915
#
#
# Mechanical properties :
#
#
# Convention : Reuss Voigt Hill
#
# Bulk Modulus (GPa) = 15.73629 57.99700 36.86665
# Shear Modulus (GPa) = 9.94849 32.57009 21.25929
#
# Velocity S-wave (km/s) = 2.06537 3.73705 3.01921
# Velocity P-wave (km/s) = 3.52635 6.59461 5.28791
#
# Compressibility (1/GPa) = 0.06354739
#
# Stress axis : x y z
#
# Youngs Moduli (GPa) = 85.25547 40.17260 65.16182
#
# Poissons Ratio (x) = -0.04907 -0.20846
# Poissons Ratio (y) = -0.10415 -0.08919
# Poissons Ratio (z) = -0.27274 -0.05499
#
# Static dielectric constant tensor:
#      x y z
#    x 2.021500 0.007390 0.011030 
#    y 0.007390 1.922330 0.040990 
#    z 0.011030 0.040990 1.930500 
# 
# From -- ./inp_files/126677.got.cif
#   From: 2010.05.17/outbox.cif.g08.bks.cpg/sg2_64_cif.got.tgz:126677.got - 2010.06.03 11:33:40.
