data_PCOD9083765
_publ_section_title
;
Structure prediction by ZEFSAII (Michael W. Deem and Ramdas Pophale) SiO2 
 PCOD9083765
Probable space group: P -1
;
_chemical_formula_sum "Si O2"
_cell_formula_units_Z 16
_cell_length_a 14.001789
_cell_length_b 11.424621
_cell_length_c 13.976402
_cell_angle_alpha 32.187843
_cell_angle_beta 140.247404
_cell_angle_gamma 148.904832
_cell_volume 607.131607
_symmetry_space_group_name_H-M "P -1"
_symmetry_group_IT_number 2
_symmetry_cell_setting 'triclinic'
loop_
_space_group_symop_operation_xyz
x,y,z
-x,-y,-z
loop_
_atom_site_type_symbol
_atom_site_label
_atom_site_fract_x
_atom_site_fract_y
_atom_site_fract_z
Si Si1 0.849910 0.173018 0.465784
Si Si2 0.814583 0.058384 0.738563
Si Si3 0.206049 0.776182 0.891629
Si Si4 0.956871 0.817504 0.801963
Si Si5 0.551091 0.068914 0.837617
Si Si6 0.715372 0.367052 0.565145
Si Si7 0.336383 0.321229 0.837083
Si Si8 0.761801 0.562925 0.119473
O O1 0.841569 0.177965 0.571382
O O2 0.728997 0.276533 0.270913
O O3 0.060526 0.388415 0.436924
O O4 0.811034 0.880323 0.622301
O O5 0.689149 0.112215 0.666716
O O6 0.016863 0.241112 0.818590
O O7 0.741689 0.744122 0.903411
O O8 0.056519 0.821595 0.778837
O O9 0.356010 0.986490 0.785253
O O10 0.115353 0.465622 0.006277
O O11 0.314181 0.807839 0.050635
O O12 0.119202 0.060359 0.827232
O O13 0.640720 0.281424 0.673130
O O14 0.556452 0.813210 0.992895
O O15 0.616864 0.467231 0.357329
O O16 0.335946 0.439583 0.856810
#
# Coordination Sequence:
#
# PCOD9083765 Si02
#       8
#     2   2   2   2   2   2   2   2
#     4  10  18  29  48  82 112 134 167 218 258 304
#     4  10  16  25  45  79 114 136 166 208 254 302
#     4   9  20  38  55  75  99 142 180 226 255 311
#     4   9  18  34  57  75 104 138 174 217 274 295
#     4  10  20  35  57  76 104 137 181 213 266 305
#     4  10  17  28  50  82 108 136 170 215 257 311
#     4  10  17  31  52  85 107 135 166 219 258 308
#     4  10  16  24  46  80 112 133 169 205 254 304
#
# _framework density 26.353429999999999
#
# number of rings (size 3 to 8) (size 9 to 14) (size 15 to 20)
#    0.000    2.250    5.000    0.750    0.000    0.000 
#    0.000   12.500    0.000   10.500    0.000    0.000 
#    0.000    0.125    0.000    0.000    0.000    0.000 
#
# Total GULP energy -89629.791791 kJ/mol
# GULP energy per Si atom -5601.861987 kJ/mol
# Density = 2.629345 g / cm^3
# Si number density = 26.353430 Si / 1000 Ang^3
#
#
#
# Elastic Constant Matrix: (Units=GPa)
#
#
# Indices 1 2 3 4 5 6 
#
# 1 125.9164 25.8600 43.9078 6.2236 -29.4101 -0.5117
# 2 25.8600 48.7711 30.5830 -0.9201 4.2623 3.6594
# 3 43.9078 30.5830 140.1766 25.5216 -11.6640 -8.3022
# 4 6.2236 -0.9201 25.5216 29.7838 -2.6459 3.5331
# 5 -29.4101 4.2623 -11.6640 -2.6459 63.5339 -0.9819
# 6 -0.5117 3.6594 -8.3022 3.5331 -0.9819 29.6749
#
#
#
# Elastic Compliance Matrix: (Units=1/GPa)
#
#
# Indices 1 2 3 4 5 6 
#
# 1 0.010795 -0.005151 -0.001700 -0.000581 0.005015 0.000581
# 2 -0.005151 0.028773 -0.007025 0.008311 -0.005363 -0.006769
# 3 -0.001700 -0.007025 0.011494 -0.010213 0.001451 0.005317
# 4 -0.000581 0.008311 -0.010213 0.043697 -0.001023 -0.009129
# 5 0.005015 -0.005363 0.001451 -0.001023 0.018674 0.001894
# 6 0.000581 -0.006769 0.005317 -0.009129 0.001894 0.037180
#
#
# Mechanical properties :
#
#
# Convention : Reuss Voigt Hill
#
# Bulk Modulus (GPa) = 42.89686 57.28509 50.09097
# Shear Modulus (GPa) = 26.86235 38.89941 32.88088
#
# Velocity S-wave (km/s) = 3.19613 3.84613 3.53610
# Velocity P-wave (km/s) = 5.47112 6.44267 5.97667
#
# Compressibility (1/GPa) = 0.02331173
#
# Stress axis : x y z
#
# Youngs Moduli (GPa) = 92.63665 34.75444 87.00212
#
# Poissons Ratio (x) = 0.17901 0.14790
# Poissons Ratio (y) = 0.47714 0.61116
# Poissons Ratio (z) = 0.15748 0.24414
#
# Static dielectric constant tensor:
#      x y z
#    x 2.017210 0.020470 0.022480 
#    y 0.020470 2.186040 -0.027280 
#    z 0.022480 -0.027280 2.032380 
# 
# From -- ./inp_files/349592.got.cif
#   From: 2010.05.17/outbox.cif.g08.bks.cpg/sg2_175_cif.got.tgz:349592.got - 2010.06.03 11:33:40.
