data_PCOD9083588
_publ_section_title
;
Structure prediction by ZEFSAII (Michael W. Deem and Ramdas Pophale) SiO2 
 PCOD9083588
Probable space group: P -1
;
_chemical_formula_sum "Si O2"
_cell_formula_units_Z 16
_cell_length_a 8.928493
_cell_length_b 18.748381
_cell_length_c 12.033867
_cell_angle_alpha 56.594832
_cell_angle_beta 137.480164
_cell_angle_gamma 145.367431
_cell_volume 765.478922
_symmetry_space_group_name_H-M "P -1"
_symmetry_group_IT_number 2
_symmetry_cell_setting 'triclinic'
loop_
_space_group_symop_operation_xyz
x,y,z
-x,-y,-z
loop_
_atom_site_type_symbol
_atom_site_label
_atom_site_fract_x
_atom_site_fract_y
_atom_site_fract_z
Si Si1 0.500350 0.926296 0.969308
Si Si2 0.796661 0.556936 0.248897
Si Si3 0.157116 0.730988 0.112331
Si Si4 0.107872 0.232044 0.870967
Si Si5 0.741115 0.875938 0.807464
Si Si6 0.141779 0.123077 0.535274
Si Si7 0.507352 0.302729 0.383443
Si Si8 0.484036 0.977178 0.663823
O O1 0.218301 0.779891 0.979877
O O2 0.441814 0.944603 0.799441
O O3 0.871028 0.995219 0.107079
O O4 0.500000 0.000000 0.000000
O O5 0.553066 0.411584 0.269482
O O6 0.892636 0.589579 0.141353
O O7 0.703176 0.626496 0.176252
O O8 0.140585 0.631338 0.434941
O O9 0.067536 0.785835 0.095192
O O10 0.520866 0.804443 0.282161
O O11 0.816061 0.128200 0.714492
O O12 0.284218 0.195764 0.038005
O O13 0.610509 0.789829 0.702263
O O14 0.546899 0.907049 0.696851
O O15 0.257976 0.221817 0.418491
O O16 0.857231 0.073813 0.504176
O O17 0.000000 0.000000 0.500000
#
# Coordination Sequence:
#
# PCOD9083588 Si02
#       8
#     2   2   2   2   2   2   2   2
#     4  11  16  32  54  76 101 139 177 209 255 309
#     4   8  18  35  55  78 100 132 183 233 244 292
#     4   9  17  30  54  78  94 129 178 229 245 288
#     4   9  17  34  51  75 106 135 170 218 256 299
#     4  11  22  31  50  83 115 137 164 216 276 322
#     4  11  18  33  55  78 104 132 182 220 249 308
#     4  10  19  34  57  80 100 138 181 216 259 308
#     4  11  21  33  50  79 118 138 162 218 276 316
#
# _framework density 20.901947
#
# number of rings (size 3 to 8) (size 9 to 14) (size 15 to 20)
#    0.750    1.250    3.750    3.000    0.000    0.500 
#    0.000    6.875    0.000   11.250    0.000    0.000 
#    0.000    0.000    0.000    0.000    0.000    0.000 
#
# Total GULP energy -89230.174502 kJ/mol
# GULP energy per Si atom -5576.885906 kJ/mol
# Density = 2.085437 g / cm^3
# Si number density = 20.901947 Si / 1000 Ang^3
#
#
#
# Elastic Constant Matrix: (Units=GPa)
#
#
# Indices 1 2 3 4 5 6 
#
# 1 43.2584 16.1628 21.1701 -6.0062 9.6626 -6.3357
# 2 16.1628 104.6959 15.0695 -18.0191 -4.0897 8.5833
# 3 21.1701 15.0695 51.4648 1.2834 9.9196 1.4437
# 4 -6.0062 -18.0191 1.2834 33.3077 4.9680 -4.2796
# 5 9.6626 -4.0897 9.9196 4.9680 40.5576 -13.0958
# 6 -6.3357 8.5833 1.4437 -4.2796 -13.0958 25.9450
#
#
#
# Elastic Compliance Matrix: (Units=1/GPa)
#
#
# Indices 1 2 3 4 5 6 
#
# 1 0.033443 -0.003108 -0.012718 0.006493 -0.002894 0.009513
# 2 -0.003108 0.011559 -0.002301 0.005253 0.000797 -0.003186
# 3 -0.012718 -0.002301 0.026733 -0.004692 -0.005559 -0.007412
# 4 0.006493 0.005253 -0.004692 0.035206 -0.002714 0.004546
# 5 -0.002894 0.000797 -0.005559 -0.002714 0.031971 0.015029
# 6 0.009513 -0.003186 -0.007412 0.004546 0.015029 0.050668
#
#
# Mechanical properties :
#
#
# Convention : Reuss Voigt Hill
#
# Bulk Modulus (GPa) = 28.18428 33.80266 30.99347
# Shear Modulus (GPa) = 21.03840 29.76318 25.40079
#
# Velocity S-wave (km/s) = 3.17603 3.77761 3.48980
# Velocity P-wave (km/s) = 5.19257 5.93584 5.57661
#
# Compressibility (1/GPa) = 0.03548077
#
# Stress axis : x y z
#
# Youngs Moduli (GPa) = 29.90132 86.51287 37.40765
#
# Poissons Ratio (x) = 0.26886 0.47575
# Poissons Ratio (y) = 0.09293 0.08609
# Poissons Ratio (z) = 0.38028 0.19910
#
# Static dielectric constant tensor:
#      x y z
#    x 1.712800 0.024850 -0.020220 
#    y 0.024850 1.789190 -0.043410 
#    z -0.020220 -0.043410 1.876870 
# 
# From -- ./inp_files/507029.got.cif
#   From: 2010.05.17/outbox.cif.g08.bks.cpg/sg2_254_cif.got.tgz:507029.got - 2010.06.03 11:33:40.
