data_PCOD9083791
_publ_section_title
;
Structure prediction by ZEFSAII (Michael W. Deem and Ramdas Pophale) SiO2 
 PCOD9083791
Probable space group: P -1
;
_chemical_formula_sum "Si O2"
_cell_formula_units_Z 14
_cell_length_a 14.184542
_cell_length_b 24.772572
_cell_length_c 13.577616
_cell_angle_alpha 21.542502
_cell_angle_beta 150.656156
_cell_angle_gamma 160.396175
_cell_volume 587.379958
_symmetry_space_group_name_H-M "P -1"
_symmetry_group_IT_number 2
_symmetry_cell_setting 'triclinic'
loop_
_space_group_symop_operation_xyz
x,y,z
-x,-y,-z
loop_
_atom_site_type_symbol
_atom_site_label
_atom_site_fract_x
_atom_site_fract_y
_atom_site_fract_z
Si Si1 0.690853 0.307879 0.698132
Si Si2 0.694157 0.961771 0.534047
Si Si3 0.657130 0.729699 0.710086
Si Si4 0.221728 0.649963 0.076400
Si Si5 0.120927 0.967960 0.000047
Si Si6 0.768457 0.204645 0.458605
Si Si7 0.147251 0.835388 0.044399
O O1 0.500045 0.319529 0.449633
O O2 0.822039 0.424281 0.722482
O O3 0.471716 0.060983 0.954001
O O4 0.885015 0.338249 0.742799
O O5 0.915798 0.987612 0.754073
O O6 0.645373 0.854289 0.567330
O O7 0.399587 0.805609 0.588765
O O8 0.805368 0.189743 0.232101
O O9 0.977051 0.853139 0.790151
O O10 0.500000 0.500000 0.000000
O O11 0.548521 0.800048 0.094042
O O12 0.962874 0.405952 0.219192
O O13 0.068479 0.824528 0.103773
O O14 0.081613 0.854891 0.255901
O O15 0.500000 0.000000 0.500000
#
# Coordination Sequence:
#
# PCOD9083791 Si02
#       7
#     2   2   2   2   2   2   2
#     4  10  19  34  58  83 118 165 204 236 291 357
#     4  10  23  44  61  94 132 161 205 257 304 367
#     4  11  23  34  55  92 128 163 197 242 294 359
#     4  10  23  40  66  90 124 167 207 255 309 366
#     4   9  21  42  64  90 130 159 202 257 306 369
#     4  11  25  44  67  93 119 158 211 265 321 372
#     4   9  19  36  56  82 121 162 199 240 289 359
#
# _framework density 23.834658000000001
#
# number of rings (size 3 to 8) (size 9 to 14) (size 15 to 20)
#    0.000    2.000    0.000    3.857    6.000    6.857 
#    0.000    1.429    0.000    0.000    0.000    0.000 
#    0.000    0.000    0.000    0.000    0.000    0.000 
#
# Total GULP energy -78176.638110 kJ/mol
# GULP energy per Si atom -5584.045579 kJ/mol
# Density = 2.378041 g / cm^3
# Si number density = 23.834658 Si / 1000 Ang^3
#
#
#
# Elastic Constant Matrix: (Units=GPa)
#
#
# Indices 1 2 3 4 5 6 
#
# 1 33.1823 4.6555 18.6872 1.4985 -11.9794 5.6705
# 2 4.6555 82.9303 63.6526 -3.3029 1.3986 23.7422
# 3 18.6872 63.6526 154.8689 10.8713 -27.6439 9.2914
# 4 1.4985 -3.3029 10.8713 55.7276 0.8567 -2.7068
# 5 -11.9794 1.3986 -27.6439 0.8567 25.5656 3.0086
# 6 5.6705 23.7422 9.2914 -2.7068 3.0086 25.1863
#
#
#
# Elastic Compliance Matrix: (Units=1/GPa)
#
#
# Indices 1 2 3 4 5 6 
#
# 1 0.039560 0.002300 -0.001582 -0.001523 0.018262 -0.012836
# 2 0.002300 0.028105 -0.013030 0.003344 -0.012263 -0.020380
# 3 -0.001582 -0.013030 0.014706 -0.003593 0.015407 0.004987
# 4 -0.001523 0.003344 -0.003593 0.019030 -0.005564 0.001226
# 5 0.018262 -0.012263 0.015407 -0.005564 0.065979 -0.006715
# 6 -0.012836 -0.020380 0.004987 0.001226 -0.006715 0.060900
#
#
# Mechanical properties :
#
#
# Convention : Reuss Voigt Hill
#
# Bulk Modulus (GPa) = 17.31680 49.44133 33.37907
# Shear Modulus (GPa) = 18.37200 33.56165 25.96683
#
# Velocity S-wave (km/s) = 2.77936 3.75654 3.30427
# Velocity P-wave (km/s) = 4.19296 6.29317 5.34719
#
# Compressibility (1/GPa) = 0.05774739
#
# Stress axis : x y z
#
# Youngs Moduli (GPa) = 25.27794 35.58128 67.99734
#
# Poissons Ratio (x) = -0.08182 0.10756
# Poissons Ratio (y) = -0.05813 0.88598
# Poissons Ratio (z) = 0.03999 0.46361
#
# Static dielectric constant tensor:
#      x y z
#    x 2.059270 -0.085500 0.005370 
#    y -0.085500 2.220490 -0.156480 
#    z 0.005370 -0.156480 1.975780 
# 
# From -- ./inp_files/535626.got.cif
#   From: 2010.05.17/outbox.cif.g08.bks.cpg/sg2_268_cif.got.tgz:535626.got - 2010.06.03 11:33:40.
