data_PCOD9083027
_publ_section_title
;
Structure prediction by ZEFSAII (Michael W. Deem and Ramdas Pophale) SiO2 
 PCOD9083027
Probable space group: P -1
;
_chemical_formula_sum "Si O2"
_cell_formula_units_Z 16
_cell_length_a 10.306522
_cell_length_b 21.611879
_cell_length_c 17.765727
_cell_angle_alpha 157.312916
_cell_angle_beta 30.979083
_cell_angle_gamma 148.945024
_cell_volume 741.411672
_symmetry_space_group_name_H-M "P -1"
_symmetry_group_IT_number 2
_symmetry_cell_setting 'triclinic'
loop_
_space_group_symop_operation_xyz
x,y,z
-x,-y,-z
loop_
_atom_site_type_symbol
_atom_site_label
_atom_site_fract_x
_atom_site_fract_y
_atom_site_fract_z
Si Si1 0.892727 0.213209 0.053029
Si Si2 0.115216 0.350275 0.255412
Si Si3 0.695939 0.819112 0.728627
Si Si4 0.878315 0.674961 0.078474
Si Si5 0.270019 0.990092 0.311683
Si Si6 0.368492 0.350232 0.679760
Si Si7 0.846538 0.566093 0.262112
Si Si8 0.642844 0.784457 0.892441
O O1 0.621592 0.251957 0.211296
O O2 0.976597 0.257185 0.146004
O O3 0.133731 0.324617 0.004180
O O4 0.818694 0.011467 0.855134
O O5 0.421355 0.463463 0.215212
O O6 0.124901 0.228143 0.182228
O O7 0.000000 0.500000 0.500000
O O8 0.825828 0.703278 0.486795
O O9 0.732218 0.826264 0.808710
O O10 0.665547 0.696755 0.267477
O O11 0.133802 0.846466 0.156475
O O12 0.939006 0.515952 0.907018
O O13 0.423487 0.185141 0.431904
O O14 0.486949 0.907692 0.141955
O O15 0.000000 0.000000 0.500000
O O16 0.132759 0.361419 0.752533
O O17 0.572646 0.406064 0.220105
#
# Coordination Sequence:
#
# PCOD9083027 Si02
#       8
#     2   2   2   2   2   2   2   2
#     4  11  23  39  59  88 122 158 205 250 307 357
#     4  11  26  41  60  88 129 163 201 245 311 373
#     4  11  22  37  66  89 121 155 208 259 303 352
#     4  10  20  36  62  90 118 159 204 255 302 352
#     4   9  18  36  63  92 119 157 205 251 296 354
#     4  10  21  38  60  86 125 161 199 246 309 362
#     4  10  19  33  60  94 119 150 204 256 302 354
#     4  10  21  38  62  92 123 161 201 253 301 367
#
# _framework density 21.580452999999999
#
# number of rings (size 3 to 8) (size 9 to 14) (size 15 to 20)
#    0.000    1.750    2.500    3.000    5.250    2.000 
#    0.000    0.000    0.000    3.750    0.000    0.000 
#    0.000    0.000    0.000    0.000    0.000    0.000 
#
# Total GULP energy -89084.995049 kJ/mol
# GULP energy per Si atom -5567.812191 kJ/mol
# Density = 2.153134 g / cm^3
# Si number density = 21.580453 Si / 1000 Ang^3
#
#
#
# Elastic Constant Matrix: (Units=GPa)
#
#
# Indices 1 2 3 4 5 6 
#
# 1 118.1859 18.6395 37.9706 -6.7398 -4.6446 -33.5537
# 2 18.6395 51.9380 -0.7398 -1.0763 4.9488 -21.2684
# 3 37.9706 -0.7398 112.5538 9.5391 0.4648 -4.8991
# 4 -6.7398 -1.0763 9.5391 28.9387 -2.9827 5.1139
# 5 -4.6446 4.9488 0.4648 -2.9827 17.8001 6.6462
# 6 -33.5537 -21.2684 -4.8991 5.1139 6.6462 28.7279
#
#
#
# Elastic Compliance Matrix: (Units=1/GPa)
#
#
# Indices 1 2 3 4 5 6 
#
# 1 0.014775 0.003033 -0.004190 0.001075 -0.003986 0.019519
# 2 0.003033 0.035503 0.001560 -0.007527 -0.024209 0.037033
# 3 -0.004190 0.001560 0.010683 -0.004585 -0.002368 -0.000553
# 4 0.001075 -0.007527 -0.004585 0.040392 0.015159 -0.015797
# 5 -0.003986 -0.024209 -0.002368 0.015159 0.081063 -0.044435
# 6 0.019519 0.037033 -0.000553 -0.015797 -0.044435 0.098022
#
#
# Mechanical properties :
#
#
# Convention : Reuss Voigt Hill
#
# Bulk Modulus (GPa) = 16.18977 43.82426 30.00702
# Shear Modulus (GPa) = 16.65448 30.21383 23.43415
#
# Velocity S-wave (km/s) = 2.78103 3.74579 3.29887
# Velocity P-wave (km/s) = 4.22262 6.24975 5.33338
#
# Compressibility (1/GPa) = 0.06176741
#
# Stress axis : x y z
#
# Youngs Moduli (GPa) = 67.68156 28.16651 93.61002
#
# Poissons Ratio (x) = -0.08542 0.39218
# Poissons Ratio (y) = -0.20526 -0.14604
# Poissons Ratio (z) = 0.28356 -0.04394
#
# Static dielectric constant tensor:
#      x y z
#    x 1.865170 0.042020 -0.046070 
#    y 0.042020 1.932700 -0.049770 
#    z -0.046070 -0.049770 1.834720 
# 
# From -- ./inp_files/507326.got.cif
#   From: 2010.05.17/outbox.cif.g08.bks.cpg/sg2_254_cif.got.tgz:507326.got - 2010.06.03 11:33:40.
