data_PCOD9083622
_publ_section_title
;
Structure prediction by ZEFSAII (Michael W. Deem and Ramdas Pophale) SiO2 
 PCOD9083622
Probable space group: P -1
;
_chemical_formula_sum "Si O2"
_cell_formula_units_Z 13
_cell_length_a 8.305754
_cell_length_b 8.283270
_cell_length_c 11.801271
_cell_angle_alpha 127.346638
_cell_angle_beta 100.244050
_cell_angle_gamma 48.879597
_cell_volume 451.886604
_symmetry_space_group_name_H-M "P -1"
_symmetry_group_IT_number 2
_symmetry_cell_setting 'triclinic'
loop_
_space_group_symop_operation_xyz
x,y,z
-x,-y,-z
loop_
_atom_site_type_symbol
_atom_site_label
_atom_site_fract_x
_atom_site_fract_y
_atom_site_fract_z
Si Si1 0.714974 0.119035 0.408884
Si Si2 0.393952 0.381623 0.053706
Si Si3 0.500000 0.000000 0.500000
Si Si4 0.914018 0.933859 0.123846
Si Si5 0.194322 0.539990 0.329472
Si Si6 0.491867 0.764214 0.231803
Si Si7 0.982260 0.323193 0.216370
O O1 0.729005 0.060558 0.251659
O O2 0.706326 0.365077 0.542451
O O3 0.526704 0.150847 0.463095
O O4 0.968475 0.829014 0.361079
O O5 0.358174 0.337910 0.156620
O O6 0.496421 0.518824 0.136009
O O7 0.518688 0.172708 0.873292
O O8 0.145025 0.629833 0.070408
O O9 0.319961 0.016034 0.402543
O O10 0.955035 0.139936 0.204219
O O11 0.895618 0.856797 0.962949
O O12 0.106816 0.408943 0.316712
O O13 0.721289 0.630705 0.278456
#
# Coordination Sequence:
#
# PCOD9083622 Si02
#       7
#     2   2   1   2   2   2   2
#     4  10  21  34  54  83 113 145 185 227 274 328
#     4   9  19  36  57  81 108 144 188 228 272 325
#     4  12  20  34  54  86 112 144 178 242 266 328
#     4   9  21  37  59  83 112 146 186 228 272 331
#     4  10  19  34  57  82 111 143 190 228 271 326
#     4  10  20  33  57  80 112 143 183 227 274 321
#     4  10  20  37  60  82 112 146 185 228 276 324
#
# _framework density 28.768277000000001
#
# number of rings (size 3 to 8) (size 9 to 14) (size 15 to 20)
#    0.000    2.154    3.077    0.000    2.154    2.462 
#    0.000    0.769    3.385    3.692    0.000    0.000 
#    0.000    0.000    0.000    0.000    0.000    0.000 
#
# Total GULP energy -72669.693737 kJ/mol
# GULP energy per Si atom -5589.976441 kJ/mol
# Density = 2.870280 g / cm^3
# Si number density = 28.768277 Si / 1000 Ang^3
#
#
#
# Elastic Constant Matrix: (Units=GPa)
#
#
# Indices 1 2 3 4 5 6 
#
# 1 120.7814 22.5035 61.4047 -8.1836 1.4052 40.3083
# 2 22.5035 91.6735 39.4028 -2.1742 -7.3834 -0.7281
# 3 61.4047 39.4028 179.4074 -16.9444 -15.4235 21.6621
# 4 -8.1836 -2.1742 -16.9444 54.3430 3.0197 -6.6886
# 5 1.4052 -7.3834 -15.4235 3.0197 52.5798 -0.3516
# 6 40.3083 -0.7281 21.6621 -6.6886 -0.3516 47.6571
#
#
#
# Elastic Compliance Matrix: (Units=1/GPa)
#
#
# Indices 1 2 3 4 5 6 
#
# 1 0.013713 -0.002243 -0.003121 -0.000167 -0.001656 -0.010249
# 2 -0.002243 0.012556 -0.002284 -0.000232 0.001187 0.003104
# 3 -0.003121 -0.002284 0.007527 0.001610 0.001874 -0.000576
# 4 -0.000167 -0.000232 0.001610 0.019162 -0.000642 0.002091
# 5 -0.001656 0.001187 0.001874 -0.000642 0.019820 0.000623
# 6 -0.010249 0.003104 -0.000576 0.002091 0.000623 0.030259
#
#
# Mechanical properties :
#
#
# Convention : Reuss Voigt Hill
#
# Bulk Modulus (GPa) = 54.06254 70.94269 62.50261
# Shear Modulus (GPa) = 40.16041 48.81941 44.48991
#
# Velocity S-wave (km/s) = 3.74036 4.12392 3.93681
# Velocity P-wave (km/s) = 6.12265 6.88398 6.51445
#
# Compressibility (1/GPa) = 0.01849710
#
# Stress axis : x y z
#
# Youngs Moduli (GPa) = 72.92523 79.64604 132.86005
#
# Poissons Ratio (x) = 0.17867 0.41470
# Poissons Ratio (y) = 0.16359 0.30350
# Poissons Ratio (z) = 0.22762 0.18194
#
# Static dielectric constant tensor:
#      x y z
#    x 0.947100 1.140010 3.560630 
#    y 1.140010 1.075770 -3.472250 
#    z 3.560630 -3.472250 -8.009190 
# 
# From -- ./inp_files/150388.got.cif
#   From: 2010.05.17/outbox.cif.g08.bks.cpg/sg2_76_cif.got.tgz:150388.got - 2010.06.03 11:33:40.
