data_PCOD9083939
_publ_section_title
;
Structure prediction by ZEFSAII (Michael W. Deem and Ramdas Pophale) SiO2 
 PCOD9083939
Probable space group: P -1
;
_chemical_formula_sum "Si O2"
_cell_formula_units_Z 16
_cell_length_a 8.188732
_cell_length_b 9.311890
_cell_length_c 11.468101
_cell_angle_alpha 120.220445
_cell_angle_beta 83.927533
_cell_angle_gamma 84.998663
_cell_volume 741.285273
_symmetry_space_group_name_H-M "P -1"
_symmetry_group_IT_number 2
_symmetry_cell_setting 'triclinic'
loop_
_space_group_symop_operation_xyz
x,y,z
-x,-y,-z
loop_
_atom_site_type_symbol
_atom_site_label
_atom_site_fract_x
_atom_site_fract_y
_atom_site_fract_z
Si Si1 0.647888 0.602960 0.008165
Si Si2 0.738253 0.992425 0.907908
Si Si3 0.340771 0.437926 0.629603
Si Si4 0.859514 0.659877 0.830066
Si Si5 0.011603 0.362146 0.545634
Si Si6 0.830279 0.353734 0.050572
Si Si7 0.312710 0.728156 0.551207
Si Si8 0.613324 0.978231 0.172254
O O1 0.677451 0.648351 0.889793
O O2 0.500000 0.500000 0.000000
O O3 0.804360 0.476421 0.993218
O O4 0.630189 0.787570 0.140537
O O5 0.858245 0.814750 0.804315
O O6 0.572494 0.974040 0.843786
O O7 0.718503 0.990711 0.050091
O O8 0.777961 0.175005 0.951251
O O9 0.205456 0.318631 0.551316
O O10 0.280126 0.539816 0.794602
O O11 0.324773 0.582510 0.590137
O O12 0.530178 0.339362 0.573082
O O13 0.929088 0.478345 0.703784
O O14 0.984581 0.692244 0.934858
O O15 0.000000 0.500000 0.500000
O O16 0.873683 0.246804 0.478126
O O17 0.343651 0.895073 0.682858
#
# Coordination Sequence:
#
# PCOD9083939 Si02
#       8
#     2   2   2   2   2   2   2   2
#     4  11  23  39  60  82 120 164 194 237 294 359
#     4  10  20  34  59  89 118 146 194 256 294 348
#     4   9  20  33  59  88 115 153 197 241 298 352
#     4  10  23  37  61  88 119 152 196 244 304 347
#     4   9  20  36  56  91 120 147 195 248 295 357
#     4  11  20  40  59  86 121 152 197 242 298 361
#     4  10  19  34  59  84 119 154 191 247 303 339
#     4  10  21  36  55  91 117 150 203 242 296 351
#
# _framework density 21.584133000000001
#
# number of rings (size 3 to 8) (size 9 to 14) (size 15 to 20)
#    0.000    2.000    2.500    0.750    7.000    0.000 
#    0.000    0.625    0.000    1.500    0.000    0.000 
#    0.000    0.000    0.000    0.000    0.000    0.000 
#
# Total GULP energy -89154.748965 kJ/mol
# GULP energy per Si atom -5572.171810 kJ/mol
# Density = 2.153501 g / cm^3
# Si number density = 21.584133 Si / 1000 Ang^3
#
#
#
# Elastic Constant Matrix: (Units=GPa)
#
#
# Indices 1 2 3 4 5 6 
#
# 1 100.4269 24.3681 37.0713 16.6951 18.2892 11.3661
# 2 24.3681 82.5930 12.1290 29.9443 6.3530 -5.4765
# 3 37.0713 12.1290 54.9070 18.8932 21.2099 19.0033
# 4 16.6951 29.9443 18.8932 26.9635 9.9570 1.9672
# 5 18.2892 6.3530 21.2099 9.9570 30.1539 -1.4897
# 6 11.3661 -5.4765 19.0033 1.9672 -1.4897 23.6508
#
#
#
# Elastic Compliance Matrix: (Units=1/GPa)
#
#
# Indices 1 2 3 4 5 6 
#
# 1 0.014079 -0.003617 -0.007328 0.001813 -0.003324 -0.002076
# 2 -0.003617 0.022802 0.001679 -0.026892 0.005496 0.008252
# 3 -0.007328 0.001679 0.056905 -0.022910 -0.030437 -0.041824
# 4 0.001813 -0.026892 -0.022910 0.084153 -0.006916 0.003875
# 5 -0.003324 0.005496 -0.030437 -0.006916 0.059277 0.031635
# 6 -0.002076 0.008252 -0.041824 0.003875 0.031635 0.080466
#
#
# Mechanical properties :
#
#
# Convention : Reuss Voigt Hill
#
# Bulk Modulus (GPa) = 13.28821 42.78486 28.03654
# Shear Modulus (GPa) = 13.83893 27.11087 20.47490
#
# Velocity S-wave (km/s) = 2.53486 3.54793 3.08329
# Velocity P-wave (km/s) = 3.83891 6.05386 5.06885
#
# Compressibility (1/GPa) = 0.07525467
#
# Stress axis : x y z
#
# Youngs Moduli (GPa) = 71.02726 43.85560 17.57304
#
# Poissons Ratio (x) = 0.15863 0.12878
# Poissons Ratio (y) = 0.25691 -0.02951
# Poissons Ratio (z) = 0.52050 -0.07365
#
# Static dielectric constant tensor:
#      x y z
#    x 1.886850 0.005960 -0.042090 
#    y 0.005960 1.751960 -0.002460 
#    z -0.042090 -0.002460 1.893030 
# 
# From -- ./inp_files/262632.got.cif
#   From: 2010.05.17/outbox.cif.g08.bks.cpg/sg2_132_cif.got.tgz:262632.got - 2010.06.03 11:33:40.
