data_PCOD9083239
_publ_section_title
;
Structure prediction by ZEFSAII (Michael W. Deem and Ramdas Pophale) SiO2 
 PCOD9083239
Probable space group: P -1
;
_chemical_formula_sum "Si O2"
_cell_formula_units_Z 14
_cell_length_a 9.681862
_cell_length_b 17.259528
_cell_length_c 11.544948
_cell_angle_alpha 29.356716
_cell_angle_beta 138.787730
_cell_angle_gamma 143.662132
_cell_volume 551.997230
_symmetry_space_group_name_H-M "P -1"
_symmetry_group_IT_number 2
_symmetry_cell_setting 'triclinic'
loop_
_space_group_symop_operation_xyz
x,y,z
-x,-y,-z
loop_
_atom_site_type_symbol
_atom_site_label
_atom_site_fract_x
_atom_site_fract_y
_atom_site_fract_z
Si Si1 0.517771 0.183972 0.684629
Si Si2 0.864066 0.727141 0.450255
Si Si3 0.568060 0.175420 0.978321
Si Si4 0.648818 0.613047 0.839587
Si Si5 0.111067 0.199946 0.864717
Si Si6 0.671643 0.407208 0.930384
Si Si7 0.995561 0.938930 0.778436
O O1 0.667440 0.230495 0.838001
O O2 0.519694 0.348649 0.405311
O O3 0.248595 0.063776 0.718157
O O4 0.537619 0.037359 0.807262
O O5 0.640081 0.765255 0.231611
O O6 0.937876 0.696816 0.407656
O O7 0.760477 0.565182 0.684917
O O8 0.058376 0.908243 0.396986
O O9 0.717802 0.264969 0.070385
O O10 0.768017 0.510869 0.976603
O O11 0.830844 0.806368 0.750720
O O12 0.500000 0.500000 0.000000
O O13 0.394411 0.294088 0.935598
O O14 0.016736 0.179913 0.961880
O O15 0.000000 0.000000 0.000000
#
# Coordination Sequence:
#
# PCOD9083239 Si02
#       7
#     2   2   2   2   2   2   2
#     4  10  21  36  58  82 110 148 174 228 285 321
#     4   9  18  32  62  83 105 142 185 234 265 320
#     4   9  18  35  59  83 108 139 183 227 280 324
#     4  12  23  35  57  81 111 148 191 222 262 332
#     4   9  17  29  51  83 106 133 179 233 268 302
#     4  11  19  34  58  85 104 146 188 226 266 318
#     4  10  19  34  53  81 113 142 181 223 273 330
#
# _framework density 25.362448000000001
#
# number of rings (size 3 to 8) (size 9 to 14) (size 15 to 20)
#    0.000    2.000    4.286    3.000    0.000    0.000 
#    0.000    1.429    0.000   28.286    0.000    0.000 
#    0.000    0.000    0.000    0.000    0.000    0.000 
#
# Total GULP energy -77975.613053 kJ/mol
# GULP energy per Si atom -5569.686647 kJ/mol
# Density = 2.530472 g / cm^3
# Si number density = 25.362448 Si / 1000 Ang^3
#
#
#
# Elastic Constant Matrix: (Units=GPa)
#
#
# Indices 1 2 3 4 5 6 
#
# 1 84.8773 37.8265 36.7521 4.9741 -33.0997 -21.4852
# 2 37.8265 128.1159 14.0063 -17.4331 -0.8490 -30.3119
# 3 36.7521 14.0063 86.7713 6.7702 -29.5148 -7.4831
# 4 4.9741 -17.4331 6.7702 33.5043 -3.4932 -7.4801
# 5 -33.0997 -0.8490 -29.5148 -3.4932 39.9697 -5.8015
# 6 -21.4852 -30.3119 -7.4831 -7.4801 -5.8015 52.0139
#
#
#
# Elastic Compliance Matrix: (Units=1/GPa)
#
#
# Indices 1 2 3 4 5 6 
#
# 1 0.025507 -0.005254 -0.001956 -0.001902 0.020741 0.009233
# 2 -0.005254 0.011783 -0.000979 0.007947 -0.003356 0.005324
# 3 -0.001956 -0.000979 0.016432 -0.002016 0.010590 0.001877
# 4 -0.001902 0.007947 -0.002016 0.036861 0.001639 0.009039
# 5 0.020741 -0.003356 0.010590 0.001639 0.052146 0.014187
# 6 0.009233 0.005324 0.001877 0.009039 0.014187 0.029294
#
#
# Mechanical properties :
#
#
# Convention : Reuss Voigt Hill
#
# Bulk Modulus (GPa) = 26.77840 52.99272 39.88556
# Shear Modulus (GPa) = 24.89433 39.17620 32.03527
#
# Velocity S-wave (km/s) = 3.13636 3.93447 3.55787
# Velocity P-wave (km/s) = 4.86794 6.44823 5.71299
#
# Compressibility (1/GPa) = 0.03734354
#
# Stress axis : x y z
#
# Youngs Moduli (GPa) = 39.20467 84.87154 60.85603
#
# Poissons Ratio (x) = 0.44592 0.11903
# Poissons Ratio (y) = 0.20598 0.05959
# Poissons Ratio (z) = 0.07668 0.08310
#
# Static dielectric constant tensor:
#      x y z
#    x 2.208990 -0.056000 0.080700 
#    y -0.056000 2.144880 0.043960 
#    z 0.080700 0.043960 2.052770 
# 
# From -- ./inp_files/431249.got.cif
#   From: 2010.05.17/outbox.cif.g08.bks.cpg/sg2_216_cif.got.tgz:431249.got - 2010.06.03 11:33:40.
