data_PCOD9083999
_publ_section_title
;
Structure prediction by ZEFSAII (Michael W. Deem and Ramdas Pophale) SiO2 
 PCOD9083999
Probable space group: P -1
;
_chemical_formula_sum "Si O2"
_cell_formula_units_Z 16
_cell_length_a 23.037846
_cell_length_b 11.297877
_cell_length_c 16.877055
_cell_angle_alpha 145.986571
_cell_angle_beta 159.735924
_cell_angle_gamma 30.302224
_cell_volume 763.111154
_symmetry_space_group_name_H-M "P -1"
_symmetry_group_IT_number 2
_symmetry_cell_setting 'triclinic'
loop_
_space_group_symop_operation_xyz
x,y,z
-x,-y,-z
loop_
_atom_site_type_symbol
_atom_site_label
_atom_site_fract_x
_atom_site_fract_y
_atom_site_fract_z
Si Si1 0.673233 0.349298 0.583565
Si Si2 0.196105 0.820453 0.067196
Si Si3 0.163609 0.641933 0.692514
Si Si4 0.189325 0.509885 0.481104
Si Si5 0.600541 0.132021 0.789457
Si Si6 0.089393 0.661328 0.980148
Si Si7 0.804607 0.562579 0.737310
Si Si8 0.860876 0.808001 0.524969
O O1 0.500000 0.500000 0.500000
O O2 0.690000 0.451543 0.577976
O O3 0.710233 0.078419 0.482047
O O4 0.843063 0.358453 0.855907
O O5 0.241447 0.658469 0.111893
O O6 0.035282 0.783836 0.791436
O O7 0.362578 0.798302 0.212873
O O8 0.091413 0.085875 0.112883
O O9 0.192262 0.659699 0.644926
O O10 0.217187 0.372185 0.642111
O O11 0.956521 0.758709 0.532671
O O12 0.284358 0.762142 0.952573
O O13 0.382147 0.269505 0.605032
O O14 0.175705 0.538308 0.383543
O O15 0.990573 0.512888 0.245565
O O16 0.693802 0.848956 0.754990
O O17 0.000000 0.500000 0.000000
#
# Coordination Sequence:
#
# PCOD9083999 Si02
#       8
#     2   2   2   2   2   2   2   2
#     4  11  25  40  64  93 128 171 213 265 319 385
#     4   9  17  33  59  89 118 157 203 268 308 358
#     4  10  21  40  66  96 129 169 209 269 320 383
#     4  12  23  39  64  97 125 171 218 267 323 370
#     4  11  24  38  64  99 132 161 214 277 321 371
#     4  10  19  34  59  88 124 159 213 255 316 376
#     4  12  24  43  62  93 136 170 211 267 327 386
#     4   9  19  40  65  91 123 167 214 257 319 379
#
# _framework density 20.966801
#
# number of rings (size 3 to 8) (size 9 to 14) (size 15 to 20)
#    0.000    1.500    3.750    2.250    3.500    0.000 
#    0.000    2.500    0.000    1.500    0.000    0.000 
#    0.000    0.000    0.000    0.000    0.000    0.000 
#
# Total GULP energy -89073.614200 kJ/mol
# GULP energy per Si atom -5567.100888 kJ/mol
# Density = 2.091908 g / cm^3
# Si number density = 20.966801 Si / 1000 Ang^3
#
#
#
# Elastic Constant Matrix: (Units=GPa)
#
#
# Indices 1 2 3 4 5 6 
#
# 1 139.5022 44.8179 30.0901 -3.8354 -19.3797 -4.6008
# 2 44.8179 66.7306 19.3307 11.3056 4.0019 -6.3250
# 3 30.0901 19.3307 66.2096 15.2093 -3.7911 5.6338
# 4 -3.8354 11.3056 15.2093 22.6459 -6.3310 0.8363
# 5 -19.3797 4.0019 -3.7911 -6.3310 28.0488 3.1066
# 6 -4.6008 -6.3250 5.6338 0.8363 3.1066 25.3988
#
#
#
# Elastic Compliance Matrix: (Units=1/GPa)
#
#
# Indices 1 2 3 4 5 6 
#
# 1 0.014964 -0.012204 -0.006171 0.017088 0.015257 -0.001389
# 2 -0.012204 0.028596 0.000574 -0.022127 -0.018287 0.007749
# 3 -0.006171 0.000574 0.021800 -0.017128 -0.004749 -0.004666
# 4 0.017088 -0.022127 -0.017128 0.078426 0.030902 -0.004978
# 5 0.015257 -0.018287 -0.004749 0.030902 0.056090 -0.008615
# 6 -0.001389 0.007749 -0.004666 -0.004978 -0.008615 0.043303
#
#
# Mechanical properties :
#
#
# Convention : Reuss Voigt Hill
#
# Bulk Modulus (GPa) = 33.60500 51.21332 42.40916
# Shear Modulus (GPa) = 17.31903 27.09892 22.20898
#
# Velocity S-wave (km/s) = 2.87718 3.59899 3.25814
# Velocity P-wave (km/s) = 5.20577 6.46137 5.86725
#
# Compressibility (1/GPa) = 0.02975748
#
# Stress axis : x y z
#
# Youngs Moduli (GPa) = 66.82816 34.97008 45.87091
#
# Poissons Ratio (x) = 0.42678 0.28307
# Poissons Ratio (y) = 0.81558 -0.02633
# Poissons Ratio (z) = 0.41240 -0.02007
#
# Static dielectric constant tensor:
#      x y z
#    x 1.817450 0.012530 -0.003230 
#    y 0.012530 1.747040 0.007930 
#    z -0.003230 0.007930 1.778550 
# 
# From -- ./inp_files/579258.got.cif
#   From: 2010.05.17/outbox.cif.g08.bks.cpg/sg2_290_cif.got.tgz:579258.got - 2010.06.03 11:33:40.
