data_PCOD9083352
_publ_section_title
;
Structure prediction by ZEFSAII (Michael W. Deem and Ramdas Pophale) SiO2 
 PCOD9083352
Probable space group: P -1
;
_chemical_formula_sum "Si O2"
_cell_formula_units_Z 16
_cell_length_a 11.410414
_cell_length_b 13.477160
_cell_length_c 15.110923
_cell_angle_alpha 49.181189
_cell_angle_beta 137.797219
_cell_angle_gamma 148.207665
_cell_volume 820.500567
_symmetry_space_group_name_H-M "P -1"
_symmetry_group_IT_number 2
_symmetry_cell_setting 'triclinic'
loop_
_space_group_symop_operation_xyz
x,y,z
-x,-y,-z
loop_
_atom_site_type_symbol
_atom_site_label
_atom_site_fract_x
_atom_site_fract_y
_atom_site_fract_z
Si Si1 0.919673 0.166298 0.844881
Si Si2 0.093305 0.231053 0.371372
Si Si3 0.886433 0.608334 0.470688
Si Si4 0.875149 0.979930 0.625850
Si Si5 0.394364 0.607661 0.375471
Si Si6 0.811224 0.855421 0.859462
Si Si7 0.564258 0.953628 0.329336
Si Si8 0.761761 0.442769 0.303453
O O1 0.623564 0.030712 0.769296
O O2 0.045531 0.360612 0.756970
O O3 0.944326 0.054878 0.859652
O O4 0.053089 0.196976 0.992545
O O5 0.232448 0.444353 0.306604
O O6 0.316741 0.284424 0.522885
O O7 0.040753 0.093258 0.348739
O O8 0.837306 0.124745 0.340847
O O9 0.728494 0.493819 0.538100
O O10 0.762896 0.493760 0.376382
O O11 0.950395 0.797458 0.393367
O O12 0.135313 0.650518 0.589435
O O13 0.827422 0.886047 0.746592
O O14 0.629901 0.911229 0.481319
O O15 0.412829 0.772786 0.286174
O O16 0.516155 0.693437 0.810952
#
# Coordination Sequence:
#
# PCOD9083352 Si02
#       8
#     2   2   2   2   2   2   2   2
#     4  11  24  42  61  87 118 158 201 235 294 360
#     4  10  22  34  58  89 122 154 189 243 297 344
#     4  11  21  33  62  93 121 151 191 250 293 345
#     4  11  21  38  60  92 120 153 194 243 296 344
#     4  10  19  34  54  91 122 149 189 241 296 344
#     4  11  25  41  61  85 121 160 192 244 296 351
#     4  11  21  37  61  90 118 153 196 243 292 342
#     4  11  22  39  58  90 122 153 197 242 297 347
#
# _framework density 19.500288999999999
#
# number of rings (size 3 to 8) (size 9 to 14) (size 15 to 20)
#    0.000    1.250    3.750    4.125    3.500    1.000 
#    0.000    0.625    0.000    0.750    0.000    0.000 
#    0.000    0.000    0.000    0.000    0.000    0.000 
#
# Total GULP energy -89217.358802 kJ/mol
# GULP energy per Si atom -5576.084925 kJ/mol
# Density = 1.945591 g / cm^3
# Si number density = 19.500289 Si / 1000 Ang^3
#
#
#
# Elastic Constant Matrix: (Units=GPa)
#
#
# Indices 1 2 3 4 5 6 
#
# 1 76.0596 25.0968 25.8265 0.7709 -4.5611 6.6878
# 2 25.0968 90.7216 6.0744 4.2804 -8.3991 2.6998
# 3 25.8265 6.0744 80.8191 11.0619 -1.3772 16.4817
# 4 0.7709 4.2804 11.0619 15.9457 -1.6382 5.1269
# 5 -4.5611 -8.3991 -1.3772 -1.6382 5.7667 7.1049
# 6 6.6878 2.6998 16.4817 5.1269 7.1049 31.1166
#
#
#
# Elastic Compliance Matrix: (Units=1/GPa)
#
#
# Indices 1 2 3 4 5 6 
#
# 1 0.017261 -0.002951 -0.004685 0.007047 0.017901 -0.006221
# 2 -0.002951 0.014795 0.002075 0.000789 0.030958 -0.008947
# 3 -0.004685 0.002075 0.017029 -0.007499 0.013672 -0.010079
# 4 0.007047 0.000789 -0.007499 0.081052 0.057698 -0.024140
# 5 0.017901 0.030958 0.013672 0.057698 0.390986 -0.112556
# 6 -0.006221 -0.008947 -0.010079 -0.024140 -0.112556 0.069267
#
#
# Mechanical properties :
#
#
# Convention : Reuss Voigt Hill
#
# Bulk Modulus (GPa) = 26.34092 40.17730 33.25911
# Shear Modulus (GPa) = 8.14109 23.27266 15.70688
#
# Velocity S-wave (km/s) = 2.04546 3.45839 2.84116
# Velocity P-wave (km/s) = 4.37217 6.04941 5.27784
#
# Compressibility (1/GPa) = 0.03796375
#
# Stress axis : x y z
#
# Youngs Moduli (GPa) = 57.93288 67.58863 58.72211
#
# Poissons Ratio (x) = 0.19949 0.27512
# Poissons Ratio (y) = 0.17099 -0.12187
# Poissons Ratio (z) = 0.27142 -0.14027
#
# Static dielectric constant tensor:
#      x y z
#    x 1.736260 -0.037000 -0.004000 
#    y -0.037000 1.757800 0.000350 
#    z -0.004000 0.000350 1.668000 
# 
# From -- ./inp_files/522358.got.cif
#   From: 2010.05.17/outbox.cif.g08.bks.cpg/sg2_262_cif.got.tgz:522358.got - 2010.06.03 11:33:40.
