data_PCOD9083013
_publ_section_title
;
Structure prediction by ZEFSAII (Michael W. Deem and Ramdas Pophale) SiO2 
 PCOD9083013
Probable space group: P -1
;
_chemical_formula_sum "Si O2"
_cell_formula_units_Z 15
_cell_length_a 7.832867
_cell_length_b 12.452832
_cell_length_c 16.739092
_cell_angle_alpha 42.733237
_cell_angle_beta 147.702184
_cell_angle_gamma 139.689229
_cell_volume 544.947739
_symmetry_space_group_name_H-M "P -1"
_symmetry_group_IT_number 2
_symmetry_cell_setting 'triclinic'
loop_
_space_group_symop_operation_xyz
x,y,z
-x,-y,-z
loop_
_atom_site_type_symbol
_atom_site_label
_atom_site_fract_x
_atom_site_fract_y
_atom_site_fract_z
Si Si1 0.667274 0.366576 0.819622
Si Si2 0.879703 0.168127 0.767144
Si Si3 0.236599 0.090267 0.466858
Si Si4 0.189863 0.390086 0.377715
Si Si5 0.914548 0.216547 0.521514
Si Si6 0.911852 0.136431 0.967884
Si Si7 0.573667 0.464623 0.236594
Si Si8 0.500000 0.500000 0.000000
O O1 0.939324 0.483450 0.793465
O O2 0.671732 0.472923 0.840662
O O3 0.749752 0.199189 0.943421
O O4 0.279385 0.312582 0.658924
O O5 0.612916 0.090115 0.633485
O O6 0.706638 0.140572 0.801886
O O7 0.063906 0.368293 0.712987
O O8 0.104272 0.053069 0.922414
O O9 0.270197 0.282376 0.398394
O O10 0.125645 0.980074 0.401746
O O11 0.000000 0.000000 0.500000
O O12 0.500000 0.500000 0.500000
O O13 0.933639 0.271864 0.405171
O O14 0.646905 0.305535 0.390256
O O15 0.294769 0.280287 0.021230
O O16 0.464005 0.454589 0.107327
#
# Coordination Sequence:
#
# PCOD9083013 Si02
#       8
#     2   2   2   2   2   2   2   1
#     4  11  22  38  60  89 122 161 202 250 309 361
#     4  10  20  37  59  85 118 162 203 244 303 360
#     4  10  19  33  60  91 118 154 202 251 294 357
#     4   9  17  33  58  85 117 152 194 240 294 356
#     4  10  20  37  61  90 123 156 200 249 303 365
#     4  10  21  38  61  85 117 156 204 251 298 368
#     4  11  23  40  62  85 120 161 204 255 307 365
#     4  10  22  42  60  84 112 154 204 248 308 364
#
# _framework density 27.525575
#
# number of rings (size 3 to 8) (size 9 to 14) (size 15 to 20)
#    0.000    1.867    0.000    6.800    0.000    2.133 
#    0.000    5.333    0.000    0.000    0.000    0.000 
#    0.000    0.000    0.000    0.000    0.000    0.000 
#
# Total GULP energy -83566.006112 kJ/mol
# GULP energy per Si atom -5571.067074 kJ/mol
# Density = 2.746293 g / cm^3
# Si number density = 27.525575 Si / 1000 Ang^3
#
#
#
# Elastic Constant Matrix: (Units=GPa)
#
#
# Indices 1 2 3 4 5 6 
#
# 1 106.3993 31.8626 7.6120 -15.0919 -0.8776 -49.9549
# 2 31.8626 157.7041 44.3513 -12.4380 -2.2716 -27.9608
# 3 7.6120 44.3513 79.8280 1.2039 -11.0142 -6.8017
# 4 -15.0919 -12.4380 1.2039 47.1102 -16.2410 4.2130
# 5 -0.8776 -2.2716 -11.0142 -16.2410 24.7587 -7.1772
# 6 -49.9549 -27.9608 -6.8017 4.2130 -7.1772 61.5853
#
#
#
# Elastic Compliance Matrix: (Units=1/GPa)
#
#
# Indices 1 2 3 4 5 6 
#
# 1 0.017668 -0.000491 0.001201 0.007807 0.010567 0.014938
# 2 -0.000491 0.008339 -0.004201 0.002320 0.001244 0.002910
# 3 0.001201 -0.004201 0.016014 0.001579 0.008308 0.001696
# 4 0.007807 0.002320 0.001579 0.032044 0.024599 0.008235
# 5 0.010567 0.001244 0.008308 0.024599 0.065345 0.015986
# 6 0.014938 0.002910 0.001696 0.008235 0.015986 0.031163
#
#
# Mechanical properties :
#
#
# Convention : Reuss Voigt Hill
#
# Bulk Modulus (GPa) = 28.54085 56.84258 42.69172
# Shear Modulus (GPa) = 26.42236 44.03120 35.22678
#
# Velocity S-wave (km/s) = 3.10162 4.00390 3.58129
# Velocity P-wave (km/s) = 4.81851 6.48618 5.71352
#
# Compressibility (1/GPa) = 0.03503750
#
# Stress axis : x y z
#
# Youngs Moduli (GPa) = 56.60035 119.92448 62.44695
#
# Poissons Ratio (x) = 0.05887 -0.07500
# Poissons Ratio (y) = 0.02779 0.26236
# Poissons Ratio (z) = -0.06798 0.50385
#
# Static dielectric constant tensor:
#      x y z
#    x 2.304730 0.100720 -0.038320 
#    y 0.100720 2.256930 -0.067270 
#    z -0.038320 -0.067270 2.021390 
# 
# From -- ./inp_files/414233.got.cif
#   From: 2010.05.17/outbox.cif.g08.bks.cpg/sg2_208_cif.got.tgz:414233.got - 2010.06.03 11:33:40.
