data_PCOD9083815
_publ_section_title
;
Structure prediction by ZEFSAII (Michael W. Deem and Ramdas Pophale) SiO2 
 PCOD9083815
Probable space group: P -1
;
_chemical_formula_sum "Si O2"
_cell_formula_units_Z 14
_cell_length_a 12.618724
_cell_length_b 10.970251
_cell_length_c 9.631069
_cell_angle_alpha 76.864944
_cell_angle_beta 144.966574
_cell_angle_gamma 112.920608
_cell_volume 694.251008
_symmetry_space_group_name_H-M "P -1"
_symmetry_group_IT_number 2
_symmetry_cell_setting 'triclinic'
loop_
_space_group_symop_operation_xyz
x,y,z
-x,-y,-z
loop_
_atom_site_type_symbol
_atom_site_label
_atom_site_fract_x
_atom_site_fract_y
_atom_site_fract_z
Si Si1 0.413394 0.361208 0.858812
Si Si2 0.285257 0.167267 0.230998
Si Si3 0.066610 0.440614 0.449913
Si Si4 0.956431 0.361431 0.069007
Si Si5 0.833880 0.143425 0.770915
Si Si6 0.600486 0.628064 0.474707
Si Si7 0.393626 0.725626 0.681893
O O1 0.178656 0.336348 0.627030
O O2 0.478015 0.383136 0.762594
O O3 0.500000 0.500000 0.000000
O O4 0.507646 0.266042 0.063074
O O5 0.390759 0.241544 0.464573
O O6 0.424657 0.244499 0.236070
O O7 0.257902 0.011822 0.245544
O O8 0.066673 0.175036 0.982464
O O9 0.907928 0.378657 0.173234
O O10 0.232957 0.575190 0.529200
O O11 0.000000 0.500000 0.500000
O O12 0.169987 0.348834 0.306216
O O13 0.000000 0.500000 0.000000
O O14 0.822925 0.239359 0.861854
O O15 0.721995 0.177970 0.511790
O O16 0.500000 0.500000 0.500000
#
# Coordination Sequence:
#
# PCOD9083815 Si02
#       7
#     2   2   2   2   2   2   2
#     4   9  20  35  53  86 122 150 190 242 295 348
#     4  10  22  40  65  84 120 155 203 245 294 358
#     4  10  21  35  58  88 122 156 193 245 300 348
#     4  10  19  34  58  85 114 145 199 244 287 350
#     4  10  22  39  63  90 115 158 201 244 300 350
#     4  10  20  36  61  87 112 154 195 245 298 346
#     4  11  21  38  60  86 122 156 194 245 298 350
#
# _framework density 20.165617000000001
#
# number of rings (size 3 to 8) (size 9 to 14) (size 15 to 20)
#    0.000    2.000    1.429    3.000    2.000    2.286 
#    0.000    0.714    3.143    3.429    0.000    0.000 
#    0.000    0.000    0.000    0.000    0.000    0.000 
#
# Total GULP energy -78047.072338 kJ/mol
# GULP energy per Si atom -5574.790881 kJ/mol
# Density = 2.011972 g / cm^3
# Si number density = 20.165617 Si / 1000 Ang^3
#
#
#
# Elastic Constant Matrix: (Units=GPa)
#
#
# Indices 1 2 3 4 5 6 
#
# 1 115.3568 52.2084 65.6453 -0.3710 -22.7132 3.3904
# 2 52.2084 82.3106 39.5855 6.0664 -18.8675 -8.2095
# 3 65.6453 39.5855 118.6520 -28.6618 -27.7302 -4.8833
# 4 -0.3710 6.0664 -28.6618 31.0279 0.8768 -0.2647
# 5 -22.7132 -18.8675 -27.7302 0.8768 47.2319 2.6046
# 6 3.3904 -8.2095 -4.8833 -0.2647 2.6046 25.8582
#
#
#
# Elastic Compliance Matrix: (Units=1/GPa)
#
#
# Indices 1 2 3 4 5 6 
#
# 1 0.016998 -0.006347 -0.009037 -0.006978 0.000799 -0.006102
# 2 -0.006347 0.019936 -0.004298 -0.007954 0.002203 0.006046
# 3 -0.009037 -0.004298 0.021259 0.020234 0.005853 0.003453
# 4 -0.006978 -0.007954 0.020234 0.052292 0.004248 0.002318
# 5 0.000799 0.002203 0.005853 0.004248 0.025841 -0.000860
# 6 -0.006102 0.006046 0.003453 0.002318 -0.000860 0.042155
#
#
# Mechanical properties :
#
#
# Convention : Reuss Voigt Hill
#
# Bulk Modulus (GPa) = 53.10386 70.13308 61.61847
# Shear Modulus (GPa) = 22.30949 31.41560 26.86254
#
# Velocity S-wave (km/s) = 3.32974 3.95128 3.65375
# Velocity P-wave (km/s) = 6.41669 7.46129 6.95862
#
# Compressibility (1/GPa) = 0.01883102
#
# Stress axis : x y z
#
# Youngs Moduli (GPa) = 58.83062 50.16146 47.03793
#
# Poissons Ratio (x) = 0.31835 0.42508
# Poissons Ratio (y) = 0.37337 0.20215
# Poissons Ratio (z) = 0.53165 0.21557
#
# Static dielectric constant tensor:
#      x y z
#    x 1.779980 -0.019400 0.048920 
#    y -0.019400 1.691090 -0.028340 
#    z 0.048920 -0.028340 1.896100 
# 
# From -- ./inp_files/227140.got.cif
#   From: 2010.05.17/outbox.cif.g08.bks.cpg/sg2_114_cif.got.tgz:227140.got - 2010.06.03 11:33:40.
