data_PCOD9083073
_publ_section_title
;
Structure prediction by ZEFSAII (Michael W. Deem and Ramdas Pophale) SiO2 
 PCOD9083073
Probable space group: P -1
;
_chemical_formula_sum "Si O2"
_cell_formula_units_Z 16
_cell_length_a 9.429428
_cell_length_b 8.878816
_cell_length_c 11.179890
_cell_angle_alpha 68.037804
_cell_angle_beta 79.557544
_cell_angle_gamma 115.337474
_cell_volume 716.590142
_symmetry_space_group_name_H-M "P -1"
_symmetry_group_IT_number 2
_symmetry_cell_setting 'triclinic'
loop_
_space_group_symop_operation_xyz
x,y,z
-x,-y,-z
loop_
_atom_site_type_symbol
_atom_site_label
_atom_site_fract_x
_atom_site_fract_y
_atom_site_fract_z
Si Si1 0.614861 0.218122 0.461314
Si Si2 0.960363 0.102768 0.868872
Si Si3 0.725851 0.577868 0.189782
Si Si4 0.357017 0.246428 0.068557
Si Si5 0.290377 0.486391 0.163133
Si Si6 0.059062 0.778904 0.613915
Si Si7 0.159007 0.175694 0.572364
Si Si8 0.550450 0.397180 0.642445
O O1 0.627516 0.357075 0.310834
O O2 0.808562 0.273100 0.435300
O O3 0.555127 0.262645 0.581471
O O4 0.500000 0.000000 0.500000
O O5 0.074081 0.321235 0.835760
O O6 0.053700 0.114229 0.728535
O O7 0.762053 0.971843 0.897415
O O8 0.000000 0.000000 0.000000
O O9 0.632553 0.659377 0.260681
O O10 0.700981 0.638997 0.044731
O O11 0.319447 0.308660 0.183990
O O12 0.558887 0.339883 0.991212
O O13 0.346614 0.580147 0.258179
O O14 0.084972 0.375764 0.225324
O O15 0.953183 0.796005 0.517092
O O16 0.168442 0.994397 0.587870
O O17 0.338580 0.381402 0.488392
#
# Coordination Sequence:
#
# PCOD9083073 Si02
#       8
#     2   2   2   2   2   2   2   2
#     4  12  25  38  56  89 125 154 189 248 306 350
#     4  10  19  33  61  93 116 150 198 243 281 351
#     4  10  21  38  61  89 119 155 198 239 292 355
#     4   9  18  35  62  91 111 151 204 243 283 344
#     4   9  18  35  59  84 115 145 196 245 287 339
#     4  10  22  36  59  88 117 157 192 248 295 340
#     4  10  19  37  61  86 115 153 203 240 286 350
#     4  10  21  37  61  88 115 154 199 246 291 346
#
# _framework density 22.327966
#
# number of rings (size 3 to 8) (size 9 to 14) (size 15 to 20)
#    0.000    2.000    2.500    1.125    1.750    3.000 
#    0.000    0.625    0.000    1.500    0.000    0.000 
#    0.000    0.000    0.000    0.000    0.000    0.000 
#
# Total GULP energy -89097.808573 kJ/mol
# GULP energy per Si atom -5568.613036 kJ/mol
# Density = 2.227715 g / cm^3
# Si number density = 22.327966 Si / 1000 Ang^3
#
#
#
# Elastic Constant Matrix: (Units=GPa)
#
#
# Indices 1 2 3 4 5 6 
#
# 1 64.8652 25.6380 13.6132 -1.7770 -28.9415 1.2224
# 2 25.6380 119.5775 35.5615 -10.1912 -13.6644 24.0972
# 3 13.6132 35.5615 79.2247 1.8829 -14.7759 2.2612
# 4 -1.7770 -10.1912 1.8829 34.1000 8.9279 -8.0432
# 5 -28.9415 -13.6644 -14.7759 8.9279 35.0065 -7.3859
# 6 1.2224 24.0972 2.2612 -8.0432 -7.3859 30.5086
#
#
#
# Elastic Compliance Matrix: (Units=1/GPa)
#
#
# Indices 1 2 3 4 5 6 
#
# 1 0.028085 -0.005943 0.002375 -0.005054 0.024897 0.008088
# 2 -0.005943 0.012974 -0.005518 0.002811 -0.005021 -0.010075
# 3 0.002375 -0.005518 0.016240 -0.003663 0.008473 0.004145
# 4 -0.005054 0.002811 -0.003663 0.034388 -0.012491 0.004296
# 5 0.024897 -0.005021 0.008473 -0.012491 0.056644 0.012760
# 6 0.008088 -0.010075 0.004145 0.004296 0.012760 0.044326
#
#
# Mechanical properties :
#
#
# Convention : Reuss Voigt Hill
#
# Bulk Modulus (GPa) = 25.55868 45.92143 35.74005
# Shear Modulus (GPa) = 22.33407 32.51332 27.42369
#
# Velocity S-wave (km/s) = 3.16614 3.82012 3.50840
# Velocity P-wave (km/s) = 4.98375 6.33002 5.69679
#
# Compressibility (1/GPa) = 0.03912566
#
# Stress axis : x y z
#
# Youngs Moduli (GPa) = 35.60625 77.07562 61.57554
#
# Poissons Ratio (x) = 0.45809 -0.14622
# Poissons Ratio (y) = 0.21162 0.33979
# Poissons Ratio (z) = -0.08455 0.42532
#
# Static dielectric constant tensor:
#      x y z
#    x 1.854970 0.081860 0.014110 
#    y 0.081860 1.905260 -0.011700 
#    z 0.014110 -0.011700 1.896860 
# 
# From -- ./inp_files/381671.got.cif
#   From: 2010.05.17/outbox.cif.g08.bks.cpg/sg2_191_cif.got.tgz:381671.got - 2010.06.03 11:33:40.
