data_PCOD9083308
_publ_section_title
;
Structure prediction by ZEFSAII (Michael W. Deem and Ramdas Pophale) SiO2 
 PCOD9083308
Probable space group: P -1
;
_chemical_formula_sum "Si O2"
_cell_formula_units_Z 16
_cell_length_a 15.606782
_cell_length_b 31.568902
_cell_length_c 8.579784
_cell_angle_alpha 145.457128
_cell_angle_beta 136.828773
_cell_angle_gamma 19.312828
_cell_volume 766.266335
_symmetry_space_group_name_H-M "P -1"
_symmetry_group_IT_number 2
_symmetry_cell_setting 'triclinic'
loop_
_space_group_symop_operation_xyz
x,y,z
-x,-y,-z
loop_
_atom_site_type_symbol
_atom_site_label
_atom_site_fract_x
_atom_site_fract_y
_atom_site_fract_z
Si Si1 0.301343 0.087707 0.863811
Si Si2 0.246412 0.820915 0.848762
Si Si3 0.033064 0.339339 0.045898
Si Si4 0.157034 0.750672 0.067207
Si Si5 0.375690 0.579087 0.248897
Si Si6 0.508756 0.699562 0.520416
Si Si7 0.517741 0.075576 0.694780
Si Si8 0.101871 0.033746 0.915578
O O1 0.042935 0.183847 0.881782
O O2 0.431870 0.960833 0.530618
O O3 0.215516 0.210576 0.038409
O O4 0.500000 0.000000 0.000000
O O5 0.283712 0.712321 0.546063
O O6 0.474071 0.730454 0.755283
O O7 0.000000 0.000000 0.000000
O O8 0.161637 0.868172 0.062903
O O9 0.812925 0.517498 0.334808
O O10 0.858881 0.356289 0.830422
O O11 0.236308 0.257317 0.931676
O O12 0.326842 0.724916 0.302203
O O13 0.376644 0.573011 0.771081
O O14 0.991541 0.873200 0.077665
O O15 0.500000 0.500000 0.000000
O O16 0.355114 0.844865 0.660893
O O17 0.500000 0.000000 0.500000
O O18 0.768632 0.980536 0.825362
#
# Coordination Sequence:
#
# PCOD9083308 Si02
#       8
#     2   2   2   2   2   2   2   2
#     4  11  21  36  61  85 111 149 197 249 294 345
#     4  10  19  34  54  82 114 148 192 235 288 345
#     4  10  19  36  60  82 112 152 201 235 286 355
#     4  11  20  35  59  87 118 150 198 241 289 349
#     4  11  18  35  62  84 110 158 190 235 292 348
#     4  10  20  38  60  82 117 161 192 234 298 354
#     4  10  21  37  56  82 114 150 195 241 293 344
#     4  11  23  35  57  90 120 151 191 247 295 346
#
# _framework density 20.880468
#
# number of rings (size 3 to 8) (size 9 to 14) (size 15 to 20)
#    0.000    1.500    3.750    4.125    0.000    1.000 
#    0.000    3.750    0.000    1.500    0.000    0.000 
#    0.000    1.000    0.000    0.000    0.000    0.000 
#
# Total GULP energy -89108.987935 kJ/mol
# GULP energy per Si atom -5569.311746 kJ/mol
# Density = 2.083294 g / cm^3
# Si number density = 20.880468 Si / 1000 Ang^3
#
#
#
# Elastic Constant Matrix: (Units=GPa)
#
#
# Indices 1 2 3 4 5 6 
#
# 1 77.9154 41.1834 25.4868 16.6411 -10.8044 8.1788
# 2 41.1834 108.9870 49.8271 21.7248 -14.9858 6.2447
# 3 25.4868 49.8271 88.3651 41.3279 -4.2059 14.4783
# 4 16.6411 21.7248 41.3279 43.5250 -1.1598 4.2783
# 5 -10.8044 -14.9858 -4.2059 -1.1598 40.0629 11.1929
# 6 8.1788 6.2447 14.4783 4.2783 11.1929 35.3938
#
#
#
# Elastic Compliance Matrix: (Units=1/GPa)
#
#
# Indices 1 2 3 4 5 6 
#
# 1 0.017211 -0.005297 0.000856 -0.004249 0.003764 -0.004069
# 2 -0.005297 0.014663 -0.007576 0.001936 0.003178 0.000497
# 3 0.000856 -0.007576 0.026432 -0.020841 0.001719 -0.007698
# 4 -0.004249 0.001936 -0.020841 0.042874 -0.002722 0.004844
# 5 0.003764 0.003178 0.001719 -0.002722 0.030462 -0.011438
# 6 -0.004069 0.000497 -0.007698 0.004844 -0.011438 0.035287
#
#
# Mechanical properties :
#
#
# Convention : Reuss Voigt Hill
#
# Bulk Modulus (GPa) = 29.17846 56.47357 42.82602
# Shear Modulus (GPa) = 24.70505 34.38103 29.54304
#
# Velocity S-wave (km/s) = 3.44345 4.06219 3.76555
# Velocity P-wave (km/s) = 5.46024 7.00762 6.28175
#
# Compressibility (1/GPa) = 0.03427186
#
# Stress axis : x y z
#
# Youngs Moduli (GPa) = 58.10267 68.19701 37.83264
#
# Poissons Ratio (x) = 0.36126 -0.03238
# Poissons Ratio (y) = 0.30779 0.28662
# Poissons Ratio (z) = -0.04973 0.51666
#
# Static dielectric constant tensor:
#      x y z
#    x 1.814800 -0.012110 -0.009250 
#    y -0.012110 1.765960 0.014900 
#    z -0.009250 0.014900 1.848060 
# 
# From -- ./inp_files/321005.got.cif
#   From: 2010.05.17/outbox.cif.g08.bks.cpg/sg2_161_cif.got.tgz:321005.got - 2010.06.03 11:33:40.
