data_PCOD9083869
_publ_section_title
;
Structure prediction by ZEFSAII (Michael W. Deem and Ramdas Pophale) SiO2 
 PCOD9083869
Probable space group: P -1
;
_chemical_formula_sum "Si O2"
_cell_formula_units_Z 12
_cell_length_a 8.538731
_cell_length_b 10.940057
_cell_length_c 11.140682
_cell_angle_alpha 133.792185
_cell_angle_beta 136.858077
_cell_angle_gamma 41.910436
_cell_volume 449.334746
_symmetry_space_group_name_H-M "P -1"
_symmetry_group_IT_number 2
_symmetry_cell_setting 'triclinic'
loop_
_space_group_symop_operation_xyz
x,y,z
-x,-y,-z
loop_
_atom_site_type_symbol
_atom_site_label
_atom_site_fract_x
_atom_site_fract_y
_atom_site_fract_z
Si Si1 0.645712 0.490931 0.237654
Si Si2 0.261806 0.260742 0.105030
Si Si3 0.167465 0.805493 0.062598
Si Si4 0.855407 0.511315 0.590566
Si Si5 0.210499 0.059347 0.716544
Si Si6 0.404175 0.053133 0.348815
O O1 0.358585 0.671619 0.186441
O O2 0.740378 0.410040 0.369820
O O3 0.853607 0.546573 0.329180
O O4 0.678250 0.321886 0.052511
O O5 0.185876 0.461310 0.271357
O O6 0.570345 0.122564 0.206805
O O7 0.168943 0.234910 0.903605
O O8 0.105525 0.180269 0.045953
O O9 0.168057 0.004847 0.185083
O O10 0.683234 0.728489 0.586902
O O11 0.361914 0.076908 0.697834
O O12 0.000000 0.000000 0.500000
O O13 0.500000 0.000000 0.500000
#
# Coordination Sequence:
#
# PCOD9083869 Si02
#       6
#     2   2   2   2   2   2
#     4   9  18  32  54  84 114 153 177 233 287 346
#     4   9  20  35  56  83 110 156 189 225 280 351
#     4  10  19  34  58  89 114 140 192 240 287 327
#     4   9  18  33  54  84 113 148 190 227 280 342
#     4  10  21  36  54  82 121 153 184 232 288 339
#     4  11  20  33  59  92 113 141 190 251 281 321
#
# _framework density 26.706147999999999
#
# number of rings (size 3 to 8) (size 9 to 14) (size 15 to 20)
#    0.000    2.333    1.667    1.000    2.333    6.000 
#    0.000    0.000    0.000   10.000    0.000    0.000 
#    0.000    0.000    0.000    0.000    0.000    0.000 
#
# Total GULP energy -66963.633041 kJ/mol
# GULP energy per Si atom -5580.302753 kJ/mol
# Density = 2.664536 g / cm^3
# Si number density = 26.706148 Si / 1000 Ang^3
#
#
#
# Elastic Constant Matrix: (Units=GPa)
#
#
# Indices 1 2 3 4 5 6 
#
# 1 77.0717 20.9145 42.9761 -1.5258 -29.4980 -9.6918
# 2 20.9145 57.4688 22.0708 -12.7235 -11.0072 -5.6939
# 3 42.9761 22.0708 205.5636 -12.6681 -27.4492 -14.4598
# 4 -1.5258 -12.7235 -12.6681 36.9921 -18.1005 -5.1371
# 5 -29.4980 -11.0072 -27.4492 -18.1005 53.2258 6.5249
# 6 -9.6918 -5.6939 -14.4598 -5.1371 6.5249 34.4032
#
#
#
# Elastic Compliance Matrix: (Units=1/GPa)
#
#
# Indices 1 2 3 4 5 6 
#
# 1 0.019197 -0.003027 -0.001837 0.004539 0.010258 0.002867
# 2 -0.003027 0.022541 -0.000009 0.011212 0.006383 0.003338
# 3 -0.001837 -0.000009 0.006045 0.003808 0.003148 0.001993
# 4 0.004539 0.011212 0.003808 0.043526 0.020704 0.007307
# 5 0.010258 0.006383 0.003148 0.020704 0.034228 0.001869
# 6 0.002867 0.003338 0.001993 0.007307 0.001869 0.032002
#
#
# Mechanical properties :
#
#
# Convention : Reuss Voigt Hill
#
# Bulk Modulus (GPa) = 26.29082 56.89188 41.59135
# Shear Modulus (GPa) = 27.78307 41.86706 34.82507
#
# Velocity S-wave (km/s) = 3.22891 3.96371 3.61502
# Velocity P-wave (km/s) = 4.87514 6.50362 5.74735
#
# Compressibility (1/GPa) = 0.03803609
#
# Stress axis : x y z
#
# Youngs Moduli (GPa) = 52.09060 44.36274 165.42414
#
# Poissons Ratio (x) = 0.13429 0.30394
# Poissons Ratio (y) = 0.15769 0.00154
# Poissons Ratio (z) = 0.09571 0.00041
#
# Static dielectric constant tensor:
#      x y z
#    x 2.029330 0.031110 -0.113520 
#    y 0.031110 2.297290 0.024950 
#    z -0.113520 0.024950 2.370810 
# 
# From -- ./inp_files/220153.got.cif
#   From: 2010.05.17/outbox.cif.g08.bks.cpg/sg2_111_cif.got.tgz:220153.got - 2010.06.03 11:33:40.
