data_PCOD9083085
_publ_section_title
;
Structure prediction by ZEFSAII (Michael W. Deem and Ramdas Pophale) SiO2 
 PCOD9083085
Probable space group: P -1
;
_chemical_formula_sum "Si O2"
_cell_formula_units_Z 16
_cell_length_a 8.404554
_cell_length_b 13.689166
_cell_length_c 10.609406
_cell_angle_alpha 117.320985
_cell_angle_beta 140.207676
_cell_angle_gamma 66.984681
_cell_volume 692.487108
_symmetry_space_group_name_H-M "P -1"
_symmetry_group_IT_number 2
_symmetry_cell_setting 'triclinic'
loop_
_space_group_symop_operation_xyz
x,y,z
-x,-y,-z
loop_
_atom_site_type_symbol
_atom_site_label
_atom_site_fract_x
_atom_site_fract_y
_atom_site_fract_z
Si Si1 0.655964 0.832733 0.700308
Si Si2 0.175666 0.899918 0.290147
Si Si3 0.712624 0.024972 0.049975
Si Si4 0.300101 0.408179 0.323049
Si Si5 0.539962 0.398496 0.829472
Si Si6 0.117147 0.437232 0.759103
Si Si7 0.053019 0.665839 0.154918
Si Si8 0.786103 0.195806 0.011749
O O1 0.436363 0.882611 0.508757
O O2 0.598247 0.716775 0.661193
O O3 0.704117 0.928264 0.884654
O O4 0.921764 0.802254 0.779556
O O5 0.026396 0.795299 0.183636
O O6 0.229490 0.885776 0.166227
O O7 0.992522 0.007220 0.265413
O O8 0.500000 0.000000 0.000000
O O9 0.662164 0.142661 0.023591
O O10 0.500000 0.500000 0.500000
O O11 0.671258 0.368001 0.757455
O O12 0.090593 0.462041 0.323127
O O13 0.247896 0.396939 0.684533
O O14 0.140529 0.395986 0.088700
O O15 0.667464 0.308596 0.950668
O O16 0.648730 0.514689 0.996769
O O17 0.997910 0.358634 0.744092
#
# Coordination Sequence:
#
# PCOD9083085 Si02
#       8
#     2   2   2   2   2   2   2   2
#     4  11  21  41  66  92 130 164 220 264 314 393
#     4  10  21  40  67  91 121 172 212 263 324 380
#     4  11  25  42  65  97 127 167 211 269 333 383
#     4  11  20  35  60  96 128 170 214 262 317 391
#     4   9  18  34  59  89 120 162 214 258 309 383
#     4  10  19  33  62  86 122 172 210 257 321 371
#     4  10  19  38  62  89 126 175 215 257 326 380
#     4  10  21  41  65  89 128 165 215 269 320 380
#
# _framework density 23.105125000000001
#
# number of rings (size 3 to 8) (size 9 to 14) (size 15 to 20)
#    0.000    1.750    5.000    3.750    1.750    3.500 
#    0.000    0.000    8.250    7.500    0.000    0.000 
#    0.000    0.000    0.000    0.000    0.000    0.000 
#
# Total GULP energy -89247.054693 kJ/mol
# GULP energy per Si atom -5577.940918 kJ/mol
# Density = 2.305254 g / cm^3
# Si number density = 23.105125 Si / 1000 Ang^3
#
#
#
# Elastic Constant Matrix: (Units=GPa)
#
#
# Indices 1 2 3 4 5 6 
#
# 1 125.4621 35.1670 13.0308 -14.7957 17.0881 22.2627
# 2 35.1670 80.4467 10.0308 -12.7805 1.2160 24.8185
# 3 13.0308 10.0308 86.5708 -17.8215 9.1345 -3.7176
# 4 -14.7957 -12.7805 -17.8215 36.4725 1.4495 5.9122
# 5 17.0881 1.2160 9.1345 1.4495 20.6815 -6.7920
# 6 22.2627 24.8185 -3.7176 5.9122 -6.7920 39.0258
#
#
#
# Elastic Compliance Matrix: (Units=1/GPa)
#
#
# Indices 1 2 3 4 5 6 
#
# 1 0.012961 -0.001171 0.000870 0.007537 -0.014938 -0.010308
# 2 -0.001171 0.018406 -0.000334 0.008135 -0.004855 -0.013146
# 3 0.000870 -0.000334 0.013763 0.007508 -0.007785 -0.001465
# 4 0.007537 0.008135 0.007508 0.040695 -0.018852 -0.018204
# 5 -0.014938 -0.004855 -0.007785 -0.018852 0.074505 0.026690
# 6 -0.010308 -0.013146 -0.001465 -0.018204 0.026690 0.047128
#
#
# Mechanical properties :
#
#
# Convention : Reuss Voigt Hill
#
# Bulk Modulus (GPa) = 22.80011 45.43740 34.11875
# Shear Modulus (GPa) = 22.38661 34.85268 28.61965
#
# Velocity S-wave (km/s) = 3.11610 3.88808 3.52329
# Velocity P-wave (km/s) = 4.77872 6.31383 5.59913
#
# Compressibility (1/GPa) = 0.04385945
#
# Stress axis : x y z
#
# Youngs Moduli (GPa) = 77.15540 54.33090 72.65803
#
# Poissons Ratio (x) = 0.06363 -0.06320
# Poissons Ratio (y) = 0.09035 0.02426
# Poissons Ratio (z) = -0.06711 0.01814
#
# Static dielectric constant tensor:
#      x y z
#    x 1.910020 -0.004580 0.016500 
#    y -0.004580 1.903440 -0.022650 
#    z 0.016500 -0.022650 1.934970 
# 
# From -- ./inp_files/397581.got.cif
#   From: 2010.05.17/outbox.cif.g08.bks.cpg/sg2_199_cif.got.tgz:397581.got - 2010.06.03 11:33:40.
