data_PCOD9083188
_publ_section_title
;
Structure prediction by ZEFSAII (Michael W. Deem and Ramdas Pophale) SiO2 
 PCOD9083188
Probable space group: P -1
;
_chemical_formula_sum "Si O2"
_cell_formula_units_Z 14
_cell_length_a 5.360673
_cell_length_b 14.069862
_cell_length_c 7.086578
_cell_angle_alpha 90.379344
_cell_angle_beta 108.399790
_cell_angle_gamma 100.196246
_cell_volume 498.043895
_symmetry_space_group_name_H-M "P -1"
_symmetry_group_IT_number 2
_symmetry_cell_setting 'triclinic'
loop_
_space_group_symop_operation_xyz
x,y,z
-x,-y,-z
loop_
_atom_site_type_symbol
_atom_site_label
_atom_site_fract_x
_atom_site_fract_y
_atom_site_fract_z
Si Si1 0.423783 0.691382 0.136572
Si Si2 0.043740 0.802118 0.553254
Si Si3 0.532707 0.864365 0.469271
Si Si4 0.093900 0.407887 0.288797
Si Si5 0.071493 0.246385 0.920757
Si Si6 0.374924 0.503577 0.726921
Si Si7 0.741393 0.049397 0.925723
O O1 0.484533 0.763250 0.333796
O O2 0.099409 0.671904 0.060681
O O3 0.548143 0.596985 0.197592
O O4 0.608331 0.742965 0.009222
O O5 0.358248 0.846657 0.616298
O O6 0.985594 0.779200 0.315027
O O7 0.851826 0.876473 0.568601
O O8 0.981451 0.700187 0.645371
O O9 0.408740 0.938885 0.309783
O O10 0.234741 0.480159 0.491742
O O11 0.352050 0.419283 0.218710
O O12 0.832474 0.453862 0.193262
O O13 0.895364 0.159995 0.997943
O O14 0.500000 0.000000 0.000000
O O15 0.000000 0.000000 0.000000
#
# Coordination Sequence:
#
# PCOD9083188 Si02
#       7
#     2   2   2   2   2   2   2
#     4   9  14  23  25  30  38  44  50  50  55  66
#     4   9  14  23  25  30  38  44  50  50  55  66
#     4   9  16  21  28  30  35  44  45  50  60  66
#     4  10  17  18  24  32  38  44  50  56  56  54
#     4   9  16  21  28  30  35  44  45  50  60  66
#     4  10  17  18  24  32  38  44  50  56  56  54
#     4  10  16  22  28  34  36  36  44  54  60  66
#
# _framework density 28.109974999999999
#
# number of rings (size 3 to 8) (size 9 to 14) (size 15 to 20)
#    0.000    2.857    2.857    5.143    8.000    0.000 
#    0.000    0.000    0.000    0.000    0.000    0.000 
#    0.000    0.000    0.000    0.000    0.000    0.000 
#
# Total GULP energy -78242.207125 kJ/mol
# GULP energy per Si atom -5588.729080 kJ/mol
# Density = 2.804600 g / cm^3
# Si number density = 28.109975 Si / 1000 Ang^3
#
#
#
# Elastic Constant Matrix: (Units=GPa)
#
#
# Indices 1 2 3 4 5 6 
#
# 1 327.7254 64.0401 52.1135 -32.9120 2.4053 -7.2523
# 2 64.0401 85.8865 16.9042 -8.9040 -4.3644 -8.0898
# 3 52.1135 16.9042 84.7530 -13.4212 9.4181 -2.1242
# 4 -32.9120 -8.9040 -13.4212 49.5870 1.7869 -2.9417
# 5 2.4053 -4.3644 9.4181 1.7869 33.2479 -24.6801
# 6 -7.2523 -8.0898 -2.1242 -2.9417 -24.6801 52.1075
#
#
#
# Elastic Compliance Matrix: (Units=1/GPa)
#
#
# Indices 1 2 3 4 5 6 
#
# 1 0.003974 -0.002447 -0.001659 0.001763 -0.000125 0.000146
# 2 -0.002447 0.014668 -0.001900 0.000559 0.006191 0.004823
# 3 -0.001659 -0.001900 0.014229 0.002471 -0.006399 -0.002837
# 4 0.001763 0.000559 0.002471 0.022214 -0.001073 0.001179
# 5 -0.000125 0.006191 -0.006399 -0.001073 0.051250 0.024896
# 6 0.000146 0.004823 -0.002837 0.001179 0.024896 0.031703
#
#
# Mechanical properties :
#
#
# Convention : Reuss Voigt Hill
#
# Bulk Modulus (GPa) = 47.93650 84.94230 66.43940
# Shear Modulus (GPa) = 31.84629 51.34227 41.59428
#
# Velocity S-wave (km/s) = 3.36954 4.27837 3.85086
# Velocity P-wave (km/s) = 5.67702 7.39523 6.59234
#
# Compressibility (1/GPa) = 0.02086093
#
# Stress axis : x y z
#
# Youngs Moduli (GPa) = 251.60673 68.17353 70.27717
#
# Poissons Ratio (x) = 0.16681 0.11660
# Poissons Ratio (y) = 0.61564 0.13351
# Poissons Ratio (z) = 0.41744 0.12951
#
# Static dielectric constant tensor:
#      x y z
#    x 2.514270 -0.100430 0.092450 
#    y -0.100430 2.509420 0.159150 
#    z 0.092450 0.159150 2.403970 
# 
# From -- ./inp_files/366193.got.cif
#   From: 2010.05.17/outbox.cif.g08.bks.cpg/sg2_184_cif.got.tgz:366193.got - 2010.06.03 11:33:40.
