data_PCOD9083662
_publ_section_title
;
Structure prediction by ZEFSAII (Michael W. Deem and Ramdas Pophale) SiO2 
 PCOD9083662
Probable space group: P -1
;
_chemical_formula_sum "Si O2"
_cell_formula_units_Z 16
_cell_length_a 15.212299
_cell_length_b 29.738154
_cell_length_c 8.678634
_cell_angle_alpha 43.139669
_cell_angle_beta 55.204800
_cell_angle_gamma 21.705447
_cell_volume 899.033442
_symmetry_space_group_name_H-M "P -1"
_symmetry_group_IT_number 2
_symmetry_cell_setting 'triclinic'
loop_
_space_group_symop_operation_xyz
x,y,z
-x,-y,-z
loop_
_atom_site_type_symbol
_atom_site_label
_atom_site_fract_x
_atom_site_fract_y
_atom_site_fract_z
Si Si1 0.307915 0.551505 0.496888
Si Si2 0.365465 0.747110 0.582719
Si Si3 0.796010 0.029011 0.947029
Si Si4 0.747448 0.905777 0.302785
Si Si5 0.252596 0.094270 0.326363
Si Si6 0.204361 0.970851 0.683831
Si Si7 0.365809 0.746971 0.950863
Si Si8 0.692035 0.448533 0.870176
O O1 0.500000 0.500000 0.500000
O O2 0.331587 0.537556 0.324534
O O3 0.013410 0.733132 0.388136
O O4 0.406332 0.427206 0.777668
O O5 0.374726 0.816860 0.340426
O O6 0.358263 0.749183 0.768813
O O7 0.593359 0.572951 0.726237
O O8 0.089890 0.873488 0.476642
O O9 0.195448 0.967635 0.885337
O O10 0.090343 0.873327 0.976447
O O11 0.703300 0.007490 0.057215
O O12 0.784148 0.880118 0.515573
O O13 0.499954 0.000094 0.270844
O O14 0.297068 0.992393 0.501080
O O15 0.986557 0.266929 0.080499
O O16 0.375250 0.816645 0.825671
O O17 0.500000 0.500000 0.000000
#
# Coordination Sequence:
#
# PCOD9083662 Si02
#       8
#     2   2   2   2   2   2   2   2
#     4  12  23  37  59  87 117 150 195 243 289 341
#     4  11  21  34  56  85 117 149 191 242 289 339
#     4  10  19  34  57  84 117 152 190 235 288 346
#     4  10  22  40  61  86 119 156 191 234 291 350
#     4  10  22  40  61  86 119 156 191 234 291 350
#     4  10  19  34  57  84 117 152 190 235 288 346
#     4  11  21  34  56  85 117 149 191 242 289 339
#     4  12  23  37  59  87 117 150 195 243 289 341
#
# _framework density 17.796889
#
# number of rings (size 3 to 8) (size 9 to 14) (size 15 to 20)
#    0.000    1.250    2.500    6.750    0.000    1.500 
#    0.000    1.250    0.000    0.000    0.000    0.000 
#    0.000    0.000    0.000    0.000    0.000    0.000 
#
# Total GULP energy -89422.989260 kJ/mol
# GULP energy per Si atom -5588.936829 kJ/mol
# Density = 1.775638 g / cm^3
# Si number density = 17.796889 Si / 1000 Ang^3
#
#
#
# Elastic Constant Matrix: (Units=GPa)
#
#
# Indices 1 2 3 4 5 6 
#
# 1 121.4509 72.3687 86.8204 5.2239 -19.3190 3.3805
# 2 72.3687 98.9520 57.6940 -0.1204 -12.4484 6.9208
# 3 86.8204 57.6940 147.2443 -4.0135 -15.2275 0.4025
# 4 5.2239 -0.1204 -4.0135 22.8582 5.1684 -0.5280
# 5 -19.3190 -12.4484 -15.2275 5.1684 34.5068 -1.4374
# 6 3.3805 6.9208 0.4025 -0.5280 -1.4374 28.8621
#
#
#
# Elastic Compliance Matrix: (Units=1/GPa)
#
#
# Indices 1 2 3 4 5 6 
#
# 1 0.021467 -0.010155 -0.008283 -0.007736 0.005866 0.000187
# 2 -0.010155 0.018440 -0.001171 0.002139 -0.000002 -0.003177
# 3 -0.008283 -0.001171 0.012219 0.004112 -0.000236 0.001144
# 4 -0.007736 0.002139 0.004112 0.048290 -0.008945 0.000774
# 5 0.005866 -0.000002 -0.000236 -0.008945 0.033533 0.000823
# 6 0.000187 -0.003177 0.001144 0.000774 0.000823 0.035427
#
#
# Mechanical properties :
#
#
# Convention : Reuss Voigt Hill
#
# Bulk Modulus (GPa) = 77.47399 89.04594 83.25997
# Shear Modulus (GPa) = 23.48576 27.29636 25.39106
#
# Velocity S-wave (km/s) = 3.63665 3.92059 3.78128
# Velocity P-wave (km/s) = 7.82690 8.40463 8.12091
#
# Compressibility (1/GPa) = 0.01290756
#
# Stress axis : x y z
#
# Youngs Moduli (GPa) = 46.58373 54.23099 81.84002
#
# Poissons Ratio (x) = 0.55069 0.67792
# Poissons Ratio (y) = 0.47304 0.09582
# Poissons Ratio (z) = 0.38587 0.06350
#
# Static dielectric constant tensor:
#      x y z
#    x 1.603160 0.010790 -0.017320 
#    y 0.010790 1.575270 0.005700 
#    z -0.017320 0.005700 1.608430 
# 
# From -- ./inp_files/321032.got.cif
#   From: 2010.05.17/outbox.cif.g08.bks.cpg/sg2_161_cif.got.tgz:321032.got - 2010.06.03 11:33:40.
