data_PCOD9083865
_publ_section_title
;
Structure prediction by ZEFSAII (Michael W. Deem and Ramdas Pophale) SiO2 
 PCOD9083865
Probable space group: P -1
;
_chemical_formula_sum "Si O2"
_cell_formula_units_Z 14
_cell_length_a 18.610176
_cell_length_b 9.377018
_cell_length_c 11.908158
_cell_angle_alpha 144.637756
_cell_angle_beta 35.641203
_cell_angle_gamma 148.712648
_cell_volume 576.391122
_symmetry_space_group_name_H-M "P -1"
_symmetry_group_IT_number 2
_symmetry_cell_setting 'triclinic'
loop_
_space_group_symop_operation_xyz
x,y,z
-x,-y,-z
loop_
_atom_site_type_symbol
_atom_site_label
_atom_site_fract_x
_atom_site_fract_y
_atom_site_fract_z
Si Si1 0.367250 0.093599 0.606682
Si Si2 0.182354 0.895898 0.515911
Si Si3 0.494067 0.260069 0.771932
Si Si4 0.172746 0.434400 0.843045
Si Si5 0.518364 0.256812 0.220557
Si Si6 0.792386 0.642324 0.500462
Si Si7 0.949829 0.316309 0.674828
O O1 0.212640 0.876460 0.595627
O O2 0.352271 0.087810 0.757519
O O3 0.435326 0.435283 0.702113
O O4 0.465847 0.960318 0.368667
O O5 0.116136 0.093408 0.718062
O O6 0.356804 0.103534 0.385435
O O7 0.092011 0.644801 0.373762
O O8 0.627591 0.444184 0.631042
O O9 0.500000 0.500000 0.000000
O O10 0.341560 0.637621 0.808067
O O11 0.178316 0.469617 0.724591
O O12 0.074385 0.504876 0.086521
O O13 0.500000 0.000000 0.000000
O O14 0.900302 0.664848 0.475526
O O15 0.826306 0.964284 0.634514
#
# Coordination Sequence:
#
# PCOD9083865 Si02
#       7
#     2   2   2   2   2   2   2
#     4  10  23  40  55  89 121 150 206 244 291 363
#     4  10  20  35  56  90 118 143 198 250 300 353
#     4  11  25  41  62  82 123 172 197 239 297 361
#     4  10  19  34  58  88 120 150 186 251 308 348
#     4  11  20  33  61  90 118 152 191 256 308 340
#     4  10  22  38  57  89 120 154 205 240 290 362
#     4  10  20  36  62  90 118 152 193 252 303 349
#
# _framework density 24.289059999999999
#
# number of rings (size 3 to 8) (size 9 to 14) (size 15 to 20)
#    0.000    1.714    1.429    4.714    2.000    3.429 
#    0.000    0.714    0.000    4.286    0.000    0.000 
#    0.000    0.000    0.000    0.000    0.000    0.000 
#
# Total GULP energy -78238.872103 kJ/mol
# GULP energy per Si atom -5588.490864 kJ/mol
# Density = 2.423378 g / cm^3
# Si number density = 24.289060 Si / 1000 Ang^3
#
#
#
# Elastic Constant Matrix: (Units=GPa)
#
#
# Indices 1 2 3 4 5 6 
#
# 1 159.8543 15.8491 16.8535 13.1254 13.2637 -0.7193
# 2 15.8491 44.8128 3.6572 21.6771 1.1154 -6.5353
# 3 16.8535 3.6572 144.6732 36.2041 25.6151 -6.4599
# 4 13.1254 21.6771 36.2041 30.8506 6.7350 -0.8162
# 5 13.2637 1.1154 25.6151 6.7350 39.7293 2.0963
# 6 -0.7193 -6.5353 -6.4599 -0.8162 2.0963 39.5313
#
#
#
# Elastic Compliance Matrix: (Units=1/GPa)
#
#
# Indices 1 2 3 4 5 6 
#
# 1 0.006693 -0.001888 -0.000174 -0.000904 -0.001909 -0.000136
# 2 -0.001888 0.042861 0.009647 -0.040347 -0.000365 0.007814
# 3 -0.000174 0.009647 0.012945 -0.020657 -0.005245 0.003559
# 4 -0.000904 -0.040347 -0.020657 0.084998 0.000784 -0.008349
# 5 -0.001909 -0.000365 -0.005245 0.000784 0.029198 -0.002484
# 6 -0.000136 0.007814 0.003559 -0.008349 -0.002484 0.027127
#
#
# Mechanical properties :
#
#
# Convention : Reuss Voigt Hill
#
# Bulk Modulus (GPa) = 12.87510 46.89553 29.88532
# Shear Modulus (GPa) = 23.30534 42.88762 33.09648
#
# Velocity S-wave (km/s) = 3.10094 4.20660 3.69536
# Velocity P-wave (km/s) = 4.25833 6.55311 5.52615
#
# Compressibility (1/GPa) = 0.07766927
#
# Stress axis : x y z
#
# Youngs Moduli (GPa) = 149.40472 23.33107 77.24692
#
# Poissons Ratio (x) = 0.04406 0.01344
# Poissons Ratio (y) = 0.28212 -0.74519
# Poissons Ratio (z) = 0.02599 -0.22507
#
# Static dielectric constant tensor:
#      x y z
#    x 2.028340 -0.026440 0.060140 
#    y -0.026440 2.061510 0.001020 
#    z 0.060140 0.001020 1.880700 
# 
# From -- ./inp_files/462548.got.cif
#   From: 2010.05.17/outbox.cif.g08.bks.cpg/sg2_232_cif.got.tgz:462548.got - 2010.06.03 11:33:40.
