data_PCOD9083191
_publ_section_title
;
Structure prediction by ZEFSAII (Michael W. Deem and Ramdas Pophale) SiO2 
 PCOD9083191
Probable space group: P -1
;
_chemical_formula_sum "Si O2"
_cell_formula_units_Z 8
_cell_length_a 6.566440
_cell_length_b 8.099072
_cell_length_c 9.972783
_cell_angle_alpha 131.473539
_cell_angle_beta 69.546696
_cell_angle_gamma 76.662094
_cell_volume 280.288486
_symmetry_space_group_name_H-M "P -1"
_symmetry_group_IT_number 2
_symmetry_cell_setting 'triclinic'
loop_
_space_group_symop_operation_xyz
x,y,z
-x,-y,-z
loop_
_atom_site_type_symbol
_atom_site_label
_atom_site_fract_x
_atom_site_fract_y
_atom_site_fract_z
Si Si1 0.864554 0.602986 0.289941
Si Si2 0.511839 0.421520 0.159085
Si Si3 0.041564 0.010938 0.673520
Si Si4 0.384104 0.934108 0.796072
O O1 0.681999 0.531934 0.220290
O O2 0.679856 0.765046 0.554367
O O3 0.866699 0.810303 0.303169
O O4 0.183554 0.281998 0.055645
O O5 0.184736 0.725738 0.397485
O O6 0.551117 0.225106 0.164897
O O7 0.700281 0.217876 0.881017
O O8 0.187950 0.902449 0.729990
#
# Coordination Sequence:
#
# PCOD9083191 Si02
#       4
#     2   2   2   2
#     4  10  16  22  28  34  40  46  52  58  64  70
#     4  10  16  22  28  34  40  46  52  58  64  70
#     4  10  16  22  28  34  40  46  52  58  64  70
#     4  10  16  22  28  34  40  46  52  58  64  70
#
# _framework density 28.542024000000001
#
# number of rings (size 3 to 8) (size 9 to 14) (size 15 to 20)
#    0.000    2.000    0.000   15.000    0.000    0.000 
#    0.000    0.000    0.000    0.000    0.000    0.000 
#    0.000    0.000    0.000    0.000    0.000    0.000 
#
# Total GULP energy -44947.778041 kJ/mol
# GULP energy per Si atom -5618.472255 kJ/mol
# Density = 2.847706 g / cm^3
# Si number density = 28.542024 Si / 1000 Ang^3
#
#
#
# Elastic Constant Matrix: (Units=GPa)
#
#
# Indices 1 2 3 4 5 6 
#
# 1 83.4619 11.6286 23.1374 -6.9870 -14.4022 -0.9638
# 2 11.6286 125.0318 97.1897 -9.0775 -15.1162 -4.2657
# 3 23.1374 97.1897 344.4064 -15.9196 -33.8931 18.0090
# 4 -6.9870 -9.0775 -15.9196 64.9260 11.4317 -5.4735
# 5 -14.4022 -15.1162 -33.8931 11.4317 66.9552 -6.6500
# 6 -0.9638 -4.2657 18.0090 -5.4735 -6.6500 32.3125
#
#
#
# Elastic Compliance Matrix: (Units=1/GPa)
#
#
# Indices 1 2 3 4 5 6 
#
# 1 0.012675 -0.000367 -0.000543 0.000873 0.002345 0.001263
# 2 -0.000367 0.010689 -0.003035 0.000825 0.000998 0.003437
# 3 -0.000543 -0.003035 0.004026 0.000128 0.000972 -0.002439
# 4 0.000873 0.000825 0.000128 0.016212 -0.002093 0.002379
# 5 0.002345 0.000998 0.000972 -0.002093 0.016789 0.002761
# 6 0.001263 0.003437 -0.002439 0.002379 0.002761 0.033770
#
#
# Mechanical properties :
#
#
# Convention : Reuss Voigt Hill
#
# Bulk Modulus (GPa) = 51.28078 90.75684 71.01881
# Shear Modulus (GPa) = 46.06158 60.90171 53.48164
#
# Velocity S-wave (km/s) = 4.02159 4.62427 4.33342
# Velocity P-wave (km/s) = 6.29047 7.77036 7.06925
#
# Compressibility (1/GPa) = 0.01950048
#
# Stress axis : x y z
#
# Youngs Moduli (GPa) = 78.89236 93.55238 248.41196
#
# Poissons Ratio (x) = 0.03432 0.13486
# Poissons Ratio (y) = 0.02894 0.75396
# Poissons Ratio (z) = 0.04283 0.28394
#
# Static dielectric constant tensor:
#      x y z
#    x 2.294650 0.027060 -0.038300 
#    y 0.027060 2.060450 0.009220 
#    z -0.038300 0.009220 2.291240 
# 
# From -- ./inp_files/195184.got.cif
#   From: 2010.05.17/outbox.cif.g08.bks.cpg/sg2_98_cif.got.tgz:195184.got - 2010.06.03 11:33:40.
