data_PCOD9083778
_publ_section_title
;
Structure prediction by ZEFSAII (Michael W. Deem and Ramdas Pophale) SiO2 
 PCOD9083778
Probable space group: P -1
;
_chemical_formula_sum "Si O2"
_cell_formula_units_Z 16
_cell_length_a 18.834930
_cell_length_b 7.262259
_cell_length_c 7.368683
_cell_angle_alpha 121.778121
_cell_angle_beta 46.269131
_cell_angle_gamma 109.209863
_cell_volume 618.131071
_symmetry_space_group_name_H-M "P -1"
_symmetry_group_IT_number 2
_symmetry_cell_setting 'triclinic'
loop_
_space_group_symop_operation_xyz
x,y,z
-x,-y,-z
loop_
_atom_site_type_symbol
_atom_site_label
_atom_site_fract_x
_atom_site_fract_y
_atom_site_fract_z
Si Si1 0.646660 0.890082 0.111609
Si Si2 0.874018 0.769502 0.611599
Si Si3 0.690777 0.143346 0.478568
Si Si4 0.378495 0.221196 0.316429
Si Si5 0.444330 0.528040 0.921806
Si Si6 0.883874 0.054492 0.240563
Si Si7 0.827556 0.587584 0.238723
Si Si8 0.922529 0.242868 0.617378
O O1 0.642928 0.109663 0.348802
O O2 0.760801 0.801874 0.883744
O O3 0.621153 0.895472 0.944690
O O4 0.581392 0.707690 0.219618
O O5 0.876838 0.594173 0.353195
O O6 0.960554 0.723005 0.578822
O O7 0.903289 0.000174 0.595053
O O8 0.655299 0.342909 0.770976
O O9 0.809690 0.125170 0.247327
O O10 0.651733 0.944362 0.562649
O O11 0.290922 0.409001 0.545317
O O12 0.481256 0.323408 0.235663
O O13 0.500000 0.500000 0.000000
O O14 0.873030 0.242141 0.508559
O O15 0.845197 0.827258 0.257033
O O16 0.000000 0.000000 0.000000
O O17 0.874355 0.410721 0.930672
#
# Coordination Sequence:
#
# PCOD9083778 Si02
#       8
#     2   2   2   2   2   2   2   2
#     4  10  22  40  62  90 124 158 202 256 306 360
#     4   9  19  34  54  87 120 153 202 250 297 363
#     4  11  23  41  65  89 123 167 201 248 313 363
#     4   9  21  42  61  88 125 156 204 257 299 366
#     4  10  23  42  64  94 122 155 210 257 302 370
#     4  10  22  37  54  87 124 155 204 252 295 364
#     4   9  19  35  56  82 115 159 205 247 299 363
#     4  10  19  34  58  82 117 165 202 244 305 358
#
# _framework density 25.884478000000001
#
# number of rings (size 3 to 8) (size 9 to 14) (size 15 to 20)
#    0.000    2.250    0.000    2.250    0.000    9.000 
#    0.000    6.250    0.000    0.000    0.000    0.000 
#    0.000    0.000    0.000    0.000    0.000    0.000 
#
# Total GULP energy -89484.665452 kJ/mol
# GULP energy per Si atom -5592.791591 kJ/mol
# Density = 2.582556 g / cm^3
# Si number density = 25.884478 Si / 1000 Ang^3
#
#
#
# Elastic Constant Matrix: (Units=GPa)
#
#
# Indices 1 2 3 4 5 6 
#
# 1 98.2747 23.9068 37.8783 6.7409 2.4922 29.3539
# 2 23.9068 98.7642 17.5291 -5.9936 4.1499 32.8445
# 3 37.8783 17.5291 83.6064 0.5265 -0.8010 28.4980
# 4 6.7409 -5.9936 0.5265 40.4383 19.3400 6.7847
# 5 2.4922 4.1499 -0.8010 19.3400 50.6558 -1.0028
# 6 29.3539 32.8445 28.4980 6.7847 -1.0028 32.9920
#
#
#
# Elastic Compliance Matrix: (Units=1/GPa)
#
#
# Indices 1 2 3 4 5 6 
#
# 1 0.014473 0.000804 -0.002909 0.000158 -0.001107 -0.011230
# 2 0.000804 0.018037 0.003976 0.009131 -0.005418 -0.024149
# 3 -0.002909 0.003976 0.018754 0.004996 -0.002163 -0.018663
# 4 0.000158 0.009131 0.004996 0.036875 -0.015183 -0.021590
# 5 -0.001107 -0.005418 -0.002163 -0.015183 0.026243 0.012167
# 6 -0.011230 -0.024149 -0.018663 -0.021590 0.012167 0.085273
#
#
# Mechanical properties :
#
#
# Convention : Reuss Voigt Hill
#
# Bulk Modulus (GPa) = 18.17986 48.80818 33.49402
# Shear Modulus (GPa) = 23.33728 38.23930 30.78829
#
# Velocity S-wave (km/s) = 3.00591 3.84774 3.45258
# Velocity P-wave (km/s) = 4.36876 6.21589 5.37230
#
# Compressibility (1/GPa) = 0.05500594
#
# Stress axis : x y z
#
# Youngs Moduli (GPa) = 69.09419 55.44018 53.32098
#
# Poissons Ratio (x) = -0.04456 0.15512
# Poissons Ratio (y) = -0.05554 -0.21200
# Poissons Ratio (z) = 0.20101 -0.22043
#
# Static dielectric constant tensor:
#      x y z
#    x 2.022410 -0.024850 -0.039660 
#    y -0.024850 2.058070 -0.028690 
#    z -0.039660 -0.028690 2.124000 
# 
# From -- ./inp_files/343839.got.cif
#   From: 2010.05.17/outbox.cif.g08.bks.cpg/sg2_172_cif.got.tgz:343839.got - 2010.06.03 11:33:40.
