data_PCOD9083148
_publ_section_title
;
Structure prediction by ZEFSAII (Michael W. Deem and Ramdas Pophale) SiO2 
 PCOD9083148
Probable space group: P -1
;
_chemical_formula_sum "Si O2"
_cell_formula_units_Z 16
_cell_length_a 13.001744
_cell_length_b 12.043296
_cell_length_c 8.499446
_cell_angle_alpha 53.305106
_cell_angle_beta 72.673064
_cell_angle_gamma 41.590615
_cell_volume 680.010500
_symmetry_space_group_name_H-M "P -1"
_symmetry_group_IT_number 2
_symmetry_cell_setting 'triclinic'
loop_
_space_group_symop_operation_xyz
x,y,z
-x,-y,-z
loop_
_atom_site_type_symbol
_atom_site_label
_atom_site_fract_x
_atom_site_fract_y
_atom_site_fract_z
Si Si1 0.605040 0.210952 0.248087
Si Si2 0.537283 0.445318 0.767457
Si Si3 0.841165 0.759477 0.024782
Si Si4 0.515528 0.035581 0.764111
Si Si5 0.779167 0.829111 0.334687
Si Si6 0.327779 0.485760 0.581907
Si Si7 0.920486 0.389981 0.179858
Si Si8 0.299436 0.303666 0.269131
O O1 0.597184 0.314272 0.317782
O O2 0.438869 0.279009 0.273792
O O3 0.763587 0.968832 0.344874
O O4 0.593127 0.317509 0.007762
O O5 0.460310 0.412136 0.709003
O O6 0.674465 0.399330 0.652310
O O7 0.912355 0.795333 0.830677
O O8 0.655305 0.904284 0.942085
O O9 0.874078 0.766782 0.183983
O O10 0.929496 0.528475 0.148983
O O11 0.398699 0.019063 0.792032
O O12 0.399464 0.275166 0.654323
O O13 0.624441 0.908174 0.665901
O O14 0.794042 0.671869 0.558918
O O15 0.165648 0.622254 0.641465
O O16 0.800249 0.529181 0.967256
#
# Coordination Sequence:
#
# PCOD9083148 Si02
#       8
#     2   2   2   2   2   2   2   2
#     4  10  19  34  49  85 109 135 178 236 268 315
#     4  10  21  31  54  80 108 143 184 223 269 307
#     4  10  21  33  55  81 114 146 171 221 281 330
#     4  10  19  34  56  85 107 135 179 230 277 313
#     4  11  19  32  58  85 109 139 178 227 281 321
#     4  11  19  35  56  81 105 144 185 228 259 320
#     4  10  21  36  50  81 120 143 174 218 276 330
#     4  10  20  32  55  83 113 141 170 229 281 321
#
# _framework density 23.529050000000002
#
# number of rings (size 3 to 8) (size 9 to 14) (size 15 to 20)
#    0.000    1.750    2.500    4.125    1.750    0.500 
#    0.000    0.000    0.000    7.500    0.000    0.000 
#    0.000    0.000    0.000    0.000    0.000    0.000 
#
# Total GULP energy -89132.777969 kJ/mol
# GULP energy per Si atom -5570.798623 kJ/mol
# Density = 2.347550 g / cm^3
# Si number density = 23.529050 Si / 1000 Ang^3
#
#
#
# Elastic Constant Matrix: (Units=GPa)
#
#
# Indices 1 2 3 4 5 6 
#
# 1 41.0022 19.7651 9.0829 2.3326 -3.0588 5.6033
# 2 19.7651 59.7950 13.0409 16.4444 1.4891 9.4759
# 3 9.0829 13.0409 128.9841 30.6446 -19.4467 -9.5781
# 4 2.3326 16.4444 30.6446 29.6799 -0.9846 2.5459
# 5 -3.0588 1.4891 -19.4467 -0.9846 33.1856 9.5011
# 6 5.6033 9.4759 -9.5781 2.5459 9.5011 38.3539
#
#
#
# Elastic Compliance Matrix: (Units=1/GPa)
#
#
# Indices 1 2 3 4 5 6 
#
# 1 0.030504 -0.010860 -0.002389 0.006496 0.003115 -0.003573
# 2 -0.010860 0.024292 0.001173 -0.013592 -0.000953 -0.002984
# 3 -0.002389 0.001173 0.011853 -0.012727 0.005585 0.002481
# 4 0.006496 -0.013592 -0.012727 0.054029 -0.003659 -0.003449
# 5 0.003115 -0.000953 0.005585 -0.003659 0.035758 -0.007440
# 6 -0.003573 -0.002984 0.002481 -0.003449 -0.007440 0.030024
#
#
# Mechanical properties :
#
#
# Convention : Reuss Voigt Hill
#
# Bulk Modulus (GPa) = 23.53135 34.83990 29.18562
# Shear Modulus (GPa) = 22.24416 32.77003 27.50710
#
# Velocity S-wave (km/s) = 3.07806 3.73600 3.42288
# Velocity P-wave (km/s) = 4.75976 5.78356 5.29646
#
# Compressibility (1/GPa) = 0.04249650
#
# Stress axis : x y z
#
# Youngs Moduli (GPa) = 32.78229 41.16502 84.36935
#
# Poissons Ratio (x) = 0.44705 0.20158
# Poissons Ratio (y) = 0.35601 -0.09895
# Poissons Ratio (z) = 0.07832 -0.04828
#
# Static dielectric constant tensor:
#      x y z
#    x 1.903050 -0.056900 -0.044420 
#    y -0.056900 2.004740 0.023060 
#    z -0.044420 0.023060 1.990490 
# 
# From -- ./inp_files/306702.got.cif
#   From: 2010.05.17/outbox.cif.g08.bks.cpg/sg2_154_cif.got.tgz:306702.got - 2010.06.03 11:33:40.
