data_PCOD9083943
_publ_section_title
;
Structure prediction by ZEFSAII (Michael W. Deem and Ramdas Pophale) SiO2 
 PCOD9083943
Probable space group: P -1
;
_chemical_formula_sum "Si O2"
_cell_formula_units_Z 16
_cell_length_a 10.113910
_cell_length_b 8.964295
_cell_length_c 9.964242
_cell_angle_alpha 118.081739
_cell_angle_beta 79.470081
_cell_angle_gamma 117.771494
_cell_volume 704.463318
_symmetry_space_group_name_H-M "P -1"
_symmetry_group_IT_number 2
_symmetry_cell_setting 'triclinic'
loop_
_space_group_symop_operation_xyz
x,y,z
-x,-y,-z
loop_
_atom_site_type_symbol
_atom_site_label
_atom_site_fract_x
_atom_site_fract_y
_atom_site_fract_z
Si Si1 0.565259 0.814446 0.276211
Si Si2 0.057697 0.658073 0.170473
Si Si3 0.666729 0.228518 0.475136
Si Si4 0.895182 0.588132 0.448428
Si Si5 0.366306 0.492579 0.741809
Si Si6 0.929631 0.962169 0.643969
Si Si7 0.590216 0.819169 0.713229
Si Si8 0.379115 0.807337 0.066125
O O1 0.415251 0.753045 0.368061
O O2 0.635054 0.672641 0.236867
O O3 0.516121 0.811593 0.130503
O O4 0.672152 0.027966 0.390731
O O5 0.235271 0.738254 0.160893
O O6 0.002379 0.595772 0.306976
O O7 0.013717 0.829529 0.215016
O O8 0.000000 0.500000 0.000000
O O9 0.820368 0.401485 0.474184
O O10 0.538149 0.199313 0.375458
O O11 0.752989 0.579823 0.384831
O O12 0.952768 0.779990 0.606184
O O13 0.532193 0.615088 0.703623
O O14 0.338018 0.651164 0.893728
O O15 0.751126 0.889812 0.649006
O O16 0.000000 0.000000 0.500000
O O17 0.599256 0.982488 0.883294
#
# Coordination Sequence:
#
# PCOD9083943 Si02
#       8
#     2   2   2   2   2   2   2   2
#     4  10  20  33  51  78 111 144 171 216 276 326
#     4  10  19  36  56  78 110 142 179 223 270 315
#     4   9  19  35  54  77 109 141 177 220 270 320
#     4  10  19  34  59  85 104 136 186 227 262 307
#     4  11  19  31  56  82 111 136 177 225 270 316
#     4   9  18  30  50  81 108 130 171 222 267 310
#     4   9  18  32  53  82 106 137 180 228 263 309
#     4  10  20  34  51  77 111 146 177 213 271 330
#
# _framework density 22.712323999999999
#
# number of rings (size 3 to 8) (size 9 to 14) (size 15 to 20)
#    0.000    2.250    1.250    2.250    0.000    3.000 
#    0.000    0.625    0.000    8.250    0.000    0.000 
#    0.000    0.000    0.000    0.000    0.000    0.000 
#
# Total GULP energy -89276.755185 kJ/mol
# GULP energy per Si atom -5579.797199 kJ/mol
# Density = 2.266063 g / cm^3
# Si number density = 22.712324 Si / 1000 Ang^3
#
#
#
# Elastic Constant Matrix: (Units=GPa)
#
#
# Indices 1 2 3 4 5 6 
#
# 1 42.9453 18.9793 7.8166 4.0763 -10.3936 2.3614
# 2 18.9793 125.3321 24.0966 20.0204 -14.7555 2.1155
# 3 7.8166 24.0966 130.6938 25.5938 -13.9445 -8.7922
# 4 4.0763 20.0204 25.5938 34.8302 -2.4724 -15.5251
# 5 -10.3936 -14.7555 -13.9445 -2.4724 20.5205 -12.5559
# 6 2.3614 2.1155 -8.7922 -15.5251 -12.5559 40.1220
#
#
#
# Elastic Compliance Matrix: (Units=1/GPa)
#
#
# Indices 1 2 3 4 5 6 
#
# 1 0.027678 -0.002711 0.000532 0.000457 0.014540 0.003358
# 2 -0.002711 0.009801 -0.000229 -0.005389 0.004137 -0.001198
# 3 0.000532 -0.000229 0.009686 -0.005493 0.007435 0.002305
# 4 0.000457 -0.005389 -0.005493 0.045333 0.010191 0.019784
# 5 0.014540 0.004137 0.007435 0.010191 0.084233 0.030859
# 6 0.003358 -0.001198 0.002305 0.019784 0.030859 0.042607
#
#
# Mechanical properties :
#
#
# Convention : Reuss Voigt Hill
#
# Bulk Modulus (GPa) = 23.61321 44.52845 34.07083
# Shear Modulus (GPa) = 20.98446 35.63311 28.30879
#
# Velocity S-wave (km/s) = 3.04291 3.96522 3.53428
# Velocity P-wave (km/s) = 4.77126 6.37275 5.62925
#
# Compressibility (1/GPa) = 0.04234917
#
# Stress axis : x y z
#
# Youngs Moduli (GPa) = 36.12989 102.02586 103.24285
#
# Poissons Ratio (x) = 0.27664 -0.05496
# Poissons Ratio (y) = 0.09797 0.02363
# Poissons Ratio (z) = -0.01923 0.02336
#
# Static dielectric constant tensor:
#      x y z
#    x 1.870270 0.023570 -0.010120 
#    y 0.023570 1.936610 0.028210 
#    z -0.010120 0.028210 1.866160 
# 
# From -- ./inp_files/175019.got.cif
#   From: 2010.05.17/outbox.cif.g08.bks.cpg/sg2_88_cif.got.tgz:175019.got - 2010.06.03 11:33:40.
