data_PCOD9083315
_publ_section_title
;
Structure prediction by ZEFSAII (Michael W. Deem and Ramdas Pophale) SiO2 
 PCOD9083315
Probable space group: P -1
;
_chemical_formula_sum "Si O2"
_cell_formula_units_Z 16
_cell_length_a 5.131199
_cell_length_b 23.206547
_cell_length_c 18.506619
_cell_angle_alpha 20.930992
_cell_angle_beta 81.389378
_cell_angle_gamma 93.448567
_cell_volume 641.602215
_symmetry_space_group_name_H-M "P -1"
_symmetry_group_IT_number 2
_symmetry_cell_setting 'triclinic'
loop_
_space_group_symop_operation_xyz
x,y,z
-x,-y,-z
loop_
_atom_site_type_symbol
_atom_site_label
_atom_site_fract_x
_atom_site_fract_y
_atom_site_fract_z
Si Si1 0.805943 0.857812 0.108525
Si Si2 0.684221 0.174672 0.946005
Si Si3 0.778233 0.177733 0.358013
Si Si4 0.757814 0.500157 0.375471
Si Si5 0.662717 0.805230 0.942398
Si Si6 0.062813 0.837138 0.773498
Si Si7 0.237936 0.466182 0.110703
Si Si8 0.055076 0.494987 0.236605
O O1 0.544316 0.869089 0.061233
O O2 0.577253 0.641405 0.405448
O O3 0.083060 0.890631 0.005830
O O4 0.000000 0.000000 0.000000
O O5 0.446286 0.089517 0.124127
O O6 0.943549 0.400694 0.697116
O O7 0.010534 0.171335 0.298078
O O8 0.918237 0.280228 0.307561
O O9 0.441769 0.972714 0.612222
O O10 0.734280 0.333073 0.136781
O O11 0.762501 0.683518 0.128108
O O12 0.803226 0.386180 0.441158
O O13 0.362708 0.647856 0.091561
O O14 0.929953 0.925106 0.730421
O O15 0.932951 0.618108 0.060176
O O16 0.185057 0.427414 0.245120
O O17 0.500000 0.500000 0.000000
#
# Coordination Sequence:
#
# PCOD9083315 Si02
#       8
#     2   2   2   2   2   2   2   2
#     4  12  26  43  66  97 132 163 204 263 319 373
#     4  11  23  43  69  95 122 168 212 255 306 385
#     4   9  19  34  57  79 117 157 207 249 307 362
#     4  10  22  41  68  89 122 167 214 256 308 378
#     4  10  20  37  64  89 118 156 212 257 305 361
#     4   9  18  36  56  85 113 156 205 262 301 357
#     4  10  19  34  54  83 117 161 200 248 308 371
#     4   9  20  35  57  85 117 155 206 255 307 367
#
# _framework density 24.937569
#
# number of rings (size 3 to 8) (size 9 to 14) (size 15 to 20)
#    0.000    2.000    1.250    1.875    3.500    2.000 
#    2.250    5.000    0.000    0.000    0.000    0.000 
#    0.000    0.000    0.000    0.000    0.000    0.000 
#
# Total GULP energy -89195.633577 kJ/mol
# GULP energy per Si atom -5574.727099 kJ/mol
# Density = 2.488081 g / cm^3
# Si number density = 24.937569 Si / 1000 Ang^3
#
#
#
# Elastic Constant Matrix: (Units=GPa)
#
#
# Indices 1 2 3 4 5 6 
#
# 1 85.1485 25.6268 6.4505 -0.1899 -11.1654 0.8773
# 2 25.6268 141.8961 9.8480 -6.4630 -18.7742 10.3188
# 3 6.4505 9.8480 45.4278 -2.2723 -6.7982 5.5753
# 4 -0.1899 -6.4630 -2.2723 25.2933 -1.5082 -14.0867
# 5 -11.1654 -18.7742 -6.7982 -1.5082 21.0734 -1.2519
# 6 0.8773 10.3188 5.5753 -14.0867 -1.2519 49.2496
#
#
#
# Elastic Compliance Matrix: (Units=1/GPa)
#
#
# Indices 1 2 3 4 5 6 
#
# 1 0.012969 -0.001621 -0.000748 0.000129 0.005217 0.000363
# 2 -0.001621 0.008396 -0.000390 0.001956 0.006579 -0.000959
# 3 -0.000748 -0.000390 0.023538 0.001286 0.006821 -0.002028
# 4 0.000129 0.001956 0.001286 0.047957 0.006450 0.013323
# 5 0.005217 0.006579 0.006821 0.006450 0.058806 0.001096
# 6 0.000363 -0.000959 -0.002028 0.013323 0.001096 0.024568
#
#
# Mechanical properties :
#
#
# Convention : Reuss Voigt Hill
#
# Bulk Modulus (GPa) = 25.38890 39.59145 32.49018
# Shear Modulus (GPa) = 25.65690 34.49307 30.07498
#
# Velocity S-wave (km/s) = 3.21104 3.72314 3.47653
# Velocity P-wave (km/s) = 4.89396 5.86456 5.40111
#
# Compressibility (1/GPa) = 0.03938729
#
# Stress axis : x y z
#
# Youngs Moduli (GPa) = 77.10541 119.09750 42.48506
#
# Poissons Ratio (x) = 0.19301 0.03176
# Poissons Ratio (y) = 0.12496 0.01657
# Poissons Ratio (z) = 0.05764 0.04644
#
# Static dielectric constant tensor:
#      x y z
#    x 2.081120 -0.065190 0.002320 
#    y -0.065190 2.115440 0.070850 
#    z 0.002320 0.070850 1.977360 
# 
# From -- ./inp_files/138876.got.cif
#   From: 2010.05.17/outbox.cif.g08.bks.cpg/sg2_70_cif.got.tgz:138876.got - 2010.06.03 11:33:40.
