data_PCOD9083516
_publ_section_title
;
Structure prediction by ZEFSAII (Michael W. Deem and Ramdas Pophale) SiO2 
 PCOD9083516
Probable space group: P -1
;
_chemical_formula_sum "Si O2"
_cell_formula_units_Z 14
_cell_length_a 14.902836
_cell_length_b 10.675850
_cell_length_c 7.898573
_cell_angle_alpha 50.934985
_cell_angle_beta 50.992498
_cell_angle_gamma 49.489381
_cell_volume 688.354339
_symmetry_space_group_name_H-M "P -1"
_symmetry_group_IT_number 2
_symmetry_cell_setting 'triclinic'
loop_
_space_group_symop_operation_xyz
x,y,z
-x,-y,-z
loop_
_atom_site_type_symbol
_atom_site_label
_atom_site_fract_x
_atom_site_fract_y
_atom_site_fract_z
Si Si1 0.832041 0.701647 0.999486
Si Si2 0.872651 0.554174 0.712698
Si Si3 0.600193 0.678629 0.792303
Si Si4 0.508343 0.418839 0.326556
Si Si5 0.687216 0.250261 0.541710
Si Si6 0.921901 0.308864 0.163872
Si Si7 0.580718 0.008539 0.057230
O O1 0.874491 0.494115 0.169923
O O2 0.846930 0.693365 0.782535
O O3 0.928712 0.772217 0.908053
O O4 0.688834 0.815407 0.129139
O O5 0.749134 0.625327 0.680913
O O6 0.000000 0.500000 0.500000
O O7 0.890188 0.379336 0.949136
O O8 0.549605 0.647640 0.700511
O O9 0.570494 0.547185 0.069169
O O10 0.516556 0.879058 0.780526
O O11 0.615948 0.262245 0.437918
O O12 0.391450 0.547211 0.472114
O O13 0.834660 0.208684 0.393292
O O14 0.658958 0.120880 0.810048
O O15 0.500000 0.000000 0.000000
#
# Coordination Sequence:
#
# PCOD9083516 Si02
#       7
#     2   2   2   2   2   2   2
#     4   9  20  36  59  82 114 147 194 228 278 343
#     4  10  19  34  56  85 110 146 187 235 273 323
#     4  10  19  35  58  86 117 142 185 242 280 330
#     4   9  19  33  57  89 107 145 194 229 280 331
#     4  10  20  35  61  81 115 152 187 236 274 343
#     4   9  19  38  58  83 104 155 196 226 267 341
#     4  11  21  38  57  85 120 149 181 236 297 332
#
# _framework density 20.338362
#
# number of rings (size 3 to 8) (size 9 to 14) (size 15 to 20)
#    0.857    1.429    2.857    0.000    6.000    0.571 
#    0.000    2.143    0.000    1.714    0.000    0.000 
#    0.000    0.000    0.000    0.000    0.000    0.000 
#
# Total GULP energy -78050.915333 kJ/mol
# GULP energy per Si atom -5575.065381 kJ/mol
# Density = 2.029207 g / cm^3
# Si number density = 20.338362 Si / 1000 Ang^3
#
#
#
# Elastic Constant Matrix: (Units=GPa)
#
#
# Indices 1 2 3 4 5 6 
#
# 1 90.6937 15.0328 8.5904 21.8571 -17.4557 -8.3812
# 2 15.0328 53.8580 6.9020 20.6077 -5.8590 -8.6473
# 3 8.5904 6.9020 65.3198 10.7249 -22.5122 -1.6226
# 4 21.8571 20.6077 10.7249 28.5696 -5.3207 -4.2915
# 5 -17.4557 -5.8590 -22.5122 -5.3207 32.7037 8.8535
# 6 -8.3812 -8.6473 -1.6226 -4.2915 8.8535 24.1578
#
#
#
# Elastic Compliance Matrix: (Units=1/GPa)
#
#
# Indices 1 2 3 4 5 6 
#
# 1 0.014982 0.000851 0.002536 -0.011455 0.007822 0.000771
# 2 0.000851 0.026599 0.000667 -0.018992 0.000924 0.006149
# 3 0.002536 0.000667 0.021823 -0.008284 0.016482 -0.004928
# 4 -0.011455 -0.018992 -0.008284 0.059693 -0.005896 0.001436
# 5 0.007822 0.000924 0.016482 -0.005896 0.049361 -0.014986
# 6 0.000771 0.006149 -0.004928 0.001436 -0.014986 0.049279
#
#
# Mechanical properties :
#
#
# Convention : Reuss Voigt Hill
#
# Bulk Modulus (GPa) = 13.98352 30.10245 22.04299
# Shear Modulus (GPa) = 21.05544 29.04265 25.04905
#
# Velocity S-wave (km/s) = 3.22103 3.78295 3.51325
# Velocity P-wave (km/s) = 4.55234 5.82357 5.22674
#
# Compressibility (1/GPa) = 0.07151275
#
# Stress axis : x y z
#
# Youngs Moduli (GPa) = 66.74485 37.59526 45.82231
#
# Poissons Ratio (x) = -0.03200 -0.11619
# Poissons Ratio (y) = -0.05681 -0.03057
# Poissons Ratio (z) = -0.16924 -0.02508
#
# Static dielectric constant tensor:
#      x y z
#    x 1.723030 0.000310 0.000970 
#    y 0.000310 1.753570 -0.022880 
#    z 0.000970 -0.022880 1.745020 
# 
# From -- ./inp_files/302482.got.cif
#   From: 2010.05.17/outbox.cif.g08.bks.cpg/sg2_152_cif.got.tgz:302482.got - 2010.06.03 11:33:40.
