data_PCOD9083445
_publ_section_title
;
Structure prediction by ZEFSAII (Michael W. Deem and Ramdas Pophale) SiO2 
 PCOD9083445
Probable space group: P -1
;
_chemical_formula_sum "Si O2"
_cell_formula_units_Z 14
_cell_length_a 5.536943
_cell_length_b 12.109591
_cell_length_c 15.971489
_cell_angle_alpha 58.650558
_cell_angle_beta 39.763080
_cell_angle_gamma 51.812415
_cell_volume 536.206905
_symmetry_space_group_name_H-M "P -1"
_symmetry_group_IT_number 2
_symmetry_cell_setting 'triclinic'
loop_
_space_group_symop_operation_xyz
x,y,z
-x,-y,-z
loop_
_atom_site_type_symbol
_atom_site_label
_atom_site_fract_x
_atom_site_fract_y
_atom_site_fract_z
Si Si1 0.317721 0.946009 0.687459
Si Si2 0.255578 0.332843 0.996658
Si Si3 0.333421 0.621942 0.281559
Si Si4 0.054729 0.109803 0.040787
Si Si5 0.428478 0.818108 0.467025
Si Si6 0.826358 0.290809 0.277391
Si Si7 0.562178 0.828733 0.232099
O O1 0.602219 0.028406 0.556587
O O2 0.865998 0.057473 0.736093
O O3 0.374019 0.804323 0.679847
O O4 0.268235 0.933586 0.805868
O O5 0.023521 0.255428 0.034813
O O6 0.221725 0.281834 0.120426
O O7 0.650542 0.317594 0.840707
O O8 0.000000 0.500000 0.000000
O O9 0.521233 0.454472 0.294549
O O10 0.620045 0.677352 0.237770
O O11 0.883322 0.695893 0.412007
O O12 0.103937 0.125168 0.922375
O O13 0.500000 0.000000 0.000000
O O14 0.120171 0.768139 0.618964
O O15 0.457567 0.822906 0.358313
#
# Coordination Sequence:
#
# PCOD9083445 Si02
#       7
#     2   2   2   2   2   2   2
#     4   9  19  35  53  74 106 140 173 213 257 306
#     4   8  15  30  54  73  94 134 173 208 253 299
#     4   9  19  37  57  75 102 139 177 216 254 304
#     4   8  14  29  51  71  95 131 169 208 247 294
#     4  11  21  33  54  80 108 138 169 214 262 311
#     4  10  19  34  56  78 104 140 174 211 264 309
#     4   9  19  34  53  79 106 135 175 213 259 311
#
# _framework density 26.109325999999999
#
# number of rings (size 3 to 8) (size 9 to 14) (size 15 to 20)
#    0.000    2.857    0.000    1.714    0.000    1.714 
#    0.000    1.429    0.000   36.000    0.000    0.000 
#    0.000    0.000    0.000    0.000    0.000    0.000 
#
# Total GULP energy -78217.774751 kJ/mol
# GULP energy per Si atom -5586.983911 kJ/mol
# Density = 2.604990 g / cm^3
# Si number density = 26.109326 Si / 1000 Ang^3
#
#
#
# Elastic Constant Matrix: (Units=GPa)
#
#
# Indices 1 2 3 4 5 6 
#
# 1 29.8300 24.4096 45.6700 -5.3345 14.3689 0.3758
# 2 24.4096 169.2446 50.6970 -12.2204 4.4619 30.6689
# 3 45.6700 50.6970 262.6647 -9.5099 24.3887 -11.4263
# 4 -5.3345 -12.2204 -9.5099 46.8246 -10.0459 -0.2641
# 5 14.3689 4.4619 24.3887 -10.0459 56.8435 8.5296
# 6 0.3758 30.6689 -11.4263 -0.2641 8.5296 23.3417
#
#
#
# Elastic Compliance Matrix: (Units=1/GPa)
#
#
# Indices 1 2 3 4 5 6 
#
# 1 0.055602 -0.007513 -0.006640 0.000497 -0.012050 0.010135
# 2 -0.007513 0.010529 -0.001783 0.002449 0.004714 -0.016281
# 3 -0.006640 -0.001783 0.005689 -0.000368 -0.001558 0.005800
# 4 0.000497 0.002449 -0.000368 0.022941 0.004620 -0.004835
# 5 -0.012050 0.004714 -0.001558 0.004620 0.024080 -0.015509
# 6 0.010135 -0.016281 0.005800 -0.004835 -0.015509 0.072523
#
#
# Mechanical properties :
#
#
# Convention : Reuss Voigt Hill
#
# Bulk Modulus (GPa) = 25.03233 78.14362 51.58797
# Shear Modulus (GPa) = 21.13680 48.13282 34.63481
#
# Velocity S-wave (km/s) = 2.84835 4.29827 3.64611
# Velocity P-wave (km/s) = 4.51949 7.39107 6.12591
#
# Compressibility (1/GPa) = 0.03994834
#
# Stress axis : x y z
#
# Youngs Moduli (GPa) = 17.98483 94.97305 175.76444
#
# Poissons Ratio (x) = 0.71358 1.16704
# Poissons Ratio (y) = 0.13513 0.31341
# Poissons Ratio (z) = 0.11942 0.16935
#
# Static dielectric constant tensor:
#      x y z
#    x 2.159010 -0.004240 0.009220 
#    y -0.004240 1.981220 -0.013410 
#    z 0.009220 -0.013410 2.064830 
# 
# From -- ./inp_files/67791.got.cif
#   From: 2010.05.17/outbox.cif.g08.bks.cpg/sg2_34_cif.got.tgz:67791.got - 2010.06.03 11:33:40.
