data_PCOD9083893
_publ_section_title
;
Structure prediction by ZEFSAII (Michael W. Deem and Ramdas Pophale) SiO2 
 PCOD9083893
Probable space group: P -1
;
_chemical_formula_sum "Si O2"
_cell_formula_units_Z 16
_cell_length_a 9.329284
_cell_length_b 8.753560
_cell_length_c 15.195509
_cell_angle_alpha 84.534303
_cell_angle_beta 89.291312
_cell_angle_gamma 147.560395
_cell_volume 652.548940
_symmetry_space_group_name_H-M "P -1"
_symmetry_group_IT_number 2
_symmetry_cell_setting 'triclinic'
loop_
_space_group_symop_operation_xyz
x,y,z
-x,-y,-z
loop_
_atom_site_type_symbol
_atom_site_label
_atom_site_fract_x
_atom_site_fract_y
_atom_site_fract_z
Si Si1 0.782528 0.746902 0.706752
Si Si2 0.275628 0.884581 0.944872
Si Si3 0.221950 0.523625 0.901516
Si Si4 0.641720 0.166281 0.682292
Si Si5 0.702909 0.892072 0.221042
Si Si6 0.493574 0.160283 0.445046
Si Si7 0.802990 0.052507 0.800528
Si Si8 0.905348 0.665790 0.541278
O O1 0.472703 0.418136 0.742425
O O2 0.820207 0.955579 0.723231
O O3 0.850115 0.747294 0.608847
O O4 0.986331 0.844547 0.767416
O O5 0.218974 0.705457 0.880331
O O6 0.362362 0.111245 0.877060
O O7 0.991422 0.672894 0.004557
O O8 0.500000 0.000000 0.000000
O O9 0.540728 0.774329 0.879082
O O10 0.070333 0.287384 0.843307
O O11 0.429284 0.102606 0.713259
O O12 0.857395 0.458184 0.604992
O O13 0.492660 0.887077 0.651636
O O14 0.778762 0.206641 0.760890
O O15 0.708985 0.468969 0.469614
O O16 0.500000 0.000000 0.500000
O O17 0.201599 0.955891 0.485311
#
# Coordination Sequence:
#
# PCOD9083893 Si02
#       8
#     2   2   2   2   2   2   2   2
#     4  11  25  43  61  89 133 170 202 253 311 374
#     4  11  23  42  70  99 124 156 206 265 311 360
#     4  11  24  39  67  92 128 156 201 260 313 354
#     4  10  21  37  66  93 119 160 216 263 299 361
#     4  11  24  41  67  92 121 168 212 247 314 375
#     4  10  19  34  58  92 121 153 205 265 308 351
#     4  12  25  43  62  95 128 165 209 257 306 364
#     4  10  21  37  60  86 125 162 204 251 314 365
#
# _framework density 24.519231999999999
#
# number of rings (size 3 to 8) (size 9 to 14) (size 15 to 20)
#    0.000    1.250    2.500    4.500    7.000    4.000 
#    0.000    5.000    0.000    0.000    0.000    0.875 
#    0.000    0.000    0.000    0.000    0.000    0.000 
#
# Total GULP energy -89314.958085 kJ/mol
# GULP energy per Si atom -5582.184880 kJ/mol
# Density = 2.446343 g / cm^3
# Si number density = 24.519232 Si / 1000 Ang^3
#
#
#
# Elastic Constant Matrix: (Units=GPa)
#
#
# Indices 1 2 3 4 5 6 
#
# 1 85.3198 26.4963 26.7235 9.3506 -19.7247 1.9369
# 2 26.4963 110.2905 23.5729 17.4141 -17.1115 14.7590
# 3 26.7235 23.5729 50.2699 8.1323 -13.0313 3.1414
# 4 9.3506 17.4141 8.1323 35.6501 -4.6061 -12.3152
# 5 -19.7247 -17.1115 -13.0313 -4.6061 34.9313 10.6316
# 6 1.9369 14.7590 3.1414 -12.3152 10.6316 36.7377
#
#
#
# Elastic Compliance Matrix: (Units=1/GPa)
#
#
# Indices 1 2 3 4 5 6 
#
# 1 0.015648 -0.000667 -0.005582 -0.002634 0.006988 -0.002985
# 2 -0.000667 0.013553 -0.002027 -0.008564 0.007505 -0.010279
# 3 -0.005582 -0.002027 0.026478 -0.004291 0.006532 -0.004484
# 4 -0.002634 -0.008564 -0.004291 0.039620 -0.008007 0.019545
# 5 0.006988 0.007505 0.006532 -0.008007 0.043477 -0.019208
# 6 -0.002985 -0.010279 -0.004484 0.019545 -0.019208 0.044001
#
#
# Mechanical properties :
#
#
# Convention : Reuss Voigt Hill
#
# Bulk Modulus (GPa) = 25.55786 44.38505 34.97145
# Shear Modulus (GPa) = 23.54375 32.73635 28.14005
#
# Velocity S-wave (km/s) = 3.10210 3.65791 3.39141
# Velocity P-wave (km/s) = 4.82461 5.99848 5.44328
#
# Compressibility (1/GPa) = 0.03912690
#
# Stress axis : x y z
#
# Youngs Moduli (GPa) = 63.90622 73.78680 37.76713
#
# Poissons Ratio (x) = 0.04920 0.21080
# Poissons Ratio (y) = 0.04261 0.07657
# Poissons Ratio (z) = 0.35670 0.14960
#
# Static dielectric constant tensor:
#      x y z
#    x 1.930670 -0.016940 0.009870 
#    y -0.016940 2.009720 0.027270 
#    z 0.009870 0.027270 2.054060 
# 
# From -- ./inp_files/557259.got.cif
#   From: 2010.05.17/outbox.cif.g08.bks.cpg/sg2_279_cif.got.tgz:557259.got - 2010.06.03 11:33:40.
