data_PCOD9083031
_publ_section_title
;
Structure prediction by ZEFSAII (Michael W. Deem and Ramdas Pophale) SiO2 
 PCOD9083031
Probable space group: P -1
;
_chemical_formula_sum "Si O2"
_cell_formula_units_Z 16
_cell_length_a 16.128432
_cell_length_b 10.365598
_cell_length_c 18.158504
_cell_angle_alpha 35.439546
_cell_angle_beta 157.918994
_cell_angle_gamma 148.519910
_cell_volume 591.289546
_symmetry_space_group_name_H-M "P -1"
_symmetry_group_IT_number 2
_symmetry_cell_setting 'triclinic'
loop_
_space_group_symop_operation_xyz
x,y,z
-x,-y,-z
loop_
_atom_site_type_symbol
_atom_site_label
_atom_site_fract_x
_atom_site_fract_y
_atom_site_fract_z
Si Si1 0.270954 0.536091 0.733011
Si Si2 0.070452 0.880320 0.543663
Si Si3 0.401332 0.609059 0.581027
Si Si4 0.126202 0.412361 0.001496
Si Si5 0.553608 0.263391 0.014439
Si Si6 0.068859 0.843829 0.812099
Si Si7 0.490415 0.972528 0.616030
Si Si8 0.045532 0.062812 0.845868
O O1 0.447929 0.826484 0.726120
O O2 0.000000 0.500000 0.500000
O O3 0.391083 0.395611 0.847971
O O4 0.216639 0.360710 0.842819
O O5 0.838978 0.608408 0.480475
O O6 0.310009 0.837913 0.769797
O O7 0.097072 0.052736 0.415558
O O8 0.000000 0.000000 0.500000
O O9 0.610740 0.526981 0.769444
O O10 0.523999 0.805277 0.657326
O O11 0.338170 0.741885 0.398629
O O12 0.971746 0.112681 0.018027
O O13 0.230504 0.545311 0.948173
O O14 0.001404 0.561231 0.871461
O O15 0.338090 0.012383 0.919239
O O16 0.090178 0.921051 0.878649
O O17 0.223985 0.958193 0.382271
#
# Coordination Sequence:
#
# PCOD9083031 Si02
#       8
#     2   2   2   2   2   2   2   2
#     4   9  17  35  58  84 112 157 196 247 309 358
#     4  12  23  37  61  97 128 162 209 258 308 369
#     4  10  19  33  60  95 118 156 210 262 302 357
#     4  11  18  34  60  93 118 162 208 250 309 366
#     4  11  21  36  64  90 120 161 213 254 304 374
#     4  11  21  39  60  87 129 169 202 254 314 365
#     4   9  17  34  63  86 115 162 211 248 308 364
#     4   9  20  32  62  90 119 162 206 252 311 371
#
# _framework density 27.0595
#
# number of rings (size 3 to 8) (size 9 to 14) (size 15 to 20)
#    0.000    1.750    3.750    2.250    0.000    0.000 
#    0.000    0.625   11.000   30.750    0.000    0.000 
#    0.000    0.000    0.000    0.000    0.000    0.000 
#
# Total GULP energy -89436.883068 kJ/mol
# GULP energy per Si atom -5589.805192 kJ/mol
# Density = 2.699791 g / cm^3
# Si number density = 27.059500 Si / 1000 Ang^3
#
#
#
# Elastic Constant Matrix: (Units=GPa)
#
#
# Indices 1 2 3 4 5 6 
#
# 1 101.4145 24.1205 32.0458 -19.3609 4.1243 6.5336
# 2 24.1205 114.4561 50.8859 -26.2697 -5.8090 22.7262
# 3 32.0458 50.8859 155.8068 -39.5560 -7.8001 10.9068
# 4 -19.3609 -26.2697 -39.5560 51.5705 14.9243 -8.3523
# 5 4.1243 -5.8090 -7.8001 14.9243 53.8121 -17.8268
# 6 6.5336 22.7262 10.9068 -8.3523 -17.8268 44.0657
#
#
#
# Elastic Compliance Matrix: (Units=1/GPa)
#
#
# Indices 1 2 3 4 5 6 
#
# 1 0.011287 -0.000955 -0.001196 0.003350 -0.002487 -0.001256
# 2 -0.000955 0.011810 -0.002519 0.003354 -0.001733 -0.005391
# 3 -0.001196 -0.002519 0.008753 0.005086 -0.000267 0.000166
# 4 0.003350 0.003354 0.005086 0.028205 -0.007348 -0.001112
# 5 -0.002487 -0.001733 -0.000267 -0.007348 0.023747 0.009543
# 6 -0.001256 -0.005391 0.000166 -0.001112 0.009543 0.029269
#
#
# Mechanical properties :
#
#
# Convention : Reuss Voigt Hill
#
# Bulk Modulus (GPa) = 44.42075 65.08688 54.75381
# Shear Modulus (GPa) = 38.48700 47.53134 43.00917
#
# Velocity S-wave (km/s) = 3.77544 4.19567 3.99109
# Velocity P-wave (km/s) = 5.95457 6.89761 6.44336
#
# Compressibility (1/GPa) = 0.02251200
#
# Stress axis : x y z
#
# Youngs Moduli (GPa) = 88.59687 84.67137 114.24699
#
# Poissons Ratio (x) = 0.08086 0.13660
# Poissons Ratio (y) = 0.08461 0.28774
# Poissons Ratio (z) = 0.10593 0.21325
#
# Static dielectric constant tensor:
#      x y z
#    x 2.165910 0.036770 -0.050340 
#    y 0.036770 2.173070 0.000470 
#    z -0.050340 0.000470 2.122450 
# 
# From -- ./inp_files/600042.got.cif
#   From: 2010.05.17/outbox.cif.g08.bks.cpg/sg2_301_cif.got.tgz:600042.got - 2010.06.03 11:33:40.
