data_PCOD9083882
_publ_section_title
;
Structure prediction by ZEFSAII (Michael W. Deem and Ramdas Pophale) SiO2 
 PCOD9083882
Probable space group: P -1
;
_chemical_formula_sum "Si O2"
_cell_formula_units_Z 14
_cell_length_a 9.509602
_cell_length_b 12.659844
_cell_length_c 8.427442
_cell_angle_alpha 46.261544
_cell_angle_beta 54.101320
_cell_angle_gamma 44.423059
_cell_volume 504.418338
_symmetry_space_group_name_H-M "P -1"
_symmetry_group_IT_number 2
_symmetry_cell_setting 'triclinic'
loop_
_space_group_symop_operation_xyz
x,y,z
-x,-y,-z
loop_
_atom_site_type_symbol
_atom_site_label
_atom_site_fract_x
_atom_site_fract_y
_atom_site_fract_z
Si Si1 0.833401 0.503798 0.718325
Si Si2 0.101415 0.111863 0.997634
Si Si3 0.580293 0.403293 0.789892
Si Si4 0.160261 0.322643 0.159768
Si Si5 0.265198 0.937359 0.758371
Si Si6 0.715398 0.985016 0.683419
Si Si7 0.207823 0.717460 0.567615
O O1 0.654581 0.514118 0.720500
O O2 0.798228 0.637938 0.736764
O O3 0.000000 0.500000 0.500000
O O4 0.948081 0.314531 0.916342
O O5 0.251362 0.040131 0.118065
O O6 0.956435 0.034169 0.171690
O O7 0.203996 0.076434 0.794353
O O8 0.347489 0.533057 0.755188
O O9 0.711149 0.328478 0.618968
O O10 0.622772 0.249323 0.036937
O O11 0.352115 0.167902 0.113210
O O12 0.037088 0.214450 0.337805
O O13 0.000000 0.500000 0.000000
O O14 0.360417 0.958760 0.513590
O O15 0.758635 0.147267 0.505468
#
# Coordination Sequence:
#
# PCOD9083882 Si02
#       7
#     2   2   2   2   2   2   2
#     4  11  21  39  63  92 128 165 215 264 318 381
#     4  10  19  34  58  90 126 161 210 267 310 373
#     4  10  23  41  66  95 125 174 217 262 321 389
#     4  12  24  40  65  96 128 167 213 268 326 379
#     4  10  20  34  60  92 122 164 216 258 312 376
#     4  12  23  39  64  95 126 168 218 268 314 381
#     4  11  23  43  67  92 131 170 217 265 321 385
#
# _framework density 27.754742
#
# number of rings (size 3 to 8) (size 9 to 14) (size 15 to 20)
#    0.000    1.143    4.286    3.429    4.000    0.571 
#    0.000    0.714    3.143    3.429    0.000    0.000 
#    0.000    0.000    0.000    0.000    0.000    0.000 
#
# Total GULP energy -78136.740830 kJ/mol
# GULP energy per Si atom -5581.195774 kJ/mol
# Density = 2.769157 g / cm^3
# Si number density = 27.754742 Si / 1000 Ang^3
#
#
#
# Elastic Constant Matrix: (Units=GPa)
#
#
# Indices 1 2 3 4 5 6 
#
# 1 155.3655 83.2420 49.3128 18.5448 18.0060 18.9900
# 2 83.2420 171.4113 47.9220 8.5341 11.9209 41.2616
# 3 49.3128 47.9220 117.9051 -5.6414 45.2052 5.0928
# 4 18.5448 8.5341 -5.6414 59.3807 3.9169 12.2776
# 5 18.0060 11.9209 45.2052 3.9169 42.0737 8.4451
# 6 18.9900 41.2616 5.0928 12.2776 8.4451 66.4308
#
#
#
# Elastic Compliance Matrix: (Units=1/GPa)
#
#
# Indices 1 2 3 4 5 6 
#
# 1 0.009638 -0.003919 -0.002551 -0.002765 -0.000096 0.000398
# 2 -0.003919 0.009671 -0.003453 0.000329 0.003649 -0.005147
# 3 -0.002551 -0.003453 0.017959 0.003547 -0.018189 0.003154
# 4 -0.002765 0.000329 0.003547 0.018804 -0.003937 -0.002661
# 5 -0.000096 0.003649 -0.018189 -0.003937 0.043826 -0.005688
# 6 0.000398 -0.005147 0.003154 -0.002661 -0.005688 0.019109
#
#
# Mechanical properties :
#
#
# Convention : Reuss Voigt Hill
#
# Bulk Modulus (GPa) = 57.39566 89.51507 73.45537
# Shear Modulus (GPa) = 34.56389 51.19071 42.87730
#
# Velocity S-wave (km/s) = 3.53276 4.29930 3.93474
# Velocity P-wave (km/s) = 6.11269 7.54768 6.86777
#
# Compressibility (1/GPa) = 0.01742292
#
# Stress axis : x y z
#
# Youngs Moduli (GPa) = 103.75232 103.40162 55.68309
#
# Poissons Ratio (x) = 0.40521 0.14205
# Poissons Ratio (y) = 0.40659 0.19226
# Poissons Ratio (z) = 0.26468 0.35702
#
# Static dielectric constant tensor:
#      x y z
#    x 2.182940 -0.087820 -0.057830 
#    y -0.087820 2.199890 -0.062430 
#    z -0.057830 -0.062430 2.274640 
# 
# From -- ./inp_files/184010.got.cif
#   From: 2010.05.17/outbox.cif.g08.bks.cpg/sg2_93_cif.got.tgz:184010.got - 2010.06.03 11:33:40.
