data_PCOD9083405
_publ_section_title
;
Structure prediction by ZEFSAII (Michael W. Deem and Ramdas Pophale) SiO2 
 PCOD9083405
Probable space group: P -1
;
_chemical_formula_sum "Si O2"
_cell_formula_units_Z 14
_cell_length_a 12.231600
_cell_length_b 8.084295
_cell_length_c 17.087575
_cell_angle_alpha 110.119235
_cell_angle_beta 26.977578
_cell_angle_gamma 102.230440
_cell_volume 701.725507
_symmetry_space_group_name_H-M "P -1"
_symmetry_group_IT_number 2
_symmetry_cell_setting 'triclinic'
loop_
_space_group_symop_operation_xyz
x,y,z
-x,-y,-z
loop_
_atom_site_type_symbol
_atom_site_label
_atom_site_fract_x
_atom_site_fract_y
_atom_site_fract_z
Si Si1 0.776597 0.952772 0.347398
Si Si2 0.179520 0.684817 0.953625
Si Si3 0.974560 0.674421 0.598404
Si Si4 0.329341 0.940983 0.399202
Si Si5 0.561531 0.916071 0.803262
Si Si6 0.107110 0.243330 0.165657
Si Si7 0.850218 0.691867 0.026236
O O1 0.500000 0.000000 0.500000
O O2 0.769271 0.937935 0.443370
O O3 0.908045 0.117308 0.271195
O O4 0.940917 0.779566 0.172438
O O5 0.396612 0.780864 0.854448
O O6 0.235828 0.474941 0.905296
O O7 0.088897 0.714483 0.926697
O O8 0.000000 0.500000 0.500000
O O9 0.203213 0.769880 0.455818
O O10 0.943994 0.639207 0.704187
O O11 0.735326 0.821692 0.745934
O O12 0.625441 0.866502 0.204570
O O13 0.280820 0.039674 0.363511
O O14 0.372066 0.101076 0.978692
O O15 0.098985 0.340835 0.103399
#
# Coordination Sequence:
#
# PCOD9083405 Si02
#       7
#     2   2   2   2   2   2   2
#     4  10  19  34  55  84 112 144 181 223 276 327
#     4  10  21  35  58  82 116 149 178 233 270 339
#     4  11  22  39  58  83 114 144 185 239 278 317
#     4  10  21  36  60  83 113 145 187 230 270 333
#     4  10  21  38  59  82 111 149 192 218 278 329
#     4   9  22  37  59  79 111 150 187 226 270 339
#     4  10  20  38  55  85 114 145 189 220 285 326
#
# _framework density 19.95082
#
# number of rings (size 3 to 8) (size 9 to 14) (size 15 to 20)
#    0.000    2.000    1.429    1.714    2.000    2.857 
#    0.000    8.571    0.000    0.000    0.000    0.000 
#    0.000    0.000    0.000    0.000    0.000    0.000 
#
# Total GULP energy -78180.227874 kJ/mol
# GULP energy per Si atom -5584.301991 kJ/mol
# Density = 1.990541 g / cm^3
# Si number density = 19.950820 Si / 1000 Ang^3
#
#
#
# Elastic Constant Matrix: (Units=GPa)
#
#
# Indices 1 2 3 4 5 6 
#
# 1 92.9665 5.9149 36.2947 -5.4178 18.6684 -13.8811
# 2 5.9149 15.8952 6.2301 3.2587 11.3086 -4.4322
# 3 36.2947 6.2301 60.0383 -9.4603 17.8553 -2.9740
# 4 -5.4178 3.2587 -9.4603 24.7859 0.4332 5.5202
# 5 18.6684 11.3086 17.8553 0.4332 41.9554 -0.0572
# 6 -13.8811 -4.4322 -2.9740 5.5202 -0.0572 23.1615
#
#
#
# Elastic Compliance Matrix: (Units=1/GPa)
#
#
# Indices 1 2 3 4 5 6 
#
# 1 0.016146 0.003833 -0.008723 -0.002421 -0.004467 0.009856
# 2 0.003833 0.090747 -0.006601 -0.018360 -0.023135 0.023134
# 3 -0.008723 -0.006601 0.025494 0.010036 -0.005300 -0.005623
# 4 -0.002421 -0.018360 0.010036 0.049484 0.001223 -0.015467
# 5 -0.004467 -0.023135 -0.005300 0.001223 0.034290 -0.007991
# 6 0.009856 0.023134 -0.005623 -0.015467 -0.007991 0.056453
#
#
# Mechanical properties :
#
#
# Convention : Reuss Voigt Hill
#
# Bulk Modulus (GPa) = 9.14034 29.53104 19.33569
# Shear Modulus (GPa) = 15.05734 26.01126 20.53430
#
# Velocity S-wave (km/s) = 2.75020 3.61469 3.21167
# Velocity P-wave (km/s) = 3.83095 5.67938 4.84415
#
# Compressibility (1/GPa) = 0.10940511
#
# Stress axis : x y z
#
# Youngs Moduli (GPa) = 61.93600 11.01963 39.22560
#
# Poissons Ratio (x) = -0.04224 0.34217
# Poissons Ratio (y) = -0.23742 0.25891
# Poissons Ratio (z) = 0.54028 0.07274
#
# Static dielectric constant tensor:
#      x y z
#    x 1.711240 0.001650 0.012690 
#    y 0.001650 1.670610 0.001780 
#    z 0.012690 0.001780 1.706020 
# 
# From -- ./inp_files/515823.got.cif
#   From: 2010.05.17/outbox.cif.g08.bks.cpg/sg2_258_cif.got.tgz:515823.got - 2010.06.03 11:33:40.
