data_PCOD9083596
_publ_section_title
;
Structure prediction by ZEFSAII (Michael W. Deem and Ramdas Pophale) SiO2 
 PCOD9083596
Probable space group: P -1
;
_chemical_formula_sum "Si O2"
_cell_formula_units_Z 16
_cell_length_a 13.878124
_cell_length_b 7.221452
_cell_length_c 12.064504
_cell_angle_alpha 139.190536
_cell_angle_beta 115.791394
_cell_angle_gamma 66.248623
_cell_volume 705.925125
_symmetry_space_group_name_H-M "P -1"
_symmetry_group_IT_number 2
_symmetry_cell_setting 'triclinic'
loop_
_space_group_symop_operation_xyz
x,y,z
-x,-y,-z
loop_
_atom_site_type_symbol
_atom_site_label
_atom_site_fract_x
_atom_site_fract_y
_atom_site_fract_z
Si Si1 0.639985 0.744391 0.243325
Si Si2 0.130066 0.425186 0.735587
Si Si3 0.915271 0.182986 0.901908
Si Si4 0.138342 0.384006 0.121014
Si Si5 0.904284 0.527787 0.612524
Si Si6 0.245308 0.912802 0.686295
Si Si7 0.355819 0.105781 0.051172
Si Si8 0.471870 0.437332 0.104560
O O1 0.754814 0.594634 0.276157
O O2 0.539884 0.702466 0.251511
O O3 0.665766 0.051841 0.349995
O O4 0.615270 0.568201 0.039274
O O5 0.029523 0.417924 0.601069
O O6 0.149811 0.152434 0.704459
O O7 0.110884 0.691633 0.931118
O O8 0.856107 0.390407 0.873136
O O9 0.888221 0.864334 0.737159
O O10 0.043525 0.196997 0.955215
O O11 0.100106 0.530279 0.282948
O O12 0.254735 0.210384 0.123616
O O13 0.809114 0.367321 0.447933
O O14 0.299212 0.004595 0.866167
O O15 0.442985 0.843690 0.008778
O O16 0.419163 0.366301 0.161485
#
# Coordination Sequence:
#
# PCOD9083596 Si02
#       8
#     2   2   2   2   2   2   2   2
#     4   8  17  31  55  81 104 134 186 233 268 313
#     4   9  17  34  56  79 108 147 180 219 265 326
#     4  10  20  35  55  81 113 148 189 220 257 334
#     4  10  20  36  56  78 112 147 188 223 266 326
#     4  11  22  34  56  85 117 151 174 215 281 338
#     4   9  19  36  53  79 120 139 176 226 276 321
#     4  10  19  34  57  81 107 141 185 238 269 315
#     4   9  17  31  55  84  98 135 194 240 263 307
#
# _framework density 22.665295
#
# number of rings (size 3 to 8) (size 9 to 14) (size 15 to 20)
#    0.750    1.750    1.250    1.875    3.500    0.000 
#    2.250    0.625    0.000    7.500    0.000    0.000 
#    0.000    0.000    0.000    0.000    0.000    0.000 
#
# Total GULP energy -89214.230615 kJ/mol
# GULP energy per Si atom -5575.889413 kJ/mol
# Density = 2.261371 g / cm^3
# Si number density = 22.665295 Si / 1000 Ang^3
#
#
#
# Elastic Constant Matrix: (Units=GPa)
#
#
# Indices 1 2 3 4 5 6 
#
# 1 77.9622 14.6601 26.1107 0.1472 32.8199 -10.3015
# 2 14.6601 63.4937 13.9869 -0.1765 9.4675 12.6257
# 3 26.1107 13.9869 49.0409 7.0479 32.3714 11.9290
# 4 0.1472 -0.1765 7.0479 19.7245 7.1764 5.1677
# 5 32.8199 9.4675 32.3714 7.1764 33.4009 7.3044
# 6 -10.3015 12.6257 11.9290 5.1677 7.3044 28.2916
#
#
#
# Elastic Compliance Matrix: (Units=1/GPa)
#
#
# Indices 1 2 3 4 5 6 
#
# 1 0.033142 -0.007041 0.006437 0.007276 -0.043256 0.022335
# 2 -0.007041 0.019537 -0.004357 0.002063 0.007746 -0.011822
# 3 0.006437 -0.004357 0.061382 0.002706 -0.063941 -0.005579
# 4 0.007276 0.002063 0.002706 0.058884 -0.022029 -0.004481
# 5 -0.043256 0.007746 -0.063941 -0.022029 0.142416 -0.024993
# 6 0.022335 -0.011822 -0.005579 -0.004481 -0.024993 0.058378
#
#
# Mechanical properties :
#
#
# Convention : Reuss Voigt Hill
#
# Bulk Modulus (GPa) = 9.60267 33.33469 21.46868
# Shear Modulus (GPa) = 11.95103 25.33267 18.64185
#
# Velocity S-wave (km/s) = 2.29876 3.34681 2.87101
# Velocity P-wave (km/s) = 3.36030 5.44740 4.52580
#
# Compressibility (1/GPa) = 0.10413774
#
# Stress axis : x y z
#
# Youngs Moduli (GPa) = 30.17320 51.18564 16.29151
#
# Poissons Ratio (x) = 0.36042 -0.10486
# Poissons Ratio (y) = 0.21246 0.07098
# Poissons Ratio (z) = -0.19422 0.22300
#
# Static dielectric constant tensor:
#      x y z
#    x 1.958340 0.006160 0.015820 
#    y 0.006160 1.850020 0.011070 
#    z 0.015820 0.011070 1.843170 
# 
# From -- ./inp_files/530302.got.cif
#   From: 2010.05.17/outbox.cif.g08.bks.cpg/sg2_266_cif.got.tgz:530302.got - 2010.06.03 11:33:40.
