data_PCOD9083403
_publ_section_title
;
Structure prediction by ZEFSAII (Michael W. Deem and Ramdas Pophale) SiO2 
 PCOD9083403
Probable space group: P -1
;
_chemical_formula_sum "Si O2"
_cell_formula_units_Z 16
_cell_length_a 7.813074
_cell_length_b 16.895467
_cell_length_c 12.227878
_cell_angle_alpha 36.345685
_cell_angle_beta 103.956810
_cell_angle_gamma 124.823056
_cell_volume 701.454523
_symmetry_space_group_name_H-M "P -1"
_symmetry_group_IT_number 2
_symmetry_cell_setting 'triclinic'
loop_
_space_group_symop_operation_xyz
x,y,z
-x,-y,-z
loop_
_atom_site_type_symbol
_atom_site_label
_atom_site_fract_x
_atom_site_fract_y
_atom_site_fract_z
Si Si1 0.281942 0.878883 0.520292
Si Si2 0.221870 0.325656 0.277776
Si Si3 0.819673 0.157366 0.936949
Si Si4 0.189339 0.201453 0.842901
Si Si5 0.815343 0.480876 0.360187
Si Si6 0.400579 0.462751 0.391564
Si Si7 0.329480 0.590971 0.813384
Si Si8 0.636226 0.092975 0.743709
O O1 0.254899 0.704802 0.699521
O O2 0.313194 0.942697 0.327528
O O3 0.053678 0.835367 0.583298
O O4 0.500000 0.000000 0.500000
O O5 0.283237 0.408388 0.316796
O O6 0.398042 0.292654 0.310066
O O7 0.279814 0.471914 0.039691
O O8 0.711292 0.068014 0.900470
O O9 0.056324 0.191123 0.940220
O O10 0.928384 0.359503 0.731763
O O11 0.640854 0.036241 0.138175
O O12 0.219931 0.319865 0.613685
O O13 0.459870 0.333963 0.776585
O O14 0.000000 0.000000 0.000000
O O15 0.602317 0.447641 0.428060
O O16 0.809334 0.529552 0.180039
O O17 0.751483 0.295231 0.543658
#
# Coordination Sequence:
#
# PCOD9083403 Si02
#       8
#     2   2   2   2   2   2   2   2
#     4  11  24  40  61  90 127 162 201 258 312 364
#     4  10  20  41  63  87 123 154 214 254 298 377
#     4  10  20  34  57  81 115 152 197 247 296 364
#     4  10  19  34  55  83 119 155 196 248 304 363
#     4   9  18  35  60  80 112 157 194 246 306 354
#     4   9  19  35  56  85 115 156 200 248 305 359
#     4   9  21  40  64  89 116 163 205 250 310 364
#     4  10  21  37  53  86 115 151 200 244 302 362
#
# _framework density 22.809749
#
# number of rings (size 3 to 8) (size 9 to 14) (size 15 to 20)
#    0.000    2.250    0.000    2.250    1.750    0.500 
#    4.500    2.500    0.000    0.000    0.000    0.000 
#    0.000    0.000    0.000    0.000    0.000    0.000 
#
# Total GULP energy -89130.069642 kJ/mol
# GULP energy per Si atom -5570.629353 kJ/mol
# Density = 2.275783 g / cm^3
# Si number density = 22.809749 Si / 1000 Ang^3
#
#
#
# Elastic Constant Matrix: (Units=GPa)
#
#
# Indices 1 2 3 4 5 6 
#
# 1 47.8599 2.4905 5.0516 3.3559 -22.9335 1.5875
# 2 2.4905 100.6791 32.4993 -2.9902 -18.7211 4.1692
# 3 5.0516 32.4993 76.7842 -5.0342 -29.1358 -3.1683
# 4 3.3559 -2.9902 -5.0342 45.4799 1.6129 -0.0490
# 5 -22.9335 -18.7211 -29.1358 1.6129 34.9994 -3.9578
# 6 1.5875 4.1692 -3.1683 -0.0490 -3.9578 24.9876
#
#
#
# Elastic Compliance Matrix: (Units=1/GPa)
#
#
# Indices 1 2 3 4 5 6 
#
# 1 0.035401 0.001975 0.009096 -0.002619 0.032364 0.003696
# 2 0.001975 0.011947 -0.003541 0.000085 0.004524 -0.001851
# 3 0.009096 -0.003541 0.023511 0.000841 0.024375 0.006856
# 4 -0.002619 0.000085 0.000841 0.022351 -0.002002 -0.000014
# 5 0.032364 0.004524 0.024375 -0.002002 0.073938 0.011987
# 6 0.003696 -0.001851 0.006856 -0.000014 0.011987 0.042862
#
#
# Mechanical properties :
#
#
# Convention : Reuss Voigt Hill
#
# Bulk Modulus (GPa) = 11.63873 33.93401 22.78637
# Shear Modulus (GPa) = 22.36259 33.44547 27.90403
#
# Velocity S-wave (km/s) = 3.13452 3.83336 3.50142
# Velocity P-wave (km/s) = 4.26778 5.87385 5.13401
#
# Compressibility (1/GPa) = 0.08592003
#
# Stress axis : x y z
#
# Youngs Moduli (GPa) = 28.24804 83.70266 42.53334
#
# Poissons Ratio (x) = -0.16533 -0.38690
# Poissons Ratio (y) = -0.05580 0.15060
# Poissons Ratio (z) = -0.25695 0.29638
#
# Static dielectric constant tensor:
#      x y z
#    x 1.904820 0.038470 -0.087060 
#    y 0.038470 1.934560 0.002030 
#    z -0.087060 0.002030 1.624470 
# 
# From -- ./inp_files/402860.got.cif
#   From: 2010.05.17/outbox.cif.g08.bks.cpg/sg2_202_cif.got.tgz:402860.got - 2010.06.03 11:33:40.
