data_PCOD9083267
_publ_section_title
;
Structure prediction by ZEFSAII (Michael W. Deem and Ramdas Pophale) SiO2 
 PCOD9083267
Probable space group: P -1
;
_chemical_formula_sum "Si O2"
_cell_formula_units_Z 16
_cell_length_a 17.282057
_cell_length_b 9.475244
_cell_length_c 9.386214
_cell_angle_alpha 73.308681
_cell_angle_beta 140.024101
_cell_angle_gamma 74.056577
_cell_volume 562.425992
_symmetry_space_group_name_H-M "P -1"
_symmetry_group_IT_number 2
_symmetry_cell_setting 'triclinic'
loop_
_space_group_symop_operation_xyz
x,y,z
-x,-y,-z
loop_
_atom_site_type_symbol
_atom_site_label
_atom_site_fract_x
_atom_site_fract_y
_atom_site_fract_z
Si Si1 0.733140 0.061015 0.384892
Si Si2 0.171351 0.618690 0.276373
Si Si3 0.416499 0.224143 0.186293
Si Si4 0.012813 0.740535 0.517950
Si Si5 0.877574 0.638056 0.578759
Si Si6 0.267297 0.756399 0.962484
Si Si7 0.374918 0.719777 0.555633
Si Si8 0.668766 0.737995 0.613254
O O1 0.723526 0.903079 0.361975
O O2 0.745081 0.152648 0.237595
O O3 0.569080 0.286737 0.198134
O O4 0.945901 0.855700 0.827798
O O5 0.179600 0.474461 0.439786
O O6 0.231106 0.723694 0.374519
O O7 0.327057 0.411616 0.432193
O O8 0.629175 0.103725 0.542666
O O9 0.357560 0.248433 0.258468
O O10 0.481839 0.028901 0.232490
O O11 0.206105 0.510535 0.760563
O O12 0.124527 0.752182 0.775044
O O13 0.927501 0.677417 0.490070
O O14 0.823108 0.030350 0.121135
O O15 0.101968 0.429873 0.029768
O O16 0.486361 0.471544 0.326543
#
# Coordination Sequence:
#
# PCOD9083267 Si02
#       8
#     2   2   2   2   2   2   2   2
#     4  10  19  34  54  75 102 140 177 206 245 310
#     4  11  21  32  51  81 112 133 160 214 270 304
#     4   9  17  31  53  75 100 133 176 213 245 305
#     4   8  16  32  55  74  92 131 180 215 242 288
#     4   9  17  32  54  75 102 136 172 206 249 309
#     4   9  18  34  55  76 100 134 179 214 247 302
#     4  11  21  32  50  80 109 133 166 215 264 301
#     4   9  17  31  51  76 101 135 174 210 251 301
#
# _framework density 28.448186
#
# number of rings (size 3 to 8) (size 9 to 14) (size 15 to 20)
#    0.000    2.500    0.000    4.500    0.000    0.500 
#    0.000    2.500    0.000    1.500    0.000    0.000 
#    0.000    0.000    0.000    0.000    0.000    0.000 
#
# Total GULP energy -89079.937894 kJ/mol
# GULP energy per Si atom -5567.496118 kJ/mol
# Density = 2.838344 g / cm^3
# Si number density = 28.448186 Si / 1000 Ang^3
#
#
#
# Elastic Constant Matrix: (Units=GPa)
#
#
# Indices 1 2 3 4 5 6 
#
# 1 103.4574 44.0268 17.4627 14.6422 20.6975 13.2912
# 2 44.0268 151.7965 52.7043 -16.8459 13.7843 3.7670
# 3 17.4627 52.7043 98.5568 -28.6110 3.1136 2.0530
# 4 14.6422 -16.8459 -28.6110 52.8295 3.2173 17.7290
# 5 20.6975 13.7843 3.1136 3.2173 34.4121 -6.3884
# 6 13.2912 3.7670 2.0530 17.7290 -6.3884 54.6457
#
#
#
# Elastic Compliance Matrix: (Units=1/GPa)
#
#
# Indices 1 2 3 4 5 6 
#
# 1 0.013609 -0.003162 -0.001777 -0.004544 -0.006768 -0.002342
# 2 -0.003162 0.009190 -0.003664 0.002141 -0.001765 -0.000628
# 3 -0.001777 -0.003664 0.014866 0.008235 -0.000052 -0.002551
# 4 -0.004544 0.002141 0.008235 0.028541 -0.003206 -0.008986
# 5 -0.006768 -0.001765 -0.000052 -0.003206 0.035432 0.006952
# 6 -0.002342 -0.000628 -0.002551 -0.008986 0.006952 0.022737
#
#
# Mechanical properties :
#
#
# Convention : Reuss Voigt Hill
#
# Bulk Modulus (GPa) = 48.87719 64.68869 56.78294
# Shear Modulus (GPa) = 33.69211 44.35190 39.02201
#
# Velocity S-wave (km/s) = 3.44515 3.95275 3.70765
# Velocity P-wave (km/s) = 5.74837 6.60461 6.19131
#
# Compressibility (1/GPa) = 0.02045944
#
# Stress axis : x y z
#
# Youngs Moduli (GPa) = 73.47851 108.80884 67.26722
#
# Poissons Ratio (x) = 0.34403 0.11955
# Poissons Ratio (y) = 0.23232 0.24648
# Poissons Ratio (z) = 0.13059 0.39870
#
# Static dielectric constant tensor:
#      x y z
#    x 2.384110 -0.017060 -0.016490 
#    y -0.017060 2.231600 -0.046750 
#    z -0.016490 -0.046750 2.506090 
# 
# From -- ./inp_files/285142.got.cif
#   From: 2010.05.17/outbox.cif.g08.bks.cpg/sg2_143_cif.got.tgz:285142.got - 2010.06.03 11:33:40.
