data_PCOD9083112
_publ_section_title
;
Structure prediction by ZEFSAII (Michael W. Deem and Ramdas Pophale) SiO2 
 PCOD9083112
Probable space group: P -1
;
_chemical_formula_sum "Si O2"
_cell_formula_units_Z 16
_cell_length_a 10.128797
_cell_length_b 8.095892
_cell_length_c 17.123446
_cell_angle_alpha 130.139596
_cell_angle_beta 137.182978
_cell_angle_gamma 75.798258
_cell_volume 655.898135
_symmetry_space_group_name_H-M "P -1"
_symmetry_group_IT_number 2
_symmetry_cell_setting 'triclinic'
loop_
_space_group_symop_operation_xyz
x,y,z
-x,-y,-z
loop_
_atom_site_type_symbol
_atom_site_label
_atom_site_fract_x
_atom_site_fract_y
_atom_site_fract_z
Si Si1 0.308331 0.702941 0.169850
Si Si2 0.658949 0.963652 0.968073
Si Si3 0.200826 0.933492 0.551999
Si Si4 0.973816 0.578802 0.748686
Si Si5 0.695272 0.583524 0.761219
Si Si6 0.246293 0.671152 0.645630
Si Si7 0.727292 0.726271 0.551668
Si Si8 0.969817 0.797258 0.140656
O O1 0.296641 0.560231 0.201981
O O2 0.149430 0.825858 0.159819
O O3 0.559540 0.867439 0.309942
O O4 0.172041 0.480587 0.984908
O O5 0.680116 0.828552 0.855687
O O6 0.402014 0.840286 0.830759
O O7 0.792848 0.882400 0.061040
O O8 0.772598 0.248438 0.097760
O O9 0.102864 0.701545 0.382179
O O10 0.252607 0.835705 0.625996
O O11 0.000000 0.000000 0.500000
O O12 0.906024 0.656793 0.823093
O O13 0.855186 0.657764 0.652100
O O14 0.521461 0.375170 0.564344
O O15 0.320549 0.462636 0.596474
O O16 0.000000 0.500000 0.500000
O O17 0.869440 0.996716 0.669275
#
# Coordination Sequence:
#
# PCOD9083112 Si02
#       8
#     2   2   2   2   2   2   2   2
#     4  10  22  38  57  91 129 164 194 241 316 364
#     4   9  20  37  64  92 118 150 200 261 304 355
#     4  11  26  43  61  83 130 171 201 248 297 362
#     4  10  20  38  58  93 119 157 206 248 307 350
#     4  10  19  33  63  92 127 156 194 250 307 373
#     4  10  23  43  64  85 114 161 214 251 291 358
#     4   9  19  35  58  90 117 156 205 253 295 354
#     4   9  19  37  61  92 123 154 195 252 311 366
#
# _framework density 24.394030999999998
#
# number of rings (size 3 to 8) (size 9 to 14) (size 15 to 20)
#    0.000    2.250    0.000    1.500    5.250   10.000 
#    2.250    2.500    0.000    0.000    0.000    0.000 
#    0.000    0.000    0.000    0.000    0.000    0.000 
#
# Total GULP energy -89147.789921 kJ/mol
# GULP energy per Si atom -5571.736870 kJ/mol
# Density = 2.433851 g / cm^3
# Si number density = 24.394031 Si / 1000 Ang^3
#
#
#
# Elastic Constant Matrix: (Units=GPa)
#
#
# Indices 1 2 3 4 5 6 
#
# 1 59.3674 20.5811 28.7766 14.5260 18.7798 -6.2290
# 2 20.5811 60.0903 34.8292 -0.7003 9.2850 -10.4156
# 3 28.7766 34.8292 210.4624 29.6291 34.0250 0.9148
# 4 14.5260 -0.7003 29.6291 38.5020 -1.4647 2.4220
# 5 18.7798 9.2850 34.0250 -1.4647 38.2457 6.2218
# 6 -6.2290 -10.4156 0.9148 2.4220 6.2218 29.9367
#
#
#
# Elastic Compliance Matrix: (Units=1/GPa)
#
#
# Indices 1 2 3 4 5 6 
#
# 1 0.026836 -0.006710 0.001509 -0.012416 -0.014542 0.007230
# 2 -0.006710 0.022027 -0.003561 0.005317 0.000364 0.005870
# 3 0.001509 -0.003561 0.007088 -0.006384 -0.006547 0.000736
# 4 -0.012416 0.005317 -0.006384 0.036545 0.012889 -0.006174
# 5 -0.014542 0.000364 -0.006547 0.012889 0.041530 -0.012373
# 6 0.007230 0.005870 0.000736 -0.006174 -0.012373 0.039999
#
#
# Mechanical properties :
#
#
# Convention : Reuss Voigt Hill
#
# Bulk Modulus (GPa) = 26.02362 55.36600 40.69481
# Shear Modulus (GPa) = 24.46683 37.71910 31.09296
#
# Velocity S-wave (km/s) = 3.17043 3.93650 3.57405
# Velocity P-wave (km/s) = 4.90850 6.58841 5.80950
#
# Compressibility (1/GPa) = 0.03842662
#
# Stress axis : x y z
#
# Youngs Moduli (GPa) = 37.26370 45.39881 141.07698
#
# Poissons Ratio (x) = 0.30464 -0.21283
# Poissons Ratio (y) = 0.25005 0.50231
# Poissons Ratio (z) = -0.05622 0.16164
#
# Static dielectric constant tensor:
#      x y z
#    x 1.517760 0.140390 -0.569740 
#    y 0.140390 1.906200 0.133570 
#    z -0.569740 0.133570 1.465020 
# 
# From -- ./inp_files/199706.got.cif
#   From: 2010.05.17/outbox.cif.g08.bks.cpg/sg2_100_cif.got.tgz:199706.got - 2010.06.03 11:33:40.
