data_PCOD9083324
_publ_section_title
;
Structure prediction by ZEFSAII (Michael W. Deem and Ramdas Pophale) SiO2 
 PCOD9083324
Probable space group: P -1
;
_chemical_formula_sum "Si O2"
_cell_formula_units_Z 16
_cell_length_a 19.077161
_cell_length_b 14.065616
_cell_length_c 5.346992
_cell_angle_alpha 120.560927
_cell_angle_beta 116.447708
_cell_angle_gamma 39.309272
_cell_volume 779.113852
_symmetry_space_group_name_H-M "P -1"
_symmetry_group_IT_number 2
_symmetry_cell_setting 'triclinic'
loop_
_space_group_symop_operation_xyz
x,y,z
-x,-y,-z
loop_
_atom_site_type_symbol
_atom_site_label
_atom_site_fract_x
_atom_site_fract_y
_atom_site_fract_z
Si Si1 0.019937 0.148613 0.672997
Si Si2 0.922596 0.666987 0.970589
Si Si3 0.539999 0.021219 0.343399
Si Si4 0.793325 0.820846 0.482351
Si Si5 0.840357 0.167203 0.279495
Si Si6 0.768756 0.083770 0.663421
Si Si7 0.397199 0.610844 0.673892
Si Si8 0.532705 0.287947 0.670783
O O1 0.906207 0.214769 0.468373
O O2 0.061361 0.022328 0.782616
O O3 0.125658 0.033761 0.503825
O O4 0.011771 0.284464 0.906981
O O5 0.868522 0.694141 0.652261
O O6 0.833864 0.773912 0.196793
O O7 0.000000 0.500000 0.000000
O O8 0.507423 0.184075 0.510774
O O9 0.500000 0.000000 0.500000
O O10 0.672974 0.888754 0.388357
O O11 0.500000 0.000000 0.000000
O O12 0.783035 0.962985 0.711058
O O13 0.734288 0.264666 0.428504
O O14 0.783217 0.186319 0.959125
O O15 0.639803 0.195191 0.527886
O O16 0.500000 0.500000 0.500000
O O17 0.425663 0.469162 0.681789
O O18 0.418919 0.699142 0.989575
#
# Coordination Sequence:
#
# PCOD9083324 Si02
#       8
#     2   2   2   2   2   2   2   2
#     4  10  20  33  55  85 113 154 195 255 301 362
#     4  11  22  40  63  87 122 161 211 252 306 369
#     4  11  24  42  66  96 129 167 212 270 319 374
#     4  10  21  40  64  90 115 164 210 250 305 374
#     4  10  19  34  54  84 118 146 201 244 311 362
#     4   9  17  34  60  80 112 150 199 249 298 364
#     4  10  20  36  61  85 121 163 203 256 311 379
#     4   9  21  37  59  89 117 158 213 251 312 382
#
# _framework density 20.536152000000001
#
# number of rings (size 3 to 8) (size 9 to 14) (size 15 to 20)
#    0.000    2.000    1.250    2.250    1.750    0.000 
#    4.500    0.000    0.000    0.000    0.000    0.000 
#    0.000    0.000    0.000    0.000    0.000    0.000 
#
# Total GULP energy -89075.994674 kJ/mol
# GULP energy per Si atom -5567.249667 kJ/mol
# Density = 2.048941 g / cm^3
# Si number density = 20.536152 Si / 1000 Ang^3
#
#
#
# Elastic Constant Matrix: (Units=GPa)
#
#
# Indices 1 2 3 4 5 6 
#
# 1 80.1722 11.6294 43.6161 -2.3374 20.1976 -6.8726
# 2 11.6294 76.1983 18.4519 -6.7808 20.3972 2.0886
# 3 43.6161 18.4519 90.5201 -8.5418 20.9625 4.8650
# 4 -2.3374 -6.7808 -8.5418 31.9578 -0.9562 -2.0264
# 5 20.1976 20.3972 20.9625 -0.9562 38.2534 0.3739
# 6 -6.8726 2.0886 4.8650 -2.0264 0.3739 29.0902
#
#
#
# Elastic Compliance Matrix: (Units=1/GPa)
#
#
# Indices 1 2 3 4 5 6 
#
# 1 0.018786 0.000445 -0.008173 -0.000520 -0.005747 0.005811
# 2 0.000445 0.015729 -0.001322 0.002750 -0.007824 -0.000511
# 3 -0.008173 -0.001322 0.016721 0.003195 -0.004021 -0.004358
# 4 -0.000520 0.002750 0.003195 0.032719 -0.002139 0.001452
# 5 -0.005747 -0.007824 -0.004021 -0.002139 0.035505 -0.000729
# 6 0.005811 -0.000511 -0.004358 0.001452 -0.000729 0.036625
#
#
# Mechanical properties :
#
#
# Convention : Reuss Voigt Hill
#
# Bulk Modulus (GPa) = 30.17808 43.80948 36.99378
# Shear Modulus (GPa) = 26.99365 31.40651 29.20008
#
# Velocity S-wave (km/s) = 3.62946 3.91491 3.77488
# Velocity P-wave (km/s) = 5.68252 6.46641 6.08710
#
# Compressibility (1/GPa) = 0.03313663
#
# Stress axis : x y z
#
# Youngs Moduli (GPa) = 53.23204 63.57752 59.80342
#
# Poissons Ratio (x) = -0.02829 0.48876
# Poissons Ratio (y) = -0.02369 0.07905
# Poissons Ratio (z) = 0.43505 0.08404
#
# Static dielectric constant tensor:
#      x y z
#    x 1.843670 0.020000 -0.093840 
#    y 0.020000 1.826740 0.000770 
#    z -0.093840 0.000770 1.808680 
# 
# From -- ./inp_files/80380.got.cif
#   From: 2010.05.17/outbox.cif.g08.bks.cpg/sg2_41_cif.got.tgz:80380.got - 2010.06.03 11:33:40.
