data_PCOD9083585
_publ_section_title
;
Structure prediction by ZEFSAII (Michael W. Deem and Ramdas Pophale) SiO2 
 PCOD9083585
Probable space group: P -1
;
_chemical_formula_sum "Si O2"
_cell_formula_units_Z 14
_cell_length_a 9.048568
_cell_length_b 7.790165
_cell_length_c 18.427695
_cell_angle_alpha 55.346017
_cell_angle_beta 150.819734
_cell_angle_gamma 123.673205
_cell_volume 515.495089
_symmetry_space_group_name_H-M "P -1"
_symmetry_group_IT_number 2
_symmetry_cell_setting 'triclinic'
loop_
_space_group_symop_operation_xyz
x,y,z
-x,-y,-z
loop_
_atom_site_type_symbol
_atom_site_label
_atom_site_fract_x
_atom_site_fract_y
_atom_site_fract_z
Si Si1 0.698320 0.303590 0.800016
Si Si2 0.795637 0.297828 0.110650
Si Si3 0.826856 0.983838 0.574097
Si Si4 0.159398 0.686136 0.717254
Si Si5 0.115645 0.904296 0.934432
Si Si6 0.432511 0.642790 0.688706
Si Si7 0.238323 0.739560 0.322580
O O1 0.998369 0.479813 0.872411
O O2 0.462642 0.429844 0.710209
O O3 0.613323 0.226606 0.701806
O O4 0.773056 0.124720 0.929447
O O5 0.006186 0.112888 0.264394
O O6 0.655066 0.318031 0.125725
O O7 0.668448 0.206838 0.000984
O O8 0.031291 0.907309 0.614769
O O9 0.489422 0.848208 0.459229
O O10 0.770419 0.219141 0.479394
O O11 0.871225 0.502917 0.649709
O O12 0.310951 0.634270 0.720589
O O13 0.779009 0.765693 0.816359
O O14 0.056644 0.139444 0.835991
#
# Coordination Sequence:
#
# PCOD9083585 Si02
#       7
#     2   2   2   2   2   2   2
#     4  10  20  35  54  79 106 140 181 212 254 314
#     4   8  18  33  56  75 107 131 182 208 258 304
#     4   9  19  35  58  77 108 136 176 210 264 319
#     4   9  19  35  53  83 110 131 171 218 271 308
#     4  10  20  37  57  76 102 143 184 213 250 313
#     4  10  19  34  57  79 108 135 175 220 261 305
#     4  10  20  36  56  77 107 143 172 212 265 315
#
# _framework density 27.158358
#
# number of rings (size 3 to 8) (size 9 to 14) (size 15 to 20)
#    0.857    1.714    0.000    3.000    0.000    5.143 
#    0.000   10.714    0.000    0.000    0.000    0.000 
#    0.000    0.000    0.000    0.000    0.000    0.000 
#
# Total GULP energy -78305.399635 kJ/mol
# GULP energy per Si atom -5593.242831 kJ/mol
# Density = 2.709654 g / cm^3
# Si number density = 27.158358 Si / 1000 Ang^3
#
#
#
# Elastic Constant Matrix: (Units=GPa)
#
#
# Indices 1 2 3 4 5 6 
#
# 1 169.4155 6.8301 16.9876 2.0168 -25.9238 -17.1820
# 2 6.8301 37.7053 15.0714 0.1649 7.0540 1.6231
# 3 16.9876 15.0714 91.5476 -22.7959 -4.2744 -5.2093
# 4 2.0168 0.1649 -22.7959 39.9554 -8.4825 11.4964
# 5 -25.9238 7.0540 -4.2744 -8.4825 44.7993 -0.9701
# 6 -17.1820 1.6231 -5.2093 11.4964 -0.9701 41.1602
#
#
#
# Elastic Compliance Matrix: (Units=1/GPa)
#
#
# Indices 1 2 3 4 5 6 
#
# 1 0.007043 -0.001863 -0.000836 -0.000869 0.004195 0.003249
# 2 -0.001863 0.030902 -0.006378 -0.004791 -0.007495 -0.001642
# 3 -0.000836 -0.006378 0.014597 0.009404 0.003677 -0.000790
# 4 -0.000869 -0.004791 0.009404 0.034475 0.007494 -0.008436
# 5 0.004195 -0.007495 0.003677 0.007494 0.027722 0.001072
# 6 0.003249 -0.001642 -0.000790 -0.008436 0.001072 0.027998
#
#
# Mechanical properties :
#
#
# Convention : Reuss Voigt Hill
#
# Bulk Modulus (GPa) = 29.07914 41.82739 35.45326
# Shear Modulus (GPa) = 29.00992 42.50160 35.75576
#
# Velocity S-wave (km/s) = 3.27184 3.96024 3.63239
# Velocity P-wave (km/s) = 5.00038 6.02877 5.53850
#
# Compressibility (1/GPa) = 0.03438892
#
# Stress axis : x y z
#
# Youngs Moduli (GPa) = 141.97680 32.36027 68.50761
#
# Poissons Ratio (x) = 0.06028 0.05727
# Poissons Ratio (y) = 0.26445 0.43695
# Poissons Ratio (z) = 0.11869 0.20640
#
# Static dielectric constant tensor:
#      x y z
#    x 2.125100 -0.002590 0.045230 
#    y -0.002590 2.079260 0.037830 
#    z 0.045230 0.037830 2.099590 
# 
# From -- ./inp_files/556015.got.cif
#   From: 2010.05.17/outbox.cif.g08.bks.cpg/sg2_279_cif.got.tgz:556015.got - 2010.06.03 11:33:40.
