data_PCOD9083179
_publ_section_title
;
Structure prediction by ZEFSAII (Michael W. Deem and Ramdas Pophale) SiO2 
 PCOD9083179
Probable space group: P -1
;
_chemical_formula_sum "Si O2"
_cell_formula_units_Z 14
_cell_length_a 11.611221
_cell_length_b 13.579517
_cell_length_c 11.157347
_cell_angle_alpha 59.683565
_cell_angle_beta 107.518704
_cell_angle_gamma 150.085325
_cell_volume 718.288742
_symmetry_space_group_name_H-M "P -1"
_symmetry_group_IT_number 2
_symmetry_cell_setting 'triclinic'
loop_
_space_group_symop_operation_xyz
x,y,z
-x,-y,-z
loop_
_atom_site_type_symbol
_atom_site_label
_atom_site_fract_x
_atom_site_fract_y
_atom_site_fract_z
Si Si1 0.927642 0.604579 0.316478
Si Si2 0.436397 0.477662 0.161303
Si Si3 0.079348 0.990456 0.416259
Si Si4 0.312894 0.228520 0.718786
Si Si5 0.544244 0.806485 0.440916
Si Si6 0.884534 0.739870 0.009130
Si Si7 0.694636 0.185811 0.547258
O O1 0.159377 0.798221 0.357987
O O2 0.679465 0.437363 0.408756
O O3 0.950831 0.692472 0.148391
O O4 0.881498 0.430414 0.395386
O O5 0.283923 0.234854 0.264319
O O6 0.477951 0.555648 0.260537
O O7 0.698464 0.669036 0.067140
O O8 0.273452 0.423675 0.057415
O O9 0.221334 0.002829 0.514260
O O10 0.000000 0.000000 0.500000
O O11 0.844815 0.798697 0.375057
O O12 0.400877 0.217272 0.647308
O O13 0.121955 0.000455 0.878970
O O14 0.444666 0.853292 0.370963
O O15 0.500000 0.000000 0.500000
#
# Coordination Sequence:
#
# PCOD9083179 Si02
#       7
#     2   2   2   2   2   2   2
#     4   9  19  37  55  77 102 133 176 224 258 305
#     4  10  19  34  52  74 112 147 174 207 249 316
#     4   9  18  33  49  80 111 136 171 213 255 307
#     4  10  21  33  52  81 111 141 173 207 262 310
#     4   9  18  37  52  77 109 132 171 227 257 299
#     4  10  20  35  52  76 110 142 175 210 253 312
#     4   9  19  36  58  79  97 131 178 221 266 310
#
# _framework density 19.490769
#
# number of rings (size 3 to 8) (size 9 to 14) (size 15 to 20)
#    0.857    1.714    1.429    0.429    0.000    4.571 
#    7.714    0.714    0.000    1.714    0.000    0.000 
#    0.000    0.000    0.000    0.000    0.000    0.000 
#
# Total GULP energy -77942.238693 kJ/mol
# GULP energy per Si atom -5567.302764 kJ/mol
# Density = 1.944641 g / cm^3
# Si number density = 19.490769 Si / 1000 Ang^3
#
#
#
# Elastic Constant Matrix: (Units=GPa)
#
#
# Indices 1 2 3 4 5 6 
#
# 1 51.4111 12.5747 4.8559 11.5207 1.4937 13.5759
# 2 12.5747 102.3615 16.0841 39.1968 12.9397 5.7737
# 3 4.8559 16.0841 73.2357 18.7768 7.8137 9.3408
# 4 11.5207 39.1968 18.7768 33.9684 12.8946 4.6078
# 5 1.4937 12.9397 7.8137 12.8946 28.0137 10.9941
# 6 13.5759 5.7737 9.3408 4.6078 10.9941 25.0692
#
#
#
# Elastic Compliance Matrix: (Units=1/GPa)
#
#
# Indices 1 2 3 4 5 6 
#
# 1 0.026185 0.001062 0.002500 -0.013014 0.010260 -0.017464
# 2 0.001062 0.017799 0.001828 -0.022543 0.002493 -0.002305
# 3 0.002500 0.001828 0.016857 -0.012376 0.002761 -0.006992
# 4 -0.013014 -0.022543 -0.012376 0.074364 -0.025269 0.014264
# 5 0.010260 0.002493 0.002761 -0.025269 0.055377 -0.026800
# 6 -0.017464 -0.002305 -0.006992 0.014264 -0.026800 0.061614
#
#
# Mechanical properties :
#
#
# Convention : Reuss Voigt Hill
#
# Bulk Modulus (GPa) = 13.96229 32.67085 23.31657
# Shear Modulus (GPa) = 18.84732 30.30984 24.57858
#
# Velocity S-wave (km/s) = 3.11302 3.94774 3.55496
# Velocity P-wave (km/s) = 4.48333 6.13010 5.37021
#
# Compressibility (1/GPa) = 0.07162148
#
# Stress axis : x y z
#
# Youngs Moduli (GPa) = 38.18983 56.18416 59.32099
#
# Poissons Ratio (x) = -0.05966 -0.14830
# Poissons Ratio (y) = -0.04055 -0.10846
# Poissons Ratio (z) = -0.09547 -0.10273
#
# Static dielectric constant tensor:
#      x y z
#    x 1.708170 0.025830 0.013600 
#    y 0.025830 1.760500 0.014580 
#    z 0.013600 0.014580 1.704560 
# 
# From -- ./inp_files/425494.got.cif
#   From: 2010.05.17/outbox.cif.g08.bks.cpg/sg2_213_cif.got.tgz:425494.got - 2010.06.03 11:33:40.
