data_PCOD9083618
_publ_section_title
;
Structure prediction by ZEFSAII (Michael W. Deem and Ramdas Pophale) SiO2 
 PCOD9083618
Probable space group: P -1
;
_chemical_formula_sum "Si O2"
_cell_formula_units_Z 12
_cell_length_a 6.840716
_cell_length_b 11.508649
_cell_length_c 8.905896
_cell_angle_alpha 71.379680
_cell_angle_beta 78.168209
_cell_angle_gamma 120.563842
_cell_volume 510.849320
_symmetry_space_group_name_H-M "P -1"
_symmetry_group_IT_number 2
_symmetry_cell_setting 'triclinic'
loop_
_space_group_symop_operation_xyz
x,y,z
-x,-y,-z
loop_
_atom_site_type_symbol
_atom_site_label
_atom_site_fract_x
_atom_site_fract_y
_atom_site_fract_z
Si Si1 0.052103 0.647412 0.168440
Si Si2 0.302879 0.800647 0.774557
Si Si3 0.850971 0.827204 0.158488
Si Si4 0.452452 0.133925 0.584944
Si Si5 0.548662 0.524628 0.158594
Si Si6 0.978934 0.624867 0.625657
O O1 0.025311 0.774137 0.186936
O O2 0.774703 0.524025 0.182659
O O3 0.076174 0.540188 0.313482
O O4 0.266468 0.731588 0.971995
O O5 0.529376 0.847156 0.607266
O O6 0.051305 0.675090 0.769500
O O7 0.324579 0.955844 0.717671
O O8 0.690233 0.812781 0.330559
O O9 0.662935 0.700448 0.114490
O O10 0.000000 0.000000 0.000000
O O11 0.749571 0.237850 0.543472
O O12 0.286703 0.407918 0.340188
O O13 0.500000 0.500000 0.000000
#
# Coordination Sequence:
#
# PCOD9083618 Si02
#       6
#     2   2   2   2   2   2
#     4  10  20  34  59  80 106 145 185 220 266 321
#     4   9  17  32  56  80 108 147 181 212 276 324
#     4  10  20  36  56  78 113 146 178 220 278 322
#     4   9  18  32  56  79 110 149 173 220 279 320
#     4  10  20  33  56  84 107 141 184 224 267 320
#     4  10  19  34  57  82 109 140 186 223 264 320
#
# _framework density 23.490296000000001
#
# number of rings (size 3 to 8) (size 9 to 14) (size 15 to 20)
#    2.000    0.333    3.333    0.500    0.000    1.333 
#    0.000    0.833    0.000    6.000    0.000    0.000 
#    0.000    0.000    0.000    0.000    0.000    0.000 
#
# Total GULP energy -66892.463640 kJ/mol
# GULP energy per Si atom -5574.371970 kJ/mol
# Density = 2.343683 g / cm^3
# Si number density = 23.490296 Si / 1000 Ang^3
#
#
#
# Elastic Constant Matrix: (Units=GPa)
#
#
# Indices 1 2 3 4 5 6 
#
# 1 59.4316 17.4542 42.5847 4.8268 -5.5286 -8.9893
# 2 17.4542 132.6558 40.8044 7.2957 3.8914 -24.8824
# 3 42.5847 40.8044 116.2237 11.7851 -7.8295 -14.8473
# 4 4.8268 7.2957 11.7851 40.4325 -2.1813 -0.2698
# 5 -5.5286 3.8914 -7.8295 -2.1813 24.3325 -0.2323
# 6 -8.9893 -24.8824 -14.8473 -0.2698 -0.2323 13.1196
#
#
#
# Elastic Compliance Matrix: (Units=1/GPa)
#
#
# Indices 1 2 3 4 5 6 
#
# 1 0.023713 0.000936 -0.007551 -0.000582 0.002847 0.009516
# 2 0.000936 0.012200 -0.001840 -0.001756 -0.002281 0.021621
# 3 -0.007551 -0.001840 0.013254 -0.002443 0.002685 0.006334
# 4 -0.000582 -0.001756 -0.002443 0.025879 0.001626 -0.005932
# 5 0.002847 -0.002281 0.002685 0.001626 0.043133 0.001460
# 6 0.009516 0.021621 0.006334 -0.005932 0.001460 0.130821
#
#
# Mechanical properties :
#
#
# Convention : Reuss Voigt Hill
#
# Bulk Modulus (GPa) = 30.99960 56.66642 43.83301
# Shear Modulus (GPa) = 18.07259 29.40810 23.74035
#
# Velocity S-wave (km/s) = 2.77675 3.54209 3.18251
# Velocity P-wave (km/s) = 4.84829 6.39565 5.67495
#
# Compressibility (1/GPa) = 0.03225848
#
# Stress axis : x y z
#
# Youngs Moduli (GPa) = 42.17109 81.96680 75.44691
#
# Poissons Ratio (x) = -0.07672 0.56967
# Poissons Ratio (y) = -0.03947 0.13881
# Poissons Ratio (z) = 0.31842 0.15080
#
# Static dielectric constant tensor:
#      x y z
#    x 1.890270 0.004240 -0.000030 
#    y 0.004240 1.912310 0.054100 
#    z -0.000030 0.054100 1.912240 
# 
# From -- ./inp_files/385160.got.cif
#   From: 2010.05.17/outbox.cif.g08.bks.cpg/sg2_193_cif.got.tgz:385160.got - 2010.06.03 11:33:40.
