data_PCOD9083535
_publ_section_title
;
Structure prediction by ZEFSAII (Michael W. Deem and Ramdas Pophale) SiO2 
 PCOD9083535
Probable space group: P -1
;
_chemical_formula_sum "Si O2"
_cell_formula_units_Z 16
_cell_length_a 9.713731
_cell_length_b 7.976303
_cell_length_c 10.338135
_cell_angle_alpha 119.835536
_cell_angle_beta 77.635405
_cell_angle_gamma 107.942631
_cell_volume 659.235947
_symmetry_space_group_name_H-M "P -1"
_symmetry_group_IT_number 2
_symmetry_cell_setting 'triclinic'
loop_
_space_group_symop_operation_xyz
x,y,z
-x,-y,-z
loop_
_atom_site_type_symbol
_atom_site_label
_atom_site_fract_x
_atom_site_fract_y
_atom_site_fract_z
Si Si1 0.403664 0.605293 0.657351
Si Si2 0.239749 0.636161 0.293729
Si Si3 0.105582 0.877140 0.598746
Si Si4 0.455789 0.383615 0.096194
Si Si5 0.003895 0.721004 0.841913
Si Si6 0.365634 0.029616 0.285532
Si Si7 0.830144 0.759926 0.422946
Si Si8 0.232998 0.030482 0.031698
O O1 0.500000 0.500000 0.500000
O O2 0.430720 0.594687 0.802615
O O3 0.470340 0.837043 0.701488
O O4 0.240930 0.472426 0.631235
O O5 0.219082 0.757583 0.473073
O O6 0.334256 0.475723 0.228496
O O7 0.084017 0.508898 0.224053
O O8 0.329449 0.799569 0.240846
O O9 0.053244 0.790726 0.714084
O O10 0.973543 0.815954 0.500909
O O11 0.145881 0.119292 0.672143
O O12 0.384516 0.153564 0.988658
O O13 0.500000 0.500000 0.000000
O O14 0.880858 0.842795 0.942902
O O15 0.146638 0.806967 0.931354
O O16 0.278033 0.045688 0.178113
O O17 0.284905 0.130513 0.448328
#
# Coordination Sequence:
#
# PCOD9083535 Si02
#       8
#     2   2   2   2   2   2   2   2
#     4   9  19  37  64  84 112 158 200 232 283 350
#     4  10  22  37  58  85 120 149 189 246 297 327
#     4  10  19  34  58  88 122 144 190 244 287 339
#     4  10  22  41  62  83 115 157 196 246 287 347
#     4  10  19  34  56  86 116 156 189 234 285 348
#     4   9  17  37  56  82 118 151 189 237 283 343
#     4   9  18  33  59  88 110 154 191 230 284 349
#     4   9  19  35  59  80 115 157 195 227 284 353
#
# _framework density 24.270522
#
# number of rings (size 3 to 8) (size 9 to 14) (size 15 to 20)
#    0.000    2.500    1.250    0.375    3.500    0.500 
#    0.000   10.625    0.000    0.000    0.000    0.000 
#    0.000    0.000    0.000    0.000    0.000    0.000 
#
# Total GULP energy -89212.602200 kJ/mol
# GULP energy per Si atom -5575.787638 kJ/mol
# Density = 2.421528 g / cm^3
# Si number density = 24.270522 Si / 1000 Ang^3
#
#
#
# Elastic Constant Matrix: (Units=GPa)
#
#
# Indices 1 2 3 4 5 6 
#
# 1 35.3290 14.6301 6.3363 9.7569 4.8757 10.2543
# 2 14.6301 164.7053 34.0656 15.1095 21.0825 18.9966
# 3 6.3363 34.0656 56.5747 1.8286 1.8773 6.9324
# 4 9.7569 15.1095 1.8286 33.0884 -0.5164 1.0373
# 5 4.8757 21.0825 1.8773 -0.5164 32.0740 9.8682
# 6 10.2543 18.9966 6.9324 1.0373 9.8682 20.2366
#
#
#
# Elastic Compliance Matrix: (Units=1/GPa)
#
#
# Indices 1 2 3 4 5 6 
#
# 1 0.036438 0.000076 -0.001670 -0.010151 -0.000339 -0.017278
# 2 0.000076 0.008249 -0.004213 -0.003485 -0.003939 -0.004240
# 3 -0.001670 -0.004213 0.020724 0.001439 0.003015 -0.003842
# 4 -0.010151 -0.003485 0.001439 0.034622 0.002842 0.004762
# 5 -0.000339 -0.003939 0.003015 0.002842 0.038660 -0.016162
# 6 -0.017278 -0.004240 -0.003842 0.004762 -0.016162 0.071104
#
#
# Mechanical properties :
#
#
# Convention : Reuss Voigt Hill
#
# Bulk Modulus (GPa) = 18.58837 40.74146 29.66491
# Shear Modulus (GPa) = 20.89052 30.51826 25.70439
#
# Velocity S-wave (km/s) = 2.93701 3.54986 3.25788
# Velocity P-wave (km/s) = 4.37914 5.79869 5.13818
#
# Compressibility (1/GPa) = 0.05379708
#
# Stress axis : x y z
#
# Youngs Moduli (GPa) = 27.44358 121.22971 48.25395
#
# Poissons Ratio (x) = -0.00923 0.08061
# Poissons Ratio (y) = -0.00209 0.20327
# Poissons Ratio (z) = 0.04584 0.51069
#
# Static dielectric constant tensor:
#      x y z
#    x 1.980430 -0.022150 -0.052720 
#    y -0.022150 2.064800 0.049410 
#    z -0.052720 0.049410 1.956650 
# 
# From -- ./inp_files/419722.got.cif
#   From: 2010.05.17/outbox.cif.g08.bks.cpg/sg2_210_cif.got.tgz:419722.got - 2010.06.03 11:33:40.
