data_PCOD9083105
_publ_section_title
;
Structure prediction by ZEFSAII (Michael W. Deem and Ramdas Pophale) SiO2 
 PCOD9083105
Probable space group: P -1
;
_chemical_formula_sum "Si O2"
_cell_formula_units_Z 12
_cell_length_a 9.301875
_cell_length_b 6.433947
_cell_length_c 7.478699
_cell_angle_alpha 115.152415
_cell_angle_beta 73.220691
_cell_angle_gamma 105.412032
_cell_volume 382.572902
_symmetry_space_group_name_H-M "P -1"
_symmetry_group_IT_number 2
_symmetry_cell_setting 'triclinic'
loop_
_space_group_symop_operation_xyz
x,y,z
-x,-y,-z
loop_
_atom_site_type_symbol
_atom_site_label
_atom_site_fract_x
_atom_site_fract_y
_atom_site_fract_z
Si Si1 0.834766 0.869148 0.165798
Si Si2 0.913348 0.266569 0.558740
Si Si3 0.265385 0.421766 0.564217
Si Si4 0.507410 0.135004 0.240398
Si Si5 0.157175 0.865430 0.085171
Si Si6 0.627862 0.349134 0.846380
O O1 0.734972 0.720080 0.296783
O O2 0.457911 0.899026 0.285270
O O3 0.988869 0.760884 0.039643
O O4 0.893263 0.113014 0.333673
O O5 0.876660 0.086536 0.675869
O O6 0.774092 0.413173 0.687764
O O7 0.083993 0.398382 0.578545
O O8 0.372702 0.289594 0.352462
O O9 0.355143 0.684482 0.658092
O O10 0.783247 0.939619 0.013395
O O11 0.500000 0.000000 0.000000
O O12 0.273748 0.691290 0.025035
O O13 0.500000 0.500000 0.000000
#
# Coordination Sequence:
#
# PCOD9083105 Si02
#       6
#     2   2   2   2   2   2
#     4  10  15  35  75 126 171 218 292 379 442 520
#     4   9  18  38  78 120 166 231 293 359 448 526
#     4  10  20  42  81 126 171 229 295 377 452 530
#     4  11  24  44  79 124 175 227 293 370 453 536
#     4   8  18  31  69 124 168 215 292 365 439 527
#     4  10  21  44  76 116 173 236 288 358 447 541
#
# _framework density 31.366571
#
# number of rings (size 3 to 8) (size 9 to 14) (size 15 to 20)
#    1.000    1.333    1.667    3.000    0.000    0.000 
#    0.000    5.000    7.333    8.000    0.000   19.833 
#    0.000    0.000    0.000    0.000    0.000    0.000 
#
# Total GULP energy -67079.397367 kJ/mol
# GULP energy per Si atom -5589.949781 kJ/mol
# Density = 3.129518 g / cm^3
# Si number density = 31.366571 Si / 1000 Ang^3
#
#
#
# Elastic Constant Matrix: (Units=GPa)
#
#
# Indices 1 2 3 4 5 6 
#
# 1 312.6123 85.1565 108.3372 19.3792 -35.4707 18.7846
# 2 85.1565 176.9779 99.3566 19.6357 1.0734 40.4877
# 3 108.3372 99.3566 253.6626 10.8730 -12.2535 12.9051
# 4 19.3792 19.6357 10.8730 71.5504 -13.0134 8.1134
# 5 -35.4707 1.0734 -12.2535 -13.0134 63.2172 2.3064
# 6 18.7846 40.4877 12.9051 8.1134 2.3064 60.3313
#
#
#
# Elastic Compliance Matrix: (Units=1/GPa)
#
#
# Indices 1 2 3 4 5 6 
#
# 1 0.004231 -0.001318 -0.001167 -0.000191 0.002140 -0.000240
# 2 -0.001318 0.009128 -0.002778 -0.001457 -0.001555 -0.004866
# 3 -0.001167 -0.002778 0.005491 0.000214 0.000464 0.001007
# 4 -0.000191 -0.001457 0.000214 0.015092 0.003108 -0.001157
# 5 0.002140 -0.001555 0.000464 0.003108 0.017805 -0.000820
# 6 -0.000240 -0.004866 0.001007 -0.001157 -0.000820 0.019887
#
#
# Mechanical properties :
#
#
# Convention : Reuss Voigt Hill
#
# Bulk Modulus (GPa) = 120.12152 147.66149 133.89150
# Shear Modulus (GPa) = 58.86894 69.04664 63.95779
#
# Velocity S-wave (km/s) = 4.33691 4.69687 4.52048
# Velocity P-wave (km/s) = 7.96603 8.75171 8.36809
#
# Compressibility (1/GPa) = 0.00832490
#
# Stress axis : x y z
#
# Youngs Moduli (GPa) = 236.33208 109.55080 182.12169
#
# Poissons Ratio (x) = 0.14435 0.21260
# Poissons Ratio (y) = 0.31140 0.50589
# Poissons Ratio (z) = 0.27588 0.30431
#
# Static dielectric constant tensor:
#      x y z
#    x 2.555490 -0.065090 -0.094270 
#    y -0.065090 3.060390 -0.378780 
#    z -0.094270 -0.378780 2.626340 
# 
# From -- ./inp_files/391521.got.cif
#   From: 2010.05.17/outbox.cif.g08.bks.cpg/sg2_196_cif.got.tgz:391521.got - 2010.06.03 11:33:40.
