data_PCOD9083887
_publ_section_title
;
Structure prediction by ZEFSAII (Michael W. Deem and Ramdas Pophale) SiO2 
 PCOD9083887
Probable space group: P -1
;
_chemical_formula_sum "Si O2"
_cell_formula_units_Z 16
_cell_length_a 11.101311
_cell_length_b 15.393699
_cell_length_c 9.645243
_cell_angle_alpha 56.778748
_cell_angle_beta 107.047429
_cell_angle_gamma 60.053921
_cell_volume 745.105408
_symmetry_space_group_name_H-M "P -1"
_symmetry_group_IT_number 2
_symmetry_cell_setting 'triclinic'
loop_
_space_group_symop_operation_xyz
x,y,z
-x,-y,-z
loop_
_atom_site_type_symbol
_atom_site_label
_atom_site_fract_x
_atom_site_fract_y
_atom_site_fract_z
Si Si1 0.399507 0.321334 0.602222
Si Si2 0.976194 0.298820 0.318248
Si Si3 0.129114 0.105816 0.958471
Si Si4 0.751282 0.788885 0.278408
Si Si5 0.351519 0.713639 0.069884
Si Si6 0.480895 0.638372 0.870892
Si Si7 0.917562 0.132264 0.632702
Si Si8 0.107455 0.673307 0.038664
O O1 0.271274 0.318828 0.646796
O O2 0.467621 0.366805 0.691468
O O3 0.232271 0.483594 0.292453
O O4 0.629570 0.113293 0.799531
O O5 0.958653 0.202400 0.481960
O O6 0.145014 0.254374 0.499265
O O7 0.726671 0.515183 0.043963
O O8 0.023825 0.245831 0.220574
O O9 0.125547 0.221127 0.781216
O O10 0.943049 0.161804 0.768504
O O11 0.056645 0.175568 0.028847
O O12 0.500000 0.000000 0.000000
O O13 0.307004 0.621573 0.131343
O O14 0.395679 0.723727 0.920505
O O15 0.121285 0.918502 0.863098
O O16 0.304720 0.775250 0.569818
O O17 0.500000 0.500000 0.000000
#
# Coordination Sequence:
#
# PCOD9083887 Si02
#       8
#     2   2   2   2   2   2   2   2
#     4  10  24  41  63  91 127 167 208 251 313 365
#     4  10  22  39  63  94 121 161 208 260 305 364
#     4   9  22  42  65  93 120 167 211 257 304 367
#     4   9  20  47  72  81 118 165 217 259 292 370
#     4  11  22  38  60  95 126 167 205 252 301 379
#     4  10  19  34  58  91 124 158 205 253 302 359
#     4   9  19  38  62  84 126 167 211 243 301 370
#     4  12  24  37  61  97 137 155 198 259 324 368
#
# _framework density 21.473472999999998
#
# number of rings (size 3 to 8) (size 9 to 14) (size 15 to 20)
#    0.000    2.000    2.500    1.500    5.250    5.000 
#    0.000    2.500    0.000    0.000    0.000    0.000 
#    0.000    0.000    0.000    0.000    0.000    0.000 
#
# Total GULP energy -89341.082252 kJ/mol
# GULP energy per Si atom -5583.817641 kJ/mol
# Density = 2.142460 g / cm^3
# Si number density = 21.473473 Si / 1000 Ang^3
#
#
#
# Elastic Constant Matrix: (Units=GPa)
#
#
# Indices 1 2 3 4 5 6 
#
# 1 35.1691 -5.1607 -15.4972 -14.3678 19.3872 -5.5559
# 2 -5.1607 80.6778 -11.2352 -1.8135 28.6947 -20.8852
# 3 -15.4972 -11.2352 23.3406 -25.8538 50.1098 -3.5127
# 4 -14.3678 -1.8135 -25.8538 5.5707 30.6896 -8.7161
# 5 19.3872 28.6947 50.1098 30.6896 17.1599 1.1940
# 6 -5.5559 -20.8852 -3.5127 -8.7161 1.1940 15.0121
#
#
#
# Elastic Compliance Matrix: (Units=1/GPa)
#
#
# Indices 1 2 3 4 5 6 
#
# 1 0.020364 -0.001558 -0.005644 -0.005449 0.005796 0.000424
# 2 -0.001558 0.014533 -0.004223 -0.007352 0.001948 0.014231
# 3 -0.005644 -0.004223 0.010891 -0.012470 0.004843 -0.013041
# 4 -0.005449 -0.007352 -0.012470 0.022915 0.014089 -0.002979
# 5 0.005796 0.001948 0.004843 0.014089 0.008190 0.013517
# 6 0.000424 0.014231 -0.013041 -0.002979 0.013517 0.080712
#
#
# Mechanical properties :
#
#
# Convention : Reuss Voigt Hill
#
# Bulk Modulus (GPa) = 43.59544 8.37791 25.98668
# Shear Modulus (GPa) = 26.58138 18.95390 22.76764
#
# Velocity S-wave (km/s) = 3.52216 2.97419 3.25971
# Velocity P-wave (km/s) = 6.07345 3.96288 5.12793
#
# Compressibility (1/GPa) = 0.02293818
#
# Stress axis : x y z
#
# Youngs Moduli (GPa) = 49.10634 68.80894 91.81616
#
# Poissons Ratio (x) = 0.10718 0.51825
# Poissons Ratio (y) = 0.07649 0.38774
# Poissons Ratio (z) = 0.27718 0.29058
#
# Static dielectric constant tensor:
#      x y z
#    x 1.835980 -0.022990 -0.024600 
#    y -0.022990 1.801920 0.011370 
#    z -0.024600 0.011370 1.817100 
# 
# From -- ./inp_files/277593.got.cif
#   From: 2010.05.17/outbox.cif.g08.bks.cpg/sg2_139_cif.got.tgz:277593.got - 2010.06.03 11:33:40.
