data_PCOD9083788
_publ_section_title
;
Structure prediction by ZEFSAII (Michael W. Deem and Ramdas Pophale) SiO2 
 PCOD9083788
Probable space group: P -1
;
_chemical_formula_sum "Si O2"
_cell_formula_units_Z 16
_cell_length_a 7.563784
_cell_length_b 8.308921
_cell_length_c 18.660521
_cell_angle_alpha 114.702418
_cell_angle_beta 143.017279
_cell_angle_gamma 83.337153
_cell_volume 587.842726
_symmetry_space_group_name_H-M "P -1"
_symmetry_group_IT_number 2
_symmetry_cell_setting 'triclinic'
loop_
_space_group_symop_operation_xyz
x,y,z
-x,-y,-z
loop_
_atom_site_type_symbol
_atom_site_label
_atom_site_fract_x
_atom_site_fract_y
_atom_site_fract_z
Si Si1 0.679695 0.542646 0.455907
Si Si2 0.792184 0.459643 0.177276
Si Si3 0.664699 0.253602 0.521574
Si Si4 0.322966 0.887891 0.744209
Si Si5 0.824628 0.800002 0.989374
Si Si6 0.861743 0.081783 0.162198
Si Si7 0.834686 0.506545 0.833335
Si Si8 0.387320 0.075848 0.649110
O O1 0.662761 0.373745 0.472168
O O2 0.535781 0.684986 0.474054
O O3 0.444753 0.463953 0.298337
O O4 0.050712 0.682649 0.592720
O O5 0.976201 0.659087 0.315031
O O6 0.884165 0.483787 0.128407
O O7 0.432761 0.355875 0.069272
O O8 0.957176 0.311496 0.230229
O O9 0.536426 0.036552 0.413998
O O10 0.619723 0.867572 0.878145
O O11 0.166257 0.968096 0.772668
O O12 0.413559 0.013052 0.726609
O O13 0.965985 0.676359 0.965047
O O14 0.010828 0.980351 0.135608
O O15 0.500000 0.000000 0.000000
O O16 0.628892 0.296970 0.759629
O O17 0.000000 0.000000 0.500000
#
# Coordination Sequence:
#
# PCOD9083788 Si02
#       8
#     2   2   2   2   2   2   2   2
#     4  10  19  34  58  83 113 146 193 241 290 335
#     4   9  18  34  56  81 114 140 189 239 284 335
#     4  10  20  34  54  84 118 148 188 239 287 341
#     4  10  19  37  57  83 115 144 195 240 284 339
#     4  10  20  39  65  82 109 150 197 250 290 321
#     4   8  17  36  62  85 104 144 196 253 290 319
#     4  11  23  35  53  88 118 154 188 225 288 356
#     4  12  24  35  51  85 128 161 184 218 289 364
#
# _framework density 27.218164999999999
#
# number of rings (size 3 to 8) (size 9 to 14) (size 15 to 20)
#    0.000    2.250    3.750    1.500    0.000    3.500 
#    2.250    0.625    0.000    6.750    0.000    0.000 
#    0.000    0.000    0.000    0.000    0.000    0.000 
#
# Total GULP energy -89603.076918 kJ/mol
# GULP energy per Si atom -5600.192307 kJ/mol
# Density = 2.715622 g / cm^3
# Si number density = 27.218165 Si / 1000 Ang^3
#
#
#
# Elastic Constant Matrix: (Units=GPa)
#
#
# Indices 1 2 3 4 5 6 
#
# 1 111.5357 39.8677 39.8490 -9.2355 -28.7769 15.8079
# 2 39.8677 65.1419 14.3021 2.1645 -16.9218 21.8788
# 3 39.8490 14.3021 142.8143 5.6321 -31.8001 -5.2819
# 4 -9.2355 2.1645 5.6321 31.8249 -6.2801 -5.3787
# 5 -28.7769 -16.9218 -31.8001 -6.2801 57.8470 6.9913
# 6 15.8079 21.8788 -5.2819 -5.3787 6.9913 32.5563
#
#
#
# Elastic Compliance Matrix: (Units=1/GPa)
#
#
# Indices 1 2 3 4 5 6 
#
# 1 0.014207 -0.005802 -0.002627 0.005349 0.004942 -0.003603
# 2 -0.005802 0.026528 -0.000054 -0.005134 0.006370 -0.017235
# 3 -0.002627 -0.000054 0.008529 -0.001368 0.002997 0.001826
# 4 0.005349 -0.005134 -0.001368 0.035226 0.003543 0.005690
# 5 0.004942 0.006370 0.002997 0.003543 0.024967 -0.010970
# 6 -0.003603 -0.017235 0.001826 0.005690 -0.010970 0.047640
#
#
# Mechanical properties :
#
#
# Convention : Reuss Voigt Hill
#
# Bulk Modulus (GPa) = 30.96160 56.39214 43.67687
# Shear Modulus (GPa) = 27.05202 39.47717 33.26460
#
# Velocity S-wave (km/s) = 3.15603 3.81254 3.49971
# Velocity P-wave (km/s) = 4.96797 6.33594 5.69319
#
# Compressibility (1/GPa) = 0.03229807
#
# Stress axis : x y z
#
# Youngs Moduli (GPa) = 70.38953 37.69639 117.24308
#
# Poissons Ratio (x) = 0.21870 0.30796
# Poissons Ratio (y) = 0.40838 0.00638
# Poissons Ratio (z) = 0.18489 0.00205
#
# Static dielectric constant tensor:
#      x y z
#    x 2.198180 -0.095250 0.044950 
#    y -0.095250 2.181850 -0.011960 
#    z 0.044950 -0.011960 2.097070 
# 
# From -- ./inp_files/587484.got.cif
#   From: 2010.05.17/outbox.cif.g08.bks.cpg/sg2_294_cif.got.tgz:587484.got - 2010.06.03 11:33:40.
