data_PCOD9083102
_publ_section_title
;
Structure prediction by ZEFSAII (Michael W. Deem and Ramdas Pophale) SiO2 
 PCOD9083102
Probable space group: P -1
;
_chemical_formula_sum "Si O2"
_cell_formula_units_Z 16
_cell_length_a 8.570173
_cell_length_b 9.860304
_cell_length_c 7.554020
_cell_angle_alpha 70.627398
_cell_angle_beta 85.184131
_cell_angle_gamma 90.896295
_cell_volume 599.437790
_symmetry_space_group_name_H-M "P -1"
_symmetry_group_IT_number 2
_symmetry_cell_setting 'triclinic'
loop_
_space_group_symop_operation_xyz
x,y,z
-x,-y,-z
loop_
_atom_site_type_symbol
_atom_site_label
_atom_site_fract_x
_atom_site_fract_y
_atom_site_fract_z
Si Si1 0.845187 0.743658 0.044865
Si Si2 0.672804 0.432716 0.511403
Si Si3 0.204333 0.269939 0.486789
Si Si4 0.309860 0.981991 0.780259
Si Si5 0.161472 0.757229 0.140766
Si Si6 0.957588 0.144376 0.346402
Si Si7 0.571653 0.780341 0.852889
Si Si8 0.277356 0.578820 0.894373
O O1 0.940080 0.837763 0.847884
O O2 0.667815 0.795058 0.020596
O O3 0.799835 0.582252 0.048876
O O4 0.973103 0.756248 0.185922
O O5 0.500000 0.500000 0.500000
O O6 0.772254 0.575273 0.496462
O O7 0.726958 0.308872 0.693556
O O8 0.703284 0.385606 0.329645
O O9 0.029825 0.260790 0.423578
O O10 0.318540 0.252531 0.310565
O O11 0.267137 0.141005 0.659109
O O12 0.484611 0.929060 0.776247
O O13 0.219613 0.883776 0.680787
O O14 0.232199 0.911261 0.997100
O O15 0.166188 0.650840 0.015773
O O16 0.000000 0.000000 0.500000
O O17 0.443907 0.645308 0.929599
#
# Coordination Sequence:
#
# PCOD9083102 Si02
#       8
#     2   2   2   2   2   2   2   2
#     4  10  20  36  63  96 127 170 216 270 330 385
#     4  12  26  41  66  96 138 173 216 273 332 389
#     4  10  19  38  60  92 134 170 213 271 328 387
#     4   9  19  35  66  94 124 172 219 266 331 387
#     4  10  23  43  66  95 130 168 221 277 327 390
#     4   8  16  33  60  91 125 166 211 264 319 382
#     4  10  19  33  62  96 128 165 218 270 322 390
#     4  11  23  39  65  93 133 172 218 263 332 389
#
# _framework density 26.691676000000001
#
# number of rings (size 3 to 8) (size 9 to 14) (size 15 to 20)
#    0.000    2.000    1.250    2.625    3.500    2.500 
#    0.000    0.625    0.000    8.250    0.000    0.000 
#    0.000    0.000    0.000    0.000    0.000    0.000 
#
# Total GULP energy -89274.526337 kJ/mol
# GULP energy per Si atom -5579.657896 kJ/mol
# Density = 2.663092 g / cm^3
# Si number density = 26.691676 Si / 1000 Ang^3
#
#
#
# Elastic Constant Matrix: (Units=GPa)
#
#
# Indices 1 2 3 4 5 6 
#
# 1 115.3049 5.3706 39.1122 7.3557 26.4149 4.1879
# 2 5.3706 66.6780 10.3469 7.1186 -4.0190 4.4360
# 3 39.1122 10.3469 132.3286 -3.4844 10.5766 -1.5394
# 4 7.3557 7.1186 -3.4844 53.2392 7.5470 1.7830
# 5 26.4149 -4.0190 10.5766 7.5470 32.4087 4.3602
# 6 4.1879 4.4360 -1.5394 1.7830 4.3602 46.7684
#
#
#
# Elastic Compliance Matrix: (Units=1/GPa)
#
#
# Indices 1 2 3 4 5 6 
#
# 1 0.011635 -0.000978 -0.002689 -0.000427 -0.008598 -0.000220
# 2 -0.000978 0.015927 -0.001370 -0.002601 0.004060 -0.001748
# 3 -0.002689 -0.001370 0.008594 0.001259 -0.001172 0.000715
# 4 -0.000427 -0.002601 0.001259 0.019986 -0.005045 0.000035
# 5 -0.008598 0.004060 -0.001172 -0.005045 0.040359 -0.003224
# 6 -0.000220 -0.001748 0.000715 0.000035 -0.003224 0.021890
#
#
# Mechanical properties :
#
#
# Convention : Reuss Voigt Hill
#
# Bulk Modulus (GPa) = 38.33873 47.10788 42.72331
# Shear Modulus (GPa) = 36.45383 43.78204 40.11793
#
# Velocity S-wave (km/s) = 3.69960 4.05444 3.88108
# Velocity P-wave (km/s) = 5.71350 6.29327 6.01038
#
# Compressibility (1/GPa) = 0.02608328
#
# Stress axis : x y z
#
# Youngs Moduli (GPa) = 85.94521 62.78459 116.35987
#
# Poissons Ratio (x) = 0.06140 0.31291
# Poissons Ratio (y) = 0.08405 0.15937
# Poissons Ratio (z) = 0.23112 0.08599
#
# Static dielectric constant tensor:
#      x y z
#    x 2.293460 -0.044290 0.085160 
#    y -0.044290 2.116500 0.017190 
#    z 0.085160 0.017190 2.283570 
# 
# From -- ./inp_files/175366.got.cif
#   From: 2010.05.17/outbox.cif.g08.bks.cpg/sg2_88_cif.got.tgz:175366.got - 2010.06.03 11:33:40.
