data_PCOD9083609
_publ_section_title
;
Structure prediction by ZEFSAII (Michael W. Deem and Ramdas Pophale) SiO2 
 PCOD9083609
Probable space group: P -1
;
_chemical_formula_sum "Si O2"
_cell_formula_units_Z 14
_cell_length_a 18.286988
_cell_length_b 5.459925
_cell_length_c 12.519672
_cell_angle_alpha 49.434702
_cell_angle_beta 52.682906
_cell_angle_gamma 51.731355
_cell_volume 700.832439
_symmetry_space_group_name_H-M "P -1"
_symmetry_group_IT_number 2
_symmetry_cell_setting 'triclinic'
loop_
_space_group_symop_operation_xyz
x,y,z
-x,-y,-z
loop_
_atom_site_type_symbol
_atom_site_label
_atom_site_fract_x
_atom_site_fract_y
_atom_site_fract_z
Si Si1 0.935020 0.262297 0.622021
Si Si2 0.244161 0.228949 0.287551
Si Si3 0.555000 0.105730 0.196861
Si Si4 0.607174 0.149331 0.566680
Si Si5 0.130111 0.709154 0.570797
Si Si6 0.327613 0.203556 0.619112
Si Si7 0.585188 0.143447 0.915052
O O1 0.841962 0.392073 0.747120
O O2 0.887522 0.336154 0.525355
O O3 0.000000 0.500000 0.500000
O O4 0.018960 0.879287 0.668095
O O5 0.321891 0.165213 0.332747
O O6 0.184101 0.984799 0.440201
O O7 0.311825 0.084016 0.166080
O O8 0.462815 0.465333 0.197545
O O9 0.504483 0.818614 0.319807
O O10 0.634778 0.022197 0.243596
O O11 0.594731 0.144001 0.034149
O O12 0.631023 0.483498 0.487967
O O13 0.630435 0.024642 0.459153
O O14 0.209393 0.383550 0.653113
O O15 0.500000 0.000000 0.000000
#
# Coordination Sequence:
#
# PCOD9083609 Si02
#       7
#     2   2   2   2   2   2   2
#     4   9  17  31  55  85 114 143 183 240 304 353
#     4  10  19  34  57  81 118 151 194 238 291 342
#     4  11  24  38  54  81 118 160 207 238 287 346
#     4  11  21  36  58  88 118 155 194 245 297 356
#     4   9  18  33  55  87 115 144 186 241 305 351
#     4  11  23  36  61  86 122 154 192 247 306 349
#     4  11  24  39  56  79 118 166 208 242 271 346
#
# _framework density 19.976244000000001
#
# number of rings (size 3 to 8) (size 9 to 14) (size 15 to 20)
#    0.000    1.714    2.857    2.571    2.000    0.000 
#    0.000    0.000    0.000    0.857    0.000   10.000 
#    0.000    0.000    0.000    0.000    0.000    0.000 
#
# Total GULP energy -78076.191986 kJ/mol
# GULP energy per Si atom -5576.870856 kJ/mol
# Density = 1.993078 g / cm^3
# Si number density = 19.976244 Si / 1000 Ang^3
#
#
#
# Elastic Constant Matrix: (Units=GPa)
#
#
# Indices 1 2 3 4 5 6 
#
# 1 121.9704 39.4423 23.1144 1.0084 25.2759 -17.5450
# 2 39.4423 127.3385 47.5733 32.3066 9.9590 -23.0219
# 3 23.1144 47.5733 44.9650 21.5665 24.2164 -18.1226
# 4 1.0084 32.3066 21.5665 33.3026 2.1723 -11.4878
# 5 25.2759 9.9590 24.2164 2.1723 32.5873 -4.4478
# 6 -17.5450 -23.0219 -18.1226 -11.4878 -4.4478 39.9603
#
#
#
# Elastic Compliance Matrix: (Units=1/GPa)
#
#
# Indices 1 2 3 4 5 6 
#
# 1 0.011624 -0.004674 0.005322 0.002996 -0.011135 0.004446
# 2 -0.004674 0.017444 -0.024238 -0.002834 0.016222 -0.002004
# 3 0.005322 -0.024238 0.109991 -0.036314 -0.073355 0.019651
# 4 0.002996 -0.002834 -0.036314 0.055305 0.022055 0.001568
# 5 -0.011135 0.016222 -0.073355 0.022055 0.085642 -0.012938
# 6 0.004446 -0.002004 0.019651 0.001568 -0.012938 0.033745
#
#
# Mechanical properties :
#
#
# Convention : Reuss Voigt Hill
#
# Bulk Modulus (GPa) = 10.88388 57.17044 34.02716
# Shear Modulus (GPa) = 12.76952 33.44629 23.10790
#
# Velocity S-wave (km/s) = 2.53105 4.09626 3.40482
# Velocity P-wave (km/s) = 3.74191 7.14520 5.70332
#
# Compressibility (1/GPa) = 0.09187900
#
# Stress axis : x y z
#
# Youngs Moduli (GPa) = 86.02860 57.32585 9.09166
#
# Poissons Ratio (x) = 0.26795 -0.04839
# Poissons Ratio (y) = 0.40211 0.22036
# Poissons Ratio (z) = -0.45785 1.38946
#
# Static dielectric constant tensor:
#      x y z
#    x 1.994970 0.134680 -0.142960 
#    y 0.134680 1.909290 -0.093550 
#    z -0.142960 -0.093550 1.782690 
# 
# From -- ./inp_files/75860.got.cif
#   From: 2010.05.17/outbox.cif.g08.bks.cpg/sg2_38_cif.got.tgz:75860.got - 2010.06.03 11:33:40.
