data_PCOD9083344
_publ_section_title
;
Structure prediction by ZEFSAII (Michael W. Deem and Ramdas Pophale) SiO2 
 PCOD9083344
Probable space group: P -1
;
_chemical_formula_sum "Si O2"
_cell_formula_units_Z 13
_cell_length_a 9.611914
_cell_length_b 9.955109
_cell_length_c 5.322262
_cell_angle_alpha 86.666954
_cell_angle_beta 73.194429
_cell_angle_gamma 98.506433
_cell_volume 479.414794
_symmetry_space_group_name_H-M "P -1"
_symmetry_group_IT_number 2
_symmetry_cell_setting 'triclinic'
loop_
_space_group_symop_operation_xyz
x,y,z
-x,-y,-z
loop_
_atom_site_type_symbol
_atom_site_label
_atom_site_fract_x
_atom_site_fract_y
_atom_site_fract_z
Si Si1 0.043361 0.925671 0.235546
Si Si2 0.274912 0.742035 0.708429
Si Si3 0.761043 0.394457 0.753618
Si Si4 0.800760 0.686862 0.533119
Si Si5 0.344384 0.093307 0.097589
Si Si6 0.500000 0.000000 0.500000
Si Si7 0.537845 0.681729 0.332162
O O1 0.941496 0.778473 0.324310
O O2 0.219847 0.962577 0.138923
O O3 0.000000 0.000000 0.500000
O O4 0.000000 0.000000 0.000000
O O5 0.189749 0.679235 0.511900
O O6 0.425205 0.676648 0.620264
O O7 0.332237 0.899619 0.603647
O O8 0.204233 0.681727 0.006963
O O9 0.824457 0.553366 0.683627
O O10 0.579740 0.379329 0.812425
O O11 0.729724 0.784297 0.753372
O O12 0.683119 0.638859 0.372894
O O13 0.462760 0.066545 0.238658
O O14 0.413581 0.157051 0.787975
#
# Coordination Sequence:
#
# PCOD9083344 Si02
#       7
#     2   2   2   2   2   1   2
#     4  10  22  38  58  85 118 153 196 238 289 349
#     4  10  23  36  54  87 115 158 183 240 289 346
#     4  10  22  36  55  87 119 147 192 234 303 345
#     4  11  21  37  59  84 123 148 189 247 293 351
#     4  11  22  36  60  89 116 159 196 238 298 336
#     4  12  20  42  58  82 128 150 202 240 280 352
#     4  10  19  34  54  88 115 147 186 232 301 340
#
# _framework density 27.116394
#
# number of rings (size 3 to 8) (size 9 to 14) (size 15 to 20)
#    0.923    0.615    4.615    0.462    2.154    3.692 
#    0.000    0.000    0.000    1.846    0.000    0.000 
#    0.000    0.000    0.000    0.000    0.000    0.000 
#
# Total GULP energy -72549.152944 kJ/mol
# GULP energy per Si atom -5580.704073 kJ/mol
# Density = 2.705468 g / cm^3
# Si number density = 27.116394 Si / 1000 Ang^3
#
#
#
# Elastic Constant Matrix: (Units=GPa)
#
#
# Indices 1 2 3 4 5 6 
#
# 1 80.8755 6.2732 27.6530 6.2258 -6.5387 19.3086
# 2 6.2732 131.5073 48.9964 -32.7926 -4.8458 -1.6187
# 3 27.6530 48.9964 205.5257 -3.6799 18.8828 -3.5124
# 4 6.2258 -32.7926 -3.6799 49.1367 4.1086 0.9770
# 5 -6.5387 -4.8458 18.8828 4.1086 41.8652 -1.3607
# 6 19.3086 -1.6187 -3.5124 0.9770 -1.3607 30.9563
#
#
#
# Elastic Compliance Matrix: (Units=1/GPa)
#
#
# Indices 1 2 3 4 5 6 
#
# 1 0.016229 -0.000449 -0.002629 -0.002650 0.003597 -0.010203
# 2 -0.000449 0.010215 -0.002394 0.006556 0.001562 0.000404
# 3 -0.002629 -0.002394 0.006121 -0.000570 -0.003325 0.002081
# 4 -0.002650 0.006556 -0.000570 0.025152 -0.001832 0.001057
# 5 0.003597 0.001562 -0.003325 -0.001832 0.026265 -0.001327
# 6 -0.010203 0.000404 0.002081 0.001057 -0.001327 0.038833
#
#
# Mechanical properties :
#
#
# Convention : Reuss Voigt Hill
#
# Bulk Modulus (GPa) = 46.25012 64.86153 55.55583
# Shear Modulus (GPa) = 35.46974 46.72402 41.09688
#
# Velocity S-wave (km/s) = 3.62063 4.15552 3.89726
# Velocity P-wave (km/s) = 5.87978 6.85536 6.38623
#
# Compressibility (1/GPa) = 0.02162156
#
# Stress axis : x y z
#
# Youngs Moduli (GPa) = 61.61799 97.89682 163.37602
#
# Poissons Ratio (x) = 0.04392 0.42950
# Poissons Ratio (y) = 0.02764 0.39112
# Poissons Ratio (z) = 0.16199 0.23437
#
# Static dielectric constant tensor:
#      x y z
#    x 2.051140 -0.004460 -0.037610 
#    y -0.004460 2.059770 0.044140 
#    z -0.037610 0.044140 2.044210 
# 
# From -- ./inp_files/63537.got.cif
#   From: 2010.05.17/outbox.cif.g08.bks.cpg/sg2_32_cif.got.tgz:63537.got - 2010.06.03 11:33:40.
