data_PCOD9083501
_publ_section_title
;
Structure prediction by ZEFSAII (Michael W. Deem and Ramdas Pophale) SiO2 
 PCOD9083501
Probable space group: P -1
;
_chemical_formula_sum "Si O2"
_cell_formula_units_Z 16
_cell_length_a 22.570052
_cell_length_b 12.847205
_cell_length_c 9.122783
_cell_angle_alpha 51.079947
_cell_angle_beta 29.583339
_cell_angle_gamma 39.388965
_cell_volume 820.557960
_symmetry_space_group_name_H-M "P -1"
_symmetry_group_IT_number 2
_symmetry_cell_setting 'triclinic'
loop_
_space_group_symop_operation_xyz
x,y,z
-x,-y,-z
loop_
_atom_site_type_symbol
_atom_site_label
_atom_site_fract_x
_atom_site_fract_y
_atom_site_fract_z
Si Si1 0.734149 0.885106 0.667486
Si Si2 0.021115 0.458289 0.660578
Si Si3 0.296129 0.760326 0.793137
Si Si4 0.158516 0.907859 0.660796
Si Si5 0.894296 0.452175 0.207919
Si Si6 0.736852 0.512509 0.768318
Si Si7 0.535223 0.788333 0.192097
Si Si8 0.994043 0.916377 0.733672
O O1 0.862337 0.741175 0.416357
O O2 0.796502 0.965483 0.558300
O O3 0.606332 0.032393 0.711972
O O4 0.655633 0.810478 0.981682
O O5 0.105100 0.533484 0.474347
O O6 0.000000 0.500000 0.500000
O O7 0.883933 0.501022 0.016488
O O8 0.269522 0.768672 0.665492
O O9 0.458082 0.718703 0.506695
O O10 0.279886 0.629311 0.022813
O O11 0.163445 0.942502 0.977014
O O12 0.126200 0.867555 0.607280
O O13 0.000000 0.000000 0.000000
O O14 0.749248 0.531494 0.551251
O O15 0.980406 0.254955 0.207089
O O16 0.000000 0.500000 0.000000
O O17 0.614581 0.676544 0.975450
O O18 0.000000 0.000000 0.500000
#
# Coordination Sequence:
#
# PCOD9083501 Si02
#       8
#     2   2   2   2   2   2   2   2
#     4   9  18  35  55  83 110 148 191 244 280 340
#     4  10  21  32  57  84 117 146 186 240 301 342
#     4  10  19  34  56  84 111 148 197 242 281 343
#     4   9  19  30  55  81 113 141 185 236 293 337
#     4  10  21  36  51  81 118 148 185 232 295 345
#     4  10  20  33  53  83 111 152 187 241 283 343
#     4   9  18  34  57  79 111 153 202 229 280 339
#     4  11  21  35  58  85 117 152 186 240 302 348
#
# _framework density 19.498927999999999
#
# number of rings (size 3 to 8) (size 9 to 14) (size 15 to 20)
#    0.000    2.250    1.250    2.625    5.250    1.000 
#    0.000    0.000    0.000   10.500    0.000    0.000 
#    0.000    0.000    0.000    0.000    0.000    0.000 
#
# Total GULP energy -89078.933611 kJ/mol
# GULP energy per Si atom -5567.433351 kJ/mol
# Density = 1.945455 g / cm^3
# Si number density = 19.498928 Si / 1000 Ang^3
#
#
#
# Elastic Constant Matrix: (Units=GPa)
#
#
# Indices 1 2 3 4 5 6 
#
# 1 60.6367 17.7460 43.3765 -17.2932 4.9688 13.8171
# 2 17.7460 83.5857 42.8806 -17.7831 -2.2430 23.0028
# 3 43.3765 42.8806 143.9932 -22.8682 10.8766 8.0874
# 4 -17.2932 -17.7831 -22.8682 32.7592 0.8242 -3.2564
# 5 4.9688 -2.2430 10.8766 0.8242 29.0712 -6.5251
# 6 13.8171 23.0028 8.0874 -3.2564 -6.5251 23.4784
#
#
#
# Elastic Compliance Matrix: (Units=1/GPa)
#
#
# Indices 1 2 3 4 5 6 
#
# 1 0.027761 0.004887 -0.006493 0.011033 -0.006556 -0.019181
# 2 0.004887 0.021113 -0.005042 0.008462 -0.002341 -0.021301
# 3 -0.006493 -0.005042 0.010582 0.001749 -0.002224 0.004741
# 4 0.011033 0.008462 0.001749 0.041189 -0.005574 -0.011223
# 5 -0.006556 -0.002341 -0.002224 -0.005574 0.040216 0.017321
# 6 -0.019181 -0.021301 0.004741 -0.011223 0.017321 0.076374
#
#
# Mechanical properties :
#
#
# Convention : Reuss Voigt Hill
#
# Bulk Modulus (GPa) = 21.66455 55.13577 38.40016
# Shear Modulus (GPa) = 20.33198 29.34257 24.83728
#
# Velocity S-wave (km/s) = 3.23263 3.88342 3.57287
# Velocity P-wave (km/s) = 5.00679 6.96029 6.06274
#
# Compressibility (1/GPa) = 0.04615836
#
# Stress axis : x y z
#
# Youngs Moduli (GPa) = 36.02196 47.36523 94.50107
#
# Poissons Ratio (x) = -0.23148 0.61363
# Poissons Ratio (y) = -0.17605 0.47651
# Poissons Ratio (z) = 0.23390 0.23883
#
# Static dielectric constant tensor:
#      x y z
#    x 1.737880 0.019850 0.013120 
#    y 0.019850 1.727030 -0.016170 
#    z 0.013120 -0.016170 1.750810 
# 
# From -- ./inp_files/262031.got.cif
#   From: 2010.05.17/outbox.cif.g08.bks.cpg/sg2_132_cif.got.tgz:262031.got - 2010.06.03 11:33:40.
