data_PCOD9083830
_publ_section_title
;
Structure prediction by ZEFSAII (Michael W. Deem and Ramdas Pophale) SiO2 
 PCOD9083830
Probable space group: P -1
;
_chemical_formula_sum "Si O2"
_cell_formula_units_Z 16
_cell_length_a 21.323313
_cell_length_b 8.479720
_cell_length_c 8.746553
_cell_angle_alpha 131.708414
_cell_angle_beta 62.149138
_cell_angle_gamma 80.148593
_cell_volume 713.329471
_symmetry_space_group_name_H-M "P -1"
_symmetry_group_IT_number 2
_symmetry_cell_setting 'triclinic'
loop_
_space_group_symop_operation_xyz
x,y,z
-x,-y,-z
loop_
_atom_site_type_symbol
_atom_site_label
_atom_site_fract_x
_atom_site_fract_y
_atom_site_fract_z
Si Si1 0.952432 0.959575 0.840912
Si Si2 0.120451 0.426654 0.092704
Si Si3 0.950657 0.822716 0.103207
Si Si4 0.778537 0.375238 0.869201
Si Si5 0.661243 0.230715 0.478665
Si Si6 0.740307 0.316546 0.185790
Si Si7 0.594159 0.818863 0.892908
Si Si8 0.418872 0.010035 0.665229
O O1 0.059908 0.618571 0.442283
O O2 0.927936 0.951599 0.038205
O O3 0.962720 0.191146 0.960290
O O4 0.862433 0.055890 0.904324
O O5 0.155845 0.579717 0.094620
O O6 0.044500 0.441153 0.090947
O O7 0.229524 0.066727 0.759789
O O8 0.857141 0.067358 0.483571
O O9 0.717916 0.388104 0.080250
O O10 0.696926 0.658553 0.030849
O O11 0.691756 0.218954 0.260158
O O12 0.613485 0.556736 0.793895
O O13 0.579634 0.220085 0.566553
O O14 0.693561 0.609455 0.532391
O O15 0.573444 0.027405 0.184663
O O16 0.500000 0.000000 0.000000
O O17 0.500000 0.000000 0.500000
#
# Coordination Sequence:
#
# PCOD9083830 Si02
#       8
#     2   2   2   2   2   2   2   2
#     4  10  20  34  62  85 119 157 203 244 287 348
#     4  10  19  37  61  87 117 158 204 241 289 353
#     4  10  19  34  58  86 111 158 202 237 286 350
#     4  10  22  39  56  84 125 153 196 251 291 343
#     4   9  22  39  63  87 120 157 198 238 297 358
#     4  10  21  42  56  85 127 158 191 248 297 342
#     4  10  22  42  63  88 119 150 196 245 297 352
#     4  11  22  40  66  91 113 154 200 245 297 357
#
# _framework density 22.430029999999999
#
# number of rings (size 3 to 8) (size 9 to 14) (size 15 to 20)
#    0.750    1.250    1.250    2.625    0.000    4.000 
#    2.250    1.250    0.000    0.000    0.000    0.000 
#    0.000    0.000    0.000    0.000    0.000    0.000 
#
# Total GULP energy -89156.237837 kJ/mol
# GULP energy per Si atom -5572.264865 kJ/mol
# Density = 2.237898 g / cm^3
# Si number density = 22.430030 Si / 1000 Ang^3
#
#
#
# Elastic Constant Matrix: (Units=GPa)
#
#
# Indices 1 2 3 4 5 6 
#
# 1 99.7314 1.4654 10.7106 3.8754 6.3006 20.0959
# 2 1.4654 33.2234 0.8400 -8.2464 1.0740 1.8881
# 3 10.7106 0.8400 61.1352 -4.4469 6.2462 4.0206
# 4 3.8754 -8.2464 -4.4469 25.7304 0.1172 -3.0249
# 5 6.3006 1.0740 6.2462 0.1172 26.1684 -0.6718
# 6 20.0959 1.8881 4.0206 -3.0249 -0.6718 40.6126
#
#
#
# Elastic Compliance Matrix: (Units=1/GPa)
#
#
# Indices 1 2 3 4 5 6 
#
# 1 0.011662 -0.000796 -0.001606 -0.002964 -0.002529 -0.005837
# 2 -0.000796 0.032846 0.000635 0.010713 -0.001367 -0.000421
# 3 -0.001606 0.000635 0.017314 0.003365 -0.003807 -0.000761
# 4 -0.002964 0.010713 0.003365 0.043786 -0.000626 0.003886
# 5 -0.002529 -0.001367 -0.003807 -0.000626 0.039849 0.002304
# 6 -0.005837 -0.000421 -0.000761 0.003886 0.002304 0.027934
#
#
# Mechanical properties :
#
#
# Convention : Reuss Voigt Hill
#
# Bulk Modulus (GPa) = 17.15630 24.45799 20.80714
# Shear Modulus (GPa) = 25.46433 30.57388 28.01911
#
# Velocity S-wave (km/s) = 3.37304 3.69599 3.53821
# Velocity P-wave (km/s) = 4.77863 5.39830 5.09789
#
# Compressibility (1/GPa) = 0.05828763
#
# Stress axis : x y z
#
# Youngs Moduli (GPa) = 85.74724 30.44553 57.75828
#
# Poissons Ratio (x) = 0.02423 0.09273
# Poissons Ratio (y) = 0.06825 -0.03666
# Poissons Ratio (z) = 0.13767 -0.01932
#
# Static dielectric constant tensor:
#      x y z
#    x 1.852970 0.021020 0.010040 
#    y 0.021020 1.857130 0.026350 
#    z 0.010040 0.026350 1.841360 
# 
# From -- ./inp_files/352417.got.cif
#   From: 2010.05.17/outbox.cif.g08.bks.cpg/sg2_177_cif.got.tgz:352417.got - 2010.06.03 11:33:40.
