data_PCOD9083932
_publ_section_title
;
Structure prediction by ZEFSAII (Michael W. Deem and Ramdas Pophale) SiO2 
 PCOD9083932
Probable space group: P -1
;
_chemical_formula_sum "Si O2"
_cell_formula_units_Z 12
_cell_length_a 8.675792
_cell_length_b 10.340961
_cell_length_c 6.747933
_cell_angle_alpha 80.482714
_cell_angle_beta 53.081001
_cell_angle_gamma 98.960965
_cell_volume 451.675328
_symmetry_space_group_name_H-M "P -1"
_symmetry_group_IT_number 2
_symmetry_cell_setting 'triclinic'
loop_
_space_group_symop_operation_xyz
x,y,z
-x,-y,-z
loop_
_atom_site_type_symbol
_atom_site_label
_atom_site_fract_x
_atom_site_fract_y
_atom_site_fract_z
Si Si1 0.523354 0.557794 0.695060
Si Si2 0.790244 0.395835 0.612343
Si Si3 0.841278 0.920361 0.853893
Si Si4 0.882397 0.794409 0.230902
Si Si5 0.758970 0.114479 0.603183
Si Si6 0.221813 0.701251 0.786329
O O1 0.500000 0.500000 0.500000
O O2 0.589881 0.441014 0.787818
O O3 0.725717 0.690093 0.519831
O O4 0.344509 0.624074 0.841846
O O5 0.747536 0.234146 0.730637
O O6 0.834565 0.392905 0.341807
O O7 0.000000 0.500000 0.500000
O O8 0.699329 0.967354 0.798267
O O9 0.987179 0.063457 0.803785
O O10 0.002019 0.860461 0.638225
O O11 0.755958 0.825385 0.132863
O O12 0.035658 0.722811 0.039334
O O13 0.673239 0.149186 0.449310
#
# Coordination Sequence:
#
# PCOD9083932 Si02
#       6
#     2   2   2   2   2   2
#     4  10  20  35  57  81 114 144 179 230 275 327
#     4   9  17  31  56  81 104 147 182 215 274 328
#     4   9  17  33  55  84 109 142 191 221 266 337
#     4  10  19  34  59  84 106 147 185 226 274 320
#     4   8  16  32  54  78 109 145 176 223 276 318
#     4   8  19  35  55  82 111 138 186 220 279 319
#
# _framework density 26.567754999999998
#
# number of rings (size 3 to 8) (size 9 to 14) (size 15 to 20)
#    1.000    2.000    0.000    1.000    0.000    2.667 
#    0.000    8.333    3.667    4.000    0.000    0.000 
#    0.000    0.000    0.000    0.000    0.000    0.000 
#
# Total GULP energy -66960.855847 kJ/mol
# GULP energy per Si atom -5580.071321 kJ/mol
# Density = 2.650729 g / cm^3
# Si number density = 26.567755 Si / 1000 Ang^3
#
#
#
# Elastic Constant Matrix: (Units=GPa)
#
#
# Indices 1 2 3 4 5 6 
#
# 1 96.3215 41.9815 29.0382 -5.0106 6.7949 -39.2928
# 2 41.9815 141.1629 31.0604 7.3381 -14.1508 -45.6215
# 3 29.0382 31.0604 38.7971 7.7914 -5.8504 -13.0424
# 4 -5.0106 7.3381 7.7914 37.8938 -20.3745 2.2939
# 5 6.7949 -14.1508 -5.8504 -20.3745 42.9210 -5.3833
# 6 -39.2928 -45.6215 -13.0424 2.2939 -5.3833 65.5649
#
#
#
# Elastic Compliance Matrix: (Units=1/GPa)
#
#
# Indices 1 2 3 4 5 6 
#
# 1 0.017289 -0.000734 -0.010786 0.003095 -0.002048 0.007429
# 2 -0.000734 0.010981 -0.005623 0.000770 0.004138 0.006395
# 3 -0.010786 -0.005623 0.039342 -0.007569 0.001351 -0.002175
# 4 0.003095 0.000770 -0.007569 0.036966 0.016397 0.000938
# 5 -0.002048 0.004138 0.001351 0.016397 0.033469 0.004095
# 6 0.007429 0.006395 -0.002175 0.000938 0.004095 0.024025
#
#
# Mechanical properties :
#
#
# Convention : Reuss Voigt Hill
#
# Bulk Modulus (GPa) = 30.00551 53.38241 41.69396
# Shear Modulus (GPa) = 24.10034 40.88936 32.49485
#
# Velocity S-wave (km/s) = 3.01512 3.92734 3.50107
# Velocity P-wave (km/s) = 4.84146 6.37980 5.66311
#
# Compressibility (1/GPa) = 0.03332721
#
# Stress axis : x y z
#
# Youngs Moduli (GPa) = 57.83914 91.06537 25.41808
#
# Poissons Ratio (x) = 0.06684 0.27416
# Poissons Ratio (y) = 0.04245 0.14292
# Poissons Ratio (z) = 0.62385 0.51204
#
# Static dielectric constant tensor:
#      x y z
#    x 2.167010 -0.089320 0.100230 
#    y -0.089320 2.077910 -0.035700 
#    z 0.100230 -0.035700 2.114390 
# 
# From -- ./inp_files/175771.got.cif
#   From: 2010.05.17/outbox.cif.g08.bks.cpg/sg2_88_cif.got.tgz:175771.got - 2010.06.03 11:33:40.
