data_PCOD9083461
_publ_section_title
;
Structure prediction by ZEFSAII (Michael W. Deem and Ramdas Pophale) SiO2 
 PCOD9083461
Probable space group: P -1
;
_chemical_formula_sum "Si O2"
_cell_formula_units_Z 16
_cell_length_a 10.924974
_cell_length_b 16.372709
_cell_length_c 11.317942
_cell_angle_alpha 137.548732
_cell_angle_beta 71.928988
_cell_angle_gamma 138.599956
_cell_volume 757.633161
_symmetry_space_group_name_H-M "P -1"
_symmetry_group_IT_number 2
_symmetry_cell_setting 'triclinic'
loop_
_space_group_symop_operation_xyz
x,y,z
-x,-y,-z
loop_
_atom_site_type_symbol
_atom_site_label
_atom_site_fract_x
_atom_site_fract_y
_atom_site_fract_z
Si Si1 0.163038 0.526293 0.426389
Si Si2 0.668415 0.769492 0.452326
Si Si3 0.124909 0.052949 0.188659
Si Si4 0.376120 0.883360 0.604569
Si Si5 0.957966 0.169311 0.250066
Si Si6 0.813788 0.625393 0.934806
Si Si7 0.811428 0.277085 0.760867
Si Si8 0.019804 0.205108 0.684636
O O1 0.365921 0.765336 0.576159
O O2 0.067769 0.390077 0.191070
O O3 0.000000 0.500000 0.500000
O O4 0.150490 0.404184 0.390564
O O5 0.673464 0.801246 0.624170
O O6 0.434350 0.570604 0.248838
O O7 0.815000 0.760934 0.388443
O O8 0.809891 0.975486 0.557594
O O9 0.061374 0.141483 0.268564
O O10 0.148368 0.988776 0.995955
O O11 0.921815 0.835180 0.088113
O O12 0.222574 0.877499 0.689016
O O13 0.283644 0.758255 0.374954
O O14 0.616071 0.112774 0.739626
O O15 0.848682 0.638224 0.076339
O O16 0.923236 0.232310 0.658618
O O17 0.000000 0.500000 0.000000
#
# Coordination Sequence:
#
# PCOD9083461 Si02
#       8
#     2   2   2   2   2   2   2   2
#     4   9  18  35  59  80 107 150 188 224 274 327
#     4  10  20  35  56  80 110 147 186 230 278 333
#     4   9  19  35  55  83 114 142 180 231 281 329
#     4  10  21  38  59  83 114 152 189 228 281 334
#     4   9  18  37  60  83 116 150 184 232 279 331
#     4  10  19  34  56  80 110 145 184 229 279 335
#     4  11  23  37  57  85 116 149 188 235 279 332
#     4  10  21  35  53  80 111 146 187 231 279 328
#
# _framework density 21.118400000000001
#
# number of rings (size 3 to 8) (size 9 to 14) (size 15 to 20)
#    0.000    2.250    0.000    2.625    0.000    2.000 
#    0.000   10.625    0.000   14.250    0.000    0.000 
#    0.000    0.000    0.000    0.000    0.000    0.000 
#
# Total GULP energy -89216.453564 kJ/mol
# GULP energy per Si atom -5576.028348 kJ/mol
# Density = 2.107033 g / cm^3
# Si number density = 21.118400 Si / 1000 Ang^3
#
#
#
# Elastic Constant Matrix: (Units=GPa)
#
#
# Indices 1 2 3 4 5 6 
#
# 1 87.5436 38.7844 34.5404 14.6235 -13.6868 -12.4599
# 2 38.7844 79.2739 49.8817 13.1855 1.2234 0.4269
# 3 34.5404 49.8817 101.9795 14.3865 10.1803 2.0792
# 4 14.6235 13.1855 14.3865 32.4624 3.0471 -0.9677
# 5 -13.6868 1.2234 10.1803 3.0471 41.0503 0.0478
# 6 -12.4599 0.4269 2.0792 -0.9677 0.0478 29.3348
#
#
#
# Elastic Compliance Matrix: (Units=1/GPa)
#
#
# Indices 1 2 3 4 5 6 
#
# 1 0.018779 -0.006340 -0.003513 -0.004804 0.007668 0.008146
# 2 -0.006340 0.020933 -0.007654 -0.002267 -0.000668 -0.002529
# 3 -0.003513 -0.007654 0.015513 -0.001822 -0.004652 -0.002533
# 4 -0.004804 -0.002267 -0.001822 0.035022 -0.003681 -0.000717
# 5 0.007668 -0.000668 -0.004652 -0.003681 0.028360 0.003429
# 6 0.008146 -0.002529 -0.002533 -0.000717 0.003429 0.037736
#
#
# Mechanical properties :
#
#
# Convention : Reuss Voigt Hill
#
# Bulk Modulus (GPa) = 49.47802 57.24554 53.36178
# Shear Modulus (GPa) = 25.24067 30.27555 27.75811
#
# Velocity S-wave (km/s) = 3.46091 3.79041 3.62940
# Velocity P-wave (km/s) = 6.28095 6.80603 6.54876
#
# Compressibility (1/GPa) = 0.02021100
#
# Stress axis : x y z
#
# Youngs Moduli (GPa) = 53.25217 47.77077 64.46380
#
# Poissons Ratio (x) = 0.30286 0.22647
# Poissons Ratio (y) = 0.33761 0.49339
# Poissons Ratio (z) = 0.18708 0.36562
#
# Static dielectric constant tensor:
#      x y z
#    x 1.776740 0.003440 -0.029440 
#    y 0.003440 1.799840 -0.005160 
#    z -0.029440 -0.005160 1.749400 
# 
# From -- ./inp_files/409824.got.cif
#   From: 2010.05.17/outbox.cif.g08.bks.cpg/sg2_205_cif.got.tgz:409824.got - 2010.06.03 11:33:40.
