data_PCOD9083431
_publ_section_title
;
Structure prediction by ZEFSAII (Michael W. Deem and Ramdas Pophale) SiO2 
 PCOD9083431
Probable space group: P -1
;
_chemical_formula_sum "Si O2"
_cell_formula_units_Z 16
_cell_length_a 8.421459
_cell_length_b 13.357223
_cell_length_c 22.572412
_cell_angle_alpha 27.915151
_cell_angle_beta 126.663994
_cell_angle_gamma 140.531684
_cell_volume 724.109886
_symmetry_space_group_name_H-M "P -1"
_symmetry_group_IT_number 2
_symmetry_cell_setting 'triclinic'
loop_
_space_group_symop_operation_xyz
x,y,z
-x,-y,-z
loop_
_atom_site_type_symbol
_atom_site_label
_atom_site_fract_x
_atom_site_fract_y
_atom_site_fract_z
Si Si1 0.536522 0.278961 0.108193
Si Si2 0.089870 0.605279 0.033250
Si Si3 0.044655 0.678212 0.330724
Si Si4 0.091702 0.271422 0.411983
Si Si5 0.937798 0.620731 0.195732
Si Si6 0.808362 0.696065 0.450429
Si Si7 0.584943 0.755363 0.038634
Si Si8 0.292395 0.210352 0.739623
O O1 0.829281 0.406437 0.117506
O O2 0.500000 0.500000 0.000000
O O3 0.484630 0.227785 0.052841
O O4 0.316022 0.987749 0.242893
O O5 0.330918 0.619063 0.092279
O O6 0.000000 0.500000 0.000000
O O7 0.203882 0.925575 0.897161
O O8 0.997752 0.656036 0.261045
O O9 0.819328 0.660984 0.319013
O O10 0.096108 0.467173 0.467307
O O11 0.055157 0.189819 0.515884
O O12 0.396580 0.547530 0.325105
O O13 0.934127 0.373061 0.306049
O O14 0.000000 0.000000 0.500000
O O15 0.681595 0.581078 0.150811
O O16 0.171123 0.920303 0.060194
O O17 0.500000 0.500000 0.500000
O O18 0.839762 0.883171 0.306348
#
# Coordination Sequence:
#
# PCOD9083431 Si02
#       8
#     2   2   2   2   2   2   2   2
#     4  10  19  34  55  89 120 147 192 251 300 343
#     4  10  20  34  58  89 121 154 195 248 299 355
#     4  10  20  37  62  85 119 155 197 249 300 353
#     4  10  21  41  62  88 121 160 199 248 303 358
#     4   9  18  37  61  80 119 161 195 239 299 357
#     4   9  21  38  63  86 114 159 200 249 300 352
#     4   9  18  35  56  83 116 162 194 234 301 359
#     4  11  20  39  62  89 120 157 202 250 300 359
#
# _framework density 22.096093
#
# number of rings (size 3 to 8) (size 9 to 14) (size 15 to 20)
#    0.000    2.250    2.500    0.375    5.250    0.000 
#    4.500    8.125    0.000    0.000    0.000    0.000 
#    0.000    0.000    0.000    0.000    0.000    0.000 
#
# Total GULP energy -89333.612543 kJ/mol
# GULP energy per Si atom -5583.350784 kJ/mol
# Density = 2.204580 g / cm^3
# Si number density = 22.096093 Si / 1000 Ang^3
#
#
#
# Elastic Constant Matrix: (Units=GPa)
#
#
# Indices 1 2 3 4 5 6 
#
# 1 94.0451 16.8176 22.5634 8.6505 32.0437 28.4740
# 2 16.8176 41.0011 30.1187 4.8288 15.2697 14.5152
# 3 22.5634 30.1187 66.8144 5.5828 29.1272 4.8074
# 4 8.6505 4.8288 5.5828 20.4764 -0.3560 15.4092
# 5 32.0437 15.2697 29.1272 -0.3560 37.4918 4.0637
# 6 28.4740 14.5152 4.8074 15.4092 4.0637 40.7377
#
#
#
# Elastic Compliance Matrix: (Units=1/GPa)
#
#
# Indices 1 2 3 4 5 6 
#
# 1 0.019791 0.002467 0.000432 0.000693 -0.016802 -0.013349
# 2 0.002467 0.043318 -0.017982 0.006435 -0.003868 -0.017085
# 3 0.000432 -0.017982 0.031247 -0.011151 -0.018344 0.008466
# 4 0.000693 0.006435 -0.011151 0.072739 0.009382 -0.029911
# 5 -0.016802 -0.003868 -0.018344 0.009382 0.056285 0.006123
# 6 -0.013349 -0.017085 0.008466 -0.029911 0.006123 0.049670
#
#
# Mechanical properties :
#
#
# Convention : Reuss Voigt Hill
#
# Bulk Modulus (GPa) = 15.57918 37.87333 26.72626
# Shear Modulus (GPa) = 15.40288 28.56524 21.98406
#
# Velocity S-wave (km/s) = 2.64310 3.59942 3.15767
# Velocity P-wave (km/s) = 4.04730 5.86957 5.04145
#
# Compressibility (1/GPa) = 0.06418822
#
# Stress axis : x y z
#
# Youngs Moduli (GPa) = 50.52697 23.08490 32.00340
#
# Poissons Ratio (x) = -0.05694 -0.01381
# Poissons Ratio (y) = -0.12464 0.57550
# Poissons Ratio (z) = -0.02181 0.41512
#
# Static dielectric constant tensor:
#      x y z
#    x 1.848500 0.015190 -0.002980 
#    y 0.015190 1.838660 0.041150 
#    z -0.002980 0.041150 1.778330 
# 
# From -- ./inp_files/337869.got.cif
#   From: 2010.05.17/outbox.cif.g08.bks.cpg/sg2_169_cif.got.tgz:337869.got - 2010.06.03 11:33:40.
