data_PCOD9083885
_publ_section_title
;
Structure prediction by ZEFSAII (Michael W. Deem and Ramdas Pophale) SiO2 
 PCOD9083885
Probable space group: P -1
;
_chemical_formula_sum "Si O2"
_cell_formula_units_Z 16
_cell_length_a 6.939226
_cell_length_b 21.158970
_cell_length_c 5.401388
_cell_angle_alpha 108.003298
_cell_angle_beta 80.132125
_cell_angle_gamma 71.940596
_cell_volume 685.058518
_symmetry_space_group_name_H-M "P -1"
_symmetry_group_IT_number 2
_symmetry_cell_setting 'triclinic'
loop_
_space_group_symop_operation_xyz
x,y,z
-x,-y,-z
loop_
_atom_site_type_symbol
_atom_site_label
_atom_site_fract_x
_atom_site_fract_y
_atom_site_fract_z
Si Si1 0.298633 0.434472 0.977818
Si Si2 0.444864 0.860352 0.459209
Si Si3 0.804877 0.400732 0.831910
Si Si4 0.111153 0.011401 0.738968
Si Si5 0.842004 0.838486 0.072217
Si Si6 0.494464 0.194236 0.119615
Si Si7 0.152264 0.677239 0.773852
Si Si8 0.344381 0.358569 0.373952
O O1 0.193786 0.519867 0.065401
O O2 0.244350 0.409967 0.225470
O O3 0.553227 0.414558 0.903866
O O4 0.260339 0.391862 0.700055
O O5 0.697496 0.832643 0.328158
O O6 0.389741 0.825423 0.670001
O O7 0.341336 0.946057 0.604556
O O8 0.369236 0.833412 0.192151
O O9 0.894366 0.359034 0.506510
O O10 0.899770 0.354992 0.001340
O O11 0.113916 0.090185 0.835515
O O12 0.000000 0.000000 0.500000
O O13 0.000000 0.000000 0.000000
O O14 0.667845 0.846573 0.906018
O O15 0.036557 0.763365 0.903905
O O16 0.356637 0.278442 0.230722
O O17 0.405306 0.655090 0.693844
#
# Coordination Sequence:
#
# PCOD9083885 Si02
#       8
#     2   2   2   2   2   2   2   2
#     4   9  17  32  56  84 123 161 201 259 314 356
#     4  10  24  44  66  89 125 172 200 249 306 385
#     4   9  18  33  53  88 123 158 203 257 314 360
#     4  12  28  45  70 100 125 158 207 265 305 366
#     4  10  27  42  67  89 131 170 202 249 319 376
#     4  10  23  40  65  90 124 170 206 254 299 387
#     4  10  21  33  59  90 120 157 208 262 302 359
#     4  10  19  34  58  91 118 158 213 261 301 356
#
# _framework density 23.355671000000001
#
# number of rings (size 3 to 8) (size 9 to 14) (size 15 to 20)
#    0.750    1.250    0.000    2.625    7.000    3.500 
#    0.000    0.000    0.000    4.500    0.000    0.000 
#    0.000    0.000    0.000    0.000    0.000    0.000 
#
# Total GULP energy -89453.193785 kJ/mol
# GULP energy per Si atom -5590.824612 kJ/mol
# Density = 2.330251 g / cm^3
# Si number density = 23.355671 Si / 1000 Ang^3
#
#
#
# Elastic Constant Matrix: (Units=GPa)
#
#
# Indices 1 2 3 4 5 6 
#
# 1 51.0547 2.6303 26.1025 -0.8739 9.8509 7.6832
# 2 2.6303 107.7542 72.0012 7.1719 10.1961 3.8291
# 3 26.1025 72.0012 180.7274 -8.1109 20.2270 2.1131
# 4 -0.8739 7.1719 -8.1109 53.4168 0.0272 4.1970
# 5 9.8509 10.1961 20.2270 0.0272 30.5715 16.6929
# 6 7.6832 3.8291 2.1131 4.1970 16.6929 27.9989
#
#
#
# Elastic Compliance Matrix: (Units=1/GPa)
#
#
# Indices 1 2 3 4 5 6 
#
# 1 0.022710 0.002510 -0.003878 -0.000213 -0.003226 -0.004327
# 2 0.002510 0.013292 -0.005663 -0.002508 -0.000834 -0.001206
# 3 -0.003878 -0.005663 0.008925 0.001757 -0.004835 0.003784
# 4 -0.000213 -0.002508 0.001757 0.019612 0.001755 -0.003717
# 5 -0.003226 -0.000834 -0.004835 0.001755 0.054301 -0.031273
# 6 -0.004327 -0.001206 0.003784 -0.003717 -0.031273 0.055985
#
#
# Mechanical properties :
#
#
# Convention : Reuss Voigt Hill
#
# Bulk Modulus (GPa) = 32.39870 60.11159 46.25514
# Shear Modulus (GPa) = 25.10349 38.31760 31.71054
#
# Velocity S-wave (km/s) = 3.28202 4.05484 3.68873
# Velocity P-wave (km/s) = 5.31641 6.90765 6.16360
#
# Compressibility (1/GPa) = 0.03086544
#
# Stress axis : x y z
#
# Youngs Moduli (GPa) = 44.03302 75.23380 112.04315
#
# Poissons Ratio (x) = -0.18884 0.43449
# Poissons Ratio (y) = -0.11052 0.63451
# Poissons Ratio (z) = 0.17076 0.42605
#
# Static dielectric constant tensor:
#      x y z
#    x 1.950480 -0.013740 -0.011320 
#    y -0.013740 1.805010 -0.027010 
#    z -0.011320 -0.027010 1.863820 
# 
# From -- ./inp_files/53440.got.cif
#   From: 2010.05.17/outbox.cif.g08.bks.cpg/sg2_27_cif.got.tgz:53440.got - 2010.06.03 11:33:40.
