data_PCOD9083392
_publ_section_title
;
Structure prediction by ZEFSAII (Michael W. Deem and Ramdas Pophale) SiO2 
 PCOD9083392
Probable space group: P -1
;
_chemical_formula_sum "Si O2"
_cell_formula_units_Z 16
_cell_length_a 8.856960
_cell_length_b 14.272688
_cell_length_c 7.606305
_cell_angle_alpha 43.468975
_cell_angle_beta 121.740839
_cell_angle_gamma 106.883030
_cell_volume 555.657679
_symmetry_space_group_name_H-M "P -1"
_symmetry_group_IT_number 2
_symmetry_cell_setting 'triclinic'
loop_
_space_group_symop_operation_xyz
x,y,z
-x,-y,-z
loop_
_atom_site_type_symbol
_atom_site_label
_atom_site_fract_x
_atom_site_fract_y
_atom_site_fract_z
Si Si1 0.394054 0.381572 0.170329
Si Si2 0.834712 0.902166 0.788064
Si Si3 0.609062 0.298633 0.768618
Si Si4 0.223532 0.967910 0.951226
Si Si5 0.624597 0.159098 0.410653
Si Si6 0.060831 0.631607 0.258219
Si Si7 0.735710 0.759669 0.279599
Si Si8 0.123949 0.633889 0.682483
O O1 0.478954 0.342203 0.463389
O O2 0.441648 0.253201 0.241326
O O3 0.500000 0.500000 0.000000
O O4 0.199500 0.471842 0.955908
O O5 0.798173 0.832018 0.045625
O O6 0.007067 0.983329 0.796354
O O7 0.921248 0.762971 0.925466
O O8 0.665384 0.024768 0.490722
O O9 0.706317 0.144608 0.998383
O O10 0.767328 0.391251 0.734590
O O11 0.447849 0.294721 0.811395
O O12 0.300240 0.909276 0.264972
O O13 0.289040 0.114933 0.766598
O O14 0.752366 0.269932 0.275270
O O15 0.141814 0.682285 0.423466
O O16 0.000000 0.500000 0.500000
O O17 0.916784 0.658760 0.576196
#
# Coordination Sequence:
#
# PCOD9083392 Si02
#       8
#     2   2   2   2   2   2   2   2
#     4   9  16  27  44  63  87 118 145 174 216 268
#     4   9  15  27  45  64  88 120 141 172 218 265
#     4  10  18  27  41  68  92 112 141 185 216 257
#     4   9  13  25  40  62  92 117 132 167 221 274
#     4   9  12  24  46  64  81 110 148 172 205 259
#     4  10  19  31  45  61  87 120 153 177 208 259
#     4  10  16  23  42  69  94 110 135 180 231 258
#     4  10  16  29  45  64  86 123 142 173 219 263
#
# _framework density 28.794705
#
# number of rings (size 3 to 8) (size 9 to 14) (size 15 to 20)
#    0.000    2.500    7.500    1.125    0.000    0.500 
#    0.000    2.500    0.000    0.750    0.000    0.000 
#    0.000   22.000    0.000    0.000    0.000    0.250 
#
# Total GULP energy -89319.363132 kJ/mol
# GULP energy per Si atom -5582.460196 kJ/mol
# Density = 2.872917 g / cm^3
# Si number density = 28.794705 Si / 1000 Ang^3
#
#
#
# Elastic Constant Matrix: (Units=GPa)
#
#
# Indices 1 2 3 4 5 6 
#
# 1 153.4897 18.7174 61.6443 -8.4595 25.9730 44.7841
# 2 18.7174 79.6317 53.0494 -38.0400 15.8653 22.8938
# 3 61.6443 53.0494 136.0510 -37.1670 43.5242 -2.7107
# 4 -8.4595 -38.0400 -37.1670 53.2401 -14.2345 -1.4606
# 5 25.9730 15.8653 43.5242 -14.2345 66.2937 8.9407
# 6 44.7841 22.8938 -2.7107 -1.4606 8.9407 50.1475
#
#
#
# Elastic Compliance Matrix: (Units=1/GPa)
#
#
# Indices 1 2 3 4 5 6 
#
# 1 0.015030 0.009580 -0.011151 0.001464 0.001977 -0.018708
# 2 0.009580 0.034835 -0.015671 0.016139 0.005137 -0.025751
# 3 -0.011151 -0.015671 0.021859 0.000481 -0.008810 0.019879
# 4 0.001464 0.016139 0.000481 0.031491 0.003128 -0.008290
# 5 0.001977 0.005137 -0.008810 0.003128 0.020639 -0.008176
# 6 -0.018708 -0.025751 0.019879 -0.008290 -0.008176 0.050695
#
#
# Mechanical properties :
#
#
# Convention : Reuss Voigt Hill
#
# Bulk Modulus (GPa) = 26.85313 70.66606 48.75959
# Shear Modulus (GPa) = 22.57873 49.65370 36.11621
#
# Velocity S-wave (km/s) = 2.80327 4.15710 3.54540
# Velocity P-wave (km/s) = 4.45238 6.90193 5.80777
#
# Compressibility (1/GPa) = 0.03723961
#
# Stress axis : x y z
#
# Youngs Moduli (GPa) = 66.53390 28.70636 45.74816
#
# Poissons Ratio (x) = -0.27499 0.51012
# Poissons Ratio (y) = -0.63736 0.71693
# Poissons Ratio (z) = 0.74190 0.44986
#
# Static dielectric constant tensor:
#      x y z
#    x 2.367770 0.020370 -0.006780 
#    y 0.020370 2.467970 0.032100 
#    z -0.006780 0.032100 2.287720 
# 
# From -- ./inp_files/252685.got.cif
#   From: 2010.05.17/outbox.cif.g08.bks.cpg/sg2_127_cif.got.tgz:252685.got - 2010.06.03 11:33:40.
