data_PCOD9083494
_publ_section_title
;
Structure prediction by ZEFSAII (Michael W. Deem and Ramdas Pophale) SiO2 
 PCOD9083494
Probable space group: P -1
;
_chemical_formula_sum "Si O2"
_cell_formula_units_Z 16
_cell_length_a 9.220590
_cell_length_b 10.900387
_cell_length_c 13.091707
_cell_angle_alpha 124.805271
_cell_angle_beta 133.473268
_cell_angle_gamma 43.314454
_cell_volume 648.509996
_symmetry_space_group_name_H-M "P -1"
_symmetry_group_IT_number 2
_symmetry_cell_setting 'triclinic'
loop_
_space_group_symop_operation_xyz
x,y,z
-x,-y,-z
loop_
_atom_site_type_symbol
_atom_site_label
_atom_site_fract_x
_atom_site_fract_y
_atom_site_fract_z
Si Si1 0.788533 0.649299 0.301675
Si Si2 0.496683 0.733054 0.002342
Si Si3 0.203827 0.820507 0.344360
Si Si4 0.242768 0.670432 0.497900
Si Si5 0.136774 0.286613 0.970121
Si Si6 0.332456 0.540184 0.694585
Si Si7 0.925848 0.865996 0.948807
Si Si8 0.732722 0.048696 0.750660
O O1 0.830470 0.509116 0.344107
O O2 0.554412 0.843439 0.320518
O O3 0.022210 0.644093 0.378487
O O4 0.679460 0.629331 0.134696
O O5 0.438033 0.601815 0.861340
O O6 0.615657 0.789024 0.002207
O O7 0.263853 0.923917 0.013680
O O8 0.194332 0.821184 0.462699
O O9 0.460491 0.646678 0.347468
O O10 0.190183 0.974476 0.340921
O O11 0.004933 0.785383 0.191527
O O12 0.500000 0.500000 0.500000
O O13 0.260902 0.681745 0.634299
O O14 0.150457 0.241930 0.074185
O O15 0.000000 0.500000 0.000000
O O16 0.877347 0.871153 0.807380
O O17 0.173486 0.829379 0.098551
#
# Coordination Sequence:
#
# PCOD9083494 Si02
#       8
#     2   2   2   2   2   2   2   2
#     4  10  19  34  56  83 113 161 197 235 291 341
#     4  11  20  33  56  88 120 149 193 242 291 340
#     4   9  17  33  53  79 110 155 194 229 279 338
#     4  10  20  34  54  82 121 157 197 241 287 341
#     4  11  19  32  56  86 121 150 187 239 290 344
#     4  10  20  33  52  84 122 151 194 242 283 341
#     4   9  19  34  53  85 119 154 188 235 296 342
#     4   8  17  34  56  77 107 151 197 232 276 345
#
# _framework density 24.671941
#
# number of rings (size 3 to 8) (size 9 to 14) (size 15 to 20)
#    0.000    2.250    2.500    1.125    0.000    0.000 
#    2.250    0.000    0.000    3.750    0.000    0.000 
#    0.000    0.000    0.000    0.000    0.000    0.000 
#
# Total GULP energy -89261.480206 kJ/mol
# GULP energy per Si atom -5578.842513 kJ/mol
# Density = 2.461579 g / cm^3
# Si number density = 24.671941 Si / 1000 Ang^3
#
#
#
# Elastic Constant Matrix: (Units=GPa)
#
#
# Indices 1 2 3 4 5 6 
#
# 1 199.9277 49.9187 40.8110 -30.3807 -8.3877 28.5400
# 2 49.9187 38.3043 12.7512 -7.4212 -28.6592 -16.5540
# 3 40.8110 12.7512 89.6501 -18.3222 -2.3840 7.0367
# 4 -30.3807 -7.4212 -18.3222 14.7983 5.1944 -10.6087
# 5 -8.3877 -28.6592 -2.3840 5.1944 24.6098 -32.9567
# 6 28.5400 -16.5540 7.0367 -10.6087 -32.9567 47.1349
#
#
#
# Elastic Compliance Matrix: (Units=1/GPa)
#
#
# Indices 1 2 3 4 5 6 
#
# 1 0.006610 0.001329 -0.000381 0.014644 0.006720 0.004516
# 2 0.001329 -0.000396 -0.000243 -0.002181 -0.022682 -0.017258
# 3 -0.000381 -0.000243 0.015168 0.019431 -0.000409 0.001969
# 4 0.014644 -0.002181 0.019431 0.131477 -0.009019 0.010752
# 5 0.006720 -0.022682 -0.000409 -0.009019 -0.005960 -0.018172
# 6 0.004516 -0.017258 0.001969 0.010752 -0.018172 0.001841
#
#
# Mechanical properties :
#
#
# Convention : Reuss Voigt Hill
#
# Bulk Modulus (GPa) = 43.87424 59.42710 51.65067
# Shear Modulus (GPa) = 32.27298 32.26867 32.27083
#
# Velocity S-wave (km/s) = 3.62067 3.62043 3.62055
# Velocity P-wave (km/s) = 5.94143 6.45104 6.20147
#
# Compressibility (1/GPa) = 0.02279242
#
# Stress axis : x y z
#
# Youngs Moduli (GPa) = 151.27697 -2526.53853 65.92708
#
# Poissons Ratio (x) = 3.35761 0.02512
# Poissons Ratio (y) = -0.20104 0.01602
# Poissons Ratio (z) = 0.05765 -0.61410
#
# Static dielectric constant tensor:
#      x y z
#    x 2.118920 -0.110410 -0.085950 
#    y -0.110410 2.168570 -0.041390 
#    z -0.085950 -0.041390 2.001800 
# 
# From -- ./inp_files/302567.got.cif
#   From: 2010.05.17/outbox.cif.g08.bks.cpg/sg2_152_cif.got.tgz:302567.got - 2010.06.03 11:33:40.
