data_PCOD9083433
_publ_section_title
;
Structure prediction by ZEFSAII (Michael W. Deem and Ramdas Pophale) SiO2 
 PCOD9083433
Probable space group: P -1
;
_chemical_formula_sum "Si O2"
_cell_formula_units_Z 16
_cell_length_a 13.825766
_cell_length_b 8.464489
_cell_length_c 13.658321
_cell_angle_alpha 136.574172
_cell_angle_beta 31.720704
_cell_angle_gamma 127.787913
_cell_volume 577.653451
_symmetry_space_group_name_H-M "P -1"
_symmetry_group_IT_number 2
_symmetry_cell_setting 'triclinic'
loop_
_space_group_symop_operation_xyz
x,y,z
-x,-y,-z
loop_
_atom_site_type_symbol
_atom_site_label
_atom_site_fract_x
_atom_site_fract_y
_atom_site_fract_z
Si Si1 0.974072 0.342541 0.238230
Si Si2 0.089407 0.294642 0.392644
Si Si3 0.146827 0.083617 0.493094
Si Si4 0.531031 0.089934 0.676040
Si Si5 0.501087 0.181992 0.952371
Si Si6 0.839796 0.110854 0.063043
Si Si7 0.350012 0.457393 0.862570
Si Si8 0.181074 0.304130 0.753085
O O1 0.876188 0.558593 0.470759
O O2 0.855167 0.200943 0.201379
O O3 0.147409 0.443820 0.077820
O O4 0.068878 0.144811 0.134601
O O5 0.000000 0.500000 0.500000
O O6 0.933159 0.107240 0.449213
O O7 0.281255 0.174256 0.145120
O O8 0.353556 0.028035 0.255853
O O9 0.165365 0.303861 0.648122
O O10 0.000000 0.000000 0.500000
O O11 0.549525 0.254657 0.830069
O O12 0.457475 0.231952 0.710491
O O13 0.376605 0.918127 0.775251
O O14 0.704638 0.934156 0.430563
O O15 0.557880 0.341776 0.065663
O O16 0.972730 0.272075 0.958092
O O17 0.305558 0.466942 0.789429
#
# Coordination Sequence:
#
# PCOD9083433 Si02
#       8
#     2   2   2   2   2   2   2   2
#     4   9  18  32  52  83 126 161 194 246 313 364
#     4  12  24  37  67 100 128 164 211 265 325 378
#     4  11  26  48  65  88 129 175 219 265 314 378
#     4  10  20  31  51  88 128 166 191 250 323 386
#     4  11  24  37  63  94 130 167 212 264 319 380
#     4   9  18  33  51  83 126 160 194 247 303 377
#     4  10  19  34  55  90 128 157 204 258 322 378
#     4  10  21  35  59  85 115 170 210 249 315 382
#
# _framework density 27.698269
#
# number of rings (size 3 to 8) (size 9 to 14) (size 15 to 20)
#    0.000    1.750    1.250    4.500    7.000    0.500 
#    0.000    0.625    0.000    0.750    0.000    0.000 
#    0.000    0.000    0.000    0.000    0.000    0.000 
#
# Total GULP energy -89370.680875 kJ/mol
# GULP energy per Si atom -5585.667555 kJ/mol
# Density = 2.763523 g / cm^3
# Si number density = 27.698269 Si / 1000 Ang^3
#
#
#
# Elastic Constant Matrix: (Units=GPa)
#
#
# Indices 1 2 3 4 5 6 
#
# 1 182.5265 14.5891 29.4890 6.9652 6.0270 33.6514
# 2 14.5891 66.8393 15.9443 -1.7090 1.5257 22.6313
# 3 29.4890 15.9443 115.2527 3.6372 -16.0758 20.8707
# 4 6.9652 -1.7090 3.6372 35.5111 11.6131 2.1296
# 5 6.0270 1.5257 -16.0758 11.6131 47.1475 5.4551
# 6 33.6514 22.6313 20.8707 2.1296 5.4551 41.3330
#
#
#
# Elastic Compliance Matrix: (Units=1/GPa)
#
#
# Indices 1 2 3 4 5 6 
#
# 1 0.006556 0.000483 -0.000852 -0.000749 -0.000371 -0.005084
# 2 0.000483 0.018555 -0.000931 0.001564 -0.000192 -0.010138
# 3 -0.000852 -0.000931 0.010622 -0.002275 0.004863 -0.004685
# 4 -0.000749 0.001564 -0.002275 0.031372 -0.008505 0.000408
# 5 -0.000371 -0.000192 0.004863 -0.008505 0.025594 -0.004988
# 6 -0.005084 -0.010138 -0.004685 0.000408 -0.004988 0.036887
#
#
# Mechanical properties :
#
#
# Convention : Reuss Voigt Hill
#
# Bulk Modulus (GPa) = 30.18076 53.85148 42.01612
# Shear Modulus (GPa) = 34.90904 45.10471 40.00688
#
# Velocity S-wave (km/s) = 3.55397 4.03976 3.80463
# Velocity P-wave (km/s) = 5.26886 6.42214 5.87387
#
# Compressibility (1/GPa) = 0.03313370
#
# Stress axis : x y z
#
# Youngs Moduli (GPa) = 152.53535 53.89408 94.14627
#
# Poissons Ratio (x) = -0.02603 0.08018
# Poissons Ratio (y) = -0.07368 0.08763
# Poissons Ratio (z) = 0.12991 0.05016
#
# Static dielectric constant tensor:
#      x y z
#    x 2.399960 -0.085290 0.142670 
#    y -0.085290 2.210440 0.090220 
#    z 0.142670 0.090220 2.209460 
# 
# From -- ./inp_files/532008.got.cif
#   From: 2010.05.17/outbox.cif.g08.bks.cpg/sg2_267_cif.got.tgz:532008.got - 2010.06.03 11:33:40.
