data_PCOD9083194
_publ_section_title
;
Structure prediction by ZEFSAII (Michael W. Deem and Ramdas Pophale) SiO2 
 PCOD9083194
Probable space group: P -1
;
_chemical_formula_sum "Si O2"
_cell_formula_units_Z 14
_cell_length_a 6.551105
_cell_length_b 8.980727
_cell_length_c 19.912234
_cell_angle_alpha 39.768221
_cell_angle_beta 74.866246
_cell_angle_gamma 74.856144
_cell_volume 719.917036
_symmetry_space_group_name_H-M "P -1"
_symmetry_group_IT_number 2
_symmetry_cell_setting 'triclinic'
loop_
_space_group_symop_operation_xyz
x,y,z
-x,-y,-z
loop_
_atom_site_type_symbol
_atom_site_label
_atom_site_fract_x
_atom_site_fract_y
_atom_site_fract_z
Si Si1 0.761887 0.756826 0.034724
Si Si2 0.032596 0.843551 0.384285
Si Si3 0.435875 0.786299 0.265643
Si Si4 0.659553 0.692084 0.921102
Si Si5 0.309596 0.714767 0.151212
Si Si6 0.721133 0.563896 0.426863
Si Si7 0.940083 0.627628 0.786474
O O1 0.514836 0.737367 0.079180
O O2 0.879281 0.574639 0.138730
O O3 0.796041 0.680143 0.981355
O O4 0.815310 0.026417 0.938861
O O5 0.228561 0.804548 0.326747
O O6 0.108733 0.662041 0.500099
O O7 0.827134 0.761986 0.391924
O O8 0.998235 0.109612 0.321027
O O9 0.376404 0.690623 0.231684
O O10 0.641336 0.653361 0.329761
O O11 0.472376 0.054452 0.156430
O O12 0.798385 0.662157 0.853434
O O13 0.500000 0.500000 0.000000
O O14 0.192500 0.492674 0.216846
O O15 0.500000 0.500000 0.500000
#
# Coordination Sequence:
#
# PCOD9083194 Si02
#       7
#     2   2   2   2   2   2   2
#     4  10  21  35  52  75 112 157 184 217 266 309
#     4   9  20  35  59  86 102 133 185 230 268 325
#     4   9  20  35  56  78 111 147 175 220 273 319
#     4  10  19  34  52  81 112 142 187 227 253 313
#     4  10  21  37  50  79 115 149 185 215 262 330
#     4   9  18  37  60  81 105 134 176 229 282 319
#     4  11  21  34  56  81 113 143 184 227 267 314
#
# _framework density 19.446686
#
# number of rings (size 3 to 8) (size 9 to 14) (size 15 to 20)
#    0.000    2.286    1.429    0.857    2.000    2.286 
#    0.000    0.714    0.000    8.571    0.000    0.000 
#    0.000    0.000    0.000    0.000    0.000    0.000 
#
# Total GULP energy -78011.876566 kJ/mol
# GULP energy per Si atom -5572.276898 kJ/mol
# Density = 1.940242 g / cm^3
# Si number density = 19.446686 Si / 1000 Ang^3
#
#
#
# Elastic Constant Matrix: (Units=GPa)
#
#
# Indices 1 2 3 4 5 6 
#
# 1 64.8774 46.3450 47.6608 -18.3922 14.7602 29.5825
# 2 46.3450 111.6987 45.3092 -21.4427 11.1845 32.9356
# 3 47.6608 45.3092 90.9023 -19.3042 18.9920 28.9777
# 4 -18.3922 -21.4427 -19.3042 29.9051 8.8915 -10.4574
# 5 14.7602 11.1845 18.9920 8.8915 32.6849 -0.0550
# 6 29.5825 32.9356 28.9777 -10.4574 -0.0550 26.8213
#
#
#
# Elastic Compliance Matrix: (Units=1/GPa)
#
#
# Indices 1 2 3 4 5 6 
#
# 1 0.048900 0.000335 -0.001091 0.022270 -0.027696 -0.044540
# 2 0.000335 0.016315 0.001339 0.009028 -0.008999 -0.018349
# 3 -0.001091 0.001339 0.024480 0.013931 -0.018016 -0.021494
# 4 0.022270 0.009028 0.013931 0.065373 -0.039068 -0.025291
# 5 -0.027696 -0.008999 -0.018016 -0.039068 0.067356 0.045968
# 6 -0.044540 -0.018349 -0.021494 -0.025291 0.045968 0.122396
#
#
# Mechanical properties :
#
#
# Convention : Reuss Voigt Hill
#
# Bulk Modulus (GPa) = 11.00592 60.67872 35.84232
# Shear Modulus (GPa) = 13.37110 26.42648 19.89879
#
# Velocity S-wave (km/s) = 2.62501 3.69035 3.20230
# Velocity P-wave (km/s) = 3.85479 7.03055 5.66957
#
# Compressibility (1/GPa) = 0.09086016
#
# Stress axis : x y z
#
# Youngs Moduli (GPa) = 20.45006 61.29303 40.84990
#
# Poissons Ratio (x) = -0.02055 0.04458
# Poissons Ratio (y) = -0.00686 -0.05469
# Poissons Ratio (z) = 0.02232 -0.08206
#
# Static dielectric constant tensor:
#      x y z
#    x 1.710540 -0.014500 0.012880 
#    y -0.014500 1.674590 -0.001690 
#    z 0.012880 -0.001690 1.727500 
# 
# From -- ./inp_files/34570.got.cif
#   From: 2010.05.17/outbox.cif.g08.bks.cpg/sg2_18_cif.got.tgz:34570.got - 2010.06.03 11:33:40.
