data_PCOD9083475
_publ_section_title
;
Structure prediction by ZEFSAII (Michael W. Deem and Ramdas Pophale) SiO2 
 PCOD9083475
Probable space group: P -1
;
_chemical_formula_sum "Si O2"
_cell_formula_units_Z 16
_cell_length_a 7.935829
_cell_length_b 17.354138
_cell_length_c 24.590709
_cell_angle_alpha 22.592261
_cell_angle_beta 148.459753
_cell_angle_gamma 135.796807
_cell_volume 637.948118
_symmetry_space_group_name_H-M "P -1"
_symmetry_group_IT_number 2
_symmetry_cell_setting 'triclinic'
loop_
_space_group_symop_operation_xyz
x,y,z
-x,-y,-z
loop_
_atom_site_type_symbol
_atom_site_label
_atom_site_fract_x
_atom_site_fract_y
_atom_site_fract_z
Si Si1 0.327611 0.046411 0.211812
Si Si2 0.261936 0.647872 0.907188
Si Si3 0.141942 0.016212 0.346651
Si Si4 0.756999 0.363185 0.706013
Si Si5 0.783468 0.982366 0.023810
Si Si6 0.725196 0.410439 0.278018
Si Si7 0.296037 0.775105 0.003073
Si Si8 0.795836 0.845702 0.561437
O O1 0.535822 0.184442 0.152919
O O2 0.046558 0.205745 0.071270
O O3 0.574691 0.850264 0.443683
O O4 0.105344 0.969612 0.158069
O O5 0.077037 0.648660 0.798401
O O6 0.518274 0.448085 0.139952
O O7 0.961969 0.762173 0.793811
O O8 0.149741 0.829338 0.511077
O O9 0.498601 0.951224 0.455267
O O10 0.843376 0.053626 0.195603
O O11 0.500000 0.500000 0.500000
O O12 0.053969 0.174224 0.880176
O O13 0.959499 0.503387 0.697061
O O14 0.615679 0.228624 0.797195
O O15 0.519596 0.866017 0.045360
O O16 0.493014 0.554265 0.170070
O O17 0.000000 0.000000 0.500000
#
# Coordination Sequence:
#
# PCOD9083475 Si02
#       8
#     2   2   2   2   2   2   2   2
#     4  10  19  36  58  81 111 152 186 227 279 332
#     4  10  20  37  59  83 111 144 191 237 276 325
#     4  10  20  36  62  85 111 146 186 230 281 331
#     4  10  20  32  54  83 116 140 182 232 274 326
#     4  10  19  34  56  82 109 152 187 221 275 330
#     4  10  20  35  56  86 112 146 185 231 277 329
#     4   9  20  36  55  82 120 147 185 228 273 334
#     4   9  20  38  59  82 112 148 185 231 281 328
#
# _framework density 25.080410000000001
#
# number of rings (size 3 to 8) (size 9 to 14) (size 15 to 20)
#    0.000    2.250    1.250    1.500    3.500    0.500 
#    0.000    6.250    0.000   20.250    0.000    0.000 
#    0.000    0.000    0.000    0.000    0.000    0.000 
#
# Total GULP energy -89452.498366 kJ/mol
# GULP energy per Si atom -5590.781148 kJ/mol
# Density = 2.502333 g / cm^3
# Si number density = 25.080410 Si / 1000 Ang^3
#
#
#
# Elastic Constant Matrix: (Units=GPa)
#
#
# Indices 1 2 3 4 5 6 
#
# 1 84.6996 20.3462 15.9424 -10.2962 3.9940 6.7118
# 2 20.3462 105.4711 68.0096 12.4544 -10.9516 0.5776
# 3 15.9424 68.0096 145.1783 9.7855 -22.3081 -0.4826
# 4 -10.2962 12.4544 9.7855 41.2031 -5.9029 -5.5404
# 5 3.9940 -10.9516 -22.3081 -5.9029 36.4127 4.5744
# 6 6.7118 0.5776 -0.4826 -5.5404 4.5744 34.7308
#
#
#
# Elastic Compliance Matrix: (Units=1/GPa)
#
#
# Indices 1 2 3 4 5 6 
#
# 1 0.013287 -0.002728 -0.000736 0.003823 -0.001899 -0.001673
# 2 -0.002728 0.014453 -0.006180 -0.003591 0.000330 -0.000415
# 3 -0.000736 -0.006180 0.010601 -0.000193 0.004718 -0.000260
# 4 0.003823 -0.003591 -0.000193 0.027144 0.002364 0.003337
# 5 -0.001899 0.000330 0.004718 0.002364 0.031464 -0.003340
# 6 -0.001673 -0.000415 -0.000260 0.003337 -0.003340 0.030092
#
#
# Mechanical properties :
#
#
# Convention : Reuss Voigt Hill
#
# Bulk Modulus (GPa) = 52.48378 60.43837 56.46107
# Shear Modulus (GPa) = 32.74853 37.87271 35.31062
#
# Velocity S-wave (km/s) = 3.61742 3.89015 3.75627
# Velocity P-wave (km/s) = 6.19833 6.65792 6.43223
#
# Compressibility (1/GPa) = 0.01905351
#
# Stress axis : x y z
#
# Youngs Moduli (GPa) = 75.26106 69.19085 94.33184
#
# Poissons Ratio (x) = 0.18874 0.06945
# Poissons Ratio (y) = 0.20530 0.58292
# Poissons Ratio (z) = 0.05541 0.42757
#
# Static dielectric constant tensor:
#      x y z
#    x 2.063090 0.026540 0.003960 
#    y 0.026540 2.001910 0.041350 
#    z 0.003960 0.041350 1.964590 
# 
# From -- ./inp_files/139362.got.cif
#   From: 2010.05.17/outbox.cif.g08.bks.cpg/sg2_70_cif.got.tgz:139362.got - 2010.06.03 11:33:40.
