data_PCOD9083099
_publ_section_title
;
Structure prediction by ZEFSAII (Michael W. Deem and Ramdas Pophale) SiO2 
 PCOD9083099
Probable space group: P -1
;
_chemical_formula_sum "Si O2"
_cell_formula_units_Z 14
_cell_length_a 8.989150
_cell_length_b 9.127827
_cell_length_c 11.372126
_cell_angle_alpha 116.511905
_cell_angle_beta 132.547356
_cell_angle_gamma 67.289945
_cell_volume 610.101456
_symmetry_space_group_name_H-M "P -1"
_symmetry_group_IT_number 2
_symmetry_cell_setting 'triclinic'
loop_
_space_group_symop_operation_xyz
x,y,z
-x,-y,-z
loop_
_atom_site_type_symbol
_atom_site_label
_atom_site_fract_x
_atom_site_fract_y
_atom_site_fract_z
Si Si1 0.439176 0.086770 0.257982
Si Si2 0.908367 0.541246 0.093396
Si Si3 0.822068 0.061761 0.626330
Si Si4 0.713042 0.564673 0.612113
Si Si5 0.265281 0.777783 0.132394
Si Si6 0.731833 0.718681 0.435622
Si Si7 0.213107 0.149229 0.746471
O O1 0.602320 0.100923 0.458291
O O2 0.307702 0.264986 0.261032
O O3 0.289056 0.946495 0.138140
O O4 0.602300 0.000618 0.219036
O O5 0.756607 0.708429 0.091304
O O6 0.105102 0.559180 0.282957
O O7 0.811396 0.378744 0.024871
O O8 0.000000 0.500000 0.000000
O O9 0.855733 0.171367 0.795540
O O10 0.009822 0.074829 0.646735
O O11 0.805712 0.877266 0.595180
O O12 0.500000 0.500000 0.500000
O O13 0.764664 0.584224 0.508433
O O14 0.493273 0.725413 0.283586
O O15 0.807640 0.751607 0.354663
#
# Coordination Sequence:
#
# PCOD9083099 Si02
#       7
#     2   2   2   2   2   2   2
#     4  10  20  38  63  93 117 161 211 254 300 362
#     4  12  25  40  60  91 128 170 204 249 314 375
#     4  10  15  35  65  95 119 158 205 250 303 369
#     4  12  24  40  65  93 125 161 211 259 309 361
#     4  10  18  36  65  85 127 162 204 239 307 380
#     4  10  20  38  65  93 120 159 213 254 303 360
#     4  10  22  37  66  95 126 160 206 254 309 361
#
# _framework density 22.947002999999999
#
# number of rings (size 3 to 8) (size 9 to 14) (size 15 to 20)
#    0.000    1.714    4.286    4.286    0.000    3.429 
#    0.000    0.714    0.000    0.000    0.000    1.000 
#    0.000    0.000    0.000    0.000    0.000    0.000 
#
# Total GULP energy -77958.287283 kJ/mol
# GULP energy per Si atom -5568.449092 kJ/mol
# Density = 2.289477 g / cm^3
# Si number density = 22.947003 Si / 1000 Ang^3
#
#
#
# Elastic Constant Matrix: (Units=GPa)
#
#
# Indices 1 2 3 4 5 6 
#
# 1 121.5212 8.5620 7.2564 -2.4888 -0.3463 9.5971
# 2 8.5620 41.1118 -7.4748 9.2730 4.1790 -1.4942
# 3 7.2564 -7.4748 40.9866 25.3354 5.1009 1.0078
# 4 -2.4888 9.2730 25.3354 38.9509 9.0297 -6.6939
# 5 -0.3463 4.1790 5.1009 9.0297 28.1987 12.1202
# 6 9.5971 -1.4942 1.0078 -6.6939 12.1202 36.4360
#
#
#
# Elastic Compliance Matrix: (Units=1/GPa)
#
#
# Indices 1 2 3 4 5 6 
#
# 1 0.009047 -0.003900 -0.004946 0.004110 0.001140 -0.002030
# 2 -0.003900 0.033752 0.020366 -0.021589 -0.001062 -0.001765
# 3 -0.004946 0.020366 0.055985 -0.044302 0.004930 -0.009190
# 4 0.004110 -0.021589 -0.044302 0.066990 -0.017687 0.017448
# 5 0.001140 -0.001062 0.004930 -0.017687 0.049018 -0.020035
# 6 -0.002030 -0.001765 -0.009190 0.017448 -0.020035 0.038032
#
#
# Mechanical properties :
#
#
# Convention : Reuss Voigt Hill
#
# Bulk Modulus (GPa) = 8.20843 24.47854 16.34349
# Shear Modulus (GPa) = 18.49171 33.73549 26.11360
#
# Velocity S-wave (km/s) = 2.84182 3.83841 3.37708
# Velocity P-wave (km/s) = 3.78851 5.50773 4.72694
#
# Compressibility (1/GPa) = 0.12182595
#
# Stress axis : x y z
#
# Youngs Moduli (GPa) = 110.53531 29.62752 17.86189
#
# Poissons Ratio (x) = 0.11555 0.08834
# Poissons Ratio (y) = 0.43109 -0.36378
# Poissons Ratio (z) = 0.54666 -0.60340
#
# Static dielectric constant tensor:
#      x y z
#    x 1.901420 0.019510 -0.074460 
#    y 0.019510 1.921470 0.027770 
#    z -0.074460 0.027770 1.885320 
# 
# From -- ./inp_files/380459.got.cif
#   From: 2010.05.17/outbox.cif.g08.bks.cpg/sg2_191_cif.got.tgz:380459.got - 2010.06.03 11:33:40.
