data_PCOD9083455
_publ_section_title
;
Structure prediction by ZEFSAII (Michael W. Deem and Ramdas Pophale) SiO2 
 PCOD9083455
Probable space group: P -1
;
_chemical_formula_sum "Si O2"
_cell_formula_units_Z 14
_cell_length_a 11.916410
_cell_length_b 5.180585
_cell_length_c 11.604878
_cell_angle_alpha 96.766600
_cell_angle_beta 73.738535
_cell_angle_gamma 58.094232
_cell_volume 551.915209
_symmetry_space_group_name_H-M "P -1"
_symmetry_group_IT_number 2
_symmetry_cell_setting 'triclinic'
loop_
_space_group_symop_operation_xyz
x,y,z
-x,-y,-z
loop_
_atom_site_type_symbol
_atom_site_label
_atom_site_fract_x
_atom_site_fract_y
_atom_site_fract_z
Si Si1 0.322808 0.757820 0.042859
Si Si2 0.867614 0.497315 0.274192
Si Si3 0.326554 0.909008 0.461885
Si Si4 0.355124 0.241653 0.130214
Si Si5 0.463192 0.219742 0.352123
Si Si6 0.061105 0.155680 0.410973
Si Si7 0.767865 0.065668 0.187303
O O1 0.269897 0.857359 0.933162
O O2 0.500000 0.500000 0.000000
O O3 0.265404 0.573230 0.106676
O O4 0.276489 0.073614 0.139282
O O5 0.770108 0.794210 0.408277
O O6 0.998371 0.230895 0.304546
O O7 0.803351 0.310006 0.234110
O O8 0.882856 0.693172 0.177300
O O9 0.452806 0.945452 0.393411
O O10 0.229741 0.964667 0.381723
O O11 0.377527 0.554624 0.464531
O O12 0.396774 0.271173 0.246748
O O13 0.500000 0.000000 0.000000
O O14 0.619379 0.136187 0.282917
O O15 0.000000 0.500000 0.500000
O O16 0.000000 0.000000 0.500000
#
# Coordination Sequence:
#
# PCOD9083455 Si02
#       7
#     2   2   2   2   2   2   2
#     4  10  19  34  56  79 112 149 201 236 269 337
#     4  11  24  39  58  86 118 160 196 238 289 337
#     4  11  24  39  58  86 118 160 196 238 287 337
#     4  10  19  34  56  79 112 149 201 236 269 337
#     4  12  23  35  58  90 125 152 192 232 299 360
#     4  10  20  42  66  78 106 156 218 248 262 328
#     4  12  23  35  58  90 125 152 192 234 299 360
#
# _framework density 25.366218
#
# number of rings (size 3 to 8) (size 9 to 14) (size 15 to 20)
#    0.000    1.143    2.857    6.857    4.000    3.429 
#    0.000    0.000    0.000    0.000    0.000   20.000 
#    0.000    0.000    0.000    0.000    0.000    0.000 
#
# Total GULP energy -78205.434804 kJ/mol
# GULP energy per Si atom -5586.102486 kJ/mol
# Density = 2.530848 g / cm^3
# Si number density = 25.366218 Si / 1000 Ang^3
#
#
#
# Elastic Constant Matrix: (Units=GPa)
#
#
# Indices 1 2 3 4 5 6 
#
# 1 131.8351 76.7376 65.8696 -10.6806 46.4331 29.0720
# 2 76.7376 189.2067 59.1113 -31.9327 24.5537 44.3226
# 3 65.8696 59.1113 111.9991 -28.8657 43.5159 -5.0502
# 4 -10.6806 -31.9327 -28.8657 51.0988 -6.9215 11.6022
# 5 46.4331 24.5537 43.5159 -6.9215 46.5122 -7.8121
# 6 29.0720 44.3226 -5.0502 11.6022 -7.8121 51.8615
#
#
#
# Elastic Compliance Matrix: (Units=1/GPa)
#
#
# Indices 1 2 3 4 5 6 
#
# 1 0.019297 -0.000769 -0.004713 0.001723 -0.016457 -0.013483
# 2 -0.000769 0.010543 -0.002552 0.007024 -0.003192 -0.010880
# 3 -0.004713 -0.002552 0.018454 0.005644 -0.009719 0.003893
# 4 0.001723 0.007024 0.005644 0.029586 -0.008716 -0.014351
# 5 -0.016457 -0.003192 -0.009719 -0.008716 0.050873 0.020620
# 6 -0.013483 -0.010880 0.003893 -0.014351 0.020620 0.042834
#
#
# Mechanical properties :
#
#
# Convention : Reuss Voigt Hill
#
# Bulk Modulus (GPa) = 31.03125 92.94198 61.98661
# Shear Modulus (GPa) = 25.20213 45.31600 35.25907
#
# Velocity S-wave (km/s) = 3.15545 4.23125 3.73232
# Velocity P-wave (km/s) = 5.05329 7.78402 6.56226
#
# Compressibility (1/GPa) = 0.03222558
#
# Stress axis : x y z
#
# Youngs Moduli (GPa) = 51.82264 94.85159 54.18936
#
# Poissons Ratio (x) = 0.07294 0.25539
# Poissons Ratio (y) = 0.03985 0.13829
# Poissons Ratio (z) = 0.24423 0.24206
#
# Static dielectric constant tensor:
#      x y z
#    x 1.895020 -0.096890 -0.039820 
#    y -0.096890 2.122480 -0.042720 
#    z -0.039820 -0.042720 2.069210 
# 
# From -- ./inp_files/410796.got.cif
#   From: 2010.05.17/outbox.cif.g08.bks.cpg/sg2_206_cif.got.tgz:410796.got - 2010.06.03 11:33:40.
