data_PCOD9083384
_publ_section_title
;
Structure prediction by ZEFSAII (Michael W. Deem and Ramdas Pophale) SiO2 
 PCOD9083384
Probable space group: P -1
;
_chemical_formula_sum "Si O2"
_cell_formula_units_Z 16
_cell_length_a 11.305951
_cell_length_b 12.340146
_cell_length_c 12.915836
_cell_angle_alpha 35.392546
_cell_angle_beta 63.187044
_cell_angle_gamma 54.055766
_cell_volume 843.488496
_symmetry_space_group_name_H-M "P -1"
_symmetry_group_IT_number 2
_symmetry_cell_setting 'triclinic'
loop_
_space_group_symop_operation_xyz
x,y,z
-x,-y,-z
loop_
_atom_site_type_symbol
_atom_site_label
_atom_site_fract_x
_atom_site_fract_y
_atom_site_fract_z
Si Si1 0.377051 0.417009 0.635832
Si Si2 0.147077 0.526048 0.238654
Si Si3 0.425780 0.418858 0.844201
Si Si4 0.338892 0.648416 0.906633
Si Si5 0.746932 0.352548 0.688326
Si Si6 0.411394 0.037570 0.797672
Si Si7 0.893341 0.927562 0.032555
Si Si8 0.351495 0.079253 0.562079
O O1 0.500000 0.500000 0.500000
O O2 0.341220 0.443421 0.750343
O O3 0.255836 0.537123 0.504271
O O4 0.436259 0.179326 0.763912
O O5 0.175525 0.583395 0.299568
O O6 0.220562 0.277540 0.408585
O O7 0.980251 0.687282 0.157069
O O8 0.233865 0.594633 0.065153
O O9 0.342610 0.588102 0.831647
O O10 0.583051 0.411699 0.752108
O O11 0.469898 0.196202 0.053655
O O12 0.311465 0.885623 0.742289
O O13 0.500000 0.500000 0.000000
O O14 0.828391 0.105044 0.833103
O O15 0.251455 0.043695 0.871663
O O16 0.401247 0.127475 0.617073
O O17 0.000000 0.000000 0.000000
O O18 0.500000 0.000000 0.500000
#
# Coordination Sequence:
#
# PCOD9083384 Si02
#       8
#     2   2   2   2   2   2   2   2
#     4  10  21  33  55  83 113 148 187 233 282 338
#     4  11  20  36  54  84 114 147 186 229 288 345
#     4  10  19  34  55  80 114 145 184 226 289 339
#     4  12  20  35  56  82 119 150 177 239 292 334
#     4   9  16  34  53  79 113 139 179 239 280 326
#     4  11  20  36  55  85 116 148 186 236 282 339
#     4   9  20  35  57  80 114 151 185 232 289 338
#     4  12  21  31  57  84 117 149 180 228 296 340
#
# _framework density 18.968841999999999
#
# number of rings (size 3 to 8) (size 9 to 14) (size 15 to 20)
#    0.000    1.500    5.000    1.875    1.750    0.500 
#    2.250    0.000    0.000    1.500    0.000    0.000 
#    0.000    0.000    0.000    0.000    0.000    0.000 
#
# Total GULP energy -89167.317453 kJ/mol
# GULP energy per Si atom -5572.957341 kJ/mol
# Density = 1.892567 g / cm^3
# Si number density = 18.968842 Si / 1000 Ang^3
#
#
#
# Elastic Constant Matrix: (Units=GPa)
#
#
# Indices 1 2 3 4 5 6 
#
# 1 26.1829 21.7981 9.9156 5.2464 -0.6344 11.7622
# 2 21.7981 91.5831 45.4971 -11.7366 18.1432 11.7322
# 3 9.9156 45.4971 102.2660 -18.9901 11.6612 0.6992
# 4 5.2464 -11.7366 -18.9901 41.0450 6.4616 6.8872
# 5 -0.6344 18.1432 11.6612 6.4616 25.3167 -2.5676
# 6 11.7622 11.7322 0.6992 6.8872 -2.5676 32.2093
#
#
#
# Elastic Compliance Matrix: (Units=1/GPa)
#
#
# Indices 1 2 3 4 5 6 
#
# 1 0.062704 -0.017427 -0.003184 -0.015376 0.018261 -0.011738
# 2 -0.017427 0.022917 -0.004461 0.010492 -0.018048 -0.005568
# 3 -0.003184 -0.004461 0.013729 0.006082 -0.004676 0.000816
# 4 -0.015376 0.010492 0.006082 0.036750 -0.020883 -0.007861
# 5 0.018261 -0.018048 -0.004676 -0.020883 0.061324 0.009360
# 6 -0.011738 -0.005568 0.000816 -0.007861 0.009360 0.039771
#
#
# Mechanical properties :
#
#
# Convention : Reuss Voigt Hill
#
# Bulk Modulus (GPa) = 20.32332 41.60598 30.96465
# Shear Modulus (GPa) = 16.46140 29.23560 22.84850
#
# Velocity S-wave (km/s) = 2.94906 3.93013 3.47440
# Velocity P-wave (km/s) = 4.72581 6.52503 5.69690
#
# Compressibility (1/GPa) = 0.04920456
#
# Stress axis : x y z
#
# Youngs Moduli (GPa) = 15.94795 43.63648 72.83863
#
# Poissons Ratio (x) = 0.76047 0.23190
# Poissons Ratio (y) = 0.27793 0.32496
# Poissons Ratio (z) = 0.05077 0.19468
#
# Static dielectric constant tensor:
#      x y z
#    x 1.690610 0.011860 0.004530 
#    y 0.011860 1.682210 -0.026340 
#    z 0.004530 -0.026340 1.710740 
# 
# From -- ./inp_files/424552.got.cif
#   From: 2010.05.17/outbox.cif.g08.bks.cpg/sg2_213_cif.got.tgz:424552.got - 2010.06.03 11:33:40.
