data_PCOD9083293
_publ_section_title
;
Structure prediction by ZEFSAII (Michael W. Deem and Ramdas Pophale) SiO2 
 PCOD9083293
Probable space group: P -1
;
_chemical_formula_sum "Si O2"
_cell_formula_units_Z 16
_cell_length_a 18.260192
_cell_length_b 8.443558
_cell_length_c 7.347488
_cell_angle_alpha 55.910526
_cell_angle_beta 77.019136
_cell_angle_gamma 45.676758
_cell_volume 643.971179
_symmetry_space_group_name_H-M "P -1"
_symmetry_group_IT_number 2
_symmetry_cell_setting 'triclinic'
loop_
_space_group_symop_operation_xyz
x,y,z
-x,-y,-z
loop_
_atom_site_type_symbol
_atom_site_label
_atom_site_fract_x
_atom_site_fract_y
_atom_site_fract_z
Si Si1 0.438043 0.182965 0.148144
Si Si2 0.727905 0.949604 0.436224
Si Si3 0.377847 0.856247 0.329958
Si Si4 0.665397 0.665564 0.515162
Si Si5 0.887079 0.806399 0.162890
Si Si6 0.855251 0.103608 0.637116
Si Si7 0.998139 0.212515 0.570098
Si Si8 0.504720 0.534769 0.188848
O O1 0.376922 0.345740 0.264371
O O2 0.396092 0.054235 0.187658
O O3 0.560677 0.926162 0.302032
O O4 0.435810 0.365655 0.897237
O O5 0.743866 0.951763 0.641567
O O6 0.599820 0.208429 0.394067
O O7 0.733348 0.726855 0.502335
O O8 0.783401 0.982832 0.240479
O O9 0.500000 0.500000 0.500000
O O10 0.383007 0.782728 0.162399
O O11 0.735004 0.398944 0.528714
O O12 0.969761 0.787555 0.243697
O O13 0.933830 0.508448 0.333194
O O14 0.870844 0.915474 0.902678
O O15 0.930454 0.143484 0.638614
O O16 0.897650 0.993873 0.481775
O O17 0.500000 0.500000 0.000000
#
# Coordination Sequence:
#
# PCOD9083293 Si02
#       8
#     2   2   2   2   2   2   2   2
#     4  10  19  34  54  79 111 154 198 229 288 347
#     4   9  18  35  54  80 116 152 195 236 293 347
#     4   8  18  33  50  78 111 147 193 242 282 341
#     4  10  21  36  53  83 116 152 196 246 282 354
#     4  11  21  41  67  90 117 160 195 242 309 359
#     4  11  22  43  64  89 125 155 193 251 304 346
#     4  10  24  41  66  92 119 150 203 250 292 368
#     4   9  17  33  54  75 112 155 185 244 291 333
#
# _framework density 24.845831
#
# number of rings (size 3 to 8) (size 9 to 14) (size 15 to 20)
#    0.750    1.500    1.250    1.875    0.000    1.500 
#    2.250    2.500    2.750    0.000    0.000    0.000 
#    0.000    0.000    0.000    0.000    0.000    0.000 
#
# Total GULP energy -89208.253334 kJ/mol
# GULP energy per Si atom -5575.515833 kJ/mol
# Density = 2.478928 g / cm^3
# Si number density = 24.845831 Si / 1000 Ang^3
#
#
#
# Elastic Constant Matrix: (Units=GPa)
#
#
# Indices 1 2 3 4 5 6 
#
# 1 57.0825 -7.5676 24.0380 0.8361 -14.3619 4.0035
# 2 -7.5676 133.7338 -0.0491 6.3252 2.8865 -1.3818
# 3 24.0380 -0.0491 64.3171 -8.2333 -15.8416 5.4675
# 4 0.8361 6.3252 -8.2333 24.8321 -1.5500 -6.1772
# 5 -14.3619 2.8865 -15.8416 -1.5500 24.9829 4.9521
# 6 4.0035 -1.3818 5.4675 -6.1772 4.9521 28.2033
#
#
#
# Elastic Compliance Matrix: (Units=1/GPa)
#
#
# Indices 1 2 3 4 5 6 
#
# 1 0.023199 0.001226 -0.006331 -0.003709 0.009851 -0.004548
# 2 0.001226 0.007681 -0.001001 -0.002379 -0.000974 0.000046
# 3 -0.006331 -0.001001 0.022094 0.007571 0.011715 -0.003832
# 4 -0.003709 -0.002379 0.007571 0.045823 0.004151 0.008250
# 5 0.009851 -0.000974 0.011715 0.004151 0.055995 -0.012640
# 6 -0.004548 0.000046 -0.003832 0.008250 -0.012640 0.040874
#
#
# Mechanical properties :
#
#
# Convention : Reuss Voigt Hill
#
# Bulk Modulus (GPa) = 24.53258 31.99733 28.26495
# Shear Modulus (GPa) = 22.57704 31.51780 27.04742
#
# Velocity S-wave (km/s) = 3.01771 3.56551 3.30299
# Velocity P-wave (km/s) = 4.69441 5.46414 5.09383
#
# Compressibility (1/GPa) = 0.04076213
#
# Stress axis : x y z
#
# Youngs Moduli (GPa) = 43.10506 130.19875 45.26132
#
# Poissons Ratio (x) = -0.15965 0.28656
# Poissons Ratio (y) = -0.05286 0.04529
# Poissons Ratio (z) = 0.27291 0.13029
#
# Static dielectric constant tensor:
#      x y z
#    x 2.037730 -0.078620 -0.122680 
#    y -0.078620 1.930290 -0.212000 
#    z -0.122680 -0.212000 1.432210 
# 
# From -- ./inp_files/343318.got.cif
#   From: 2010.05.17/outbox.cif.g08.bks.cpg/sg2_172_cif.got.tgz:343318.got - 2010.06.03 11:33:40.
