data_PCOD9083143
_publ_section_title
;
Structure prediction by ZEFSAII (Michael W. Deem and Ramdas Pophale) SiO2 
 PCOD9083143
Probable space group: P -1
;
_chemical_formula_sum "Si O2"
_cell_formula_units_Z 14
_cell_length_a 20.043997
_cell_length_b 5.142206
_cell_length_c 13.487175
_cell_angle_alpha 85.391709
_cell_angle_beta 35.737979
_cell_angle_gamma 90.408603
_cell_volume 803.047365
_symmetry_space_group_name_H-M "P -1"
_symmetry_group_IT_number 2
_symmetry_cell_setting 'triclinic'
loop_
_space_group_symop_operation_xyz
x,y,z
-x,-y,-z
loop_
_atom_site_type_symbol
_atom_site_label
_atom_site_fract_x
_atom_site_fract_y
_atom_site_fract_z
Si Si1 0.708569 0.577142 0.195915
Si Si2 0.537011 0.765285 0.255772
Si Si3 0.951877 0.708290 0.977109
Si Si4 0.635200 0.037370 0.405634
Si Si5 0.833462 0.943179 0.295195
Si Si6 0.657756 0.538008 0.615384
Si Si7 0.553744 0.008633 0.826754
O O1 0.650714 0.658449 0.161622
O O2 0.847333 0.603627 0.034225
O O3 0.659757 0.771383 0.330139
O O4 0.665385 0.282106 0.289164
O O5 0.436079 0.527028 0.358133
O O6 0.539931 0.931737 0.145771
O O7 0.486517 0.935657 0.398185
O O8 0.888450 0.883035 0.125091
O O9 0.000000 0.500000 0.000000
O O10 0.061763 0.872312 0.787498
O O11 0.723316 0.081052 0.392026
O O12 0.778708 0.680045 0.424579
O O13 0.651626 0.259645 0.686719
O O14 0.605953 0.746287 0.742340
O O15 0.500000 0.000000 0.000000
#
# Coordination Sequence:
#
# PCOD9083143 Si02
#       7
#     2   2   2   2   2   2   2
#     4  11  23  32  49  77 109 151 176 210 254 310
#     4  10  22  33  55  76 111 135 178 212 273 322
#     4  10  20  32  50  69 112 147 188 214 239 294
#     4  11  20  32  49  75 111 142 182 207 254 311
#     4  10  19  34  49  77 102 150 180 219 246 302
#     4  10  21  34  57  77 107 132 177 217 272 320
#     4  10  22  37  56  81 105 131 172 226 283 323
#
# _framework density 17.433592000000001
#
# number of rings (size 3 to 8) (size 9 to 14) (size 15 to 20)
#    0.857    0.857    2.857    3.000    4.000    0.000 
#    0.000    0.000    0.000    0.000    0.000    2.000 
#    0.000    0.000    0.000    0.000    0.000    0.000 
#
# Total GULP energy -77970.833629 kJ/mol
# GULP energy per Si atom -5569.345259 kJ/mol
# Density = 1.739391 g / cm^3
# Si number density = 17.433592 Si / 1000 Ang^3
#
#
#
# Elastic Constant Matrix: (Units=GPa)
#
#
# Indices 1 2 3 4 5 6 
#
# 1 47.1013 -1.9462 25.3455 -12.5708 -14.3257 -0.8054
# 2 -1.9462 83.4502 16.9174 -8.0648 -3.2374 1.9882
# 3 25.3455 16.9174 65.9612 -20.6513 -11.7734 10.4253
# 4 -12.5708 -8.0648 -20.6513 22.8937 0.0055 -3.9694
# 5 -14.3257 -3.2374 -11.7734 0.0055 26.3333 2.9767
# 6 -0.8054 1.9882 10.4253 -3.9694 2.9767 19.8294
#
#
#
# Elastic Compliance Matrix: (Units=1/GPa)
#
#
# Indices 1 2 3 4 5 6 
#
# 1 0.034058 0.004213 -0.008100 0.013877 0.014768 0.005780
# 2 0.004213 0.013245 -0.003572 0.003962 0.002188 0.001186
# 3 -0.008100 -0.003572 0.028407 0.017704 0.009293 -0.012757
# 4 0.013877 0.003962 0.017704 0.069066 0.015674 0.002331
# 5 0.014768 0.002188 0.009293 0.015674 0.051457 -0.009092
# 6 0.005780 0.001186 -0.012757 0.002331 -0.009092 0.059084
#
#
# Mechanical properties :
#
#
# Convention : Reuss Voigt Hill
#
# Bulk Modulus (GPa) = 16.45000 30.79402 23.62201
# Shear Modulus (GPa) = 17.21169 24.22434 20.71802
#
# Velocity S-wave (km/s) = 3.14550 3.73167 3.45105
# Velocity P-wave (km/s) = 4.75904 6.02239 5.42760
#
# Compressibility (1/GPa) = 0.06079026
#
# Stress axis : x y z
#
# Youngs Moduli (GPa) = 29.36203 75.49940 35.20259
#
# Poissons Ratio (x) = -0.31805 0.28515
# Poissons Ratio (y) = -0.12369 0.12575
# Poissons Ratio (z) = 0.23784 0.26970
#
# Static dielectric constant tensor:
#      x y z
#    x 1.647020 0.010560 -0.064410 
#    y 0.010560 1.702450 -0.000760 
#    z -0.064410 -0.000760 1.652160 
# 
# From -- ./inp_files/539733.got.cif
#   From: 2010.05.17/outbox.cif.g08.bks.cpg/sg2_270_cif.got.tgz:539733.got - 2010.06.03 11:33:40.
