data_PCOD9083839
_publ_section_title
;
Structure prediction by ZEFSAII (Michael W. Deem and Ramdas Pophale) SiO2 
 PCOD9083839
Probable space group: P -1
;
_chemical_formula_sum "Si O2"
_cell_formula_units_Z 14
_cell_length_a 7.080273
_cell_length_b 9.177247
_cell_length_c 12.733268
_cell_angle_alpha 115.879167
_cell_angle_beta 52.130573
_cell_angle_gamma 117.083579
_cell_volume 566.826731
_symmetry_space_group_name_H-M "P -1"
_symmetry_group_IT_number 2
_symmetry_cell_setting 'triclinic'
loop_
_space_group_symop_operation_xyz
x,y,z
-x,-y,-z
loop_
_atom_site_type_symbol
_atom_site_label
_atom_site_fract_x
_atom_site_fract_y
_atom_site_fract_z
Si Si1 0.823757 0.092967 0.939495
Si Si2 0.302422 0.222161 0.472402
Si Si3 0.829511 0.278261 0.281187
Si Si4 0.242312 0.577544 0.869498
Si Si5 0.776002 0.578580 0.643865
Si Si6 0.179949 0.874388 0.290320
Si Si7 0.693223 0.893875 0.123847
O O1 0.818139 0.058860 0.807682
O O2 0.104668 0.177542 0.910369
O O3 0.671659 0.229205 0.057385
O O4 0.740583 0.938532 0.999337
O O5 0.585025 0.293380 0.433993
O O6 0.263576 0.309065 0.405073
O O7 0.092164 0.238225 0.629356
O O8 0.244700 0.025608 0.399972
O O9 0.844174 0.394272 0.210707
O O10 0.749979 0.083357 0.211999
O O11 0.077020 0.321452 0.276264
O O12 0.485810 0.504429 0.756834
O O13 0.000000 0.500000 0.000000
O O14 0.000000 0.500000 0.500000
O O15 0.408739 0.793658 0.200720
#
# Coordination Sequence:
#
# PCOD9083839 Si02
#       7
#     2   2   2   2   2   2   2
#     4  10  20  34  57  83 115 149 184 239 292 338
#     4   9  21  37  55  86 118 151 192 232 282 343
#     4   9  20  40  59  80 117 150 184 239 288 336
#     4  10  24  41  58  87 117 147 194 243 286 334
#     4  11  24  41  62  81 111 160 199 231 282 344
#     4  10  19  34  58  86 118 149 186 237 287 340
#     4   9  19  34  56  86 113 146 186 230 293 349
#
# _framework density 24.698905
#
# number of rings (size 3 to 8) (size 9 to 14) (size 15 to 20)
#    0.000    2.286    0.000    2.143    0.000   10.857 
#    0.000    4.286    0.000    0.000    0.000    0.000 
#    0.000    0.000    0.000    0.000    0.000    0.000 
#
# Total GULP energy -78093.436023 kJ/mol
# GULP energy per Si atom -5578.102573 kJ/mol
# Density = 2.464269 g / cm^3
# Si number density = 24.698905 Si / 1000 Ang^3
#
#
#
# Elastic Constant Matrix: (Units=GPa)
#
#
# Indices 1 2 3 4 5 6 
#
# 1 155.2183 20.6917 48.6733 -12.8029 -32.4725 13.8219
# 2 20.6917 38.1090 28.4337 -1.0999 -12.5963 0.7821
# 3 48.6733 28.4337 133.8316 -16.5734 -44.5508 12.4699
# 4 -12.8029 -1.0999 -16.5734 33.3555 10.0896 -4.5724
# 5 -32.4725 -12.5963 -44.5508 10.0896 46.2537 2.6794
# 6 13.8219 0.7821 12.4699 -4.5724 2.6794 22.8658
#
#
#
# Elastic Compliance Matrix: (Units=1/GPa)
#
#
# Indices 1 2 3 4 5 6 
#
# 1 0.008483 -0.002602 -0.000209 0.000758 0.005192 -0.005382
# 2 -0.002602 0.032592 -0.006065 -0.003047 0.001701 0.002957
# 3 -0.000209 -0.006065 0.013601 0.001947 0.011342 -0.008023
# 4 0.000758 -0.003047 0.001947 0.033832 -0.006153 0.006070
# 5 0.005192 0.001701 0.011342 -0.006153 0.038874 -0.015168
# 6 -0.005382 0.002957 -0.008023 0.006070 -0.015168 0.054252
#
#
# Mechanical properties :
#
#
# Convention : Reuss Voigt Hill
#
# Bulk Modulus (GPa) = 27.08155 58.08404 42.58279
# Shear Modulus (GPa) = 23.61929 35.78568 29.70249
#
# Velocity S-wave (km/s) = 3.09575 3.81054 3.47159
# Velocity P-wave (km/s) = 4.87511 6.55196 5.77472
#
# Compressibility (1/GPa) = 0.03692551
#
# Stress axis : x y z
#
# Youngs Moduli (GPa) = 117.88556 30.68257 73.52535
#
# Poissons Ratio (x) = 0.07983 0.01533
# Poissons Ratio (y) = 0.30670 0.44591
# Poissons Ratio (z) = 0.02459 0.18608
#
# Static dielectric constant tensor:
#      x y z
#    x 1.948950 0.014180 -0.111080 
#    y 0.014180 1.999960 0.024230 
#    z -0.111080 0.024230 2.075760 
# 
# From -- ./inp_files/363127.got.cif
#   From: 2010.05.17/outbox.cif.g08.bks.cpg/sg2_182_cif.got.tgz:363127.got - 2010.06.03 11:33:40.
