data_PCOD9083621
_publ_section_title
;
Structure prediction by ZEFSAII (Michael W. Deem and Ramdas Pophale) SiO2 
 PCOD9083621
Probable space group: P -1
;
_chemical_formula_sum "Si O2"
_cell_formula_units_Z 14
_cell_length_a 14.023340
_cell_length_b 13.113985
_cell_length_c 13.818409
_cell_angle_alpha 149.297911
_cell_angle_beta 29.645250
_cell_angle_gamma 131.866657
_cell_volume 608.819614
_symmetry_space_group_name_H-M "P -1"
_symmetry_group_IT_number 2
_symmetry_cell_setting 'triclinic'
loop_
_space_group_symop_operation_xyz
x,y,z
-x,-y,-z
loop_
_atom_site_type_symbol
_atom_site_label
_atom_site_fract_x
_atom_site_fract_y
_atom_site_fract_z
Si Si1 0.707767 0.653721 0.996354
Si Si2 0.997253 0.302539 0.704295
Si Si3 0.756079 0.740204 0.235155
Si Si4 0.289450 0.194628 0.176953
Si Si5 0.244137 0.976262 0.376857
Si Si6 0.723214 0.396208 0.601966
Si Si7 0.711485 0.060449 0.204855
O O1 0.813759 0.456948 0.671769
O O2 0.812830 0.677557 0.023358
O O3 0.490068 0.631643 0.198869
O O4 0.678348 0.870476 0.142113
O O5 0.162959 0.259597 0.438380
O O6 0.097431 0.156349 0.586185
O O7 0.815763 0.229235 0.759709
O O8 0.895485 0.546242 0.015035
O O9 0.781624 0.950773 0.429286
O O10 0.514339 0.779657 0.488760
O O11 0.301577 0.399909 0.275916
O O12 0.205375 0.050547 0.060628
O O13 0.522272 0.062611 0.886982
O O14 0.819176 0.191967 0.283598
#
# Coordination Sequence:
#
# PCOD9083621 Si02
#       7
#     2   2   2   2   2   2   2
#     4   9  17  30  56  86 111 148 189 221 272 336
#     4  11  23  38  58  85 111 144 191 234 278 331
#     4  10  19  34  57  82 110 145 186 231 274 325
#     4  10  21  37  58  84 114 147 184 228 280 333
#     4  10  22  40  59  80 112 149 185 232 283 329
#     4   9  16  30  54  83 112 142 183 226 266 325
#     4   9  18  33  56  86 114 149 188 221 274 339
#
# _framework density 22.995315999999999
#
# number of rings (size 3 to 8) (size 9 to 14) (size 15 to 20)
#    0.000    2.286    0.000    4.286    0.000    4.571 
#    0.000    2.857    0.000   19.714    0.000    0.000 
#    0.000    0.000    0.000    0.000    0.000    0.000 
#
# Total GULP energy -78169.513438 kJ/mol
# GULP energy per Si atom -5583.536674 kJ/mol
# Density = 2.294298 g / cm^3
# Si number density = 22.995316 Si / 1000 Ang^3
#
#
#
# Elastic Constant Matrix: (Units=GPa)
#
#
# Indices 1 2 3 4 5 6 
#
# 1 42.0271 -45.7382 107.6031 -2.7511 57.5671 -77.8980
# 2 -45.7382 -34.8572 113.1354 -17.0308 57.4418 -113.0296
# 3 107.6031 113.1354 -47.4638 33.9944 -54.4166 183.2163
# 4 -2.7511 -17.0308 33.9944 23.5564 21.3452 -22.3150
# 5 57.5671 57.4418 -54.4166 21.3452 11.2452 89.7014
# 6 -77.8980 -113.0296 183.2163 -22.3150 89.7014 -179.3871
#
#
#
# Elastic Compliance Matrix: (Units=1/GPa)
#
#
# Indices 1 2 3 4 5 6 
#
# 1 0.014976 -0.001587 -0.002007 -0.002016 -0.003246 -0.008926
# 2 -0.001587 0.028027 0.000786 0.003680 -0.001123 -0.017187
# 3 -0.002007 0.000786 0.009038 -0.001250 -0.005113 0.007206
# 4 -0.002016 0.003680 -0.001250 0.041837 -0.006160 -0.011004
# 5 -0.003246 -0.001123 -0.005113 -0.006160 0.023430 0.009377
# 6 -0.008926 -0.017187 0.007206 -0.011004 0.009377 0.022549
#
#
# Mechanical properties :
#
#
# Convention : Reuss Voigt Hill
#
# Bulk Modulus (GPa) = 21.54046 34.41185 27.97615
# Shear Modulus (GPa) = 31.06587 -43.27003 -6.10208
#
# Velocity S-wave (km/s) = 3.67954 -4.34255 -1.63076
# Velocity P-wave (km/s) = 5.23829 3.18535 2.94051
#
# Compressibility (1/GPa) = 0.04642426
#
# Stress axis : x y z
#
# Youngs Moduli (GPa) = 66.77262 35.68036 110.64203
#
# Poissons Ratio (x) = 0.05663 0.22204
# Poissons Ratio (y) = 0.10598 -0.08692
# Poissons Ratio (z) = 0.13400 -0.02803
#
# Static dielectric constant tensor:
#      x y z
#    x 1.907780 0.026960 -0.001940 
#    y 0.026960 1.829680 -0.008400 
#    z -0.001940 -0.008400 1.862960 
# 
# From -- ./inp_files/534486.got.cif
#   From: 2010.05.17/outbox.cif.g08.bks.cpg/sg2_268_cif.got.tgz:534486.got - 2010.06.03 11:33:40.
