data_PCOD9083538
_publ_section_title
;
Structure prediction by ZEFSAII (Michael W. Deem and Ramdas Pophale) SiO2 
 PCOD9083538
Probable space group: P -1
;
_chemical_formula_sum "Si O2"
_cell_formula_units_Z 16
_cell_length_a 15.621440
_cell_length_b 11.491574
_cell_length_c 13.860725
_cell_angle_alpha 40.850229
_cell_angle_beta 36.285480
_cell_angle_gamma 26.424320
_cell_volume 649.637498
_symmetry_space_group_name_H-M "P -1"
_symmetry_group_IT_number 2
_symmetry_cell_setting 'triclinic'
loop_
_space_group_symop_operation_xyz
x,y,z
-x,-y,-z
loop_
_atom_site_type_symbol
_atom_site_label
_atom_site_fract_x
_atom_site_fract_y
_atom_site_fract_z
Si Si1 0.439908 0.778222 0.974794
Si Si2 0.398641 0.532350 0.673220
Si Si3 0.037168 0.952871 0.165458
Si Si4 0.904259 0.325112 0.886339
Si Si5 0.639627 0.859050 0.594957
Si Si6 0.753535 0.680691 0.130581
Si Si7 0.983335 0.627711 0.577945
Si Si8 0.687798 0.547790 0.481807
O O1 0.654048 0.506883 0.997410
O O2 0.512324 0.808380 0.789423
O O3 0.357026 0.026589 0.950820
O O4 0.260156 0.792815 0.114294
O O5 0.500000 0.500000 0.500000
O O6 0.356157 0.360031 0.817250
O O7 0.564021 0.474493 0.632131
O O8 0.164909 0.829253 0.719877
O O9 0.021377 0.788817 0.218936
O O10 0.024746 0.107780 0.993613
O O11 0.934895 0.502848 0.767260
O O12 0.824183 0.610438 0.517043
O O13 0.766591 0.841770 0.579330
O O14 0.480258 0.151096 0.512833
O O15 0.737978 0.592844 0.303611
O O16 0.000000 0.500000 0.000000
O O17 0.095328 0.669691 0.517342
#
# Coordination Sequence:
#
# PCOD9083538 Si02
#       8
#     2   2   2   2   2   2   2   2
#     4  10  20  37  61  86 118 159 199 248 306 363
#     4  10  22  38  62  90 119 165 212 250 305 359
#     4  11  21  38  60  85 128 154 196 256 305 367
#     4  10  22  35  58  96 118 154 201 249 310 366
#     4   9  19  33  56  87 119 155 196 243 293 371
#     4  10  19  37  64  85 114 163 207 250 301 352
#     4  10  19  34  56  86 122 157 195 241 300 363
#     4  10  20  35  60  82 115 156 200 246 298 357
#
# _framework density 24.629118999999999
#
# number of rings (size 3 to 8) (size 9 to 14) (size 15 to 20)
#    0.000    2.000    1.250    3.000    0.000    2.000 
#    0.000    3.125    5.500   13.500    0.000    0.000 
#    0.000    0.000    0.000    0.000    0.000    0.000 
#
# Total GULP energy -89462.958277 kJ/mol
# GULP energy per Si atom -5591.434892 kJ/mol
# Density = 2.457306 g / cm^3
# Si number density = 24.629119 Si / 1000 Ang^3
#
#
#
# Elastic Constant Matrix: (Units=GPa)
#
#
# Indices 1 2 3 4 5 6 
#
# 1 93.6403 15.0415 33.0182 8.0547 -32.7070 -16.9621
# 2 15.0415 52.8979 10.9698 15.7261 2.6642 -4.6735
# 3 33.0182 10.9698 90.7247 16.1886 -21.4370 1.9511
# 4 8.0547 15.7261 16.1886 47.5868 0.0577 0.0581
# 5 -32.7070 2.6642 -21.4370 0.0577 32.3346 8.2876
# 6 -16.9621 -4.6735 1.9511 0.0581 8.2876 39.4249
#
#
#
# Elastic Compliance Matrix: (Units=1/GPa)
#
#
# Indices 1 2 3 4 5 6 
#
# 1 0.019151 -0.005270 -0.002192 -0.000780 0.017306 0.004086
# 2 -0.005270 0.023339 -0.002057 -0.006113 -0.009261 0.002557
# 3 -0.002192 -0.002057 0.014963 -0.004046 0.008849 -0.003782
# 4 -0.000780 -0.006113 -0.004046 0.024547 -0.002940 -0.000278
# 5 0.017306 -0.009261 0.008849 -0.002940 0.056601 -0.005984
# 6 0.004086 0.002557 -0.003782 -0.000278 -0.005984 0.028871
#
#
# Mechanical properties :
#
#
# Convention : Reuss Voigt Hill
#
# Bulk Modulus (GPa) = 26.03069 39.48020 32.75544
# Shear Modulus (GPa) = 25.08620 35.75149 30.41885
#
# Velocity S-wave (km/s) = 3.19495 3.81411 3.51818
# Velocity P-wave (km/s) = 4.91958 5.95494 5.46185
#
# Compressibility (1/GPa) = 0.03841619
#
# Stress axis : x y z
#
# Youngs Moduli (GPa) = 52.21771 42.84671 66.83246
#
# Poissons Ratio (x) = 0.22578 0.14649
# Poissons Ratio (y) = 0.27516 0.13745
# Poissons Ratio (z) = 0.11446 0.08812
#
# Static dielectric constant tensor:
#      x y z
#    x 2.041790 0.006140 0.023480 
#    y 0.006140 2.056210 -0.002430 
#    z 0.023480 -0.002430 1.963430 
# 
# From -- ./inp_files/532401.got.cif
#   From: 2010.05.17/outbox.cif.g08.bks.cpg/sg2_267_cif.got.tgz:532401.got - 2010.06.03 11:33:40.
