data_PCOD9083252
_publ_section_title
;
Structure prediction by ZEFSAII (Michael W. Deem and Ramdas Pophale) SiO2 
 PCOD9083252
Probable space group: P -1
;
_chemical_formula_sum "Si O2"
_cell_formula_units_Z 16
_cell_length_a 10.104100
_cell_length_b 18.776597
_cell_length_c 9.047149
_cell_angle_alpha 135.392337
_cell_angle_beta 87.273191
_cell_angle_gamma 127.673423
_cell_volume 683.932561
_symmetry_space_group_name_H-M "P -1"
_symmetry_group_IT_number 2
_symmetry_cell_setting 'triclinic'
loop_
_space_group_symop_operation_xyz
x,y,z
-x,-y,-z
loop_
_atom_site_type_symbol
_atom_site_label
_atom_site_fract_x
_atom_site_fract_y
_atom_site_fract_z
Si Si1 0.689080 0.884544 0.828025
Si Si2 0.401933 0.347607 0.090692
Si Si3 0.650935 0.332981 0.231289
Si Si4 0.942060 0.326179 0.113887
Si Si5 0.492636 0.293080 0.745970
Si Si6 0.829867 0.758206 0.766863
Si Si7 0.494755 0.058690 0.433220
Si Si8 0.995819 0.375917 0.840077
O O1 0.495970 0.808904 0.836423
O O2 0.578644 0.770951 0.514588
O O3 0.776312 0.840435 0.845657
O O4 0.910147 0.093864 0.088458
O O5 0.490479 0.296307 0.077644
O O6 0.622276 0.561339 0.415922
O O7 0.201479 0.262807 0.084290
O O8 0.339615 0.277071 0.822791
O O9 0.812121 0.353142 0.171991
O O10 0.826391 0.522059 0.579062
O O11 0.002577 0.350102 0.974540
O O12 0.750658 0.129449 0.896900
O O13 0.489154 0.175203 0.630621
O O14 0.757298 0.502092 0.057460
O O15 0.734238 0.181765 0.517461
O O16 0.500000 0.000000 0.500000
O O17 0.000000 0.500000 0.000000
#
# Coordination Sequence:
#
# PCOD9083252 Si02
#       8
#     2   2   2   2   2   2   2   2
#     4  10  21  40  60  85 112 145 192 239 289 330
#     4  10  21  39  60  84 109 151 186 234 292 340
#     4  10  20  35  58  79 117 154 190 224 279 340
#     4  10  19  34  53  83 114 158 188 223 266 338
#     4  11  21  35  61  85 112 151 190 231 284 337
#     4   9  22  42  62  80 114 145 185 250 289 332
#     4   9  19  33  51  80 120 151 187 226 267 324
#     4   9  17  32  51  77 116 147 178 230 271 316
#
# _framework density 23.394120000000001
#
# number of rings (size 3 to 8) (size 9 to 14) (size 15 to 20)
#    0.000    2.250    1.250    2.250    1.750    2.000 
#    0.000    4.375    0.000    0.000    0.000    0.000 
#    0.000    0.000    0.000    0.000    0.000    0.000 
#
# Total GULP energy -89273.227287 kJ/mol
# GULP energy per Si atom -5579.576705 kJ/mol
# Density = 2.334087 g / cm^3
# Si number density = 23.394120 Si / 1000 Ang^3
#
#
#
# Elastic Constant Matrix: (Units=GPa)
#
#
# Indices 1 2 3 4 5 6 
#
# 1 26.8913 4.0692 -13.4403 3.4376 -4.2171 1.3168
# 2 4.0692 76.7430 28.7981 30.0639 -8.7692 5.2096
# 3 -13.4403 28.7981 69.2147 31.4881 -1.8115 3.7440
# 4 3.4376 30.0639 31.4881 36.4213 4.6438 3.4490
# 5 -4.2171 -8.7692 -1.8115 4.6438 23.6347 -2.3067
# 6 1.3168 5.2096 3.7440 3.4490 -2.3067 23.6946
#
#
#
# Elastic Compliance Matrix: (Units=1/GPa)
#
#
# Indices 1 2 3 4 5 6 
#
# 1 0.055768 0.001855 0.024229 -0.029958 0.018265 -0.001197
# 2 0.001855 0.022285 0.001016 -0.020987 0.012716 -0.000870
# 3 0.024229 0.001016 0.035209 -0.035329 0.014282 -0.000600
# 4 -0.029958 -0.020987 -0.035329 0.082595 -0.032392 -0.003315
# 5 0.018265 0.012716 0.014282 -0.032392 0.058167 0.004310
# 6 -0.001197 -0.000870 -0.000600 -0.003315 0.004310 0.043459
#
#
# Mechanical properties :
#
#
# Convention : Reuss Voigt Hill
#
# Bulk Modulus (GPa) = 5.97151 23.52256 14.74703
# Shear Modulus (GPa) = 16.71660 26.97825 21.84743
#
# Velocity S-wave (km/s) = 2.67603 3.39957 3.05927
# Velocity P-wave (km/s) = 3.47941 5.04839 4.33547
#
# Compressibility (1/GPa) = 0.16746191
#
# Stress axis : x y z
#
# Youngs Moduli (GPa) = 17.93129 44.87400 28.40203
#
# Poissons Ratio (x) = -0.08325 -0.68815
# Poissons Ratio (y) = -0.03327 -0.02885
# Poissons Ratio (z) = -0.43446 -0.04559
#
# Static dielectric constant tensor:
#      x y z
#    x 1.890720 -0.001140 0.027140 
#    y -0.001140 1.944100 0.003090 
#    z 0.027140 0.003090 1.919210 
# 
# From -- ./inp_files/216431.got.cif
#   From: 2010.05.17/outbox.cif.g08.bks.cpg/sg2_109_cif.got.tgz:216431.got - 2010.06.03 11:33:40.
