data_PCOD9083023
_publ_section_title
;
Structure prediction by ZEFSAII (Michael W. Deem and Ramdas Pophale) SiO2 
 PCOD9083023
Probable space group: P -1
;
_chemical_formula_sum "Si O2"
_cell_formula_units_Z 16
_cell_length_a 16.870811
_cell_length_b 9.438794
_cell_length_c 11.986924
_cell_angle_alpha 112.454334
_cell_angle_beta 37.864583
_cell_angle_gamma 138.214854
_cell_volume 673.639385
_symmetry_space_group_name_H-M "P -1"
_symmetry_group_IT_number 2
_symmetry_cell_setting 'triclinic'
loop_
_space_group_symop_operation_xyz
x,y,z
-x,-y,-z
loop_
_atom_site_type_symbol
_atom_site_label
_atom_site_fract_x
_atom_site_fract_y
_atom_site_fract_z
Si Si1 0.463125 0.654750 0.964306
Si Si2 0.946617 0.900126 0.733619
Si Si3 0.230091 0.780028 0.806326
Si Si4 0.635130 0.890537 0.606628
Si Si5 0.948107 0.084984 0.997789
Si Si6 0.609841 0.393846 0.425851
Si Si7 0.284515 0.392565 0.396702
Si Si8 0.537650 0.145982 0.769413
O O1 0.486491 0.727135 0.830773
O O2 0.608654 0.640394 0.803956
O O3 0.471940 0.152282 0.964303
O O4 0.234875 0.387711 0.173878
O O5 0.146340 0.986238 0.574443
O O6 0.858602 0.919709 0.938390
O O7 0.050269 0.118314 0.599048
O O8 0.360064 0.754496 0.612432
O O9 0.340140 0.933360 0.844920
O O10 0.000000 0.500000 0.000000
O O11 0.193893 0.900631 0.810510
O O12 0.543079 0.736449 0.547986
O O13 0.650346 0.087596 0.635520
O O14 0.169091 0.356290 0.797364
O O15 0.000000 0.000000 0.000000
O O16 0.596927 0.485286 0.577878
O O17 0.317801 0.589341 0.366485
#
# Coordination Sequence:
#
# PCOD9083023 Si02
#       8
#     2   2   2   2   2   2   2   2
#     4  11  23  43  65  91 129 172 218 263 316 377
#     4  10  23  39  59  91 127 167 215 260 313 378
#     4   9  20  39  62  92 125 160 208 257 316 382
#     4  10  23  42  64  93 128 168 216 268 320 374
#     4  10  19  33  60  93 123 160 206 257 314 376
#     4   9  20  39  60  88 128 165 205 263 318 370
#     4  10  23  41  64  93 127 167 214 267 320 378
#     4  11  23  41  66  92 129 173 211 265 320 376
#
# _framework density 23.751580000000001
#
# number of rings (size 3 to 8) (size 9 to 14) (size 15 to 20)
#    0.000    2.000    0.000    2.250    0.000   11.500 
#    0.000   12.500    0.000    0.000    0.000    0.000 
#    0.000    0.000    0.000    0.000    0.000    0.000 
#
# Total GULP energy -89485.745924 kJ/mol
# GULP energy per Si atom -5592.859120 kJ/mol
# Density = 2.369752 g / cm^3
# Si number density = 23.751580 Si / 1000 Ang^3
#
#
#
# Elastic Constant Matrix: (Units=GPa)
#
#
# Indices 1 2 3 4 5 6 
#
# 1 90.6176 44.3465 33.1549 2.0233 12.5320 -3.2947
# 2 44.3465 126.6868 37.1200 8.6508 -4.1928 -10.0704
# 3 33.1549 37.1200 100.3238 -1.7007 -1.0877 5.4382
# 4 2.0233 8.6508 -1.7007 42.5440 -2.9655 0.4030
# 5 12.5320 -4.1928 -1.0877 -2.9655 31.1062 6.4550
# 6 -3.2947 -10.0704 5.4382 0.4030 6.4550 62.0890
#
#
#
# Elastic Compliance Matrix: (Units=1/GPa)
#
#
# Indices 1 2 3 4 5 6 
#
# 1 0.015654 -0.004525 -0.003651 -0.000493 -0.007337 0.001182
# 2 -0.004525 0.010532 -0.002481 -0.001852 0.002685 0.001418
# 3 -0.003651 -0.002481 0.012240 0.001331 0.002084 -0.001894
# 4 -0.000493 -0.001852 0.001331 0.024139 0.002475 -0.000857
# 5 -0.007337 0.002685 0.002084 0.002475 0.036596 -0.003957
# 6 0.001182 0.001418 -0.001894 -0.000857 -0.003957 0.016981
#
#
# Mechanical properties :
#
#
# Convention : Reuss Voigt Hill
#
# Bulk Modulus (GPa) = 58.43563 60.76344 59.59954
# Shear Modulus (GPa) = 34.92567 40.68164 37.80365
#
# Velocity S-wave (km/s) = 3.83881 4.14309 3.99385
# Velocity P-wave (km/s) = 6.65619 6.96601 6.81286
#
# Compressibility (1/GPa) = 0.01711285
#
# Stress axis : x y z
#
# Youngs Moduli (GPa) = 63.87965 94.94480 81.69928
#
# Poissons Ratio (x) = 0.42964 0.29830
# Poissons Ratio (y) = 0.28907 0.20267
# Poissons Ratio (z) = 0.23323 0.23553
#
# Static dielectric constant tensor:
#      x y z
#    x 1.951870 -0.010320 0.025470 
#    y -0.010320 1.928780 -0.024410 
#    z 0.025470 -0.024410 1.908050 
# 
# From -- ./inp_files/577093.got.cif
#   From: 2010.05.17/outbox.cif.g08.bks.cpg/sg2_289_cif.got.tgz:577093.got - 2010.06.03 11:33:40.
