data_PCOD9083435
_publ_section_title
;
Structure prediction by ZEFSAII (Michael W. Deem and Ramdas Pophale) SiO2 
 PCOD9083435
Probable space group: P -1
;
_chemical_formula_sum "Si O2"
_cell_formula_units_Z 16
_cell_length_a 11.945762
_cell_length_b 25.081400
_cell_length_c 8.664263
_cell_angle_alpha 138.472553
_cell_angle_beta 61.248232
_cell_angle_gamma 150.724751
_cell_volume 713.389936
_symmetry_space_group_name_H-M "P -1"
_symmetry_group_IT_number 2
_symmetry_cell_setting 'triclinic'
loop_
_space_group_symop_operation_xyz
x,y,z
-x,-y,-z
loop_
_atom_site_type_symbol
_atom_site_label
_atom_site_fract_x
_atom_site_fract_y
_atom_site_fract_z
Si Si1 0.633630 0.709543 0.100025
Si Si2 0.066122 0.428229 0.161605
Si Si3 0.766099 0.950884 0.650329
Si Si4 0.249248 0.708653 0.618519
Si Si5 0.714989 0.037308 0.608442
Si Si6 0.839863 0.590271 0.441478
Si Si7 0.175944 0.832091 0.484544
Si Si8 0.718854 0.585322 0.830904
O O1 0.702073 0.820703 0.408658
O O2 0.375845 0.580078 0.882890
O O3 0.579220 0.593436 0.968196
O O4 0.912995 0.857007 0.135983
O O5 0.160476 0.567198 0.344057
O O6 0.306319 0.509627 0.259055
O O7 0.845417 0.322654 0.213693
O O8 0.945655 0.307467 0.843706
O O9 0.568410 0.887975 0.761191
O O10 0.680280 0.935763 0.503547
O O11 0.077001 0.668472 0.529692
O O12 0.782533 0.072644 0.457895
O O13 0.461280 0.955000 0.615077
O O14 0.968960 0.219090 0.917576
O O15 0.686690 0.545816 0.588774
O O16 0.979849 0.731656 0.540779
#
# Coordination Sequence:
#
# PCOD9083435 Si02
#       8
#     2   2   2   2   2   2   2   2
#     4  10  22  37  58  86 117 156 189 236 277 346
#     4   9  20  36  58  88 119 144 190 246 283 335
#     4  10  20  39  59  84 117 154 192 226 293 346
#     4  10  20  37  61  90 112 151 188 242 292 332
#     4   9  19  36  54  83 119 144 180 238 286 335
#     4  11  21  35  64  90 111 147 198 240 281 337
#     4  10  19  34  55  92 114 144 185 242 292 327
#     4   9  20  40  57  79 119 156 190 229 284 339
#
# _framework density 22.428125000000001
#
# number of rings (size 3 to 8) (size 9 to 14) (size 15 to 20)
#    0.000    2.250    1.250    1.125    1.750    1.500 
#   11.250   11.250    0.000    7.500    0.000    0.000 
#    0.000    0.000    0.000    0.000    0.000    0.000 
#
# Total GULP energy -89290.256917 kJ/mol
# GULP energy per Si atom -5580.641057 kJ/mol
# Density = 2.237708 g / cm^3
# Si number density = 22.428125 Si / 1000 Ang^3
#
#
#
# Elastic Constant Matrix: (Units=GPa)
#
#
# Indices 1 2 3 4 5 6 
#
# 1 66.2247 16.7780 3.5221 1.0224 -14.7205 -8.4974
# 2 16.7780 115.9457 -2.0047 4.7415 10.8540 7.8456
# 3 3.5221 -2.0047 34.4361 0.2085 10.2001 7.3112
# 4 1.0224 4.7415 0.2085 17.5405 6.5294 1.2600
# 5 -14.7205 10.8540 10.2001 6.5294 38.8290 8.1833
# 6 -8.4974 7.8456 7.3112 1.2600 8.1833 31.1982
#
#
#
# Elastic Compliance Matrix: (Units=1/GPa)
#
#
# Indices 1 2 3 4 5 6 
#
# 1 0.019323 -0.004003 -0.006165 -0.003928 0.009596 0.005356
# 2 -0.004003 0.009893 0.002919 -0.000658 -0.004283 -0.003112
# 3 -0.006165 0.002919 0.034818 0.003930 -0.011325 -0.007761
# 4 -0.003928 -0.000658 0.003930 0.062123 -0.012565 -0.001038
# 5 0.009596 -0.004283 -0.011325 -0.012565 0.036236 -0.002653
# 6 0.005356 -0.003112 -0.007761 -0.001038 -0.002653 0.036851
#
#
# Mechanical properties :
#
#
# Convention : Reuss Voigt Hill
#
# Bulk Modulus (GPa) = 20.18745 28.13303 24.16024
# Shear Modulus (GPa) = 21.71517 30.73428 26.22472
#
# Velocity S-wave (km/s) = 3.11499 3.70583 3.42318
# Velocity P-wave (km/s) = 4.68594 5.55714 5.14003
#
# Compressibility (1/GPa) = 0.04953573
#
# Stress axis : x y z
#
# Youngs Moduli (GPa) = 51.75205 101.08312 28.72066
#
# Poissons Ratio (x) = 0.40462 0.17706
# Poissons Ratio (y) = 0.20715 -0.08383
# Poissons Ratio (z) = 0.31905 -0.29503
#
# Static dielectric constant tensor:
#      x y z
#    x 1.881100 -0.006190 -0.020120 
#    y -0.006190 1.904650 0.018670 
#    z -0.020120 0.018670 1.790610 
# 
# From -- ./inp_files/254701.got.cif
#   From: 2010.05.17/outbox.cif.g08.bks.cpg/sg2_128_cif.got.tgz:254701.got - 2010.06.03 11:33:40.
