data_PCOD9083026
_publ_section_title
;
Structure prediction by ZEFSAII (Michael W. Deem and Ramdas Pophale) SiO2 
 PCOD9083026
Probable space group: P -1
;
_chemical_formula_sum "Si O2"
_cell_formula_units_Z 16
_cell_length_a 8.922021
_cell_length_b 12.668872
_cell_length_c 14.581297
_cell_angle_alpha 39.163090
_cell_angle_beta 133.369382
_cell_angle_gamma 106.639187
_cell_volume 638.750899
_symmetry_space_group_name_H-M "P -1"
_symmetry_group_IT_number 2
_symmetry_cell_setting 'triclinic'
loop_
_space_group_symop_operation_xyz
x,y,z
-x,-y,-z
loop_
_atom_site_type_symbol
_atom_site_label
_atom_site_fract_x
_atom_site_fract_y
_atom_site_fract_z
Si Si1 0.371300 0.378958 0.509752
Si Si2 0.926034 0.324490 0.124651
Si Si3 0.529538 0.622616 0.640534
Si Si4 0.177045 0.427091 0.902917
Si Si5 0.784580 0.268291 0.398190
Si Si6 0.287962 0.360982 0.688301
Si Si7 0.641198 0.031909 0.379083
Si Si8 0.292542 0.950097 0.810373
O O1 0.500000 0.500000 0.500000
O O2 0.487256 0.272028 0.533004
O O3 0.366796 0.284225 0.668001
O O4 0.085514 0.523567 0.270878
O O5 0.840299 0.452184 0.095065
O O6 0.794388 0.202563 0.141692
O O7 0.811177 0.471404 0.891254
O O8 0.213479 0.159090 0.366401
O O9 0.388291 0.738826 0.593651
O O10 0.398409 0.500000 0.652655
O O11 0.265225 0.520289 0.797769
O O12 0.356284 0.195205 0.152519
O O13 0.752736 0.163852 0.366772
O O14 0.061206 0.131141 0.642757
O O15 0.000000 0.500000 0.500000
O O16 0.447351 0.174026 0.947666
O O17 0.703018 0.968088 0.342626
#
# Coordination Sequence:
#
# PCOD9083026 Si02
#       8
#     2   2   2   2   2   2   2   2
#     4  10  24  43  62  84 120 170 210 254 300 357
#     4  10  19  35  58  96 127 157 193 247 316 370
#     4  10  21  38  61  85 128 163 199 246 314 367
#     4  12  20  36  68  89 123 162 207 247 308 364
#     4  11  19  34  61 100 125 157 194 250 316 370
#     4  10  20  40  64  87 113 161 217 256 301 349
#     4  11  19  33  59 102 135 147 190 260 313 368
#     4  10  19  33  60  93 133 149 194 266 307 354
#
# _framework density 25.048888999999999
#
# number of rings (size 3 to 8) (size 9 to 14) (size 15 to 20)
#    0.000    1.500    3.750    4.125    0.000    0.500 
#    0.000    3.750   11.000    0.000    0.000    0.000 
#    0.000    0.000    0.000    0.000    0.000    0.000 
#
# Total GULP energy -89452.672600 kJ/mol
# GULP energy per Si atom -5590.792037 kJ/mol
# Density = 2.499188 g / cm^3
# Si number density = 25.048889 Si / 1000 Ang^3
#
#
#
# Elastic Constant Matrix: (Units=GPa)
#
#
# Indices 1 2 3 4 5 6 
#
# 1 140.0953 39.8059 59.3681 5.3191 -13.0690 -7.7524
# 2 39.8059 51.4120 38.7019 7.6851 -9.2567 -4.4826
# 3 59.3681 38.7019 165.6970 9.5152 13.2784 -4.4302
# 4 5.3191 7.6851 9.5152 41.8381 -0.3132 -0.7356
# 5 -13.0690 -9.2567 13.2784 -0.3132 39.9324 4.2300
# 6 -7.7524 -4.4826 -4.4302 -0.7356 4.2300 46.2013
#
#
#
# Elastic Compliance Matrix: (Units=1/GPa)
#
#
# Indices 1 2 3 4 5 6 
#
# 1 0.010028 -0.005296 -0.002585 0.000319 0.002846 0.000666
# 2 -0.005296 0.029305 -0.005265 -0.003448 0.006701 0.000781
# 3 -0.002585 -0.005265 0.008639 -0.000700 -0.004979 0.000329
# 4 0.000319 -0.003448 -0.000700 0.024653 -0.000276 0.000070
# 5 0.002846 0.006701 -0.004979 -0.000276 0.029397 -0.002046
# 6 0.000666 0.000781 0.000329 0.000070 -0.002046 0.022052
#
#
# Mechanical properties :
#
#
# Convention : Reuss Voigt Hill
#
# Bulk Modulus (GPa) = 46.12489 70.32844 58.22666
# Shear Modulus (GPa) = 31.72736 40.21628 35.97182
#
# Velocity S-wave (km/s) = 3.56282 4.01123 3.79366
# Velocity P-wave (km/s) = 5.94801 7.04207 6.51803
#
# Compressibility (1/GPa) = 0.02168027
#
# Stress axis : x y z
#
# Youngs Moduli (GPa) = 99.71824 34.12412 115.75371
#
# Poissons Ratio (x) = 0.18072 0.29918
# Poissons Ratio (y) = 0.52810 0.60948
# Poissons Ratio (z) = 0.25774 0.17967
#
# Static dielectric constant tensor:
#      x y z
#    x 1.992960 -0.021710 0.006390 
#    y -0.021710 2.103330 -0.003030 
#    z 0.006390 -0.003030 1.978610 
# 
# From -- ./inp_files/505309.got.cif
#   From: 2010.05.17/outbox.cif.g08.bks.cpg/sg2_253_cif.got.tgz:505309.got - 2010.06.03 11:33:40.
