data_PCOD9083448
_publ_section_title
;
Structure prediction by ZEFSAII (Michael W. Deem and Ramdas Pophale) SiO2 
 PCOD9083448
Probable space group: P -1
;
_chemical_formula_sum "Si O2"
_cell_formula_units_Z 14
_cell_length_a 32.828822
_cell_length_b 25.683033
_cell_length_c 5.077629
_cell_angle_alpha 93.864477
_cell_angle_beta 94.806599
_cell_angle_gamma 9.477773
_cell_volume 699.438433
_symmetry_space_group_name_H-M "P -1"
_symmetry_group_IT_number 2
_symmetry_cell_setting 'triclinic'
loop_
_space_group_symop_operation_xyz
x,y,z
-x,-y,-z
loop_
_atom_site_type_symbol
_atom_site_label
_atom_site_fract_x
_atom_site_fract_y
_atom_site_fract_z
Si Si1 0.903875 0.276580 0.671225
Si Si2 0.745514 0.158338 0.775639
Si Si3 0.643695 0.399453 0.932869
Si Si4 0.141927 0.783266 0.301169
Si Si5 0.218025 0.255100 0.182846
Si Si6 0.325974 0.229374 0.235818
Si Si7 0.454819 0.177017 0.282290
O O1 0.810980 0.333771 0.599354
O O2 0.678906 0.600246 0.669703
O O3 0.095813 0.050853 0.469132
O O4 0.057329 0.087869 0.961190
O O5 0.537374 0.379597 0.839611
O O6 0.619546 0.374698 0.760197
O O7 0.631800 0.467900 0.784383
O O8 0.930202 0.038761 0.056361
O O9 0.000000 0.000000 0.500000
O O10 0.141638 0.412661 0.197183
O O11 0.320410 0.112266 0.481032
O O12 0.000000 0.500000 0.000000
O O13 0.444963 0.956928 0.004606
O O14 0.263466 0.368935 0.273392
O O15 0.500000 0.000000 0.500000
O O16 0.500000 0.000000 0.000000
#
# Coordination Sequence:
#
# PCOD9083448 Si02
#       7
#     2   2   2   2   2   2   2
#     4  11  22  36  56  80 115 150 188 234 291 333
#     4  10  21  35  56  80 104 146 195 243 278 322
#     4   9  20  34  54  79 105 142 202 245 269 329
#     4  10  19  34  56  78 109 153 193 228 285 338
#     4  10  19  35  61  85 109 142 187 227 275 342
#     4   8  16  31  54  77 100 138 177 210 258 332
#     4  10  20  36  56  82 115 147 181 230 286 343
#
# _framework density 20.016057
#
# number of rings (size 3 to 8) (size 9 to 14) (size 15 to 20)
#    0.000    2.286    1.429    1.286    2.000    1.714 
#    0.000    1.429    0.000    0.000    0.000    0.000 
#    0.000    0.000    0.000    0.000    0.000    0.000 
#
# Total GULP energy -77939.588114 kJ/mol
# GULP energy per Si atom -5567.113437 kJ/mol
# Density = 1.997050 g / cm^3
# Si number density = 20.016057 Si / 1000 Ang^3
#
#
#
# Elastic Constant Matrix: (Units=GPa)
#
#
# Indices 1 2 3 4 5 6 
#
# 1 162.1210 38.5125 9.1378 8.1280 6.3267 -5.4209
# 2 38.5125 30.7250 -2.2320 4.5008 -3.6888 -3.1812
# 3 9.1378 -2.2320 93.4160 2.5106 -3.4347 -0.0926
# 4 8.1280 4.5008 2.5106 27.8792 -8.0562 7.2547
# 5 6.3267 -3.6888 -3.4347 -8.0562 28.0950 2.0815
# 6 -5.4209 -3.1812 -0.0926 7.2547 2.0815 32.3644
#
#
#
# Elastic Compliance Matrix: (Units=1/GPa)
#
#
# Indices 1 2 3 4 5 6 
#
# 1 0.009433 -0.012005 -0.001315 -0.002348 -0.004625 0.001220
# 2 -0.012005 0.049574 0.002755 -0.003100 0.008436 0.003022
# 3 -0.001315 0.002755 0.010982 -0.000541 0.001839 0.000085
# 4 -0.002348 -0.003100 -0.000541 0.043981 0.013514 -0.011427
# 5 -0.004625 0.008436 0.001839 0.013514 0.042264 -0.005688
# 6 0.001220 0.003022 0.000085 -0.011427 -0.005688 0.034327
#
#
# Mechanical properties :
#
#
# Convention : Reuss Voigt Hill
#
# Bulk Modulus (GPa) = 20.46688 41.89984 31.18336
# Shear Modulus (GPa) = 21.93209 33.72396 27.82802
#
# Velocity S-wave (km/s) = 3.31376 4.10914 3.73270
# Velocity P-wave (km/s) = 4.98887 6.59484 5.84725
#
# Compressibility (1/GPa) = 0.04885942
#
# Stress axis : x y z
#
# Youngs Moduli (GPa) = 106.01019 20.17186 91.06199
#
# Poissons Ratio (x) = 0.24215 0.11977
# Poissons Ratio (y) = 1.27260 -0.25090
# Poissons Ratio (z) = 0.13943 -0.05558
#
# Static dielectric constant tensor:
#      x y z
#    x 1.822950 -0.051900 -0.022110 
#    y -0.051900 1.704190 -0.001680 
#    z -0.022110 -0.001680 1.753690 
# 
# From -- ./inp_files/41745.got.cif
#   From: 2010.05.17/outbox.cif.g08.bks.cpg/sg2_21_cif.got.tgz:41745.got - 2010.06.03 11:33:40.
