data_PCOD9083780
_publ_section_title
;
Structure prediction by ZEFSAII (Michael W. Deem and Ramdas Pophale) SiO2 
 PCOD9083780
Probable space group: P -1
;
_chemical_formula_sum "Si O2"
_cell_formula_units_Z 16
_cell_length_a 14.187032
_cell_length_b 10.756554
_cell_length_c 20.053426
_cell_angle_alpha 146.200625
_cell_angle_beta 157.166298
_cell_angle_gamma 32.706480
_cell_volume 618.802364
_symmetry_space_group_name_H-M "P -1"
_symmetry_group_IT_number 2
_symmetry_cell_setting 'triclinic'
loop_
_space_group_symop_operation_xyz
x,y,z
-x,-y,-z
loop_
_atom_site_type_symbol
_atom_site_label
_atom_site_fract_x
_atom_site_fract_y
_atom_site_fract_z
Si Si1 0.283883 0.452059 0.482583
Si Si2 0.658189 0.845469 0.122422
Si Si3 0.732621 0.268902 0.274650
Si Si4 0.436297 0.830051 0.678612
Si Si5 0.849600 0.137318 0.860232
Si Si6 0.693749 0.907230 0.759309
Si Si7 0.993625 0.547540 0.105787
Si Si8 0.863992 0.069795 0.697054
O O1 0.246580 0.531561 0.570877
O O2 0.261603 0.688693 0.531155
O O3 0.147238 0.309872 0.283680
O O4 0.570517 0.245379 0.573893
O O5 0.928406 0.671754 0.190525
O O6 0.637410 0.093916 0.182500
O O7 0.626675 0.922553 0.212796
O O8 0.447229 0.734258 0.908874
O O9 0.016858 0.138403 0.370670
O O10 0.466114 0.865879 0.635441
O O11 0.720275 0.640514 0.796940
O O12 0.883731 0.982381 0.746947
O O13 0.634214 0.126790 0.767133
O O14 0.804361 0.396108 0.913385
O O15 0.107420 0.075073 0.045554
O O16 0.966901 0.757779 0.130554
#
# Coordination Sequence:
#
# PCOD9083780 Si02
#       8
#     2   2   2   2   2   2   2   2
#     4  10  20  35  57  81 107 138 174 219 270 312
#     4   9  16  28  51  82 108 133 172 219 263 310
#     4   9  17  29  50  82 110 131 168 222 270 309
#     4   9  18  34  55  78 108 141 174 215 262 315
#     4  10  20  35  56  78 106 143 181 217 257 312
#     4  10  21  36  53  77 110 147 177 209 262 322
#     4   9  17  31  54  83 104 128 174 225 264 299
#     4  10  19  34  58  83 104 132 176 226 265 306
#
# _framework density 25.856397999999999
#
# number of rings (size 3 to 8) (size 9 to 14) (size 15 to 20)
#    0.000    2.500    0.000    3.000    0.000    5.500 
#    0.000    3.750    0.000   18.750    0.000    0.000 
#    0.000    0.000    0.000    0.000    0.000    0.000 
#
# Total GULP energy -89171.299029 kJ/mol
# GULP energy per Si atom -5573.206189 kJ/mol
# Density = 2.579755 g / cm^3
# Si number density = 25.856398 Si / 1000 Ang^3
#
#
#
# Elastic Constant Matrix: (Units=GPa)
#
#
# Indices 1 2 3 4 5 6 
#
# 1 161.5752 44.3805 39.5334 13.1214 -47.6004 -10.2658
# 2 44.3805 48.7746 30.0326 8.8551 -22.6849 -33.9396
# 3 39.5334 30.0326 97.6953 10.1145 -37.4513 -9.1624
# 4 13.1214 8.8551 10.1145 32.5985 -7.4093 -8.5398
# 5 -47.6004 -22.6849 -37.4513 -7.4093 48.2871 14.7947
# 6 -10.2658 -33.9396 -9.1624 -8.5398 14.7947 45.3727
#
#
#
# Elastic Compliance Matrix: (Units=1/GPa)
#
#
# Indices 1 2 3 4 5 6 
#
# 1 0.012686 -0.017708 0.003343 -0.002499 0.010568 -0.013617
# 2 -0.017708 0.082082 -0.016324 0.002978 -0.008715 0.057498
# 3 0.003343 -0.016324 0.018002 -0.002839 0.013013 -0.012596
# 4 -0.002499 0.002978 -0.002839 0.033638 -0.000420 0.007557
# 5 0.010568 -0.008715 0.013013 -0.000420 0.041712 -0.015181
# 6 -0.013617 0.057498 -0.012596 0.007557 -0.015181 0.065797
#
#
# Mechanical properties :
#
#
# Convention : Reuss Voigt Hill
#
# Bulk Modulus (GPa) = 19.45806 59.54867 39.50337
# Shear Modulus (GPa) = 15.04086 38.19158 26.61622
#
# Velocity S-wave (km/s) = 2.41448 3.84743 3.21189
# Velocity P-wave (km/s) = 3.91340 6.54351 5.39130
#
# Compressibility (1/GPa) = 0.05139258
#
# Stress axis : x y z
#
# Youngs Moduli (GPa) = 78.82572 12.18289 55.54825
#
# Poissons Ratio (x) = 0.21573 -0.18569
# Poissons Ratio (y) = 1.39585 0.90677
# Poissons Ratio (z) = -0.26351 0.19887
#
# Static dielectric constant tensor:
#      x y z
#    x 2.070410 -0.008280 0.034200 
#    y -0.008280 2.135440 0.028380 
#    z 0.034200 0.028380 2.195360 
# 
# From -- ./inp_files/597892.got.cif
#   From: 2010.05.17/outbox.cif.g08.bks.cpg/sg2_299_cif.got.tgz:597892.got - 2010.06.03 11:33:40.
