data_PCOD9083488
_publ_section_title
;
Structure prediction by ZEFSAII (Michael W. Deem and Ramdas Pophale) SiO2 
 PCOD9083488
Probable space group: P -1
;
_chemical_formula_sum "Si O2"
_cell_formula_units_Z 16
_cell_length_a 7.922139
_cell_length_b 17.796785
_cell_length_c 13.417336
_cell_angle_alpha 36.676682
_cell_angle_beta 104.814869
_cell_angle_gamma 131.271561
_cell_volume 673.664819
_symmetry_space_group_name_H-M "P -1"
_symmetry_group_IT_number 2
_symmetry_cell_setting 'triclinic'
loop_
_space_group_symop_operation_xyz
x,y,z
-x,-y,-z
loop_
_atom_site_type_symbol
_atom_site_label
_atom_site_fract_x
_atom_site_fract_y
_atom_site_fract_z
Si Si1 0.041337 0.106479 0.793830
Si Si2 0.792604 0.723160 0.851628
Si Si3 0.514385 0.171843 0.128911
Si Si4 0.340630 0.875795 0.982202
Si Si5 0.552015 0.230827 0.703149
Si Si6 0.828411 0.640196 0.292221
Si Si7 0.880387 0.076149 0.499091
Si Si8 0.446311 0.517967 0.200406
O O1 0.277995 0.161511 0.714268
O O2 0.137553 0.289341 0.666545
O O3 0.768940 0.969684 0.830616
O O4 0.000000 0.000000 0.000000
O O5 0.045961 0.829874 0.700601
O O6 0.500000 0.500000 0.000000
O O7 0.722696 0.646702 0.035768
O O8 0.827618 0.895231 0.675602
O O9 0.714437 0.206054 0.049060
O O10 0.630513 0.379244 0.940229
O O11 0.390960 0.039616 0.351730
O O12 0.439305 0.818499 0.130372
O O13 0.102069 0.807797 0.085247
O O14 0.566898 0.117735 0.755286
O O15 0.786876 0.467995 0.470269
O O16 0.570690 0.564965 0.278472
O O17 0.172021 0.279013 0.385615
#
# Coordination Sequence:
#
# PCOD9083488 Si02
#       8
#     2   2   2   2   2   2   2   2
#     4  12  19  37  55  75 110 146 186 233 270 307
#     4   8  16  33  57  85 112 132 163 223 280 320
#     4  11  21  34  54  78 111 149 182 224 271 317
#     4  11  22  37  49  71 111 148 185 228 269 316
#     4  11  22  36  53  72 101 147 193 233 273 312
#     4  12  23  35  54  78 108 149 190 224 269 322
#     4   9  18  32  55  86 109 134 175 219 271 328
#     4  10  19  34  56  83 109 138 179 226 271 317
#
# _framework density 23.750684
#
# number of rings (size 3 to 8) (size 9 to 14) (size 15 to 20)
#    0.000    1.500    3.750    2.250    0.000    3.000 
#    0.000    0.000    0.000    0.750    0.000   30.625 
#    0.000    0.000    0.000    0.000    0.000    0.000 
#
# Total GULP energy -89178.807520 kJ/mol
# GULP energy per Si atom -5573.675470 kJ/mol
# Density = 2.369663 g / cm^3
# Si number density = 23.750684 Si / 1000 Ang^3
#
#
#
# Elastic Constant Matrix: (Units=GPa)
#
#
# Indices 1 2 3 4 5 6 
#
# 1 80.7314 14.3900 22.7004 0.4696 -13.2535 -21.8752
# 2 14.3900 71.4852 33.1841 -12.6411 3.7190 -15.2300
# 3 22.7004 33.1841 130.2120 -20.6438 -6.6272 -15.2222
# 4 0.4696 -12.6411 -20.6438 38.2586 -8.5066 -3.6134
# 5 -13.2535 3.7190 -6.6272 -8.5066 20.9581 8.1775
# 6 -21.8752 -15.2300 -15.2222 -3.6134 8.1775 32.5221
#
#
#
# Elastic Compliance Matrix: (Units=1/GPa)
#
#
# Indices 1 2 3 4 5 6 
#
# 1 0.016341 -0.001254 -0.000977 0.001318 0.007588 0.008185
# 2 -0.001254 0.018584 -0.003309 0.003620 -0.006970 0.008466
# 3 -0.000977 -0.003309 0.010036 0.005548 0.004637 0.001941
# 4 0.001318 0.003620 0.005548 0.033841 0.013520 0.005539
# 5 0.007588 -0.006970 0.004637 0.013520 0.064922 -0.010812
# 6 0.008185 0.008466 0.001941 0.005539 -0.010812 0.044461
#
#
# Mechanical properties :
#
#
# Convention : Reuss Voigt Hill
#
# Bulk Modulus (GPa) = 29.51447 46.99751 38.25599
# Shear Modulus (GPa) = 23.74651 32.49138 28.11894
#
# Velocity S-wave (km/s) = 3.16543 3.70269 3.44455
# Velocity P-wave (km/s) = 5.08072 6.17338 5.65351
#
# Compressibility (1/GPa) = 0.03388169
#
# Stress axis : x y z
#
# Youngs Moduli (GPa) = 61.19573 53.81102 99.64219
#
# Poissons Ratio (x) = 0.06746 0.09737
# Poissons Ratio (y) = 0.07671 0.32967
# Poissons Ratio (z) = 0.05980 0.17804
#
# Static dielectric constant tensor:
#      x y z
#    x 1.987780 -0.040040 -0.074800 
#    y -0.040040 1.968380 -0.003040 
#    z -0.074800 -0.003040 1.967500 
# 
# From -- ./inp_files/507257.got.cif
#   From: 2010.05.17/outbox.cif.g08.bks.cpg/sg2_254_cif.got.tgz:507257.got - 2010.06.03 11:33:40.
