data_PCOD9083593
_publ_section_title
;
Structure prediction by ZEFSAII (Michael W. Deem and Ramdas Pophale) SiO2 
 PCOD9083593
Probable space group: P -1
;
_chemical_formula_sum "Si O2"
_cell_formula_units_Z 16
_cell_length_a 13.986562
_cell_length_b 16.242906
_cell_length_c 9.520978
_cell_angle_alpha 39.421653
_cell_angle_beta 151.888621
_cell_angle_gamma 143.562701
_cell_volume 589.849591
_symmetry_space_group_name_H-M "P -1"
_symmetry_group_IT_number 2
_symmetry_cell_setting 'triclinic'
loop_
_space_group_symop_operation_xyz
x,y,z
-x,-y,-z
loop_
_atom_site_type_symbol
_atom_site_label
_atom_site_fract_x
_atom_site_fract_y
_atom_site_fract_z
Si Si1 0.121145 0.018531 0.402844
Si Si2 0.084694 0.391398 0.573600
Si Si3 0.687463 0.593931 0.448282
Si Si4 0.520026 0.100241 0.627244
Si Si5 0.842091 0.265264 0.069262
Si Si6 0.790592 0.562276 0.023855
Si Si7 0.151108 0.843530 0.227554
Si Si8 0.440161 0.186579 0.844918
O O1 0.281589 0.083388 0.391182
O O2 0.245474 0.117105 0.567343
O O3 0.112617 0.867599 0.637489
O O4 0.893139 0.021568 0.052284
O O5 0.220479 0.402164 0.595358
O O6 0.245221 0.464500 0.818027
O O7 0.934266 0.227106 0.640156
O O8 0.911400 0.464679 0.256452
O O9 0.625722 0.722442 0.249067
O O10 0.912804 0.613059 0.797476
O O11 0.444298 0.464304 0.314028
O O12 0.608345 0.140486 0.531704
O O13 0.694031 0.215917 0.803898
O O14 0.529658 0.950529 0.875263
O O15 0.672014 0.280098 0.942425
O O16 0.972936 0.722753 0.055256
#
# Coordination Sequence:
#
# PCOD9083593 Si02
#       8
#     2   2   2   2   2   2   2   2
#     4   9  18  35  57  81 107 140 178 208 251 316
#     4   9  22  39  54  76 101 135 185 224 261 310
#     4  12  19  33  60  78 102 142 176 217 265 306
#     4   9  18  35  56  79 113 143 165 212 261 301
#     4   9  19  34  55  83 110 139 174 208 254 316
#     4   9  22  39  54  76 101 135 185 224 261 310
#     4  10  19  34  57  80  99 135 185 220 253 316
#     4   9  19  34  55  83 110 139 174 208 254 316
#
# _framework density 27.12556
#
# number of rings (size 3 to 8) (size 9 to 14) (size 15 to 20)
#    0.750    1.750    0.000    4.125    0.000    4.000 
#    0.000    5.000    0.000   12.000    0.000    0.000 
#    0.000    0.000    0.000    0.000    0.000    0.000 
#
# Total GULP energy -89520.505893 kJ/mol
# GULP energy per Si atom -5595.031618 kJ/mol
# Density = 2.706382 g / cm^3
# Si number density = 27.125560 Si / 1000 Ang^3
#
#
#
# Elastic Constant Matrix: (Units=GPa)
#
#
# Indices 1 2 3 4 5 6 
#
# 1 118.5494 40.2843 32.5642 6.7498 38.2778 -6.9260
# 2 40.2843 80.1075 31.5471 25.7870 1.5919 -11.4842
# 3 32.5642 31.5471 81.4530 7.3047 11.4226 -9.6619
# 4 6.7498 25.7870 7.3047 50.9613 6.1518 7.9888
# 5 38.2778 1.5919 11.4226 6.1518 41.0006 4.0363
# 6 -6.9260 -11.4842 -9.6619 7.9888 4.0363 45.4416
#
#
#
# Elastic Compliance Matrix: (Units=1/GPa)
#
#
# Indices 1 2 3 4 5 6 
#
# 1 0.016565 -0.008735 -0.001371 0.004182 -0.015436 0.000662
# 2 -0.008735 0.023207 -0.005307 -0.011756 0.010045 0.004580
# 3 -0.001371 -0.005307 0.015477 0.000729 -0.003121 0.001890
# 4 0.004182 -0.011756 0.000729 0.026744 -0.007048 -0.006254
# 5 -0.015436 0.010045 -0.003121 -0.007048 0.040618 -0.002846
# 6 0.000662 0.004580 0.001890 -0.006254 -0.002846 0.025019
#
#
# Mechanical properties :
#
#
# Convention : Reuss Voigt Hill
#
# Bulk Modulus (GPa) = 40.94618 54.32234 47.63426
# Shear Modulus (GPa) = 26.79569 39.19498 32.99533
#
# Velocity S-wave (km/s) = 3.14640 3.80537 3.49147
# Velocity P-wave (km/s) = 5.32237 6.27515 5.81829
#
# Compressibility (1/GPa) = 0.02442230
#
# Stress axis : x y z
#
# Youngs Moduli (GPa) = 60.36910 43.09055 64.61113
#
# Poissons Ratio (x) = 0.37638 0.08861
# Poissons Ratio (y) = 0.52730 0.34291
# Poissons Ratio (z) = 0.08279 0.22869
#
# Static dielectric constant tensor:
#      x y z
#    x 2.146540 -0.009200 -0.029270 
#    y -0.009200 2.168590 0.007180 
#    z -0.029270 0.007180 2.046080 
# 
# From -- ./inp_files/456694.got.cif
#   From: 2010.05.17/outbox.cif.g08.bks.cpg/sg2_229_cif.got.tgz:456694.got - 2010.06.03 11:33:40.
