data_PCOD9083903
_publ_section_title
;
Structure prediction by ZEFSAII (Michael W. Deem and Ramdas Pophale) SiO2 
 PCOD9083903
Probable space group: P -1
;
_chemical_formula_sum "Si O2"
_cell_formula_units_Z 16
_cell_length_a 13.690132
_cell_length_b 10.353592
_cell_length_c 23.398287
_cell_angle_alpha 50.065075
_cell_angle_beta 29.046348
_cell_angle_gamma 32.007720
_cell_volume 787.226572
_symmetry_space_group_name_H-M "P -1"
_symmetry_group_IT_number 2
_symmetry_cell_setting 'triclinic'
loop_
_space_group_symop_operation_xyz
x,y,z
-x,-y,-z
loop_
_atom_site_type_symbol
_atom_site_label
_atom_site_fract_x
_atom_site_fract_y
_atom_site_fract_z
Si Si1 0.275788 0.563866 0.424479
Si Si2 0.315672 0.631513 0.257732
Si Si3 0.227357 0.287077 0.672960
Si Si4 0.230632 0.043781 0.646138
Si Si5 0.741035 0.705192 0.624465
Si Si6 0.239741 0.337394 0.976719
Si Si7 0.868346 0.731099 0.825741
Si Si8 0.432459 0.601507 0.569216
O O1 0.219438 0.695950 0.356206
O O2 0.368959 0.607167 0.420730
O O3 0.971242 0.643466 0.570058
O O4 0.580273 0.245149 0.349364
O O5 0.415701 0.374699 0.264113
O O6 0.581096 0.600399 0.124566
O O7 0.021216 0.838759 0.306577
O O8 0.071382 0.253272 0.719151
O O9 0.431874 0.296697 0.532014
O O10 0.001120 0.528552 0.764469
O O11 0.485745 0.006557 0.652602
O O12 0.500000 0.000000 0.500000
O O13 0.000000 0.500000 0.500000
O O14 0.509929 0.021774 0.917181
O O15 0.094533 0.382195 0.099650
O O16 0.000000 0.500000 0.000000
O O17 0.077832 0.765886 0.711975
O O18 0.500000 0.500000 0.500000
#
# Coordination Sequence:
#
# PCOD9083903 Si02
#       8
#     2   2   2   2   2   2   2   2
#     4  11  20  33  59  95 133 164 203 250 316 396
#     4  11  22  36  67  96 120 167 223 259 314 387
#     4  11  21  41  64 101 140 161 201 268 337 391
#     4  12  19  35  64  96 136 169 192 255 332 394
#     4  10  19  34  59 100 133 164 196 252 320 395
#     4  11  25  49  70  85 119 179 234 271 308 367
#     4  10  25  46  65  90 127 170 224 272 311 379
#     4  10  21  38  63  94 130 168 203 261 334 386
#
# _framework density 20.324517
#
# number of rings (size 3 to 8) (size 9 to 14) (size 15 to 20)
#    0.000    1.250    5.000    2.250    3.500    1.000 
#    6.750    2.500    0.000    0.000    0.000    0.000 
#    0.000    0.000    0.000    0.000    0.000    0.000 
#
# Total GULP energy -89180.561578 kJ/mol
# GULP energy per Si atom -5573.785099 kJ/mol
# Density = 2.027826 g / cm^3
# Si number density = 20.324517 Si / 1000 Ang^3
#
#
#
# Elastic Constant Matrix: (Units=GPa)
#
#
# Indices 1 2 3 4 5 6 
#
# 1 178.6903 50.2436 49.3574 4.8899 -4.4613 -17.4257
# 2 50.2436 82.2627 30.9790 -3.6076 -0.3892 -13.4813
# 3 49.3574 30.9790 86.2950 -10.6001 1.4803 0.0073
# 4 4.8899 -3.6076 -10.6001 24.5405 3.4893 -4.2918
# 5 -4.4613 -0.3892 1.4803 3.4893 28.8735 6.1582
# 6 -17.4257 -13.4813 0.0073 -4.2918 6.1582 39.8668
#
#
#
# Elastic Compliance Matrix: (Units=1/GPa)
#
#
# Indices 1 2 3 4 5 6 
#
# 1 0.007858 -0.003235 -0.003797 -0.003581 0.001428 0.001735
# 2 -0.003235 0.016383 -0.003707 0.002451 -0.001367 0.004602
# 3 -0.003797 -0.003707 0.015992 0.007066 -0.001914 -0.001860
# 4 -0.003581 0.002451 0.007066 0.046937 -0.007730 0.005509
# 5 0.001428 -0.001367 -0.001914 -0.007730 0.037238 -0.006422
# 6 0.001735 0.004602 -0.001860 0.005509 -0.006422 0.028983
#
#
# Mechanical properties :
#
#
# Convention : Reuss Voigt Hill
#
# Bulk Modulus (GPa) = 53.32257 67.60089 60.46173
# Shear Modulus (GPa) = 27.60572 33.10071 30.35322
#
# Velocity S-wave (km/s) = 3.68944 4.03998 3.86868
# Velocity P-wave (km/s) = 6.66647 7.42259 7.05467
#
# Compressibility (1/GPa) = 0.01875379
#
# Stress axis : x y z
#
# Youngs Moduli (GPa) = 127.26367 61.03811 62.53184
#
# Poissons Ratio (x) = 0.19746 0.23746
# Poissons Ratio (y) = 0.41171 0.23180
# Poissons Ratio (z) = 0.48328 0.22626
#
# Static dielectric constant tensor:
#      x y z
#    x 1.833220 0.015560 0.021660 
#    y 0.015560 1.782610 -0.024340 
#    z 0.021660 -0.024340 1.731720 
# 
# From -- ./inp_files/611958.got.cif
#   From: 2010.05.17/outbox.cif.g08.bks.cpg/sg2_306_cif.got.tgz:611958.got - 2010.06.03 11:33:40.
