data_PCOD9083029
_publ_section_title
;
Structure prediction by ZEFSAII (Michael W. Deem and Ramdas Pophale) SiO2 
 PCOD9083029
Probable space group: P -1
;
_chemical_formula_sum "Si O2"
_cell_formula_units_Z 16
_cell_length_a 10.780982
_cell_length_b 17.122853
_cell_length_c 7.051264
_cell_angle_alpha 42.286628
_cell_angle_beta 77.045479
_cell_angle_gamma 51.252274
_cell_volume 608.198849
_symmetry_space_group_name_H-M "P -1"
_symmetry_group_IT_number 2
_symmetry_cell_setting 'triclinic'
loop_
_space_group_symop_operation_xyz
x,y,z
-x,-y,-z
loop_
_atom_site_type_symbol
_atom_site_label
_atom_site_fract_x
_atom_site_fract_y
_atom_site_fract_z
Si Si1 0.833994 0.088055 0.037845
Si Si2 0.931887 0.395426 0.216449
Si Si3 0.455804 0.374485 0.081192
Si Si4 0.779871 0.715907 0.458371
Si Si5 0.278892 0.626090 0.213953
Si Si6 0.539847 0.713569 0.328396
Si Si7 0.087533 0.155105 0.265918
Si Si8 0.474248 0.930861 0.457411
O O1 0.761738 0.259762 0.809863
O O2 0.896863 0.980428 0.397682
O O3 0.661608 0.128143 0.946429
O O4 0.000000 0.000000 0.000000
O O5 0.038965 0.326595 0.502641
O O6 0.068447 0.255031 0.269803
O O7 0.744230 0.449719 0.192208
O O8 0.854814 0.562282 0.843972
O O9 0.598334 0.376528 0.964274
O O10 0.479496 0.325532 0.381654
O O11 0.483749 0.232046 0.221277
O O12 0.692021 0.715368 0.302482
O O13 0.611094 0.874821 0.344540
O O14 0.093975 0.716880 0.013145
O O15 0.379118 0.441455 0.547320
O O16 0.263542 0.065821 0.242377
O O17 0.500000 0.000000 0.500000
#
# Coordination Sequence:
#
# PCOD9083029 Si02
#       8
#     2   2   2   2   2   2   2   2
#     4  12  28  40  57  89 133 162 200 254 314 363
#     4   9  18  34  63  93 116 150 205 253 295 354
#     4  10  21  37  65  92 119 159 209 255 295 365
#     4   9  18  36  61  92 119 154 199 254 297 361
#     4  12  23  41  63  90 120 165 213 248 298 367
#     4  10  22  41  60  87 125 165 195 248 312 362
#     4  12  22  39  64  96 118 159 209 257 298 360
#     4  10  19  33  60  94 123 150 202 258 304 339
#
# _framework density 26.307183999999999
#
# number of rings (size 3 to 8) (size 9 to 14) (size 15 to 20)
#    0.000    1.750    5.000    1.875    5.250    0.000 
#    0.000    0.625    0.000    0.750    0.000    0.000 
#    0.000    0.000    0.000    0.000    0.000    0.000 
#
# Total GULP energy -89552.585057 kJ/mol
# GULP energy per Si atom -5597.036566 kJ/mol
# Density = 2.624731 g / cm^3
# Si number density = 26.307184 Si / 1000 Ang^3
#
#
#
# Elastic Constant Matrix: (Units=GPa)
#
#
# Indices 1 2 3 4 5 6 
#
# 1 79.8173 26.8486 45.1290 -5.7581 26.7727 0.7774
# 2 26.8486 98.6014 22.3474 -27.6860 0.2542 2.7780
# 3 45.1290 22.3474 126.5469 -10.5637 20.7352 -9.2606
# 4 -5.7581 -27.6860 -10.5637 38.1328 -9.0266 1.4732
# 5 26.7727 0.2542 20.7352 -9.0266 59.4890 -6.9759
# 6 0.7774 2.7780 -9.2606 1.4732 -6.9759 49.4183
#
#
#
# Elastic Compliance Matrix: (Units=1/GPa)
#
#
# Indices 1 2 3 4 5 6 
#
# 1 0.019611 -0.005206 -0.005278 -0.004053 -0.007812 -0.001987
# 2 -0.005206 0.014697 -0.000548 0.010709 0.004026 -0.000598
# 3 -0.005278 -0.000548 0.010261 0.001393 -0.000766 0.001887
# 4 -0.004053 0.010709 0.001393 0.035353 0.006610 -0.000398
# 5 -0.007812 0.004026 -0.000766 0.006610 0.021889 0.002646
# 6 -0.001987 -0.000598 0.001887 -0.000398 0.002646 0.021039
#
#
# Mechanical properties :
#
#
# Convention : Reuss Voigt Hill
#
# Bulk Modulus (GPa) = 44.43458 54.84617 49.64037
# Shear Modulus (GPa) = 32.80482 43.45074 38.12778
#
# Velocity S-wave (km/s) = 3.53511 4.06848 3.81114
# Velocity P-wave (km/s) = 5.79569 6.55467 6.18683
#
# Compressibility (1/GPa) = 0.02250500
#
# Stress axis : x y z
#
# Youngs Moduli (GPa) = 50.99119 68.04138 97.45374
#
# Poissons Ratio (x) = 0.35420 0.51438
# Poissons Ratio (y) = 0.26544 0.05345
# Poissons Ratio (z) = 0.26914 0.03732
#
# Static dielectric constant tensor:
#      x y z
#    x 2.224190 0.006670 -0.040390 
#    y 0.006670 2.066470 0.040260 
#    z -0.040390 0.040260 2.055740 
# 
# From -- ./inp_files/277465.got.cif
#   From: 2010.05.17/outbox.cif.g08.bks.cpg/sg2_139_cif.got.tgz:277465.got - 2010.06.03 11:33:40.
