data_PCOD9083048
_publ_section_title
;
Structure prediction by ZEFSAII (Michael W. Deem and Ramdas Pophale) SiO2 
 PCOD9083048
Probable space group: P -1
;
_chemical_formula_sum "Si O2"
_cell_formula_units_Z 13
_cell_length_a 11.287170
_cell_length_b 7.212068
_cell_length_c 13.954652
_cell_angle_alpha 82.587776
_cell_angle_beta 141.347000
_cell_angle_gamma 117.321101
_cell_volume 573.977707
_symmetry_space_group_name_H-M "P -1"
_symmetry_group_IT_number 2
_symmetry_cell_setting 'triclinic'
loop_
_space_group_symop_operation_xyz
x,y,z
-x,-y,-z
loop_
_atom_site_type_symbol
_atom_site_label
_atom_site_fract_x
_atom_site_fract_y
_atom_site_fract_z
Si Si1 0.355418 0.653732 0.393682
Si Si2 0.855327 0.544567 0.527620
Si Si3 0.199622 0.001504 0.017459
Si Si4 0.688718 0.138011 0.311061
Si Si5 0.196308 0.958447 0.234883
Si Si6 0.000000 0.500000 0.000000
Si Si7 0.484325 0.627199 0.278291
O O1 0.192028 0.498614 0.386758
O O2 0.214941 0.742449 0.242299
O O3 0.445974 0.574634 0.371881
O O4 0.588595 0.871422 0.572876
O O5 0.804519 0.318374 0.459935
O O6 0.661557 0.572526 0.359483
O O7 0.112065 0.758627 0.649624
O O8 0.244038 0.073615 0.153509
O O9 0.064036 0.728119 0.958917
O O10 0.454516 0.108757 0.129435
O O11 0.034006 0.071580 0.869474
O O12 0.610463 0.895550 0.319782
O O13 0.222212 0.508911 0.088711
#
# Coordination Sequence:
#
# PCOD9083048 Si02
#       7
#     2   2   2   2   2   1   2
#     4  11  19  36  57  91 113 142 191 248 282 333
#     4  11  22  35  59  84 118 155 189 231 293 340
#     4  10  19  36  56  84 113 153 188 238 277 344
#     4  10  21  39  56  83 118 155 193 230 277 356
#     4  10  19  33  61  81 115 146 190 238 293 321
#     4  10  20  32  56  88 112 144 194 238 280 340
#     4  11  22  37  60  87 118 147 195 241 284 334
#
# _framework density 22.648962000000001
#
# number of rings (size 3 to 8) (size 9 to 14) (size 15 to 20)
#    0.000    1.538    4.615    2.769    2.154    0.000 
#    0.000    0.769    0.000   10.154    0.000    0.000 
#    0.000    0.000    0.000    0.000    0.000    0.000 
#
# Total GULP energy -72418.811110 kJ/mol
# GULP energy per Si atom -5570.677778 kJ/mol
# Density = 2.259741 g / cm^3
# Si number density = 22.648962 Si / 1000 Ang^3
#
#
#
# Elastic Constant Matrix: (Units=GPa)
#
#
# Indices 1 2 3 4 5 6 
#
# 1 81.2066 36.3475 27.5412 -1.3284 37.7297 10.5171
# 2 36.3475 88.3112 26.0769 7.6659 28.1176 4.5589
# 3 27.5412 26.0769 90.5218 0.8709 39.1669 13.9614
# 4 -1.3284 7.6659 0.8709 33.9363 2.6117 9.9338
# 5 37.7297 28.1176 39.1669 2.6117 51.9125 6.8266
# 6 10.5171 4.5589 13.9614 9.9338 6.8266 39.7731
#
#
#
# Elastic Compliance Matrix: (Units=1/GPa)
#
#
# Indices 1 2 3 4 5 6 
#
# 1 0.020750 -0.004913 0.001386 0.004122 -0.013122 -0.004187
# 2 -0.004913 0.015164 -0.001593 -0.003797 -0.003469 0.001664
# 3 0.001386 -0.001593 0.017262 0.002306 -0.012674 -0.004644
# 4 0.004122 -0.003797 0.002306 0.033380 -0.003140 -0.009262
# 5 -0.013122 -0.003469 -0.012674 -0.003140 0.040108 0.002217
# 6 -0.004187 0.001664 -0.004644 -0.009262 0.002217 0.029622
#
#
# Mechanical properties :
#
#
# Convention : Reuss Voigt Hill
#
# Bulk Modulus (GPa) = 23.29045 48.88562 36.08804
# Shear Modulus (GPa) = 27.64913 36.46266 32.05590
#
# Velocity S-wave (km/s) = 3.49774 4.01671 3.76618
# Velocity P-wave (km/s) = 5.15924 6.56833 5.90596
#
# Compressibility (1/GPa) = 0.04293606
#
# Stress axis : x y z
#
# Youngs Moduli (GPa) = 48.19323 65.94478 57.93091
#
# Poissons Ratio (x) = 0.32400 -0.08030
# Poissons Ratio (y) = 0.23678 0.09228
# Poissons Ratio (z) = -0.06680 0.10504
#
# Static dielectric constant tensor:
#      x y z
#    x 1.818290 -0.031460 0.071750 
#    y -0.031460 1.815520 -0.076750 
#    z 0.071750 -0.076750 1.704070 
# 
# From -- ./inp_files/192774.got.cif
#   From: 2010.05.17/outbox.cif.g08.bks.cpg/sg2_97_cif.got.tgz:192774.got - 2010.06.03 11:33:40.
