data_PCOD9083863
_publ_section_title
;
Structure prediction by ZEFSAII (Michael W. Deem and Ramdas Pophale) SiO2 
 PCOD9083863
Probable space group: P -1
;
_chemical_formula_sum "Si O2"
_cell_formula_units_Z 16
_cell_length_a 9.377096
_cell_length_b 10.820254
_cell_length_c 15.095844
_cell_angle_alpha 141.077170
_cell_angle_beta 45.398893
_cell_angle_gamma 121.746036
_cell_volume 684.477729
_symmetry_space_group_name_H-M "P -1"
_symmetry_group_IT_number 2
_symmetry_cell_setting 'triclinic'
loop_
_space_group_symop_operation_xyz
x,y,z
-x,-y,-z
loop_
_atom_site_type_symbol
_atom_site_label
_atom_site_fract_x
_atom_site_fract_y
_atom_site_fract_z
Si Si1 0.376453 0.584335 0.465302
Si Si2 0.182452 0.004980 0.111364
Si Si3 0.344948 0.916231 0.317375
Si Si4 0.736371 0.321659 0.240721
Si Si5 0.552222 0.206335 0.980544
Si Si6 0.987437 0.680730 0.529739
Si Si7 0.437049 0.644952 0.280477
Si Si8 0.075802 0.267635 0.606003
O O1 0.535693 0.407834 0.325897
O O2 0.326916 0.704133 0.643545
O O3 0.167430 0.486358 0.475235
O O4 0.459062 0.686775 0.398796
O O5 0.357977 0.151123 0.091130
O O6 0.004486 0.148024 0.305284
O O7 0.163583 0.863421 0.956868
O O8 0.262759 0.869714 0.082230
O O9 0.461598 0.812972 0.290734
O O10 0.147551 0.792467 0.309449
O O11 0.242337 0.128070 0.503785
O O12 0.464953 0.904123 0.166984
O O13 0.881527 0.504970 0.275372
O O14 0.553625 0.439713 0.095049
O O15 0.889326 0.781305 0.540297
O O16 0.199671 0.606111 0.357099
#
# Coordination Sequence:
#
# PCOD9083863 Si02
#       8
#     2   2   2   2   2   2   2   2
#     4  10  19  34  58  88 115 153 189 241 291 348
#     4  11  20  35  62  93 112 149 193 251 286 341
#     4  10  21  37  62  84 118 155 203 238 278 348
#     4  10  21  35  61  87 121 149 191 246 300 337
#     4  11  21  35  61  93 117 145 203 242 287 341
#     4  10  19  36  64  87 116 149 201 244 286 336
#     4  11  21  36  60  87 119 157 194 240 289 342
#     4   9  20  39  62  87 111 158 202 237 283 348
#
# _framework density 23.375488000000001
#
# number of rings (size 3 to 8) (size 9 to 14) (size 15 to 20)
#    0.000    1.750    3.750    1.500    3.500    0.000 
#    0.000    1.875    0.000    0.000    0.000    0.000 
#    0.000    0.000    0.000    0.000    0.000    0.000 
#
# Total GULP energy -89353.417931 kJ/mol
# GULP energy per Si atom -5584.588621 kJ/mol
# Density = 2.332228 g / cm^3
# Si number density = 23.375488 Si / 1000 Ang^3
#
#
#
# Elastic Constant Matrix: (Units=GPa)
#
#
# Indices 1 2 3 4 5 6 
#
# 1 61.2861 11.0547 22.5015 4.4526 18.9915 -15.3577
# 2 11.0547 43.8125 16.7596 6.3450 7.3675 -26.4123
# 3 22.5015 16.7596 121.3329 20.3554 21.2569 -7.6214
# 4 4.4526 6.3450 20.3554 31.2065 -0.3659 0.9996
# 5 18.9915 7.3675 21.2569 -0.3659 34.1946 1.7739
# 6 -15.3577 -26.4123 -7.6214 0.9996 1.7739 51.3355
#
#
#
# Elastic Compliance Matrix: (Units=1/GPa)
#
#
# Indices 1 2 3 4 5 6 
#
# 1 0.022625 0.002420 -0.001199 -0.003356 -0.012811 0.008344
# 2 0.002420 0.037900 -0.001340 -0.007950 -0.009827 0.020519
# 3 -0.001199 -0.001340 0.010876 -0.006749 -0.005926 0.000903
# 4 -0.003356 -0.007950 -0.006749 0.038872 0.008559 -0.007149
# 5 -0.012811 -0.009827 -0.005926 0.008559 0.042844 -0.011415
# 6 0.008344 0.020519 0.000903 -0.007149 -0.011415 0.033201
#
#
# Mechanical properties :
#
#
# Convention : Reuss Voigt Hill
#
# Bulk Modulus (GPa) = 14.05183 36.34034 25.19609
# Shear Modulus (GPa) = 23.77820 35.08837 29.43329
#
# Velocity S-wave (km/s) = 3.19286 3.87857 3.55230
# Velocity P-wave (km/s) = 4.42910 5.96975 5.25618
#
# Compressibility (1/GPa) = 0.07116509
#
# Stress axis : x y z
#
# Youngs Moduli (GPa) = 44.19880 26.38509 91.94246
#
# Poissons Ratio (x) = -0.06386 0.11021
# Poissons Ratio (y) = -0.10697 0.12318
# Poissons Ratio (z) = 0.05298 0.03535
#
# Static dielectric constant tensor:
#      x y z
#    x 1.956660 -0.061560 -0.006440 
#    y -0.061560 1.949110 0.019560 
#    z -0.006440 0.019560 1.830420 
# 
# From -- ./inp_files/269037.got.cif
#   From: 2010.05.17/outbox.cif.g08.bks.cpg/sg2_135_cif.got.tgz:269037.got - 2010.06.03 11:33:40.
