data_PCOD9083637
_publ_section_title
;
Structure prediction by ZEFSAII (Michael W. Deem and Ramdas Pophale) SiO2 
 PCOD9083637
Probable space group: P -1
;
_chemical_formula_sum "Si O2"
_cell_formula_units_Z 16
_cell_length_a 8.128049
_cell_length_b 7.918122
_cell_length_c 18.043687
_cell_angle_alpha 103.835128
_cell_angle_beta 113.611457
_cell_angle_gamma 120.707133
_cell_volume 755.994958
_symmetry_space_group_name_H-M "P -1"
_symmetry_group_IT_number 2
_symmetry_cell_setting 'triclinic'
loop_
_space_group_symop_operation_xyz
x,y,z
-x,-y,-z
loop_
_atom_site_type_symbol
_atom_site_label
_atom_site_fract_x
_atom_site_fract_y
_atom_site_fract_z
Si Si1 0.848977 0.293231 0.285614
Si Si2 0.891385 0.606066 0.956736
Si Si3 0.219205 0.350004 0.912037
Si Si4 0.231035 0.754149 0.907723
Si Si5 0.688105 0.797480 0.227534
Si Si6 0.284265 0.732632 0.591147
Si Si7 0.732703 0.866421 0.406907
Si Si8 0.588337 0.257571 0.534658
O O1 0.792335 0.266633 0.186600
O O2 0.678818 0.273441 0.315310
O O3 0.125210 0.539569 0.373342
O O4 0.814018 0.068297 0.275191
O O5 0.602147 0.388223 0.864715
O O6 0.036125 0.733776 0.919771
O O7 0.920738 0.762730 0.046371
O O8 0.000000 0.500000 0.000000
O O9 0.198922 0.536359 0.905421
O O10 0.175193 0.217329 0.814516
O O11 0.500000 0.500000 0.000000
O O12 0.500000 0.000000 0.000000
O O13 0.701255 0.746837 0.310344
O O14 0.436988 0.727417 0.556797
O O15 0.000000 0.500000 0.500000
O O16 0.307997 0.955087 0.601516
O O17 0.552981 0.718843 0.428712
O O18 0.000000 0.000000 0.500000
O O19 0.500000 0.000000 0.500000
#
# Coordination Sequence:
#
# PCOD9083637 Si02
#       8
#     2   2   2   2   2   2   2   2
#     4  10  19  34  57  83 110 142 184 234 276 324
#     4   9  18  35  58  80 107 146 185 227 274 323
#     4   9  19  36  55  77 109 145 178 223 277 326
#     4  11  21  35  58  86 110 143 188 227 266 329
#     4  10  20  37  55  80 115 148 180 226 283 331
#     4   8  17  34  54  75 103 140 181 227 270 314
#     4  10  20  34  54  78 108 144 181 224 274 328
#     4   9  18  35  58  81 105 144 188 230 275 323
#
# _framework density 21.164162000000001
#
# number of rings (size 3 to 8) (size 9 to 14) (size 15 to 20)
#    0.000    2.500    0.000    3.000    0.000    3.000 
#    0.000   16.250    0.000    9.000    0.000    0.000 
#    0.000    0.000    0.000    0.000    0.000    0.000 
#
# Total GULP energy -89068.089163 kJ/mol
# GULP energy per Si atom -5566.755573 kJ/mol
# Density = 2.111599 g / cm^3
# Si number density = 21.164162 Si / 1000 Ang^3
#
#
#
# Elastic Constant Matrix: (Units=GPa)
#
#
# Indices 1 2 3 4 5 6 
#
# 1 62.0592 30.5950 62.1938 -30.7827 -31.4955 30.5431
# 2 30.5950 67.6291 40.6026 -10.4409 -21.3951 28.6122
# 3 62.1938 40.6026 141.9716 -28.5166 -41.7358 34.9390
# 4 -30.7827 -10.4409 -28.5166 50.0396 17.5406 -18.6946
# 5 -31.4955 -21.3951 -41.7358 17.5406 44.6722 -13.8190
# 6 30.5431 28.6122 34.9390 -18.6946 -13.8190 35.2149
#
#
#
# Elastic Compliance Matrix: (Units=1/GPa)
#
#
# Indices 1 2 3 4 5 6 
#
# 1 0.050054 -0.001893 -0.009811 0.012359 0.014172 -0.020020
# 2 -0.001893 0.025107 -0.001205 -0.005520 0.006137 -0.018084
# 3 -0.009811 -0.001205 0.013503 -0.001282 0.004786 -0.002711
# 4 0.012359 -0.005520 -0.001282 0.030824 -0.004216 0.009747
# 5 0.014172 0.006137 0.004786 -0.004216 0.038626 -0.009108
# 6 -0.020020 -0.018084 -0.002711 0.009747 -0.009108 0.064744
#
#
# Mechanical properties :
#
#
# Convention : Reuss Voigt Hill
#
# Bulk Modulus (GPa) = 15.91182 59.82694 37.86938
# Shear Modulus (GPa) = 18.54434 35.20321 26.87378
#
# Velocity S-wave (km/s) = 2.96330 4.08283 3.56726
# Velocity P-wave (km/s) = 4.38666 7.11023 5.90755
#
# Compressibility (1/GPa) = 0.06284634
#
# Stress axis : x y z
#
# Youngs Moduli (GPa) = 19.97823 39.83021 74.05937
#
# Poissons Ratio (x) = 0.07539 0.72657
# Poissons Ratio (y) = 0.03782 0.08926
# Poissons Ratio (z) = 0.19600 0.04800
#
# Static dielectric constant tensor:
#      x y z
#    x 1.828830 0.033380 -0.082390 
#    y 0.033380 1.797800 -0.053840 
#    z -0.082390 -0.053840 1.781130 
# 
# From -- ./inp_files/555002.got.cif
#   From: 2010.05.17/outbox.cif.g08.bks.cpg/sg2_278_cif.got.tgz:555002.got - 2010.06.03 11:33:40.
