data_PCOD9083478
_publ_section_title
;
Structure prediction by ZEFSAII (Michael W. Deem and Ramdas Pophale) SiO2 
 PCOD9083478
Probable space group: P -1
;
_chemical_formula_sum "Si O2"
_cell_formula_units_Z 14
_cell_length_a 14.995385
_cell_length_b 7.292006
_cell_length_c 12.575569
_cell_angle_alpha 48.856433
_cell_angle_beta 149.438213
_cell_angle_gamma 118.773941
_cell_volume 513.337263
_symmetry_space_group_name_H-M "P -1"
_symmetry_group_IT_number 2
_symmetry_cell_setting 'triclinic'
loop_
_space_group_symop_operation_xyz
x,y,z
-x,-y,-z
loop_
_atom_site_type_symbol
_atom_site_label
_atom_site_fract_x
_atom_site_fract_y
_atom_site_fract_z
Si Si1 0.888516 0.072932 0.004989
Si Si2 0.122283 0.246865 0.588428
Si Si3 0.647597 0.220018 0.885883
Si Si4 0.819709 0.256996 0.423019
Si Si5 0.259226 0.288707 0.143776
Si Si6 0.419268 0.829819 0.628241
Si Si7 0.755292 0.523022 0.567074
O O1 0.704378 0.114919 0.867650
O O2 0.880956 0.346860 0.847079
O O3 0.883224 0.857533 0.995249
O O4 0.048843 0.960210 0.291014
O O5 0.165112 0.473891 0.617324
O O6 0.146016 0.308596 0.466833
O O7 0.920042 0.235045 0.420886
O O8 0.270071 0.003115 0.865169
O O9 0.755748 0.438068 0.930707
O O10 0.435253 0.328699 0.638456
O O11 0.626768 0.209710 0.280601
O O12 0.384686 0.292213 0.167213
O O13 0.358431 0.102903 0.408958
O O14 0.302894 0.670552 0.501402
#
# Coordination Sequence:
#
# PCOD9083478 Si02
#       7
#     2   2   2   2   2   2   2
#     4  10  20  34  58  86 106 137 183 230 268 312
#     4   9  18  32  53  77 108 151 180 210 269 332
#     4  10  19  34  56  82 111 142 178 223 272 321
#     4   9  18  34  56  80 109 145 183 217 269 327
#     4   9  18  33  55  82 109 137 180 227 268 313
#     4   8  16  31  52  78 108 143 175 219 271 317
#     4   9  17  30  54  81 105 139 183 223 266 314
#
# _framework density 27.272516
#
# number of rings (size 3 to 8) (size 9 to 14) (size 15 to 20)
#    0.000    2.857    0.000    1.714    0.000    5.143 
#    0.000    3.571    0.000   77.143    0.000    0.000 
#    0.000    0.000    0.000    0.000    0.000    0.000 
#
# Total GULP energy -78365.774469 kJ/mol
# GULP energy per Si atom -5597.555319 kJ/mol
# Density = 2.721044 g / cm^3
# Si number density = 27.272516 Si / 1000 Ang^3
#
#
#
# Elastic Constant Matrix: (Units=GPa)
#
#
# Indices 1 2 3 4 5 6 
#
# 1 152.9468 27.1912 40.7553 -0.3003 15.7549 22.1519
# 2 27.1912 109.5150 41.4499 -19.2627 -5.2274 -5.7030
# 3 40.7553 41.4499 123.1976 -34.8426 1.6707 -1.5005
# 4 -0.3003 -19.2627 -34.8426 40.4948 7.4886 0.0983
# 5 15.7549 -5.2274 1.6707 7.4886 38.4110 -4.7915
# 6 22.1519 -5.7030 -1.5005 0.0983 -4.7915 40.8135
#
#
#
# Elastic Compliance Matrix: (Units=1/GPa)
#
#
# Indices 1 2 3 4 5 6 
#
# 1 0.008956 -0.002037 -0.003087 -0.002809 -0.003982 -0.005720
# 2 -0.002037 0.011276 -0.002276 0.002968 0.002247 0.002854
# 3 -0.003087 -0.002276 0.012821 0.010177 -0.001380 0.001642
# 4 -0.002809 0.002968 0.010177 0.035891 -0.005689 0.001559
# 5 -0.003982 0.002247 -0.001380 -0.005689 0.029884 0.005947
# 6 -0.005720 0.002854 0.001642 0.001559 0.005947 0.028760
#
#
# Mechanical properties :
#
#
# Convention : Reuss Voigt Hill
#
# Bulk Modulus (GPa) = 54.78847 67.16136 60.97492
# Shear Modulus (GPa) = 33.67567 42.36140 38.01854
#
# Velocity S-wave (km/s) = 3.51776 3.94542 3.73771
# Velocity P-wave (km/s) = 6.05247 6.74052 6.40574
#
# Compressibility (1/GPa) = 0.01825202
#
# Stress axis : x y z
#
# Youngs Moduli (GPa) = 111.65352 88.68036 77.99474
#
# Poissons Ratio (x) = 0.18066 0.24081
# Poissons Ratio (y) = 0.22746 0.17755
# Poissons Ratio (z) = 0.34473 0.20187
#
# Static dielectric constant tensor:
#      x y z
#    x 2.205080 0.074860 0.043460 
#    y 0.074860 2.205040 0.066170 
#    z 0.043460 0.066170 2.117580 
# 
# From -- ./inp_files/195815.got.cif
#   From: 2010.05.17/outbox.cif.g08.bks.cpg/sg2_98_cif.got.tgz:195815.got - 2010.06.03 11:33:40.
