data_PCOD9083487
_publ_section_title
;
Structure prediction by ZEFSAII (Michael W. Deem and Ramdas Pophale) SiO2 
 PCOD9083487
Probable space group: P -1
;
_chemical_formula_sum "Si O2"
_cell_formula_units_Z 16
_cell_length_a 8.202911
_cell_length_b 13.271322
_cell_length_c 11.774318
_cell_angle_alpha 51.983574
_cell_angle_beta 106.716188
_cell_angle_gamma 136.293230
_cell_volume 667.891261
_symmetry_space_group_name_H-M "P -1"
_symmetry_group_IT_number 2
_symmetry_cell_setting 'triclinic'
loop_
_space_group_symop_operation_xyz
x,y,z
-x,-y,-z
loop_
_atom_site_type_symbol
_atom_site_label
_atom_site_fract_x
_atom_site_fract_y
_atom_site_fract_z
Si Si1 0.403080 0.197899 0.753430
Si Si2 0.825405 0.419678 0.129890
Si Si3 0.843240 0.896924 0.654004
Si Si4 0.559685 0.246900 0.490211
Si Si5 0.050168 0.211968 0.660819
Si Si6 0.935844 0.196527 0.082401
Si Si7 0.061309 0.477149 0.350823
Si Si8 0.533095 0.956266 0.771861
O O1 0.442049 0.219239 0.607866
O O2 0.289653 0.271853 0.715289
O O3 0.677591 0.315745 0.767170
O O4 0.191144 0.982082 0.894787
O O5 0.115631 0.406515 0.932855
O O6 0.558922 0.228124 0.169547
O O7 0.924711 0.376972 0.274568
O O8 0.000000 0.500000 0.000000
O O9 0.573508 0.765342 0.636232
O O10 0.912419 0.800582 0.793872
O O11 0.000000 0.000000 0.500000
O O12 0.932635 0.054756 0.649747
O O13 0.850201 0.434591 0.409892
O O14 0.538478 0.079986 0.599914
O O15 0.121594 0.380453 0.495827
O O16 0.813143 0.103689 0.768991
O O17 0.684932 0.123578 0.131734
#
# Coordination Sequence:
#
# PCOD9083487 Si02
#       8
#     2   2   2   2   2   2   2   2
#     4  10  20  36  53  79 111 141 172 219 268 310
#     4  10  21  35  54  78 105 140 181 220 260 312
#     4  11  17  32  54  77 105 135 167 219 278 304
#     4  10  19  34  56  83 108 136 173 221 271 313
#     4  10  20  32  56  82 107 131 175 227 268 311
#     4   9  20  35  55  74 107 146 174 211 263 318
#     4  11  22  34  55  80 107 142 181 216 259 318
#     4   9  17  34  54  80 103 133 175 221 264 308
#
# _framework density 23.955994
#
# number of rings (size 3 to 8) (size 9 to 14) (size 15 to 20)
#    0.000    2.000    3.750    2.250    1.750    2.500 
#    0.000    5.625    0.000    3.000    0.000    0.000 
#    0.000    0.000    0.000    0.000    0.000    0.000 
#
# Total GULP energy -89240.604087 kJ/mol
# GULP energy per Si atom -5577.537755 kJ/mol
# Density = 2.390147 g / cm^3
# Si number density = 23.955994 Si / 1000 Ang^3
#
#
#
# Elastic Constant Matrix: (Units=GPa)
#
#
# Indices 1 2 3 4 5 6 
#
# 1 75.3152 10.9881 20.6194 -5.7121 7.5481 25.7349
# 2 10.9881 60.3100 16.1129 -16.0075 0.5524 29.3565
# 3 20.6194 16.1129 84.6894 -20.8684 6.1760 4.1288
# 4 -5.7121 -16.0075 -20.8684 34.4206 -5.9550 -10.2643
# 5 7.5481 0.5524 6.1760 -5.9550 20.5002 -3.4241
# 6 25.7349 29.3565 4.1288 -10.2643 -3.4241 36.1508
#
#
#
# Elastic Compliance Matrix: (Units=1/GPa)
#
#
# Indices 1 2 3 4 5 6 
#
# 1 0.023572 0.008642 -0.006675 -0.006125 -0.013024 -0.026009
# 2 0.008642 0.032917 -0.005672 0.002490 -0.007014 -0.032192
# 3 -0.006675 -0.005672 0.016199 0.009580 0.002257 0.010442
# 4 -0.006125 0.002490 0.009580 0.041682 0.013813 0.014387
# 5 -0.013024 -0.007014 0.002257 0.013813 0.061177 0.024426
# 6 -0.026009 -0.032192 0.010442 0.014387 0.024426 0.077524
#
#
# Mechanical properties :
#
#
# Convention : Reuss Voigt Hill
#
# Bulk Modulus (GPa) = 15.31911 35.08393 25.20152
# Shear Modulus (GPa) = 17.71540 29.72060 23.71800
#
# Velocity S-wave (km/s) = 2.72232 3.52608 3.14994
# Velocity P-wave (km/s) = 4.03608 5.59058 4.87568
#
# Compressibility (1/GPa) = 0.06527795
#
# Stress axis : x y z
#
# Youngs Moduli (GPa) = 42.42334 30.37955 61.73190
#
# Poissons Ratio (x) = -0.26255 0.41205
# Poissons Ratio (y) = -0.36663 0.35016
# Poissons Ratio (z) = 0.28317 0.17232
#
# Static dielectric constant tensor:
#      x y z
#    x 2.049680 0.006470 0.001760 
#    y 0.006470 1.978020 -0.028020 
#    z 0.001760 -0.028020 1.911680 
# 
# From -- ./inp_files/260211.got.cif
#   From: 2010.05.17/outbox.cif.g08.bks.cpg/sg2_131_cif.got.tgz:260211.got - 2010.06.03 11:33:40.
