data_PCOD9083581
_publ_section_title
;
Structure prediction by ZEFSAII (Michael W. Deem and Ramdas Pophale) SiO2 
 PCOD9083581
Probable space group: P -1
;
_chemical_formula_sum "Si O2"
_cell_formula_units_Z 16
_cell_length_a 15.592030
_cell_length_b 11.551368
_cell_length_c 13.203415
_cell_angle_alpha 30.006630
_cell_angle_beta 49.045637
_cell_angle_gamma 38.640363
_cell_volume 740.943709
_symmetry_space_group_name_H-M "P -1"
_symmetry_group_IT_number 2
_symmetry_cell_setting 'triclinic'
loop_
_space_group_symop_operation_xyz
x,y,z
-x,-y,-z
loop_
_atom_site_type_symbol
_atom_site_label
_atom_site_fract_x
_atom_site_fract_y
_atom_site_fract_z
Si Si1 0.657858 0.363238 0.561770
Si Si2 0.433802 0.937686 0.264131
Si Si3 0.144103 0.824272 0.861582
Si Si4 0.198148 0.212794 0.631189
Si Si5 0.640584 0.286094 0.966644
Si Si6 0.689789 0.684639 0.736375
Si Si7 0.133720 0.788260 0.310563
Si Si8 0.429385 0.444236 0.832380
O O1 0.592993 0.674221 0.333251
O O2 0.662616 0.157455 0.630458
O O3 0.791196 0.242787 0.618224
O O4 0.528178 0.434950 0.678442
O O5 0.396755 0.055883 0.317553
O O6 0.410067 0.193090 0.022739
O O7 0.279431 0.713684 0.771852
O O8 0.113504 0.083551 0.759614
O O9 0.187987 0.565702 0.098996
O O10 0.015226 0.934867 0.805345
O O11 0.262732 0.234278 0.460877
O O12 0.127566 0.516561 0.506416
O O13 0.308690 0.980890 0.799643
O O14 0.612496 0.546969 0.857225
O O15 0.767847 0.219600 0.846809
O O16 0.519791 0.369085 0.920513
#
# Coordination Sequence:
#
# PCOD9083581 Si02
#       8
#     2   2   2   2   2   2   2   2
#     4  10  21  37  59  80 105 140 181 224 266 314
#     4  10  20  36  58  81 105 138 182 225 266 312
#     4  10  21  34  52  80 113 142 175 215 267 326
#     4  10  19  34  57  78 109 147 176 216 269 318
#     4   9  20  35  56  82 108 139 180 221 265 319
#     4   9  20  35  53  81 112 140 176 223 268 315
#     4  10  21  36  53  81 112 141 177 218 264 320
#     4  10  20  37  57  81 109 139 177 224 270 316
#
# _framework density 21.594082
#
# number of rings (size 3 to 8) (size 9 to 14) (size 15 to 20)
#    0.000    2.250    0.000    2.250    0.000   11.000 
#    0.000   11.250    0.000    6.750    0.000    0.000 
#    0.000    0.000    0.000    0.000    0.000    0.000 
#
# Total GULP energy -89357.227094 kJ/mol
# GULP energy per Si atom -5584.826693 kJ/mol
# Density = 2.154493 g / cm^3
# Si number density = 21.594082 Si / 1000 Ang^3
#
#
#
# Elastic Constant Matrix: (Units=GPa)
#
#
# Indices 1 2 3 4 5 6 
#
# 1 143.3971 37.2352 23.3872 -31.1191 15.0035 -6.2418
# 2 37.2352 37.7827 8.5090 -11.2165 -0.2465 -3.1843
# 3 23.3872 8.5090 75.8552 -16.6867 -2.1861 3.7683
# 4 -31.1191 -11.2165 -16.6867 30.5564 9.0726 2.7802
# 5 15.0035 -0.2465 -2.1861 9.0726 23.6029 -6.6623
# 6 -6.2418 -3.1843 3.7683 2.7802 -6.6623 37.7339
#
#
#
# Elastic Compliance Matrix: (Units=1/GPa)
#
#
# Indices 1 2 3 4 5 6 
#
# 1 0.014778 -0.009964 -0.000175 0.016436 -0.016540 -0.002510
# 2 -0.009964 0.036924 -0.000885 0.000524 0.007225 0.002793
# 3 -0.000175 -0.000885 0.015363 0.008938 -0.002693 -0.002772
# 4 0.016436 0.000524 0.008938 0.066712 -0.038011 -0.009756
# 5 -0.016540 0.007225 -0.002693 -0.038011 0.071130 0.013502
# 6 -0.002510 0.002793 -0.002772 -0.009756 0.013502 0.029701
#
#
# Mechanical properties :
#
#
# Convention : Reuss Voigt Hill
#
# Bulk Modulus (GPa) = 22.21424 43.92197 33.06810
# Shear Modulus (GPa) = 18.40524 30.90556 24.65540
#
# Velocity S-wave (km/s) = 2.92263 3.78723 3.38267
# Velocity P-wave (km/s) = 4.65817 6.28555 5.53203
#
# Compressibility (1/GPa) = 0.04501617
#
# Stress axis : x y z
#
# Youngs Moduli (GPa) = 67.66954 27.08239 65.09337
#
# Poissons Ratio (x) = 0.26986 0.01138
# Poissons Ratio (y) = 0.67428 0.05762
# Poissons Ratio (z) = 0.01183 0.02397
#
# Static dielectric constant tensor:
#      x y z
#    x 1.779810 0.011650 -0.003310 
#    y 0.011650 1.806500 0.022670 
#    z -0.003310 0.022670 1.876580 
# 
# From -- ./inp_files/532252.got.cif
#   From: 2010.05.17/outbox.cif.g08.bks.cpg/sg2_267_cif.got.tgz:532252.got - 2010.06.03 11:33:40.
