data_PCOD9083817
_publ_section_title
;
Structure prediction by ZEFSAII (Michael W. Deem and Ramdas Pophale) SiO2 
 PCOD9083817
Probable space group: P -1
;
_chemical_formula_sum "Si O2"
_cell_formula_units_Z 13
_cell_length_a 8.458896
_cell_length_b 18.875606
_cell_length_c 14.136714
_cell_angle_alpha 18.270707
_cell_angle_beta 42.608912
_cell_angle_gamma 44.182667
_cell_volume 477.292037
_symmetry_space_group_name_H-M "P -1"
_symmetry_group_IT_number 2
_symmetry_cell_setting 'triclinic'
loop_
_space_group_symop_operation_xyz
x,y,z
-x,-y,-z
loop_
_atom_site_type_symbol
_atom_site_label
_atom_site_fract_x
_atom_site_fract_y
_atom_site_fract_z
Si Si1 0.140997 0.334572 0.220644
Si Si2 0.329106 0.160580 0.014695
Si Si3 0.499941 0.795431 0.907211
Si Si4 0.014689 0.395620 0.395234
Si Si5 0.485295 0.737267 0.392514
Si Si6 0.500000 0.500000 0.000000
Si Si7 0.998204 0.763206 0.197636
O O1 0.982132 0.295939 0.431661
O O2 0.304025 0.144413 0.331481
O O3 0.332827 0.468777 0.021903
O O4 0.000000 0.500000 0.000000
O O5 0.425454 0.130407 0.116095
O O6 0.489163 0.259671 0.736617
O O7 0.109036 0.348974 0.874226
O O8 0.294390 0.910923 0.307634
O O9 0.518724 0.522770 0.249385
O O10 0.225203 0.865216 0.921600
O O11 0.941654 0.248853 0.701702
O O12 0.289624 0.412560 0.268977
O O13 0.731511 0.835165 0.195735
O O14 0.000000 0.500000 0.500000
#
# Coordination Sequence:
#
# PCOD9083817 Si02
#       7
#     2   2   2   2   2   1   2
#     4  10  20  33  58  91 114 154 205 237 296 365
#     4  11  21  37  58  89 121 147 198 247 296 352
#     4  11  20  37  64  83 113 159 193 242 297 346
#     4  10  19  35  58  85 116 157 192 243 296 355
#     4  10  23  35  57  92 117 150 196 248 293 356
#     4   8  18  30  56  82 116 154 194 234 294 352
#     4  10  19  34  58  85 114 151 200 237 291 352
#
# _framework density 27.236993999999999
#
# number of rings (size 3 to 8) (size 9 to 14) (size 15 to 20)
#    0.923    0.923    4.615    2.308    0.000    0.615 
#    0.000    0.769    0.000    0.923    0.000    0.000 
#    0.000    0.000    0.000    0.000    0.000    0.000 
#
# Total GULP energy -72446.727755 kJ/mol
# GULP energy per Si atom -5572.825212 kJ/mol
# Density = 2.717500 g / cm^3
# Si number density = 27.236994 Si / 1000 Ang^3
#
#
#
# Elastic Constant Matrix: (Units=GPa)
#
#
# Indices 1 2 3 4 5 6 
#
# 1 143.0384 45.6052 -4.6038 -7.4588 -7.9466 39.9019
# 2 45.6052 157.8038 31.1103 19.9165 3.6148 33.9841
# 3 -4.6038 31.1103 67.8813 -27.4832 2.1800 11.5817
# 4 -7.4588 19.9165 -27.4832 35.6778 -2.2577 2.3020
# 5 -7.9466 3.6148 2.1800 -2.2577 32.7637 9.3314
# 6 39.9019 33.9841 11.5817 2.3020 9.3314 48.5244
#
#
#
# Elastic Compliance Matrix: (Units=1/GPa)
#
#
# Indices 1 2 3 4 5 6 
#
# 1 0.014593 -0.006562 0.013423 0.018428 0.008369 -0.013092
# 2 -0.006562 0.013817 -0.015495 -0.021343 -0.003891 0.001178
# 3 0.013423 -0.015495 0.043907 0.046826 0.009459 -0.014706
# 4 0.018428 -0.021343 0.046826 0.081949 0.014499 -0.018058
# 5 0.008369 -0.003891 0.009459 0.014499 0.037423 -0.014299
# 6 -0.013092 0.001178 -0.014706 -0.018058 -0.014299 0.037665
#
#
# Mechanical properties :
#
#
# Convention : Reuss Voigt Hill
#
# Bulk Modulus (GPa) = 18.16523 56.99411 37.57967
# Shear Modulus (GPa) = 18.86995 43.16730 31.01863
#
# Velocity S-wave (km/s) = 2.63498 3.98537 3.37833
# Velocity P-wave (km/s) = 3.99265 6.49217 5.38932
#
# Compressibility (1/GPa) = 0.05505022
#
# Stress axis : x y z
#
# Youngs Moduli (GPa) = 68.52478 72.37322 22.77543
#
# Poissons Ratio (x) = 0.47490 -0.30571
# Poissons Ratio (y) = 0.44965 0.35290
# Poissons Ratio (z) = -0.91981 1.12141
#
# Static dielectric constant tensor:
#      x y z
#    x 2.142040 -0.027970 0.003710 
#    y -0.027970 2.344780 0.067950 
#    z 0.003710 0.067950 2.179460 
# 
# From -- ./inp_files/506065.got.cif
#   From: 2010.05.17/outbox.cif.g08.bks.cpg/sg2_254_cif.got.tgz:506065.got - 2010.06.03 11:33:40.
