data_PCOD9083395
_publ_section_title
;
Structure prediction by ZEFSAII (Michael W. Deem and Ramdas Pophale) SiO2 
 PCOD9083395
Probable space group: P -1
;
_chemical_formula_sum "Si O2"
_cell_formula_units_Z 14
_cell_length_a 12.256065
_cell_length_b 15.542073
_cell_length_c 11.373481
_cell_angle_alpha 150.113842
_cell_angle_beta 42.463505
_cell_angle_gamma 144.737929
_cell_volume 619.871421
_symmetry_space_group_name_H-M "P -1"
_symmetry_group_IT_number 2
_symmetry_cell_setting 'triclinic'
loop_
_space_group_symop_operation_xyz
x,y,z
-x,-y,-z
loop_
_atom_site_type_symbol
_atom_site_label
_atom_site_fract_x
_atom_site_fract_y
_atom_site_fract_z
Si Si1 0.131684 0.601189 0.901081
Si Si2 0.732723 0.703785 0.633011
Si Si3 0.460010 0.140502 0.781557
Si Si4 0.853049 0.935528 0.226543
Si Si5 0.814004 0.593239 0.007767
Si Si6 0.606734 0.002379 0.698828
Si Si7 0.407338 0.330744 0.546293
O O1 0.222501 0.468646 0.644636
O O2 0.279836 0.829057 0.092816
O O3 0.000000 0.500000 0.000000
O O4 0.000965 0.590957 0.886100
O O5 0.559057 0.571741 0.702691
O O6 0.657825 0.752417 0.631707
O O7 0.926089 0.893306 0.749203
O O8 0.260578 0.100490 0.846148
O O9 0.474650 0.064341 0.808942
O O10 0.500000 0.000000 0.500000
O O11 0.632869 0.366624 0.881831
O O12 0.827405 0.725545 0.042924
O O13 0.752736 0.003241 0.486205
O O14 0.774934 0.698736 0.274522
O O15 0.514397 0.785847 0.579606
#
# Coordination Sequence:
#
# PCOD9083395 Si02
#       7
#     2   2   2   2   2   2   2
#     4  12  18  32  59  84 108 139 180 225 266 314
#     4  11  21  37  54  83 113 142 178 224 270 318
#     4  10  19  34  56  83 108 137 181 231 264 312
#     4  10  20  34  56  80 107 143 186 222 261 320
#     4  11  20  36  58  82 107 143 181 222 271 320
#     4  10  19  34  55  82 110 144 180 221 273 315
#     4  10  22  36  56  80 113 144 176 222 275 324
#
# _framework density 22.585329000000002
#
# number of rings (size 3 to 8) (size 9 to 14) (size 15 to 20)
#    0.000    1.429    4.286    2.143    0.000    2.857 
#    0.000    2.857    0.000    0.000    0.000    0.000 
#    0.000    0.000    0.000    0.000    0.000    0.000 
#
# Total GULP energy -78294.235547 kJ/mol
# GULP energy per Si atom -5592.445396 kJ/mol
# Density = 2.253392 g / cm^3
# Si number density = 22.585329 Si / 1000 Ang^3
#
#
#
# Elastic Constant Matrix: (Units=GPa)
#
#
# Indices 1 2 3 4 5 6 
#
# 1 184.1652 68.2918 22.1144 36.2628 -11.5859 10.1054
# 2 68.2918 72.0203 13.7535 19.8138 0.1182 -9.3281
# 3 22.1144 13.7535 61.7139 14.7900 -3.5110 -7.6141
# 4 36.2628 19.8138 14.7900 39.0856 3.8248 -4.2556
# 5 -11.5859 0.1182 -3.5110 3.8248 34.9780 15.1043
# 6 10.1054 -9.3281 -7.6141 -4.2556 15.1043 23.5322
#
#
#
# Elastic Compliance Matrix: (Units=1/GPa)
#
#
# Indices 1 2 3 4 5 6 
#
# 1 0.016468 -0.015746 -0.002056 -0.011391 0.018639 -0.028003
# 2 -0.015746 0.032005 0.000566 0.003733 -0.019983 0.033134
# 3 -0.002056 0.000566 0.018714 -0.004526 -0.001452 0.007276
# 4 -0.011391 0.003733 -0.004526 0.040545 -0.019311 0.024634
# 5 0.018639 -0.019983 -0.001452 -0.019311 0.062787 -0.060188
# 6 -0.028003 0.033134 0.007276 0.024634 -0.060188 0.113096
#
#
# Mechanical properties :
#
#
# Convention : Reuss Voigt Hill
#
# Bulk Modulus (GPa) = 30.56774 58.46875 44.51825
# Shear Modulus (GPa) = 15.19783 33.76846 24.48314
#
# Velocity S-wave (km/s) = 2.59686 3.87091 3.29603
# Velocity P-wave (km/s) = 4.74924 6.77663 5.85141
#
# Compressibility (1/GPa) = 0.03271423
#
# Stress axis : x y z
#
# Youngs Moduli (GPa) = 60.72367 31.24484 53.43475
#
# Poissons Ratio (x) = 0.49200 0.10989
# Poissons Ratio (y) = 0.95619 -0.03026
# Poissons Ratio (z) = 0.12488 -0.01769
#
# Static dielectric constant tensor:
#      x y z
#    x 1.833090 -0.016190 0.001320 
#    y -0.016190 1.844520 -0.037530 
#    z 0.001320 -0.037530 1.872980 
# 
# From -- ./inp_files/153961.got.cif
#   From: 2010.05.17/outbox.cif.g08.bks.cpg/sg2_77_cif.got.tgz:153961.got - 2010.06.03 11:33:40.
