data_PCOD9083888
_publ_section_title
;
Structure prediction by ZEFSAII (Michael W. Deem and Ramdas Pophale) SiO2 
 PCOD9083888
Probable space group: P -1
;
_chemical_formula_sum "Si O2"
_cell_formula_units_Z 16
_cell_length_a 15.390481
_cell_length_b 12.033389
_cell_length_c 21.738681
_cell_angle_alpha 152.253697
_cell_angle_beta 28.880576
_cell_angle_gamma 151.997759
_cell_volume 794.057046
_symmetry_space_group_name_H-M "P -1"
_symmetry_group_IT_number 2
_symmetry_cell_setting 'triclinic'
loop_
_space_group_symop_operation_xyz
x,y,z
-x,-y,-z
loop_
_atom_site_type_symbol
_atom_site_label
_atom_site_fract_x
_atom_site_fract_y
_atom_site_fract_z
Si Si1 0.198520 0.818682 0.278065
Si Si2 0.178297 0.273517 0.446642
Si Si3 0.933071 0.338992 0.526574
Si Si4 0.460741 0.186040 0.532558
Si Si5 0.396874 0.051643 0.851937
Si Si6 0.369952 0.489368 0.166155
Si Si7 0.367135 0.219478 0.744615
Si Si8 0.955964 0.762790 0.959934
O O1 0.410629 0.982447 0.263879
O O2 0.182240 0.534359 0.128072
O O3 0.004377 0.753445 0.409162
O O4 0.195965 0.002993 0.313910
O O5 0.392790 0.538318 0.458374
O O6 0.109462 0.315037 0.441994
O O7 0.842610 0.502690 0.701892
O O8 0.000000 0.500000 0.500000
O O9 0.740328 0.040891 0.488040
O O10 0.391144 0.255985 0.674778
O O11 0.600472 0.041617 0.389746
O O12 0.468593 0.246774 0.843215
O O13 0.357016 0.226249 0.014230
O O14 0.178570 0.791956 0.849972
O O15 0.451171 0.541712 0.211194
O O16 0.160136 0.194842 0.889436
O O17 0.000000 0.000000 0.000000
#
# Coordination Sequence:
#
# PCOD9083888 Si02
#       8
#     2   2   2   2   2   2   2   2
#     4  11  25  42  61  94 126 167 210 251 318 380
#     4  11  24  43  65  86 130 169 204 258 311 383
#     4  11  23  38  65  96 124 160 211 262 306 366
#     4  10  23  38  61  91 124 163 207 252 316 365
#     4  11  21  36  58  89 126 158 198 256 315 367
#     4  10  19  34  58  91 125 151 198 258 312 359
#     4  10  19  37  59  94 123 152 204 262 312 364
#     4  12  22  35  65  93 126 164 206 266 316 363
#
# _framework density 20.149685999999999
#
# number of rings (size 3 to 8) (size 9 to 14) (size 15 to 20)
#    0.000    1.250    3.750    3.750    5.250    1.000 
#    0.000    3.125    0.000    1.500    0.000    0.000 
#    0.000    0.000    0.000    0.000    0.000    0.000 
#
# Total GULP energy -89397.016064 kJ/mol
# GULP energy per Si atom -5587.313504 kJ/mol
# Density = 2.010382 g / cm^3
# Si number density = 20.149686 Si / 1000 Ang^3
#
#
#
# Elastic Constant Matrix: (Units=GPa)
#
#
# Indices 1 2 3 4 5 6 
#
# 1 62.3123 29.5183 10.8695 5.5220 -3.9451 3.2650
# 2 29.5183 85.8885 15.5167 -7.4191 -17.6988 7.1941
# 3 10.8695 15.5167 70.3902 -11.1768 4.5248 -6.9661
# 4 5.5220 -7.4191 -11.1768 24.5752 0.0719 -4.5457
# 5 -3.9451 -17.6988 4.5248 0.0719 23.9009 -2.7685
# 6 3.2650 7.1941 -6.9661 -4.5457 -2.7685 29.0883
#
#
#
# Elastic Compliance Matrix: (Units=1/GPa)
#
#
# Indices 1 2 3 4 5 6 
#
# 1 0.021008 -0.007565 -0.003160 -0.008957 -0.001836 -0.002818
# 2 -0.007565 0.017975 -0.002972 0.005313 0.012342 -0.002303
# 3 -0.003160 -0.002972 0.017752 0.009057 -0.005387 0.006244
# 4 -0.008957 0.005313 0.009057 0.050249 0.001734 0.009878
# 5 -0.001836 0.012342 -0.005387 0.001734 0.051814 0.001066
# 6 -0.002818 -0.002303 0.006244 0.009878 0.001066 0.038404
#
#
# Mechanical properties :
#
#
# Convention : Reuss Voigt Hill
#
# Bulk Modulus (GPa) = 34.08129 36.71112 35.39620
# Shear Modulus (GPa) = 21.33315 26.35863 23.84589
#
# Velocity S-wave (km/s) = 3.25735 3.62075 3.44384
# Velocity P-wave (km/s) = 5.57655 5.97817 5.78085
#
# Compressibility (1/GPa) = 0.02934161
#
# Stress axis : x y z
#
# Youngs Moduli (GPa) = 47.59992 55.63255 56.33231
#
# Poissons Ratio (x) = 0.42088 0.17798
# Poissons Ratio (y) = 0.36011 0.16741
# Poissons Ratio (z) = 0.15039 0.16533
#
# Static dielectric constant tensor:
#      x y z
#    x 1.747800 0.026970 0.000590 
#    y 0.026970 1.725750 -0.027220 
#    z 0.000590 -0.027220 1.722560 
# 
# From -- ./inp_files/432754.got.cif
#   From: 2010.05.17/outbox.cif.g08.bks.cpg/sg2_217_cif.got.tgz:432754.got - 2010.06.03 11:33:40.
