data_PCOD9083802
_publ_section_title
;
Structure prediction by ZEFSAII (Michael W. Deem and Ramdas Pophale) SiO2 
 PCOD9083802
Probable space group: P -1
;
_chemical_formula_sum "Si O2"
_cell_formula_units_Z 16
_cell_length_a 13.225618
_cell_length_b 9.746326
_cell_length_c 17.095084
_cell_angle_alpha 23.921788
_cell_angle_beta 49.547567
_cell_angle_gamma 47.208730
_cell_volume 652.823127
_symmetry_space_group_name_H-M "P -1"
_symmetry_group_IT_number 2
_symmetry_cell_setting 'triclinic'
loop_
_space_group_symop_operation_xyz
x,y,z
-x,-y,-z
loop_
_atom_site_type_symbol
_atom_site_label
_atom_site_fract_x
_atom_site_fract_y
_atom_site_fract_z
Si Si1 0.472037 0.116347 0.043572
Si Si2 0.618797 0.648881 0.647781
Si Si3 0.819409 0.368861 0.031632
Si Si4 0.348698 0.582296 0.424933
Si Si5 0.850914 0.973269 0.367990
Si Si6 0.221452 0.097514 0.828811
Si Si7 0.047433 0.779030 0.499247
Si Si8 0.116548 0.502090 0.810333
O O1 0.472726 0.763213 0.276381
O O2 0.561810 0.392078 0.865091
O O3 0.315722 0.350694 0.014825
O O4 0.500000 0.000000 0.000000
O O5 0.663732 0.468952 0.634905
O O6 0.257337 0.223245 0.444985
O O7 0.500000 0.000000 0.500000
O O8 0.834628 0.022282 0.258686
O O9 0.788062 0.264636 0.013739
O O10 0.968206 0.437211 0.932305
O O11 0.344166 0.226544 0.658179
O O12 0.199975 0.831603 0.397274
O O13 0.820510 0.373876 0.208762
O O14 0.998742 0.785744 0.429124
O O15 0.077249 0.391118 0.721779
O O16 0.214335 0.186398 0.877608
O O17 0.926285 0.118373 0.411611
#
# Coordination Sequence:
#
# PCOD9083802 Si02
#       8
#     2   2   2   2   2   2   2   2
#     4  10  20  33  55  82 103 141 191 231 264 317
#     4  11  19  33  54  78 108 144 189 227 270 318
#     4  12  19  35  55  87 112 140 185 231 272 329
#     4   9  18  34  54  79 103 142 182 225 269 325
#     4  10  20  34  54  82 118 140 177 232 279 317
#     4  10  19  34  58  84 112 149 177 216 281 343
#     4   8  19  33  55  77 113 140 177 208 292 320
#     4  10  21  34  55  84 116 147 175 220 286 333
#
# _framework density 24.508935999999999
#
# number of rings (size 3 to 8) (size 9 to 14) (size 15 to 20)
#    1.500    0.500    3.750    1.125    0.000    2.000 
#    0.000    1.250    0.000    3.750    0.000    0.000 
#    0.000    0.000    0.000    0.000    0.000    0.000 
#
# Total GULP energy -89079.713670 kJ/mol
# GULP energy per Si atom -5567.482104 kJ/mol
# Density = 2.445315 g / cm^3
# Si number density = 24.508936 Si / 1000 Ang^3
#
#
#
# Elastic Constant Matrix: (Units=GPa)
#
#
# Indices 1 2 3 4 5 6 
#
# 1 50.1304 17.5465 32.0331 -0.3113 -24.8331 0.7552
# 2 17.5465 132.2874 22.4278 -7.7172 -21.4598 -4.9104
# 3 32.0331 22.4278 88.7268 8.8963 -50.0934 -11.3000
# 4 -0.3113 -7.7172 8.8963 32.9883 -10.9838 -7.2137
# 5 -24.8331 -21.4598 -50.0934 -10.9838 55.0348 -3.1530
# 6 0.7552 -4.9104 -11.3000 -7.2137 -3.1530 20.8137
#
#
#
# Elastic Compliance Matrix: (Units=1/GPa)
#
#
# Indices 1 2 3 4 5 6 
#
# 1 0.028053 -0.001462 -0.006974 0.003188 0.006199 -0.003105
# 2 -0.001462 0.008846 0.001647 0.004653 0.005531 0.005484
# 3 -0.006974 0.001647 0.033282 0.007227 0.030714 0.025868
# 4 0.003188 0.004653 0.007227 0.040668 0.019203 0.021910
# 5 0.006199 0.005531 0.030714 0.019203 0.056804 0.033015
# 6 -0.003105 0.005484 0.025868 0.021910 0.033015 0.076091
#
#
# Mechanical properties :
#
#
# Convention : Reuss Voigt Hill
#
# Bulk Modulus (GPa) = 17.66687 46.12884 31.89786
# Shear Modulus (GPa) = 18.10332 35.04316 26.57324
#
# Velocity S-wave (km/s) = 2.72074 3.78539 3.29633
# Velocity P-wave (km/s) = 4.13448 6.16179 5.24698
#
# Compressibility (1/GPa) = 0.05660312
#
# Stress axis : x y z
#
# Youngs Moduli (GPa) = 35.64627 113.04081 30.04592
#
# Poissons Ratio (x) = 0.16530 0.20953
# Poissons Ratio (y) = 0.05213 -0.04947
# Poissons Ratio (z) = 0.24859 -0.18613
#
# Static dielectric constant tensor:
#      x y z
#    x 1.980350 0.121630 0.000790 
#    y 0.121630 2.110240 -0.044150 
#    z 0.000790 -0.044150 2.051040 
# 
# From -- ./inp_files/574965.got.cif
#   From: 2010.05.17/outbox.cif.g08.bks.cpg/sg2_288_cif.got.tgz:574965.got - 2010.06.03 11:33:40.
