data_PCOD9084357
_publ_section_title
;
Structure prediction by ZEFSAII (Michael W. Deem and Ramdas Pophale) SiO2 
 PCOD9084357
Probable space group: P -1
;
_chemical_formula_sum "Si O2"
_cell_formula_units_Z 14
_cell_length_a 7.197200
_cell_length_b 9.212138
_cell_length_c 8.547168
_cell_angle_alpha 87.412266
_cell_angle_beta 90.707819
_cell_angle_gamma 87.520968
_cell_volume 565.525108
_symmetry_space_group_name_H-M "P -1"
_symmetry_group_IT_number 2
_symmetry_cell_setting 'triclinic'
loop_
_space_group_symop_operation_xyz
x,y,z
-x,-y,-z
loop_
_atom_site_type_symbol
_atom_site_label
_atom_site_fract_x
_atom_site_fract_y
_atom_site_fract_z
Si Si1 0.126098 0.710586 0.302264
Si Si2 0.285291 0.249525 0.601321
Si Si3 0.467667 0.520443 0.291128
Si Si4 0.668772 0.222347 0.213697
Si Si5 0.592426 0.760250 0.055519
Si Si6 0.990374 0.673174 0.965555
Si Si7 0.221177 0.968514 0.485316
O O1 0.253343 0.563733 0.319076
O O2 0.240558 0.846380 0.358158
O O3 0.932290 0.702193 0.392161
O O4 0.070669 0.738503 0.122373
O O5 0.408312 0.389882 0.589363
O O6 0.308187 0.126142 0.476155
O O7 0.339984 0.181411 0.777704
O O8 0.544383 0.359543 0.269187
O O9 0.509967 0.609862 0.125845
O O10 0.564104 0.166825 0.060468
O O11 0.704507 0.107545 0.354088
O O12 0.870874 0.281761 0.169377
O O13 0.776684 0.728538 0.955328
O O14 0.000000 0.500000 0.000000
O O15 0.000000 0.000000 0.500000
#
# Coordination Sequence:
#
# PCOD9084357 Si02
#       7
#     2   2   2   2   2   2   2
#     4  10  19  37  61  84 122 160 187 245 300 350
#     4   8  19  39  57  83 121 156 195 243 289 346
#     4  10  19  34  63  93 115 151 194 250 304 341
#     4  12  21  37  64  92 119 157 197 247 300 352
#     4   9  19  33  61  94 119 145 197 254 295 348
#     4  11  18  35  63  92 119 151 191 249 302 347
#     4  10  24  44  58  81 127 167 199 239 292 357
#
# _framework density 24.755751
#
# number of rings (size 3 to 8) (size 9 to 14) (size 15 to 20)
#    0.857    1.143    2.857    1.286    0.000    1.714 
#    0.000   18.571    0.000    0.000    0.000    0.000 
#    0.000    0.000    0.000    0.000    0.000    0.000 
#
# Total GULP energy -78262.813385 kJ/mol
# GULP energy per Si atom -5590.200956 kJ/mol
# Density = 2.469941 g / cm^3
# Si number density = 24.755751 Si / 1000 Ang^3
#
#
#
# Elastic Constant Matrix: (Units=GPa)
#
#
# Indices 1 2 3 4 5 6 
#
# 1 152.1479 30.6326 30.0967 -15.1373 -2.2099 -10.7016
# 2 30.6326 80.3488 29.6937 8.8753 4.8100 5.0086
# 3 30.0967 29.6937 69.0247 7.2508 17.0973 -0.4997
# 4 -15.1373 8.8753 7.2508 31.2268 -3.9970 14.2614
# 5 -2.2099 4.8100 17.0973 -3.9970 37.5564 2.8088
# 6 -10.7016 5.0086 -0.4997 14.2614 2.8088 34.5957
#
#
#
# Elastic Compliance Matrix: (Units=1/GPa)
#
#
# Indices 1 2 3 4 5 6 
#
# 1 0.008598 -0.002666 -0.004090 0.006242 0.003363 0.000141
# 2 -0.002666 0.015947 -0.005280 -0.003877 -0.000088 -0.001604
# 3 -0.004090 -0.005280 0.022254 -0.009095 -0.010997 0.004463
# 4 0.006242 -0.003877 -0.009095 0.048150 0.011506 -0.018422
# 5 0.003363 -0.000088 -0.010997 0.011506 0.033558 -0.006574
# 6 0.000141 -0.001604 0.004463 -0.018422 -0.006574 0.037373
#
#
# Mechanical properties :
#
#
# Convention : Reuss Voigt Hill
#
# Bulk Modulus (GPa) = 44.00042 53.59637 48.79840
# Shear Modulus (GPa) = 25.31283 34.74901 30.03092
#
# Velocity S-wave (km/s) = 3.20113 3.75063 3.48672
# Velocity P-wave (km/s) = 5.61029 6.36030 5.99703
#
# Compressibility (1/GPa) = 0.02272706
#
# Stress axis : x y z
#
# Youngs Moduli (GPa) = 116.30572 62.70725 44.93584
#
# Poissons Ratio (x) = 0.16718 0.18377
# Poissons Ratio (y) = 0.31008 0.23727
# Poissons Ratio (z) = 0.47565 0.33111
#
# Static dielectric constant tensor:
#      x y z
#    x 1.973750 0.035770 0.000700 
#    y 0.035770 1.966650 0.025880 
#    z 0.000700 0.025880 2.008820 
# 
# From -- ./inp_files/374317.got.cif
#   From: 2010.05.17/outbox.cif.g08.bks.cpg/sg2_188_cif.got.tgz:374317.got - 2010.06.03 11:33:40.
