data_PCOD9084723
_publ_section_title
;
Structure prediction by ZEFSAII (Michael W. Deem and Ramdas Pophale) SiO2 
 PCOD9084723
Probable space group: P -1
;
_chemical_formula_sum "Si O2"
_cell_formula_units_Z 16
_cell_length_a 15.753953
_cell_length_b 10.294641
_cell_length_c 14.607194
_cell_angle_alpha 128.589609
_cell_angle_beta 27.151699
_cell_angle_gamma 138.512166
_cell_volume 708.966117
_symmetry_space_group_name_H-M "P -1"
_symmetry_group_IT_number 2
_symmetry_cell_setting 'triclinic'
loop_
_space_group_symop_operation_xyz
x,y,z
-x,-y,-z
loop_
_atom_site_type_symbol
_atom_site_label
_atom_site_fract_x
_atom_site_fract_y
_atom_site_fract_z
Si Si1 0.165943 0.609634 0.689695
Si Si2 0.041448 0.275060 0.511648
Si Si3 0.270717 0.490014 0.992995
Si Si4 0.352620 0.152554 0.724041
Si Si5 0.256553 0.376926 0.635843
Si Si6 0.238859 0.388275 0.181312
Si Si7 0.026912 0.964805 0.108996
Si Si8 0.311327 0.153964 0.314578
O O1 0.403528 0.790813 0.509108
O O2 0.201067 0.528668 0.713999
O O3 0.086609 0.432642 0.614512
O O4 0.959440 0.631080 0.893060
O O5 0.116650 0.381798 0.388588
O O6 0.194099 0.189413 0.356154
O O7 0.796735 0.076949 0.664872
O O8 0.226067 0.485405 0.141905
O O9 0.383618 0.365302 0.811891
O O10 0.429347 0.707344 0.895454
O O11 0.175145 0.062219 0.771829
O O12 0.232924 0.022376 0.870893
O O13 0.500000 0.500000 0.500000
O O14 0.075692 0.228224 0.815978
O O15 0.264311 0.246200 0.488639
O O16 0.500000 0.500000 0.000000
O O17 0.122103 0.157475 0.166015
#
# Coordination Sequence:
#
# PCOD9084723 Si02
#       8
#     2   2   2   2   2   2   2   2
#     4  11  23  38  62  89 123 160 196 248 306 351
#     4  10  19  35  56  86 118 162 197 247 292 346
#     4  11  22  39  61  90 122 161 197 246 305 354
#     4  10  20  42  61  86 122 153 200 250 302 354
#     4  11  19  37  65  87 115 159 204 245 297 357
#     4  11  20  36  63  90 118 159 205 241 296 359
#     4  10  20  36  67  89 112 163 204 242 302 356
#     4  10  19  35  57  85 123 152 203 247 293 351
#
# _framework density 22.568072999999998
#
# number of rings (size 3 to 8) (size 9 to 14) (size 15 to 20)
#    0.000    1.500    6.250    0.750    0.000    1.000 
#    0.000    9.375    0.000    0.000    0.000    0.000 
#    0.000    0.000    0.000    0.000    0.000    0.000 
#
# Total GULP energy -89483.189444 kJ/mol
# GULP energy per Si atom -5592.699340 kJ/mol
# Density = 2.251671 g / cm^3
# Si number density = 22.568073 Si / 1000 Ang^3
#
#
#
# Elastic Constant Matrix: (Units=GPa)
#
#
# Indices 1 2 3 4 5 6 
#
# 1 111.2200 12.1954 41.9444 -18.1285 11.0588 -4.2558
# 2 12.1954 71.5119 34.3897 -34.2303 10.9089 6.2851
# 3 41.9444 34.3897 137.2470 -42.2207 7.8031 -17.1870
# 4 -18.1285 -34.2303 -42.2207 46.6190 -3.4244 7.6869
# 5 11.0588 10.9089 7.8031 -3.4244 39.5910 -6.3308
# 6 -4.2558 6.2851 -17.1870 7.6869 -6.3308 31.7482
#
#
#
# Elastic Compliance Matrix: (Units=1/GPa)
#
#
# Indices 1 2 3 4 5 6 
#
# 1 0.010540 0.001365 -0.002793 0.002624 -0.002792 -0.001561
# 2 0.001365 0.026297 -0.002175 0.019361 -0.007504 -0.012384
# 3 -0.002793 -0.002175 0.011350 0.006868 0.000477 0.004633
# 4 0.002624 0.019361 0.006868 0.044420 -0.005434 -0.011602
# 5 -0.002792 -0.007504 0.000477 -0.005434 0.028893 0.008447
# 6 -0.001561 -0.012384 0.004633 -0.011602 0.008447 0.040742
#
#
# Mechanical properties :
#
#
# Convention : Reuss Voigt Hill
#
# Bulk Modulus (GPa) = 24.40063 55.22643 39.81353
# Shear Modulus (GPa) = 27.30607 39.02160 33.16384
#
# Velocity S-wave (km/s) = 3.48220 4.16271 3.83757
# Velocity P-wave (km/s) = 5.19645 6.90133 6.10866
#
# Compressibility (1/GPa) = 0.04098255
#
# Stress axis : x y z
#
# Youngs Moduli (GPa) = 94.87312 38.02654 88.10340
#
# Poissons Ratio (x) = -0.05189 0.24606
# Poissons Ratio (y) = -0.12947 0.19159
# Poissons Ratio (z) = 0.26496 0.08269
#
# Static dielectric constant tensor:
#      x y z
#    x 1.817800 -0.004890 -0.009110 
#    y -0.004890 1.887650 0.025120 
#    z -0.009110 0.025120 1.844540 
# 
# From -- ./inp_files/354442.got.cif
#   From: 2010.05.17/outbox.cif.g08.bks.cpg/sg2_178_cif.got.tgz:354442.got - 2010.06.03 11:33:40.
