data_PCOD9084470
_publ_section_title
;
Structure prediction by ZEFSAII (Michael W. Deem and Ramdas Pophale) SiO2 
 PCOD9084470
Probable space group: P -1
;
_chemical_formula_sum "Si O2"
_cell_formula_units_Z 14
_cell_length_a 11.928324
_cell_length_b 16.097683
_cell_length_c 5.486116
_cell_angle_alpha 98.498267
_cell_angle_beta 73.370234
_cell_angle_gamma 147.104525
_cell_volume 539.465674
_symmetry_space_group_name_H-M "P -1"
_symmetry_group_IT_number 2
_symmetry_cell_setting 'triclinic'
loop_
_space_group_symop_operation_xyz
x,y,z
-x,-y,-z
loop_
_atom_site_type_symbol
_atom_site_label
_atom_site_fract_x
_atom_site_fract_y
_atom_site_fract_z
Si Si1 0.539850 0.829206 0.645805
Si Si2 0.946213 0.846296 0.541445
Si Si3 0.765153 0.216810 0.684042
Si Si4 0.696873 0.132192 0.184859
Si Si5 0.323451 0.652476 0.204108
Si Si6 0.754526 0.736452 0.111978
Si Si7 0.239940 0.421378 0.215057
O O1 0.414988 0.843502 0.724314
O O2 0.474121 0.749160 0.392957
O O3 0.449951 0.728521 0.899887
O O4 0.796045 0.996996 0.575209
O O5 0.837778 0.818398 0.354548
O O6 0.846977 0.692511 0.569253
O O7 0.871750 0.843060 0.842984
O O8 0.804103 0.186987 0.403639
O O9 0.816050 0.345675 0.707857
O O10 0.498992 0.051803 0.794767
O O11 0.835112 0.217569 0.892632
O O12 0.182719 0.484031 0.244506
O O13 0.498618 0.586496 0.168430
O O14 0.802190 0.664844 0.025931
#
# Coordination Sequence:
#
# PCOD9084470 Si02
#       7
#     2   2   2   2   2   2   2
#     4  10  20  32  48  76 103 121 153 197 250 275
#     4  10  19  35  52  69  95 129 163 190 234 299
#     4   8  14  26  43  67  92 121 155 184 229 271
#     4   8  14  26  44  64  94 126 149 182 225 291
#     4  10  20  31  50  76  99 120 156 209 236 270
#     4   9  20  34  56  66  89 131 173 187 225 295
#     4   9  21  34  56  67  94 125 171 194 233 278
#
# _framework density 25.951606000000002
#
# number of rings (size 3 to 8) (size 9 to 14) (size 15 to 20)
#    0.857    2.000    0.000    1.286    2.000    0.000 
#    0.000    4.286    0.000    0.857    0.000    1.000 
#    0.000    0.000    0.000    0.000    0.000    0.000 
#
# Total GULP energy -78242.917899 kJ/mol
# GULP energy per Si atom -5588.779850 kJ/mol
# Density = 2.589254 g / cm^3
# Si number density = 25.951606 Si / 1000 Ang^3
#
#
#
# Elastic Constant Matrix: (Units=GPa)
#
#
# Indices 1 2 3 4 5 6 
#
# 1 56.1886 11.9710 28.9959 -4.7814 6.3207 -9.6835
# 2 11.9710 67.6152 45.2812 -16.3067 10.0774 -11.6872
# 3 28.9959 45.2812 201.5926 20.9869 35.6714 17.5508
# 4 -4.7814 -16.3067 20.9869 37.6843 11.4933 1.0785
# 5 6.3207 10.0774 35.6714 11.4933 30.7046 2.3536
# 6 -9.6835 -11.6872 17.5508 1.0785 2.3536 50.4523
#
#
#
# Elastic Compliance Matrix: (Units=1/GPa)
#
#
# Indices 1 2 3 4 5 6 
#
# 1 0.021544 0.002283 -0.004292 0.006931 -0.003265 0.006161
# 2 0.002283 0.026652 -0.007619 0.018207 -0.007890 0.009241
# 3 -0.004292 -0.007619 0.009289 -0.007594 -0.004146 -0.005464
# 4 0.006931 0.018207 -0.007594 0.044081 -0.015692 0.007979
# 5 -0.003265 -0.007890 -0.004146 -0.015692 0.046740 -0.002857
# 6 0.006161 0.009241 -0.005464 0.007979 -0.002857 0.025007
#
#
# Mechanical properties :
#
#
# Convention : Reuss Voigt Hill
#
# Bulk Modulus (GPa) = 26.15749 55.32138 40.73943
# Shear Modulus (GPa) = 24.35313 39.71146 32.03230
#
# Velocity S-wave (km/s) = 3.06666 3.91604 3.51708
# Velocity P-wave (km/s) = 4.75820 6.46611 5.67675
#
# Compressibility (1/GPa) = 0.03822997
#
# Stress axis : x y z
#
# Youngs Moduli (GPa) = 46.41561 37.52092 107.65317
#
# Poissons Ratio (x) = -0.08566 0.46203
# Poissons Ratio (y) = -0.10596 0.82019
# Poissons Ratio (z) = 0.19921 0.28586
#
# Static dielectric constant tensor:
#      x y z
#    x 2.075290 0.009840 -0.032820 
#    y 0.009840 1.972430 0.005540 
#    z -0.032820 0.005540 2.112490 
# 
# From -- ./inp_files/49907.got.cif
#   From: 2010.05.17/outbox.cif.g08.bks.cpg/sg2_25_cif.got.tgz:49907.got - 2010.06.03 11:33:40.
