data_PCOD9084468
_publ_section_title
;
Structure prediction by ZEFSAII (Michael W. Deem and Ramdas Pophale) SiO2 
 PCOD9084468
Probable space group: P -1
;
_chemical_formula_sum "Si O2"
_cell_formula_units_Z 16
_cell_length_a 8.791473
_cell_length_b 8.166795
_cell_length_c 22.467618
_cell_angle_alpha 47.866675
_cell_angle_beta 33.153734
_cell_angle_gamma 53.078885
_cell_volume 651.186144
_symmetry_space_group_name_H-M "P -1"
_symmetry_group_IT_number 2
_symmetry_cell_setting 'triclinic'
loop_
_space_group_symop_operation_xyz
x,y,z
-x,-y,-z
loop_
_atom_site_type_symbol
_atom_site_label
_atom_site_fract_x
_atom_site_fract_y
_atom_site_fract_z
Si Si1 0.914479 0.078562 0.853775
Si Si2 0.235532 0.706795 0.034169
Si Si3 0.953266 0.761799 0.807299
Si Si4 0.180312 0.106414 0.573241
Si Si5 0.980588 0.548007 0.355146
Si Si6 0.436114 0.265968 0.340705
Si Si7 0.325762 0.020046 0.827369
Si Si8 0.700772 0.136476 0.575742
O O1 0.023070 0.307756 0.738196
O O2 0.704151 0.183853 0.948148
O O3 0.853398 0.933451 0.851763
O O4 0.136998 0.930550 0.857932
O O5 0.229365 0.443740 0.092561
O O6 0.383750 0.832756 0.902790
O O7 0.900302 0.794081 0.116400
O O8 0.271421 0.671320 0.745318
O O9 0.000308 0.901368 0.697301
O O10 0.086637 0.280513 0.611881
O O11 0.195562 0.248811 0.473514
O O12 0.500000 0.000000 0.500000
O O13 0.752225 0.373622 0.476472
O O14 0.286304 0.417552 0.300880
O O15 0.490126 0.008194 0.366345
O O16 0.579229 0.121007 0.685790
O O17 0.000000 0.000000 0.500000
#
# Coordination Sequence:
#
# PCOD9084468 Si02
#       8
#     2   2   2   2   2   2   2   2
#     4   9  19  37  56  89 118 141 204 238 284 354
#     4   9  20  36  61  87 111 153 195 248 290 330
#     4  10  19  35  58  86 115 150 190 251 287 335
#     4   9  20  32  49  83 116 142 197 235 280 352
#     4  10  21  34  56  80 121 155 178 243 297 341
#     4  10  19  35  51  84 117 151 192 225 294 363
#     4   9  19  38  55  89 115 141 207 241 278 357
#     4  10  21  35  56  85 115 155 186 231 300 349
#
# _framework density 24.570547999999999
#
# number of rings (size 3 to 8) (size 9 to 14) (size 15 to 20)
#    0.750    1.750    1.250    0.375    5.250    1.000 
#    0.000    0.000    0.000    3.750    3.250    0.000 
#    0.000    0.000    0.000    0.000    0.000    0.000 
#
# Total GULP energy -89182.981265 kJ/mol
# GULP energy per Si atom -5573.936329 kJ/mol
# Density = 2.451462 g / cm^3
# Si number density = 24.570548 Si / 1000 Ang^3
#
#
#
# Elastic Constant Matrix: (Units=GPa)
#
#
# Indices 1 2 3 4 5 6 
#
# 1 51.8701 19.9285 49.2329 4.3941 11.5568 -13.4618
# 2 19.9285 77.0030 44.9743 -8.7825 0.6785 -9.6328
# 3 49.2329 44.9743 158.9991 1.0739 6.8981 8.1479
# 4 4.3941 -8.7825 1.0739 29.9615 2.9574 2.6629
# 5 11.5568 0.6785 6.8981 2.9574 49.3051 -2.6119
# 6 -13.4618 -9.6328 8.1479 2.6629 -2.6119 35.0633
#
#
#
# Elastic Compliance Matrix: (Units=1/GPa)
#
#
# Indices 1 2 3 4 5 6 
#
# 1 0.036932 -0.001382 -0.011600 -0.006308 -0.005760 0.016545
# 2 -0.001382 0.017331 -0.004797 0.004936 0.000727 0.005025
# 3 -0.011600 -0.004797 0.011639 0.000564 0.000674 -0.008469
# 4 -0.006308 0.004936 0.000564 0.036189 -0.001052 -0.004023
# 5 -0.005760 0.000727 0.000674 -0.001052 0.021565 -0.000482
# 6 0.016545 0.005025 -0.008469 -0.004023 -0.000482 0.038490
#
#
# Mechanical properties :
#
#
# Convention : Reuss Voigt Hill
#
# Bulk Modulus (GPa) = 32.95507 57.34928 45.15217
# Shear Modulus (GPa) = 24.05951 34.44841 29.25396
#
# Velocity S-wave (km/s) = 3.13261 3.74842 3.45427
# Velocity P-wave (km/s) = 5.15033 6.49042 5.85881
#
# Compressibility (1/GPa) = 0.03034434
#
# Stress axis : x y z
#
# Youngs Moduli (GPa) = 27.07701 57.70070 85.91842
#
# Poissons Ratio (x) = 0.07973 0.99667
# Poissons Ratio (y) = 0.03741 0.41212
# Poissons Ratio (z) = 0.31410 0.27677
#
# Static dielectric constant tensor:
#      x y z
#    x 2.084310 -0.030480 -0.023690 
#    y -0.030480 1.994520 0.055740 
#    z -0.023690 0.055740 1.985390 
# 
# From -- ./inp_files/618048.got.cif
#   From: 2010.05.17/outbox.cif.g08.bks.cpg/sg2_310_cif.got.tgz:618048.got - 2010.06.03 11:33:40.
