data_PCOD9084266
_publ_section_title
;
Structure prediction by ZEFSAII (Michael W. Deem and Ramdas Pophale) SiO2 
 PCOD9084266
Probable space group: P -1
;
_chemical_formula_sum "Si O2"
_cell_formula_units_Z 14
_cell_length_a 19.461735
_cell_length_b 11.412272
_cell_length_c 6.719562
_cell_angle_alpha 46.975013
_cell_angle_beta 133.487364
_cell_angle_gamma 147.889796
_cell_volume 556.115514
_symmetry_space_group_name_H-M "P -1"
_symmetry_group_IT_number 2
_symmetry_cell_setting 'triclinic'
loop_
_space_group_symop_operation_xyz
x,y,z
-x,-y,-z
loop_
_atom_site_type_symbol
_atom_site_label
_atom_site_fract_x
_atom_site_fract_y
_atom_site_fract_z
Si Si1 0.130431 0.003487 0.535474
Si Si2 0.201862 0.447392 0.272765
Si Si3 0.492779 0.201268 0.435021
Si Si4 0.854719 0.541960 0.387498
Si Si5 0.391470 0.233410 0.538349
Si Si6 0.428451 0.759792 0.879117
Si Si7 0.045843 0.662337 0.090380
O O1 0.145229 0.204125 0.395953
O O2 0.254692 0.102956 0.529468
O O3 0.997356 0.803945 0.370704
O O4 0.123371 0.895491 0.855214
O O5 0.362698 0.637127 0.353092
O O6 0.189056 0.481678 0.440973
O O7 0.546152 0.858144 0.150807
O O8 0.396186 0.212112 0.336629
O O9 0.527111 0.281838 0.182459
O O10 0.429684 0.948381 0.609043
O O11 0.726114 0.461683 0.111254
O O12 0.874598 0.375354 0.583463
O O13 0.500000 0.500000 0.500000
O O14 0.090229 0.432224 0.971538
O O15 0.000000 0.500000 0.000000
#
# Coordination Sequence:
#
# PCOD9084266 Si02
#       7
#     2   2   2   2   2   2   2
#     4  10  19  34  62  88 129 168 203 258 318 373
#     4   9  16  33  59  90 121 165 207 252 310 376
#     4  10  22  42  66  92 128 168 213 259 320 369
#     4   9  19  37  60  93 121 161 217 260 313 368
#     4  12  25  42  63  98 130 170 211 255 322 385
#     4  10  24  42  68  90 130 164 215 267 313 369
#     4   8  16  29  58  88 117 155 212 250 302 367
#
# _framework density 25.174624999999999
#
# number of rings (size 3 to 8) (size 9 to 14) (size 15 to 20)
#    0.000    2.571    1.429    2.143   10.000    0.571 
#    0.000    2.857    0.000    0.000    0.000    0.000 
#    0.000    0.000    0.000    0.000    0.000    0.000 
#
# Total GULP energy -78220.164780 kJ/mol
# GULP energy per Si atom -5587.154627 kJ/mol
# Density = 2.511733 g / cm^3
# Si number density = 25.174625 Si / 1000 Ang^3
#
#
#
# Elastic Constant Matrix: (Units=GPa)
#
#
# Indices 1 2 3 4 5 6 
#
# 1 124.3616 17.5601 26.7191 -5.4283 0.4948 18.3029
# 2 17.5601 112.4945 23.2652 -3.9292 -3.7734 16.8156
# 3 26.7191 23.2652 61.8414 -2.6513 1.6386 0.5156
# 4 -5.4283 -3.9292 -2.6513 31.1543 -4.6089 0.1995
# 5 0.4948 -3.7734 1.6386 -4.6089 33.7974 -9.4231
# 6 18.3029 16.8156 0.5156 0.1995 -9.4231 42.7088
#
#
#
# Elastic Compliance Matrix: (Units=1/GPa)
#
#
# Indices 1 2 3 4 5 6 
#
# 1 0.009595 -0.000016 -0.004026 0.001210 -0.000975 -0.004278
# 2 -0.000016 0.010316 -0.003806 0.001057 0.000385 -0.003929
# 3 -0.004026 -0.003806 0.019346 0.000380 -0.000446 0.002890
# 4 0.001210 0.001057 0.000380 0.033153 0.004579 -0.000084
# 5 -0.000975 0.000385 -0.000446 0.004579 0.032351 0.007388
# 6 -0.004278 -0.003929 0.002890 -0.000084 0.007388 0.028390
#
#
# Mechanical properties :
#
#
# Convention : Reuss Voigt Hill
#
# Bulk Modulus (GPa) = 42.44490 48.19846 45.32168
# Shear Modulus (GPa) = 31.90802 36.94231 34.42517
#
# Velocity S-wave (km/s) = 3.56401 3.83488 3.70192
# Velocity P-wave (km/s) = 5.81662 6.22861 6.02614
#
# Compressibility (1/GPa) = 0.02355996
#
# Stress axis : x y z
#
# Youngs Moduli (GPa) = 104.22560 96.93576 51.69071
#
# Poissons Ratio (x) = 0.00156 0.20811
# Poissons Ratio (y) = 0.00168 0.19675
# Poissons Ratio (z) = 0.41961 0.36896
#
# Static dielectric constant tensor:
#      x y z
#    x 1.980420 0.030270 -0.025430 
#    y 0.030270 2.015700 0.069970 
#    z -0.025430 0.069970 2.142140 
# 
# From -- ./inp_files/306536.got.cif
#   From: 2010.05.17/outbox.cif.g08.bks.cpg/sg2_154_cif.got.tgz:306536.got - 2010.06.03 11:33:40.
