data_PCOD9084301
_publ_section_title
;
Structure prediction by ZEFSAII (Michael W. Deem and Ramdas Pophale) SiO2 
 PCOD9084301
Probable space group: P -1
;
_chemical_formula_sum "Si O2"
_cell_formula_units_Z 16
_cell_length_a 14.717941
_cell_length_b 14.279441
_cell_length_c 9.027439
_cell_angle_alpha 141.363951
_cell_angle_beta 135.000665
_cell_angle_gamma 68.670505
_cell_volume 757.327823
_symmetry_space_group_name_H-M "P -1"
_symmetry_group_IT_number 2
_symmetry_cell_setting 'triclinic'
loop_
_space_group_symop_operation_xyz
x,y,z
-x,-y,-z
loop_
_atom_site_type_symbol
_atom_site_label
_atom_site_fract_x
_atom_site_fract_y
_atom_site_fract_z
Si Si1 0.011112 0.306706 0.607040
Si Si2 0.449032 0.107303 0.685967
Si Si3 0.459800 0.347231 0.440462
Si Si4 0.376477 0.847364 0.515037
Si Si5 0.303458 0.288052 0.875362
Si Si6 0.821843 0.324504 0.660986
Si Si7 0.136206 0.629458 0.735576
Si Si8 0.701111 0.457745 0.415765
O O1 0.142493 0.258201 0.687826
O O2 0.917951 0.260966 0.593788
O O3 0.905969 0.255928 0.282620
O O4 0.078651 0.508841 0.930828
O O5 0.312617 0.151881 0.604131
O O6 0.500000 0.000000 0.500000
O O7 0.449018 0.026695 0.746155
O O8 0.564347 0.291563 0.015891
O O9 0.501232 0.213926 0.397872
O O10 0.341711 0.392540 0.435167
O O11 0.606283 0.518506 0.828878
O O12 0.395750 0.294381 0.136981
O O13 0.288243 0.808442 0.519091
O O14 0.259281 0.739650 0.125374
O O15 0.750407 0.404957 0.560808
O O16 0.190319 0.522133 0.562252
O O17 0.000000 0.500000 0.500000
#
# Coordination Sequence:
#
# PCOD9084301 Si02
#       8
#     2   2   2   2   2   2   2   2
#     4  10  19  36  60  90 115 158 193 254 300 342
#     4  11  24  41  58  82 131 170 186 241 308 379
#     4  10  19  34  62  94 114 147 205 266 288 339
#     4  12  22  38  58  94 122 156 204 241 306 356
#     4  10  19  38  62  87 120 156 206 241 304 348
#     4  10  19  34  64  89 117 149 204 251 295 348
#     4  11  21  35  59  89 123 156 200 248 293 352
#     4  10  21  39  63  89 122 157 199 246 311 354
#
# _framework density 21.126915
#
# number of rings (size 3 to 8) (size 9 to 14) (size 15 to 20)
#    0.000    1.500    5.000    1.500    0.000    2.500 
#    2.250    1.250    0.000    0.000    0.000    0.000 
#    0.000    0.000    0.000    0.000    0.000    0.000 
#
# Total GULP energy -89161.193933 kJ/mol
# GULP energy per Si atom -5572.574621 kJ/mol
# Density = 2.107883 g / cm^3
# Si number density = 21.126915 Si / 1000 Ang^3
#
#
#
# Elastic Constant Matrix: (Units=GPa)
#
#
# Indices 1 2 3 4 5 6 
#
# 1 198.6614 60.6871 21.4154 5.5562 -6.5431 -17.8528
# 2 60.6871 70.6797 2.4096 2.0028 -2.7726 -13.6991
# 3 21.4154 2.4096 37.9668 -10.7201 -15.7230 -10.0689
# 4 5.5562 2.0028 -10.7201 29.7049 -5.0634 1.3228
# 5 -6.5431 -2.7726 -15.7230 -5.0634 18.7248 -0.4350
# 6 -17.8528 -13.6991 -10.0689 1.3228 -0.4350 40.5874
#
#
#
# Elastic Compliance Matrix: (Units=1/GPa)
#
#
# Indices 1 2 3 4 5 6 
#
# 1 0.007859 -0.006741 -0.008549 -0.005234 -0.006865 -0.000842
# 2 -0.006741 0.021157 0.010089 0.005014 0.010759 0.006631
# 3 -0.008549 0.010089 0.078831 0.041554 0.076370 0.018665
# 4 -0.005234 0.005014 0.041554 0.057369 0.049514 0.008360
# 5 -0.006865 0.010759 0.076370 0.049514 0.130564 0.019343
# 6 -0.000842 0.006631 0.018665 0.008360 0.019343 0.031071
#
#
# Mechanical properties :
#
#
# Convention : Reuss Voigt Hill
#
# Bulk Modulus (GPa) = 10.26220 52.92580 31.59400
# Shear Modulus (GPa) = 13.52321 32.65649 23.08985
#
# Velocity S-wave (km/s) = 2.53275 3.93584 3.30951
# Velocity P-wave (km/s) = 3.66348 6.76463 5.43973
#
# Compressibility (1/GPa) = 0.09744498
#
# Stress axis : x y z
#
# Youngs Moduli (GPa) = 127.24224 47.26515 12.68544
#
# Poissons Ratio (x) = 0.31860 0.10845
# Poissons Ratio (y) = 0.85770 -0.12799
# Poissons Ratio (z) = 1.08785 -0.47687
#
# Static dielectric constant tensor:
#      x y z
#    x 1.893950 -0.021970 0.002370 
#    y -0.021970 1.765260 -0.037360 
#    z 0.002370 -0.037360 1.852850 
# 
# From -- ./inp_files/312202.got.cif
#   From: 2010.05.17/outbox.cif.g08.bks.cpg/sg2_157_cif.got.tgz:312202.got - 2010.06.03 11:33:40.
