data_PCOD9084343
_publ_section_title
;
Structure prediction by ZEFSAII (Michael W. Deem and Ramdas Pophale) SiO2 
 PCOD9084343
Probable space group: P -1
;
_chemical_formula_sum "Si O2"
_cell_formula_units_Z 16
_cell_length_a 16.663364
_cell_length_b 20.631795
_cell_length_c 12.290547
_cell_angle_alpha 152.502238
_cell_angle_beta 41.968839
_cell_angle_gamma 155.947651
_cell_volume 743.838954
_symmetry_space_group_name_H-M "P -1"
_symmetry_group_IT_number 2
_symmetry_cell_setting 'triclinic'
loop_
_space_group_symop_operation_xyz
x,y,z
-x,-y,-z
loop_
_atom_site_type_symbol
_atom_site_label
_atom_site_fract_x
_atom_site_fract_y
_atom_site_fract_z
Si Si1 0.124145 0.552363 0.253121
Si Si2 0.449785 0.843394 0.556798
Si Si3 0.409815 0.738604 0.043837
Si Si4 0.777305 0.884004 0.989557
Si Si5 0.106050 0.393755 0.370677
Si Si6 0.506000 0.613049 0.063176
Si Si7 0.019550 0.190774 0.913502
Si Si8 0.257715 0.312522 0.474642
O O1 0.265233 0.690908 0.426638
O O2 0.284786 0.689186 0.196068
O O3 0.991496 0.563738 0.412275
O O4 0.972552 0.271441 0.998582
O O5 0.342125 0.668547 0.510617
O O6 0.544541 0.090392 0.831874
O O7 0.577729 0.837029 0.365109
O O8 0.615225 0.850441 0.051150
O O9 0.263161 0.477798 0.751181
O O10 0.651521 0.710841 0.962959
O O11 0.820047 0.805188 0.740783
O O12 0.000751 0.170368 0.214602
O O13 0.020224 0.259172 0.136774
O O14 0.262243 0.387046 0.935957
O O15 0.500000 0.500000 0.000000
O O16 0.869540 0.912789 0.651983
O O17 0.500000 0.500000 0.500000
#
# Coordination Sequence:
#
# PCOD9084343 Si02
#       8
#     2   2   2   2   2   2   2   2
#     4  10  16  25  45  71 102 134 150 205 253 298
#     4  10  18  29  48  75 106 126 164 209 260 297
#     4  11  18  29  47  75 108 135 159 196 252 321
#     4  10  17  33  48  73 104 133 166 202 253 302
#     4   9  17  26  47  71 100 133 148 202 265 300
#     4  10  20  35  56  75  96 131 174 218 255 285
#     4   9  18  33  45  71 107 131 169 203 244 301
#     4   9  21  31  47  72 108 144 163 192 246 316
#
# _framework density 21.510031999999999
#
# number of rings (size 3 to 8) (size 9 to 14) (size 15 to 20)
#    0.000    2.500    3.750    2.625    3.500    0.500 
#    0.000    5.625    0.000    1.500    0.000    0.000 
#    0.000    0.000    0.000    0.000    0.000    0.000 
#
# Total GULP energy -89075.029451 kJ/mol
# GULP energy per Si atom -5567.189341 kJ/mol
# Density = 2.146107 g / cm^3
# Si number density = 21.510032 Si / 1000 Ang^3
#
#
#
# Elastic Constant Matrix: (Units=GPa)
#
#
# Indices 1 2 3 4 5 6 
#
# 1 29.0063 4.4550 13.6286 9.9215 -12.9967 -8.0597
# 2 4.4550 112.8902 37.7935 14.8998 1.0256 -14.9414
# 3 13.6286 37.7935 139.6797 31.7616 -11.6423 -1.2402
# 4 9.9215 14.8998 31.7616 42.7359 -8.9807 -13.6533
# 5 -12.9967 1.0256 -11.6423 -8.9807 1.6019 -0.5360
# 6 -8.0597 -14.9414 -1.2402 -13.6533 -0.5360 20.4156
#
#
#
# Elastic Compliance Matrix: (Units=1/GPa)
#
#
# Indices 1 2 3 4 5 6 
#
# 1 0.007302 0.002621 -0.003326 -0.018104 -0.071239 -0.009379
# 2 0.002621 0.010993 -0.003384 0.001449 0.001053 0.009871
# 3 -0.003326 -0.003384 0.010288 -0.008166 0.001300 -0.008592
# 4 -0.018104 0.001449 -0.008166 0.030249 -0.033300 0.012773
# 5 -0.071239 0.001053 0.001300 -0.033300 -0.149530 -0.053470
# 6 -0.009379 0.009871 -0.008592 0.012773 -0.053470 0.059120
#
#
# Mechanical properties :
#
#
# Convention : Reuss Voigt Hill
#
# Bulk Modulus (GPa) = 49.00799 43.70340 46.35570
# Shear Modulus (GPa) = -301.28266 27.99727 -136.64270
#
# Velocity S-wave (km/s) = -11.84779 3.61167 -7.97891
# Velocity P-wave (km/s) = 12.81901 6.14443 7.95528
#
# Compressibility (1/GPa) = 0.02040484
#
# Stress axis : x y z
#
# Youngs Moduli (GPa) = 136.94314 90.96336 97.19679
#
# Poissons Ratio (x) = -0.23838 0.32327
# Poissons Ratio (y) = -0.35887 0.32894
# Poissons Ratio (z) = 0.45547 0.30785
#
# Static dielectric constant tensor:
#      x y z
#    x 1.879850 -0.011750 -0.048670 
#    y -0.011750 1.816330 0.038520 
#    z -0.048670 0.038520 1.928580 
# 
# From -- ./inp_files/252690.got.cif
#   From: 2010.05.17/outbox.cif.g08.bks.cpg/sg2_127_cif.got.tgz:252690.got - 2010.06.03 11:33:40.
