data_PCOD9084957
_publ_section_title
;
Structure prediction by ZEFSAII (Michael W. Deem and Ramdas Pophale) SiO2 
 PCOD9084957
Probable space group: P -1
;
_chemical_formula_sum "Si O2"
_cell_formula_units_Z 14
_cell_length_a 25.314061
_cell_length_b 25.082721
_cell_length_c 8.312745
_cell_angle_alpha 137.794035
_cell_angle_beta 41.782142
_cell_angle_gamma 168.591210
_cell_volume 693.735392
_symmetry_space_group_name_H-M "P -1"
_symmetry_group_IT_number 2
_symmetry_cell_setting 'triclinic'
loop_
_space_group_symop_operation_xyz
x,y,z
-x,-y,-z
loop_
_atom_site_type_symbol
_atom_site_label
_atom_site_fract_x
_atom_site_fract_y
_atom_site_fract_z
Si Si1 0.330468 0.258486 0.877789
Si Si2 0.408944 0.770565 0.564714
Si Si3 0.786356 0.686161 0.242589
Si Si4 0.893513 0.311037 0.873247
Si Si5 0.240734 0.738024 0.612248
Si Si6 0.357624 0.175123 0.917492
Si Si7 0.906326 0.947326 0.352370
O O1 0.443199 0.300805 0.837176
O O2 0.255336 0.156683 0.643402
O O3 0.500000 0.500000 0.000000
O O4 0.076476 0.048774 0.084833
O O5 0.298771 0.716360 0.543118
O O6 0.555176 0.831765 0.308353
O O7 0.151251 0.504892 0.670250
O O8 0.630783 0.033295 0.748719
O O9 0.744402 0.731401 0.351130
O O10 0.526506 0.383287 0.135276
O O11 0.891116 0.808043 0.453682
O O12 0.041911 0.886097 0.025853
O O13 0.821659 0.252828 0.093845
O O14 0.000000 0.500000 0.000000
O O15 0.000000 0.500000 0.500000
O O16 0.500000 0.000000 0.500000
#
# Coordination Sequence:
#
# PCOD9084957 Si02
#       7
#     2   2   2   2   2   2   2
#     4  10  19  35  58  81 111 150 204 241 285 333
#     4  11  22  40  61  87 124 156 195 236 294 354
#     4  10  21  36  57  83 110 153 195 236 298 339
#     4  10  20  39  65  89 114 158 198 230 279 362
#     4  11  21  37  64  91 116 148 194 240 283 340
#     4  11  23  38  58  83 118 155 188 241 295 342
#     4   9  20  34  56  81 108 146 203 252 273 342
#
# _framework density 20.180606000000001
#
# number of rings (size 3 to 8) (size 9 to 14) (size 15 to 20)
#    0.000    1.714    1.429    5.143    2.000    1.714 
#    0.000    4.286    0.000    0.000    0.000    0.000 
#    0.000    0.000    0.000    0.000    0.000    0.000 
#
# Total GULP energy -78113.133378 kJ/mol
# GULP energy per Si atom -5579.509527 kJ/mol
# Density = 2.013467 g / cm^3
# Si number density = 20.180606 Si / 1000 Ang^3
#
#
#
# Elastic Constant Matrix: (Units=GPa)
#
#
# Indices 1 2 3 4 5 6 
#
# 1 94.4853 25.0157 52.6798 7.5378 19.2844 17.3481
# 2 25.0157 105.4736 24.4022 -2.9985 12.8515 8.7678
# 3 52.6798 24.4022 101.2642 -0.1436 11.7795 15.2922
# 4 7.5378 -2.9985 -0.1436 42.2907 7.2101 10.7919
# 5 19.2844 12.8515 11.7795 7.2101 37.9392 -1.4116
# 6 17.3481 8.7678 15.2922 10.7919 -1.4116 27.3425
#
#
#
# Elastic Compliance Matrix: (Units=1/GPa)
#
#
# Indices 1 2 3 4 5 6 
#
# 1 0.017408 -0.001154 -0.006968 -0.000318 -0.006494 -0.006988
# 2 -0.001154 0.010743 -0.001127 0.002329 -0.003263 -0.003170
# 3 -0.006968 -0.001127 0.014595 0.002564 -0.001261 -0.004458
# 4 -0.000318 0.002329 0.002564 0.028617 -0.007370 -0.013655
# 5 -0.006494 -0.003263 -0.001261 -0.007370 0.032946 0.010482
# 6 -0.006988 -0.003170 -0.004458 -0.013655 0.010482 0.050447
#
#
# Mechanical properties :
#
#
# Convention : Reuss Voigt Hill
#
# Bulk Modulus (GPa) = 41.23906 56.15760 48.69833
# Shear Modulus (GPa) = 27.57327 34.78949 31.18138
#
# Velocity S-wave (km/s) = 3.70039 4.15650 3.93506
# Velocity P-wave (km/s) = 6.22387 7.13605 6.69551
#
# Compressibility (1/GPa) = 0.02424886
#
# Stress axis : x y z
#
# Youngs Moduli (GPa) = 57.44634 93.08618 68.51676
#
# Poissons Ratio (x) = 0.10738 0.47740
# Poissons Ratio (y) = 0.06627 0.07722
# Poissons Ratio (z) = 0.40027 0.10491
#
# Static dielectric constant tensor:
#      x y z
#    x 1.752540 0.001530 0.020040 
#    y 0.001530 1.755680 -0.033930 
#    z 0.020040 -0.033930 1.755030 
# 
# From -- ./inp_files/355954.got.cif
#   From: 2010.05.17/outbox.cif.g08.bks.cpg/sg2_178_cif.got.tgz:355954.got - 2010.06.03 11:33:40.
