data_PCOD9084228
_publ_section_title
;
Structure prediction by ZEFSAII (Michael W. Deem and Ramdas Pophale) SiO2 
 PCOD9084228
Probable space group: P -1
;
_chemical_formula_sum "Si O2"
_cell_formula_units_Z 16
_cell_length_a 8.848658
_cell_length_b 6.834530
_cell_length_c 13.743377
_cell_angle_alpha 120.478947
_cell_angle_beta 92.781815
_cell_angle_gamma 84.095359
_cell_volume 712.491445
_symmetry_space_group_name_H-M "P -1"
_symmetry_group_IT_number 2
_symmetry_cell_setting 'triclinic'
loop_
_space_group_symop_operation_xyz
x,y,z
-x,-y,-z
loop_
_atom_site_type_symbol
_atom_site_label
_atom_site_fract_x
_atom_site_fract_y
_atom_site_fract_z
Si Si1 0.333773 0.691875 0.979498
Si Si2 0.087606 0.742207 0.139834
Si Si3 0.182450 0.934043 0.859511
Si Si4 0.151739 0.524385 0.448053
Si Si5 0.824729 0.999442 0.456494
Si Si6 0.570813 0.810328 0.173659
Si Si7 0.051484 0.458568 0.736451
Si Si8 0.696976 0.966320 0.650919
O O1 0.259648 0.886342 0.954922
O O2 0.377267 0.453552 0.865924
O O3 0.217254 0.633342 0.045890
O O4 0.473517 0.781209 0.064262
O O5 0.008278 0.569382 0.163255
O O6 0.169166 0.914444 0.257543
O O7 0.964647 0.887127 0.106825
O O8 0.126364 0.687602 0.772659
O O9 0.299004 0.032989 0.813504
O O10 0.209613 0.764106 0.540635
O O11 0.268457 0.304470 0.404524
O O12 0.000000 0.500000 0.500000
O O13 0.093588 0.542288 0.339574
O O14 0.834286 0.764284 0.339647
O O15 0.716390 0.006619 0.547624
O O16 0.000000 0.000000 0.500000
O O17 0.459017 0.928638 0.280628
#
# Coordination Sequence:
#
# PCOD9084228 Si02
#       8
#     2   2   2   2   2   2   2   2
#     4  10  24  47  66  87 121 169 217 258 309 368
#     4  11  22  39  66  97 124 158 213 267 311 359
#     4  12  24  40  63  93 129 165 205 262 318 367
#     4  11  18  34  63  96 126 159 206 255 303 361
#     4  10  19  34  61  94 130 158 201 258 304 363
#     4  10  25  45  65  86 128 167 211 253 309 387
#     4  11  22  35  61  98 131 158 196 264 319 358
#     4  11  20  39  65  98 121 166 213 252 306 372
#
# _framework density 22.456410000000002
#
# number of rings (size 3 to 8) (size 9 to 14) (size 15 to 20)
#    0.000    1.250    6.250    1.500    0.000    4.000 
#    2.250    0.625    0.000    3.750    0.000    0.000 
#    0.000    0.000    0.000    0.000    0.000    0.000 
#
# Total GULP energy -89501.246110 kJ/mol
# GULP energy per Si atom -5593.827882 kJ/mol
# Density = 2.240530 g / cm^3
# Si number density = 22.456410 Si / 1000 Ang^3
#
#
#
# Elastic Constant Matrix: (Units=GPa)
#
#
# Indices 1 2 3 4 5 6 
#
# 1 68.6129 30.3293 21.8064 12.9191 -19.8346 3.7444
# 2 30.3293 121.8104 25.9902 11.2183 -22.7944 3.8699
# 3 21.8064 25.9902 60.0928 13.2984 -22.9824 -2.9948
# 4 12.9191 11.2183 13.2984 40.9763 -6.9368 8.3012
# 5 -19.8346 -22.7944 -22.9824 -6.9368 46.4735 3.1268
# 6 3.7444 3.8699 -2.9948 8.3012 3.1268 28.2506
#
#
#
# Elastic Compliance Matrix: (Units=1/GPa)
#
#
# Indices 1 2 3 4 5 6 
#
# 1 0.018891 -0.002770 -0.003295 -0.002880 0.004789 -0.002157
# 2 -0.002770 0.009956 -0.002290 -0.000381 0.002607 -0.001416
# 3 -0.003295 -0.002290 0.023219 -0.005324 0.007896 0.003902
# 4 -0.002880 -0.000381 -0.005324 0.029070 0.000880 -0.008770
# 5 0.004789 0.002607 0.007896 0.000880 0.029121 -0.003637
# 6 -0.002157 -0.001416 0.003902 -0.008770 -0.003637 0.039270
#
#
# Mechanical properties :
#
#
# Convention : Reuss Voigt Hill
#
# Bulk Modulus (GPa) = 28.28476 45.19644 36.74060
# Shear Modulus (GPa) = 28.08605 34.63277 31.35941
#
# Velocity S-wave (km/s) = 3.54035 3.93137 3.74097
# Velocity P-wave (km/s) = 5.41617 6.38573 5.92083
#
# Compressibility (1/GPa) = 0.03535473
#
# Stress axis : x y z
#
# Youngs Moduli (GPa) = 52.93512 100.44477 43.06729
#
# Poissons Ratio (x) = 0.27828 0.14192
# Poissons Ratio (y) = 0.14666 0.09862
# Poissons Ratio (z) = 0.17444 0.23000
#
# Static dielectric constant tensor:
#      x y z
#    x 1.853080 -0.004680 0.068240 
#    y -0.004680 1.817060 0.002150 
#    z 0.068240 0.002150 1.865850 
# 
# From -- ./inp_files/135326.got.cif
#   From: 2010.05.17/outbox.cif.g08.bks.cpg/sg2_68_cif.got.tgz:135326.got - 2010.06.03 11:33:40.
