data_PCOD9084874
_publ_section_title
;
Structure prediction by ZEFSAII (Michael W. Deem and Ramdas Pophale) SiO2 
 PCOD9084874
Probable space group: P -1
;
_chemical_formula_sum "Si O2"
_cell_formula_units_Z 16
_cell_length_a 18.732970
_cell_length_b 5.421367
_cell_length_c 8.991676
_cell_angle_alpha 124.509190
_cell_angle_beta 60.014210
_cell_angle_gamma 103.729551
_cell_volume 650.426773
_symmetry_space_group_name_H-M "P -1"
_symmetry_group_IT_number 2
_symmetry_cell_setting 'triclinic'
loop_
_space_group_symop_operation_xyz
x,y,z
-x,-y,-z
loop_
_atom_site_type_symbol
_atom_site_label
_atom_site_fract_x
_atom_site_fract_y
_atom_site_fract_z
Si Si1 0.275994 0.651133 0.196431
Si Si2 0.039994 0.167911 0.379980
Si Si3 0.166572 0.506668 0.503653
Si Si4 0.112370 0.805405 0.929949
Si Si5 0.786177 0.661408 0.128337
Si Si6 0.680431 0.732772 0.544188
Si Si7 0.503018 0.246361 0.215606
Si Si8 0.435582 0.318178 0.906378
O O1 0.197624 0.705347 0.405174
O O2 0.325198 0.944243 0.260898
O O3 0.245411 0.558928 0.037892
O O4 0.342558 0.383658 0.084819
O O5 0.132763 0.221938 0.359374
O O6 0.000000 0.500000 0.500000
O O7 0.000000 0.000000 0.500000
O O8 0.043143 0.974006 0.160566
O O9 0.096894 0.647324 0.734766
O O10 0.246950 0.447836 0.502764
O O11 0.149386 0.539265 0.907043
O O12 0.173778 0.062374 0.902478
O O13 0.713288 0.765256 0.353445
O O14 0.589497 0.621303 0.610949
O O15 0.557830 0.513052 0.199714
O O16 0.538287 0.031241 0.236453
O O17 0.500000 0.000000 0.000000
O O18 0.500000 0.500000 0.000000
#
# Coordination Sequence:
#
# PCOD9084874 Si02
#       8
#     2   2   2   2   2   2   2   2
#     4  12  22  39  70  93 129 179 224 275 332 384
#     4  12  28  47  72 102 141 171 208 268 327 393
#     4  11  25  42  74  98 129 180 222 263 333 386
#     4  11  24  47  68 100 138 164 221 272 314 397
#     4  11  25  40  66 104 130 167 226 282 317 381
#     4  11  23  40  68  95 131 175 227 275 326 387
#     4  10  19  35  57  86 128 169 216 271 324 382
#     4  10  20  34  57  89 125 172 219 267 328 388
#
# _framework density 24.599233999999999
#
# number of rings (size 3 to 8) (size 9 to 14) (size 15 to 20)
#    0.000    1.000    5.000    3.000    1.750    1.000 
#    0.000    1.250    0.000    0.000    0.000    0.000 
#    0.000    0.000    0.000    0.000    0.000    0.000 
#
# Total GULP energy -89446.726750 kJ/mol
# GULP energy per Si atom -5590.420422 kJ/mol
# Density = 2.454325 g / cm^3
# Si number density = 24.599234 Si / 1000 Ang^3
#
#
#
# Elastic Constant Matrix: (Units=GPa)
#
#
# Indices 1 2 3 4 5 6 
#
# 1 39.1156 16.6865 19.0299 5.3710 7.7732 -15.9196
# 2 16.6865 128.0203 20.5109 -16.5658 -6.2555 -14.6324
# 3 19.0299 20.5109 82.0672 -9.2875 13.0077 -12.9636
# 4 5.3710 -16.5658 -9.2875 38.0096 -0.7772 -9.0313
# 5 7.7732 -6.2555 13.0077 -0.7772 33.2708 5.2752
# 6 -15.9196 -14.6324 -12.9636 -9.0313 5.2752 23.3711
#
#
#
# Elastic Compliance Matrix: (Units=1/GPa)
#
#
# Indices 1 2 3 4 5 6 
#
# 1 0.042548 -0.002735 -0.002635 -0.001379 -0.013964 0.028427
# 2 -0.002735 0.009781 -0.000512 0.005953 0.001890 0.005851
# 3 -0.002635 -0.000512 0.016740 0.006825 -0.007696 0.011545
# 4 -0.001379 0.005953 0.006825 0.035734 -0.003758 0.021230
# 5 -0.013964 0.001890 -0.007696 -0.003758 0.040264 -0.023138
# 6 0.028427 0.005851 0.011545 0.021230 -0.023138 0.085645
#
#
# Mechanical properties :
#
#
# Convention : Reuss Voigt Hill
#
# Bulk Modulus (GPa) = 17.45054 40.18421 28.81738
# Shear Modulus (GPa) = 19.11478 31.79535 25.45506
#
# Velocity S-wave (km/s) = 2.79058 3.59908 3.22031
# Velocity P-wave (km/s) = 4.18240 5.80019 5.05642
#
# Compressibility (1/GPa) = 0.05730482
#
# Stress axis : x y z
#
# Youngs Moduli (GPa) = 23.50297 102.23687 59.73713
#
# Poissons Ratio (x) = 0.27966 0.15740
# Poissons Ratio (y) = 0.06429 0.03058
# Poissons Ratio (z) = 0.06193 0.05234
#
# Static dielectric constant tensor:
#      x y z
#    x 1.973890 -0.067120 -0.032240 
#    y -0.067120 2.047690 -0.065400 
#    z -0.032240 -0.065400 2.044440 
# 
# From -- ./inp_files/53406.got.cif
#   From: 2010.05.17/outbox.cif.g08.bks.cpg/sg2_27_cif.got.tgz:53406.got - 2010.06.03 11:33:40.
