data_PCOD9084741
_publ_section_title
;
Structure prediction by ZEFSAII (Michael W. Deem and Ramdas Pophale) SiO2 
 PCOD9084741
Probable space group: P -1
;
_chemical_formula_sum "Si O2"
_cell_formula_units_Z 16
_cell_length_a 11.470830
_cell_length_b 8.969021
_cell_length_c 9.382352
_cell_angle_alpha 105.657568
_cell_angle_beta 120.431626
_cell_angle_gamma 68.140883
_cell_volume 768.457202
_symmetry_space_group_name_H-M "P -1"
_symmetry_group_IT_number 2
_symmetry_cell_setting 'triclinic'
loop_
_space_group_symop_operation_xyz
x,y,z
-x,-y,-z
loop_
_atom_site_type_symbol
_atom_site_label
_atom_site_fract_x
_atom_site_fract_y
_atom_site_fract_z
Si Si1 0.282116 0.006005 0.819325
Si Si2 0.827764 0.112435 0.533012
Si Si3 0.049861 0.077412 0.913107
Si Si4 0.206901 0.256629 0.197154
Si Si5 0.274633 0.537961 0.438850
Si Si6 0.366521 0.938136 0.367306
Si Si7 0.427197 0.586652 0.254250
Si Si8 0.581253 0.741608 0.925341
O O1 0.169533 0.007671 0.625836
O O2 0.420481 0.853976 0.849591
O O3 0.201814 0.994213 0.913985
O O4 0.337018 0.165809 0.895840
O O5 0.811696 0.290573 0.508942
O O6 0.685369 0.109409 0.526072
O O7 0.940397 0.083227 0.720871
O O8 0.071038 0.249230 0.020089
O O9 0.000000 0.000000 0.000000
O O10 0.190067 0.408197 0.327826
O O11 0.338368 0.251500 0.172733
O O12 0.252436 0.090822 0.270406
O O13 0.326902 0.575135 0.323340
O O14 0.414045 0.465138 0.599250
O O15 0.393420 0.776335 0.246210
O O16 0.500000 0.000000 0.500000
O O17 0.412658 0.446430 0.100859
#
# Coordination Sequence:
#
# PCOD9084741 Si02
#       8
#     2   2   2   2   2   2   2   2
#     4  10  20  35  62  84 115 150 197 236 284 344
#     4  11  21  36  58  87 113 155 199 231 281 342
#     4  11  23  39  56  83 116 156 197 239 279 336
#     4  10  19  35  56  89 116 150 188 237 284 337
#     4   9  17  30  54  85 116 143 190 238 279 337
#     4  11  19  29  57  92 119 145 182 238 295 343
#     4   9  16  29  51  86 120 143 182 234 290 345
#     4   9  18  35  59  85 115 148 190 239 289 332
#
# _framework density 20.820938999999999
#
# number of rings (size 3 to 8) (size 9 to 14) (size 15 to 20)
#    0.000    2.000    3.750    1.125    0.000    0.500 
#    0.000    0.000    0.000   15.750    0.000    0.000 
#    0.000    0.000    0.000    0.000    0.000    0.000 
#
# Total GULP energy -89145.812426 kJ/mol
# GULP energy per Si atom -5571.613277 kJ/mol
# Density = 2.077355 g / cm^3
# Si number density = 20.820939 Si / 1000 Ang^3
#
#
#
# Elastic Constant Matrix: (Units=GPa)
#
#
# Indices 1 2 3 4 5 6 
#
# 1 65.1596 12.3675 18.1542 14.0081 10.0320 16.2429
# 2 12.3675 119.1887 50.9009 37.6615 6.9800 20.9352
# 3 18.1542 50.9009 119.4178 32.1806 19.2810 10.3726
# 4 14.0081 37.6615 32.1806 36.6742 4.8132 5.6294
# 5 10.0320 6.9800 19.2810 4.8132 22.8618 8.1223
# 6 16.2429 20.9352 10.3726 5.6294 8.1223 11.5843
#
#
#
# Elastic Compliance Matrix: (Units=1/GPa)
#
#
# Indices 1 2 3 4 5 6 
#
# 1 0.031960 0.013927 -0.002593 -0.015255 0.011355 -0.068209
# 2 0.013927 0.025328 -0.004869 -0.019560 0.016852 -0.063251
# 3 -0.002593 -0.004869 0.013288 -0.005925 -0.011385 0.011398
# 4 -0.015255 -0.019560 -0.005925 0.053011 -0.008507 0.042247
# 5 0.011355 0.016852 -0.011385 -0.008507 0.075100 -0.084704
# 6 -0.068209 -0.063251 0.011398 0.042247 -0.084704 0.324926
#
#
# Mechanical properties :
#
#
# Convention : Reuss Voigt Hill
#
# Bulk Modulus (GPa) = 11.97511 51.84568 31.91039
# Shear Modulus (GPa) = 9.28474 29.04694 19.16584
#
# Velocity S-wave (km/s) = 2.11400 3.73913 3.03728
# Velocity P-wave (km/s) = 3.42383 6.60275 5.25923
#
# Compressibility (1/GPa) = 0.08350657
#
# Stress axis : x y z
#
# Youngs Moduli (GPa) = 31.28891 39.48228 75.25404
#
# Poissons Ratio (x) = -0.54987 0.19512
# Poissons Ratio (y) = -0.43576 0.36641
# Poissons Ratio (z) = 0.08113 0.19224
#
# Static dielectric constant tensor:
#      x y z
#    x 1.773450 -0.028460 0.008310 
#    y -0.028460 1.786510 0.038040 
#    z 0.008310 0.038040 1.819350 
# 
# From -- ./inp_files/239947.got.cif
#   From: 2010.05.17/outbox.cif.g08.bks.cpg/sg2_120_cif.got.tgz:239947.got - 2010.06.03 11:33:40.
