data_PCOD9084597
_publ_section_title
;
Structure prediction by ZEFSAII (Michael W. Deem and Ramdas Pophale) SiO2 
 PCOD9084597
Probable space group: P -1
;
_chemical_formula_sum "Si O2"
_cell_formula_units_Z 14
_cell_length_a 20.256088
_cell_length_b 9.702533
_cell_length_c 8.352848
_cell_angle_alpha 50.353691
_cell_angle_beta 129.172405
_cell_angle_gamma 143.643898
_cell_volume 723.945766
_symmetry_space_group_name_H-M "P -1"
_symmetry_group_IT_number 2
_symmetry_cell_setting 'triclinic'
loop_
_space_group_symop_operation_xyz
x,y,z
-x,-y,-z
loop_
_atom_site_type_symbol
_atom_site_label
_atom_site_fract_x
_atom_site_fract_y
_atom_site_fract_z
Si Si1 0.372569 0.481212 0.161564
Si Si2 0.233963 0.489041 0.171652
Si Si3 0.471802 0.787227 0.512314
Si Si4 0.387552 0.136589 0.620094
Si Si5 0.887980 0.921049 0.467721
Si Si6 0.784293 0.138709 0.166961
Si Si7 0.659759 0.667618 0.140163
O O1 0.275348 0.484199 0.063163
O O2 0.371145 0.322155 0.411698
O O3 0.502049 0.738721 0.188307
O O4 0.354326 0.376645 0.036316
O O5 0.355454 0.655427 0.330303
O O6 0.146372 0.225363 0.312190
O O7 0.185082 0.618983 0.015908
O O8 0.575136 0.899394 0.462671
O O9 0.441745 0.573927 0.737012
O O10 0.500000 0.000000 0.500000
O O11 0.276117 0.927214 0.704057
O O12 0.777331 0.731562 0.324093
O O13 0.884278 0.130943 0.329574
O O14 0.000000 0.000000 0.500000
O O15 0.689404 0.907544 0.075947
#
# Coordination Sequence:
#
# PCOD9084597 Si02
#       7
#     2   2   2   2   2   2   2
#     4  10  19  35  55  80 118 155 183 227 271 336
#     4  10  21  37  56  85 115 143 193 225 285 341
#     4  10  22  33  50  85 119 157 186 227 269 333
#     4  10  20  33  53  78 123 158 182 222 276 327
#     4   9  20  43  62  80 109 143 190 246 288 326
#     4  10  21  37  57  86 108 153 188 227 284 334
#     4   9  21  36  54  86 110 149 194 228 275 331
#
# _framework density 19.338463999999998
#
# number of rings (size 3 to 8) (size 9 to 14) (size 15 to 20)
#    0.857    1.429    1.429    1.714    6.000    2.857 
#    0.000    0.714    0.000    0.857    0.000    0.000 
#    0.000    0.000    0.000    0.000    0.000    0.000 
#
# Total GULP energy -78010.338209 kJ/mol
# GULP energy per Si atom -5572.167015 kJ/mol
# Density = 1.929445 g / cm^3
# Si number density = 19.338464 Si / 1000 Ang^3
#
#
#
# Elastic Constant Matrix: (Units=GPa)
#
#
# Indices 1 2 3 4 5 6 
#
# 1 154.2175 28.7518 35.8331 -3.0838 11.3578 -9.0785
# 2 28.7518 25.5665 8.2360 1.1616 0.2028 -18.7754
# 3 35.8331 8.2360 64.1588 -7.6335 8.2031 -12.7225
# 4 -3.0838 1.1616 -7.6335 14.0770 -15.6826 4.9841
# 5 11.3578 0.2028 8.2031 -15.6826 29.8746 -1.9575
# 6 -9.0785 -18.7754 -12.7225 4.9841 -1.9575 30.5063
#
#
#
# Elastic Compliance Matrix: (Units=1/GPa)
#
#
# Indices 1 2 3 4 5 6 
#
# 1 0.010687 -0.018631 -0.005189 0.003333 -0.001489 -0.011090
# 2 -0.018631 0.120739 0.006128 -0.068236 -0.025945 0.080805
# 3 -0.005189 0.006128 0.020331 0.006231 0.000256 0.009705
# 4 0.003333 -0.068236 0.006231 0.234732 0.116167 -0.069303
# 5 -0.001489 -0.025945 0.000256 0.116167 0.093207 -0.029303
# 6 -0.011090 0.080805 0.009705 -0.069303 -0.029303 0.092702
#
#
# Mechanical properties :
#
#
# Convention : Reuss Voigt Hill
#
# Bulk Modulus (GPa) = 8.59308 43.28720 25.94014
# Shear Modulus (GPa) = 7.73308 26.29971 17.01639
#
# Velocity S-wave (km/s) = 2.00187 3.69178 2.96957
# Velocity P-wave (km/s) = 3.12993 6.37219 5.02003
#
# Compressibility (1/GPa) = 0.11637275
#
# Stress axis : x y z
#
# Youngs Moduli (GPa) = 93.57108 8.28233 49.18574
#
# Poissons Ratio (x) = 0.15431 0.25525
# Poissons Ratio (y) = 1.74332 -0.30142
# Poissons Ratio (z) = 0.48559 -0.05076
#
# Static dielectric constant tensor:
#      x y z
#    x 1.689940 -0.009280 0.029380 
#    y -0.009280 1.677020 -0.011110 
#    z 0.029380 -0.011110 1.730320 
# 
# From -- ./inp_files/342447.got.cif
#   From: 2010.05.17/outbox.cif.g08.bks.cpg/sg2_172_cif.got.tgz:342447.got - 2010.06.03 11:33:40.
