data_PCOD9084920
_publ_section_title
;
Structure prediction by ZEFSAII (Michael W. Deem and Ramdas Pophale) SiO2 
 PCOD9084920
Probable space group: P -1
;
_chemical_formula_sum "Si O2"
_cell_formula_units_Z 16
_cell_length_a 12.080363
_cell_length_b 12.586620
_cell_length_c 7.745082
_cell_angle_alpha 103.548746
_cell_angle_beta 47.953972
_cell_angle_gamma 117.504020
_cell_volume 770.641447
_symmetry_space_group_name_H-M "P -1"
_symmetry_group_IT_number 2
_symmetry_cell_setting 'triclinic'
loop_
_space_group_symop_operation_xyz
x,y,z
-x,-y,-z
loop_
_atom_site_type_symbol
_atom_site_label
_atom_site_fract_x
_atom_site_fract_y
_atom_site_fract_z
Si Si1 0.409496 0.360752 0.089392
Si Si2 0.636163 0.857324 0.355336
Si Si3 0.460674 0.139808 0.996410
Si Si4 0.850135 0.959241 0.479622
Si Si5 0.355583 0.372782 0.553407
Si Si6 0.993443 0.785160 0.097512
Si Si7 0.628123 0.114406 0.162107
Si Si8 0.114138 0.176269 0.146798
O O1 0.496903 0.270093 0.925973
O O2 0.500000 0.500000 0.000000
O O3 0.381817 0.351116 0.318896
O O4 0.237217 0.302100 0.146143
O O5 0.738677 0.954199 0.429310
O O6 0.621634 0.727896 0.390740
O O7 0.459351 0.855895 0.570455
O O8 0.764612 0.882538 0.074246
O O9 0.447241 0.030822 0.844488
O O10 0.277616 0.088483 0.251276
O O11 0.579140 0.155291 0.044226
O O12 0.933066 0.872261 0.301397
O O13 0.990074 0.093003 0.387893
O O14 0.500000 0.500000 0.500000
O O15 0.162751 0.345814 0.765131
O O16 0.982835 0.812344 0.915950
O O17 0.177028 0.818594 0.981525
#
# Coordination Sequence:
#
# PCOD9084920 Si02
#       8
#     2   2   2   2   2   2   2   2
#     4  12  22  38  63  89 118 155 211 262 294 347
#     4   9  18  39  56  88 124 160 198 239 305 375
#     4  10  21  38  59  98 119 170 199 248 312 363
#     4   9  17  35  58  86 126 148 211 255 291 356
#     4  10  20  39  64  85 114 160 218 249 293 358
#     4  10  19  35  57  92 119 160 204 249 306 362
#     4  10  20  36  63  88 134 162 193 243 316 384
#     4  10  21  34  60  92 123 155 207 259 301 346
#
# _framework density 20.761925999999999
#
# number of rings (size 3 to 8) (size 9 to 14) (size 15 to 20)
#    0.000    2.250    3.750    3.750    1.750    1.000 
#    0.000   11.875    0.000    0.750    0.000    0.000 
#    0.000    0.000    0.000    0.000    0.000    0.000 
#
# Total GULP energy -89194.935461 kJ/mol
# GULP energy per Si atom -5574.683466 kJ/mol
# Density = 2.071467 g / cm^3
# Si number density = 20.761926 Si / 1000 Ang^3
#
#
#
# Elastic Constant Matrix: (Units=GPa)
#
#
# Indices 1 2 3 4 5 6 
#
# 1 117.0887 39.8078 30.5729 -13.0470 -20.0771 16.9693
# 2 39.8078 126.6323 37.5513 -31.8855 -7.2419 9.5780
# 3 30.5729 37.5513 95.4664 -11.4376 -16.3706 5.7503
# 4 -13.0470 -31.8855 -11.4376 32.1318 6.0916 1.6379
# 5 -20.0771 -7.2419 -16.3706 6.0916 44.3048 -4.8288
# 6 16.9693 9.5780 5.7503 1.6379 -4.8288 37.7195
#
#
#
# Elastic Compliance Matrix: (Units=1/GPa)
#
#
# Indices 1 2 3 4 5 6 
#
# 1 0.010988 -0.002149 -0.001711 0.001264 0.003413 -0.003755
# 2 -0.002149 0.012223 -0.003011 0.010649 -0.001811 -0.002372
# 3 -0.001711 -0.003011 0.012824 0.000229 0.003441 0.000010
# 4 0.001264 0.010649 0.000229 0.043370 -0.004189 -0.005727
# 5 0.003413 -0.001811 0.003441 -0.004189 0.025875 0.001894
# 6 -0.003755 -0.002372 0.000010 -0.005727 0.001894 0.029293
#
#
# Mechanical properties :
#
#
# Convention : Reuss Voigt Hill
#
# Bulk Modulus (GPa) = 44.85895 61.67238 53.26566
# Shear Modulus (GPa) = 32.10356 38.24825 35.17591
#
# Velocity S-wave (km/s) = 3.93653 4.29678 4.12059
# Velocity P-wave (km/s) = 6.50500 7.37465 6.95343
#
# Compressibility (1/GPa) = 0.02229210
#
# Stress axis : x y z
#
# Youngs Moduli (GPa) = 91.00660 81.81562 77.97827
#
# Poissons Ratio (x) = 0.17586 0.13339
# Poissons Ratio (y) = 0.19562 0.23482
# Poissons Ratio (z) = 0.15567 0.24637
#
# Static dielectric constant tensor:
#      x y z
#    x 1.888170 0.008610 0.033600 
#    y 0.008610 1.782450 0.001430 
#    z 0.033600 0.001430 1.804090 
# 
# From -- ./inp_files/311648.got.cif
#   From: 2010.05.17/outbox.cif.g08.bks.cpg/sg2_156_cif.got.tgz:311648.got - 2010.06.03 11:33:40.
