data_PCOD9084405
_publ_section_title
;
Structure prediction by ZEFSAII (Michael W. Deem and Ramdas Pophale) SiO2 
 PCOD9084405
Probable space group: P -1
;
_chemical_formula_sum "Si O2"
_cell_formula_units_Z 16
_cell_length_a 9.580481
_cell_length_b 8.092460
_cell_length_c 14.565801
_cell_angle_alpha 63.085783
_cell_angle_beta 133.008199
_cell_angle_gamma 92.075753
_cell_volume 668.943773
_symmetry_space_group_name_H-M "P -1"
_symmetry_group_IT_number 2
_symmetry_cell_setting 'triclinic'
loop_
_space_group_symop_operation_xyz
x,y,z
-x,-y,-z
loop_
_atom_site_type_symbol
_atom_site_label
_atom_site_fract_x
_atom_site_fract_y
_atom_site_fract_z
Si Si1 0.569333 0.030698 0.785636
Si Si2 0.471285 0.659552 0.689046
Si Si3 0.708144 0.882660 0.687881
Si Si4 0.451595 0.755024 0.093854
Si Si5 0.619549 0.259927 0.135201
Si Si6 0.335434 0.473869 0.502526
Si Si7 0.944258 0.979807 0.614034
Si Si8 0.928878 0.674086 0.346595
O O1 0.644617 0.110521 0.891255
O O2 0.386665 0.241691 0.611047
O O3 0.706739 0.964217 0.770353
O O4 0.504599 0.850992 0.836575
O O5 0.681549 0.676841 0.746564
O O6 0.531461 0.474000 0.831291
O O7 0.378876 0.581404 0.583311
O O8 0.283695 0.884029 0.568041
O O9 0.500000 0.000000 0.500000
O O10 0.889213 0.889390 0.704557
O O11 0.689947 0.731064 0.202048
O O12 0.350132 0.833312 0.931177
O O13 0.500000 0.500000 0.000000
O O14 0.854881 0.200789 0.295909
O O15 0.500000 0.500000 0.500000
O O16 0.085325 0.593988 0.349118
O O17 0.034083 0.145740 0.633539
O O18 0.000000 0.500000 0.500000
#
# Coordination Sequence:
#
# PCOD9084405 Si02
#       8
#     2   2   2   2   2   2   2   2
#     4  11  21  39  67  91 129 168 205 264 322 376
#     4   9  19  38  63  91 125 160 206 268 325 369
#     4  10  21  40  64  96 129 163 205 262 329 382
#     4  11  22  40  66  93 128 169 214 265 315 381
#     4  12  26  44  60  92 132 180 219 258 313 384
#     4  10  19  34  64  97 126 156 206 266 327 372
#     4  10  20  39  66  89 129 167 212 270 320 376
#     4  11  17  36  63  94 125 158 209 274 320 370
#
# _framework density 23.918305
#
# number of rings (size 3 to 8) (size 9 to 14) (size 15 to 20)
#    0.000    1.500    5.000    3.375    0.000    0.000 
#    6.750    6.250    2.750    0.000    0.000    0.000 
#    0.000    0.000    0.000    0.000    0.000    0.000 
#
# Total GULP energy -89179.415030 kJ/mol
# GULP energy per Si atom -5573.713439 kJ/mol
# Density = 2.386387 g / cm^3
# Si number density = 23.918305 Si / 1000 Ang^3
#
#
#
# Elastic Constant Matrix: (Units=GPa)
#
#
# Indices 1 2 3 4 5 6 
#
# 1 151.5882 26.9556 33.0290 -6.6069 -32.9833 8.1401
# 2 26.9556 88.6260 27.4764 -21.2788 -11.0200 16.2042
# 3 33.0290 27.4764 68.2615 -8.5397 -26.9727 -1.3669
# 4 -6.6069 -21.2788 -8.5397 39.2156 -4.5753 -9.2061
# 5 -32.9833 -11.0200 -26.9727 -4.5753 32.7297 6.4842
# 6 8.1401 16.2042 -1.3669 -9.2061 6.4842 39.4386
#
#
#
# Elastic Compliance Matrix: (Units=1/GPa)
#
#
# Indices 1 2 3 4 5 6 
#
# 1 0.009042 -0.000597 -0.000240 0.001593 0.009494 -0.002818
# 2 -0.000597 0.015728 -0.003946 0.006691 0.003463 -0.005483
# 3 -0.000240 -0.003946 0.024785 0.005642 0.019517 0.000638
# 4 0.001593 0.006691 0.005642 0.032724 0.012549 0.002693
# 5 0.009494 0.003463 0.019517 0.012549 0.061069 -0.009817
# 6 -0.002818 -0.005483 0.000638 0.002693 -0.009817 0.030455
#
#
# Mechanical properties :
#
#
# Convention : Reuss Voigt Hill
#
# Bulk Modulus (GPa) = 25.00812 53.71087 39.35949
# Shear Modulus (GPa) = 25.41941 37.01108 31.21524
#
# Velocity S-wave (km/s) = 3.26354 3.93796 3.61650
# Velocity P-wave (km/s) = 4.96782 6.57126 5.82498
#
# Compressibility (1/GPa) = 0.03998702
#
# Stress axis : x y z
#
# Youngs Moduli (GPa) = 110.59668 63.58030 40.34767
#
# Poissons Ratio (x) = 0.03798 0.00970
# Poissons Ratio (y) = 0.06607 0.15921
# Poissons Ratio (z) = 0.02659 0.25089
#
# Static dielectric constant tensor:
#      x y z
#    x 2.043970 -0.081780 0.001040 
#    y -0.081780 2.045920 0.018600 
#    z 0.001040 0.018600 1.940520 
# 
# From -- ./inp_files/492333.got.cif
#   From: 2010.05.17/outbox.cif.g08.bks.cpg/sg2_247_cif.got.tgz:492333.got - 2010.06.03 11:33:40.
