data_PCOD9084043
_publ_section_title
;
Structure prediction by ZEFSAII (Michael W. Deem and Ramdas Pophale) SiO2 
 PCOD9084043
Probable space group: P -1
;
_chemical_formula_sum "Si O2"
_cell_formula_units_Z 16
_cell_length_a 11.803628
_cell_length_b 9.379582
_cell_length_c 8.472354
_cell_angle_alpha 85.935102
_cell_angle_beta 139.145922
_cell_angle_gamma 83.564873
_cell_volume 591.972268
_symmetry_space_group_name_H-M "P -1"
_symmetry_group_IT_number 2
_symmetry_cell_setting 'triclinic'
loop_
_space_group_symop_operation_xyz
x,y,z
-x,-y,-z
loop_
_atom_site_type_symbol
_atom_site_label
_atom_site_fract_x
_atom_site_fract_y
_atom_site_fract_z
Si Si1 0.109887 0.925148 0.970131
Si Si2 0.120502 0.687393 0.550682
Si Si3 0.726703 0.873330 0.049685
Si Si4 0.383345 0.354789 0.237110
Si Si5 0.344250 0.212156 0.524557
Si Si6 0.923499 0.366457 0.120769
Si Si7 0.240962 0.972514 0.603552
Si Si8 0.412090 0.461305 0.749676
O O1 0.166664 0.749710 0.056001
O O2 0.968188 0.956996 0.671076
O O3 0.260573 0.007382 0.079632
O O4 0.000000 0.000000 0.000000
O O5 0.109885 0.651076 0.726075
O O6 0.204757 0.540133 0.554391
O O7 0.925708 0.765112 0.278228
O O8 0.241076 0.803028 0.637398
O O9 0.705227 0.958733 0.185130
O O10 0.614117 0.758626 0.895341
O O11 0.417348 0.252753 0.433873
O O12 0.512235 0.457977 0.318706
O O13 0.187760 0.468488 0.046662
O O14 0.345889 0.043560 0.577432
O O15 0.436553 0.290859 0.749233
O O16 0.132704 0.302327 0.304758
O O17 0.500000 0.500000 0.000000
#
# Coordination Sequence:
#
# PCOD9084043 Si02
#       8
#     2   2   2   2   2   2   2   2
#     4  10  19  34  59  96 129 153 194 261 322 362
#     4  11  21  40  66  98 121 161 213 262 301 367
#     4  11  19  38  66  94 120 162 210 258 308 359
#     4  12  26  41  62  94 132 167 205 253 317 373
#     4  11  24  43  63  92 127 162 206 263 314 366
#     4  11  21  40  67  97 125 159 211 257 313 366
#     4  10  20  38  64  94 121 158 211 260 309 361
#     4  12  26  43  63  90 127 173 210 252 308 373
#
# _framework density 27.028293999999999
#
# number of rings (size 3 to 8) (size 9 to 14) (size 15 to 20)
#    0.000    1.000    5.000    4.500    0.000    3.000 
#    0.000    4.375    0.000    0.000    0.000    0.000 
#    0.000    0.000    0.000    0.000    0.000    0.000 
#
# Total GULP energy -89692.642118 kJ/mol
# GULP energy per Si atom -5605.790132 kJ/mol
# Density = 2.696678 g / cm^3
# Si number density = 27.028294 Si / 1000 Ang^3
#
#
#
# Elastic Constant Matrix: (Units=GPa)
#
#
# Indices 1 2 3 4 5 6 
#
# 1 118.0596 11.1978 24.9998 -4.2683 -3.7987 23.7426
# 2 11.1978 134.6694 30.9557 3.1514 -11.6228 11.9051
# 3 24.9998 30.9557 57.3033 -6.6614 0.4027 0.2218
# 4 -4.2683 3.1514 -6.6614 38.0075 2.2176 1.8358
# 5 -3.7987 -11.6228 0.4027 2.2176 39.8244 -6.8301
# 6 23.7426 11.9051 0.2218 1.8358 -6.8301 52.4596
#
#
#
# Elastic Compliance Matrix: (Units=1/GPa)
#
#
# Indices 1 2 3 4 5 6 
#
# 1 0.010433 0.000699 -0.004858 0.000472 0.000394 -0.004825
# 2 0.000699 0.009036 -0.005390 -0.001668 0.002515 -0.001958
# 3 -0.004858 -0.005390 0.022938 0.003896 -0.001983 0.002931
# 4 0.000472 -0.001668 0.003896 0.027365 -0.002193 -0.001095
# 5 0.000394 0.002515 -0.001983 -0.002193 0.026502 0.002786
# 6 -0.004825 -0.001958 0.002931 -0.001095 0.002786 0.022079
#
#
# Mechanical properties :
#
#
# Convention : Reuss Voigt Hill
#
# Bulk Modulus (GPa) = 42.90488 49.37099 46.13794
# Shear Modulus (GPa) = 34.43038 42.25025 38.34032
#
# Velocity S-wave (km/s) = 3.57300 3.95800 3.77042
# Velocity P-wave (km/s) = 5.73849 6.26049 6.00517
#
# Compressibility (1/GPa) = 0.02330737
#
# Stress axis : x y z
#
# Youngs Moduli (GPa) = 95.85074 110.67274 43.59646
#
# Poissons Ratio (x) = -0.07733 0.21180
# Poissons Ratio (y) = -0.06698 0.23498
# Poissons Ratio (z) = 0.46567 0.59652
#
# Static dielectric constant tensor:
#      x y z
#    x 2.104890 0.012020 0.064320 
#    y 0.012020 2.047710 -0.013000 
#    z 0.064320 -0.013000 2.179320 
# 
# From -- ./inp_files/158705.got.cif
#   From: 2010.05.17/outbox.cif.g08.bks.cpg/sg2_80_cif.got.tgz:158705.got - 2010.06.03 11:33:40.
