data_PCOD9084446
_publ_section_title
;
Structure prediction by ZEFSAII (Michael W. Deem and Ramdas Pophale) SiO2 
 PCOD9084446
Probable space group: P -1
;
_chemical_formula_sum "Si O2"
_cell_formula_units_Z 16
_cell_length_a 13.880404
_cell_length_b 11.159689
_cell_length_c 11.697740
_cell_angle_alpha 153.061525
_cell_angle_beta 117.210669
_cell_angle_gamma 58.449860
_cell_volume 699.351659
_symmetry_space_group_name_H-M "P -1"
_symmetry_group_IT_number 2
_symmetry_cell_setting 'triclinic'
loop_
_space_group_symop_operation_xyz
x,y,z
-x,-y,-z
loop_
_atom_site_type_symbol
_atom_site_label
_atom_site_fract_x
_atom_site_fract_y
_atom_site_fract_z
Si Si1 0.799514 0.454988 0.055453
Si Si2 0.578226 0.471558 0.405149
Si Si3 0.181352 0.045203 0.619452
Si Si4 0.353635 0.533116 0.238442
Si Si5 0.297449 0.165877 0.094330
Si Si6 0.090883 0.550285 0.426700
Si Si7 0.992784 0.865297 0.239901
Si Si8 0.096508 0.703885 0.806506
O O1 0.790872 0.777571 0.317201
O O2 0.802985 0.324232 0.071137
O O3 0.709155 0.433611 0.890625
O O4 0.929171 0.313077 0.965589
O O5 0.500000 0.500000 0.500000
O O6 0.485840 0.504728 0.282548
O O7 0.636780 0.710720 0.666629
O O8 0.662094 0.163256 0.175163
O O9 0.092218 0.887155 0.397750
O O10 0.293206 0.812903 0.513160
O O11 0.106614 0.232157 0.837337
O O12 0.327431 0.294613 0.100054
O O13 0.168839 0.300976 0.182088
O O14 0.066190 0.830240 0.580307
O O15 0.143035 0.605393 0.622951
O O16 0.973651 0.501338 0.361766
O O17 0.000000 0.000000 0.000000
#
# Coordination Sequence:
#
# PCOD9084446 Si02
#       8
#     2   2   2   2   2   2   2   2
#     4  11  22  34  60  87 122 174 204 258 319 387
#     4  10  23  42  63  96 133 167 211 264 323 391
#     4  10  20  32  53  86 128 155 198 248 322 388
#     4  10  22  35  60  92 127 161 204 261 325 383
#     4  11  24  41  67  96 130 170 215 262 325 388
#     4  11  23  39  62  90 123 173 217 263 318 372
#     4  10  19  35  49  89 123 157 203 247 312 391
#     4  11  24  41  61  84 129 169 222 266 306 382
#
# _framework density 22.878333000000001
#
# number of rings (size 3 to 8) (size 9 to 14) (size 15 to 20)
#    0.000    1.500    3.750    1.875    7.000    1.000 
#    0.000    0.000    0.000    1.500    0.000    0.000 
#    0.000    0.000    0.000    0.000    0.000    0.000 
#
# Total GULP energy -89271.524231 kJ/mol
# GULP energy per Si atom -5579.470264 kJ/mol
# Density = 2.282626 g / cm^3
# Si number density = 22.878333 Si / 1000 Ang^3
#
#
#
# Elastic Constant Matrix: (Units=GPa)
#
#
# Indices 1 2 3 4 5 6 
#
# 1 37.6984 21.9040 11.8952 -3.9970 1.4447 -6.1751
# 2 21.9040 150.6138 46.6324 -23.3698 -1.7936 -3.7556
# 3 11.8952 46.6324 103.7490 1.7055 -7.4299 0.3303
# 4 -3.9970 -23.3698 1.7055 46.3617 -3.7403 -5.4122
# 5 1.4447 -1.7936 -7.4299 -3.7403 29.8939 -3.2644
# 6 -6.1751 -3.7556 0.3303 -5.4122 -3.2644 28.2314
#
#
#
# Elastic Compliance Matrix: (Units=1/GPa)
#
#
# Indices 1 2 3 4 5 6 
#
# 1 0.030423 -0.003371 -0.002113 0.001644 -0.001294 0.006396
# 2 -0.003371 0.009040 -0.003720 0.004614 0.000517 0.001453
# 3 -0.002113 -0.003720 0.011766 -0.002451 0.002356 -0.001292
# 4 0.001644 0.004614 -0.002451 0.025128 0.003411 0.006214
# 5 -0.001294 0.000517 0.002356 0.003411 0.035045 0.004464
# 6 0.006396 0.001453 -0.001292 0.006214 0.004464 0.038736
#
#
# Mechanical properties :
#
#
# Convention : Reuss Voigt Hill
#
# Bulk Modulus (GPa) = 30.46841 50.32495 40.39668
# Shear Modulus (GPa) = 27.85710 35.00606 31.43158
#
# Velocity S-wave (km/s) = 3.49323 3.91589 3.71058
# Velocity P-wave (km/s) = 5.44212 6.51844 6.00445
#
# Compressibility (1/GPa) = 0.03282088
#
# Stress axis : x y z
#
# Youngs Moduli (GPa) = 32.86944 110.61981 84.98981
#
# Poissons Ratio (x) = 0.37292 0.17958
# Poissons Ratio (y) = 0.11081 0.31618
# Poissons Ratio (z) = 0.06945 0.41153
#
# Static dielectric constant tensor:
#      x y z
#    x 1.879610 0.000740 -0.002910 
#    y 0.000740 1.971100 -0.079030 
#    z -0.002910 -0.079030 1.999060 
# 
# From -- ./inp_files/109306.got.cif
#   From: 2010.05.17/outbox.cif.g08.bks.cpg/sg2_55_cif.got.tgz:109306.got - 2010.06.03 11:33:40.
