data_PCOD9084603
_publ_section_title
;
Structure prediction by ZEFSAII (Michael W. Deem and Ramdas Pophale) SiO2 
 PCOD9084603
Probable space group: P -1
;
_chemical_formula_sum "Si O2"
_cell_formula_units_Z 14
_cell_length_a 9.428675
_cell_length_b 12.712315
_cell_length_c 9.765237
_cell_angle_alpha 45.880987
_cell_angle_beta 102.029732
_cell_angle_gamma 131.003023
_cell_volume 563.597442
_symmetry_space_group_name_H-M "P -1"
_symmetry_group_IT_number 2
_symmetry_cell_setting 'triclinic'
loop_
_space_group_symop_operation_xyz
x,y,z
-x,-y,-z
loop_
_atom_site_type_symbol
_atom_site_label
_atom_site_fract_x
_atom_site_fract_y
_atom_site_fract_z
Si Si1 0.360777 0.706992 0.857209
Si Si2 0.832503 0.149711 0.967744
Si Si3 0.210318 0.105755 0.284322
Si Si4 0.964138 0.752810 0.351811
Si Si5 0.996188 0.762056 0.772728
Si Si6 0.611541 0.293841 0.718019
Si Si7 0.658955 0.188073 0.543964
O O1 0.553388 0.733663 0.867871
O O2 0.315060 0.718086 0.681653
O O3 0.468512 0.929631 0.741523
O O4 0.150237 0.481549 0.080161
O O5 0.904490 0.188889 0.102528
O O6 0.630223 0.900764 0.111789
O O7 0.012316 0.236612 0.816692
O O8 0.744464 0.250509 0.836888
O O9 0.159335 0.214841 0.255520
O O10 0.047484 0.956695 0.262202
O O11 0.163759 0.938137 0.533871
O O12 0.132615 0.750291 0.431683
O O13 0.736147 0.533287 0.556264
O O14 0.613232 0.271863 0.574901
#
# Coordination Sequence:
#
# PCOD9084603 Si02
#       7
#     2   2   2   2   2   2   2
#     4  10  19  36  58  81 112 145 176 225 276 320
#     4  10  21  34  57  82 105 142 185 214 270 336
#     4  10  24  38  54  81 110 143 193 225 258 321
#     4  10  20  37  55  80 113 141 173 226 272 317
#     4  11  22  39  57  78 109 149 185 226 267 312
#     4  10  19  35  55  81 113 139 170 227 276 320
#     4   9  18  33  57  88 112 136 179 220 274 339
#
# _framework density 24.840426000000001
#
# number of rings (size 3 to 8) (size 9 to 14) (size 15 to 20)
#    0.000    2.000    0.000    4.714    0.000    5.143 
#    0.000    8.571    0.000    0.000    0.000    0.000 
#    0.000    0.000    0.000    0.000    0.000    0.000 
#
# Total GULP energy -78403.113587 kJ/mol
# GULP energy per Si atom -5600.222399 kJ/mol
# Density = 2.478389 g / cm^3
# Si number density = 24.840426 Si / 1000 Ang^3
#
#
#
# Elastic Constant Matrix: (Units=GPa)
#
#
# Indices 1 2 3 4 5 6 
#
# 1 44.9632 -8.2286 7.7344 -11.7709 -3.9531 -2.2202
# 2 -8.2286 79.2803 41.2798 13.5051 -4.7065 4.4751
# 3 7.7344 41.2798 117.0302 -23.7061 -19.5627 15.3140
# 4 -11.7709 13.5051 -23.7061 32.8493 -3.6322 -5.3829
# 5 -3.9531 -4.7065 -19.5627 -3.6322 15.5368 4.5034
# 6 -2.2202 4.4751 15.3140 -5.3829 4.5034 21.5941
#
#
#
# Elastic Compliance Matrix: (Units=1/GPa)
#
#
# Indices 1 2 3 4 5 6 
#
# 1 0.026455 -0.000748 0.003608 0.014094 0.014083 0.000893
# 2 -0.000748 0.025001 -0.019037 -0.025874 -0.024645 0.006933
# 3 0.003608 -0.019037 0.033905 0.035831 0.052523 -0.021750
# 4 0.014094 -0.025874 0.035831 0.076849 0.062442 -0.012465
# 5 0.014083 -0.024645 0.052523 0.062442 0.154963 -0.047444
# 6 0.000893 0.006933 -0.021750 -0.012465 -0.047444 0.067176
#
#
# Mechanical properties :
#
#
# Convention : Reuss Voigt Hill
#
# Bulk Modulus (GPa) = 18.86557 35.87167 27.36862
# Shear Modulus (GPa) = 11.51083 27.36193 19.43638
#
# Velocity S-wave (km/s) = 2.15499 3.32250 2.80026
# Velocity P-wave (km/s) = 3.71526 5.40286 4.63649
#
# Compressibility (1/GPa) = 0.05300662
#
# Stress axis : x y z
#
# Youngs Moduli (GPa) = 37.80013 39.99796 29.49410
#
# Poissons Ratio (x) = 0.02992 -0.10641
# Poissons Ratio (y) = 0.02827 0.56148
# Poissons Ratio (z) = -0.13637 0.76145
#
# Static dielectric constant tensor:
#      x y z
#    x 1.941070 0.016420 0.008330 
#    y 0.016420 1.961640 0.006240 
#    z 0.008330 0.006240 1.973340 
# 
# From -- ./inp_files/432458.got.cif
#   From: 2010.05.17/outbox.cif.g08.bks.cpg/sg2_217_cif.got.tgz:432458.got - 2010.06.03 11:33:40.
