data_PCOD9084443
_publ_section_title
;
Structure prediction by ZEFSAII (Michael W. Deem and Ramdas Pophale) SiO2 
 PCOD9084443
Probable space group: P -1
;
_chemical_formula_sum "Si O2"
_cell_formula_units_Z 16
_cell_length_a 5.081354
_cell_length_b 18.802794
_cell_length_c 11.403050
_cell_angle_alpha 147.674934
_cell_angle_beta 96.381341
_cell_angle_gamma 89.560978
_cell_volume 571.286153
_symmetry_space_group_name_H-M "P -1"
_symmetry_group_IT_number 2
_symmetry_cell_setting 'triclinic'
loop_
_space_group_symop_operation_xyz
x,y,z
-x,-y,-z
loop_
_atom_site_type_symbol
_atom_site_label
_atom_site_fract_x
_atom_site_fract_y
_atom_site_fract_z
Si Si1 0.027487 0.218511 0.003648
Si Si2 0.184324 0.414742 0.462050
Si Si3 0.972648 0.587265 0.299181
Si Si4 0.158660 0.320411 0.917060
Si Si5 0.660940 0.996920 0.212039
Si Si6 0.618497 0.156604 0.715023
Si Si7 0.549012 0.242022 0.295944
Si Si8 0.778429 0.831857 0.589920
O O1 0.171905 0.329515 0.074352
O O2 0.731380 0.188184 0.896597
O O3 0.186396 0.094105 0.822292
O O4 0.030301 0.266544 0.203622
O O5 0.474965 0.369568 0.394822
O O6 0.000000 0.500000 0.500000
O O7 0.202331 0.465116 0.667499
O O8 0.201840 0.691560 0.521220
O O9 0.817615 0.680921 0.341319
O O10 0.095796 0.465571 0.080255
O O11 0.415642 0.255960 0.808397
O O12 0.896150 0.204411 0.723714
O O13 0.454074 0.095507 0.378211
O O14 0.928815 0.078686 0.278718
O O15 0.481398 0.891187 0.969390
O O16 0.500000 0.000000 0.500000
O O17 0.325799 0.195624 0.321198
#
# Coordination Sequence:
#
# PCOD9084443 Si02
#       8
#     2   2   2   2   2   2   2   2
#     4   9  23  36  59  90 117 155 191 246 293 348
#     4  10  19  35  48  83 123 165 190 232 282 345
#     4  11  23  36  57  85 124 164 203 232 284 345
#     4  10  23  38  63  90 123 143 195 240 293 360
#     4  11  23  36  54  79 117 158 206 247 276 328
#     4  10  22  42  65  90 117 148 188 243 309 360
#     4  10  23  33  52  75 115 164 212 237 276 327
#     4  11  23  37  54  77 114 165 208 243 276 322
#
# _framework density 28.006978
#
# number of rings (size 3 to 8) (size 9 to 14) (size 15 to 20)
#    0.750    1.000    2.500    1.125   12.250    1.500 
#    0.000    0.000    0.000    0.000    0.000    5.250 
#    0.000    0.000    0.000    0.000    0.000    0.000 
#
# Total GULP energy -89331.388733 kJ/mol
# GULP energy per Si atom -5583.211796 kJ/mol
# Density = 2.794323 g / cm^3
# Si number density = 28.006978 Si / 1000 Ang^3
#
#
#
# Elastic Constant Matrix: (Units=GPa)
#
#
# Indices 1 2 3 4 5 6 
#
# 1 153.0258 22.9637 64.0170 15.1377 -8.8273 -29.6920
# 2 22.9637 102.2390 45.6521 28.9897 -19.2246 -39.5682
# 3 64.0170 45.6521 153.5634 12.0598 -43.8210 -21.6189
# 4 15.1377 28.9897 12.0598 58.1294 -13.9451 -23.5769
# 5 -8.8273 -19.2246 -43.8210 -13.9451 50.7394 17.1359
# 6 -29.6920 -39.5682 -21.6189 -23.5769 17.1359 50.9070
#
#
#
# Elastic Compliance Matrix: (Units=1/GPa)
#
#
# Indices 1 2 3 4 5 6 
#
# 1 0.009134 0.001671 -0.004543 -0.000937 -0.003835 0.005554
# 2 0.001671 0.016104 -0.004232 -0.003741 -0.001868 0.010590
# 3 -0.004543 -0.004232 0.011725 0.001768 0.009326 -0.003281
# 4 -0.000937 -0.003741 0.001768 0.022484 0.003974 0.006372
# 5 -0.003835 -0.001868 0.009326 0.003974 0.030200 -0.008053
# 6 0.005554 0.010590 -0.003281 0.006372 -0.008053 0.035383
#
#
# Mechanical properties :
#
#
# Convention : Reuss Voigt Hill
#
# Bulk Modulus (GPa) = 43.94983 74.89934 59.42458
# Shear Modulus (GPa) = 34.05480 50.36818 42.21149
#
# Velocity S-wave (km/s) = 3.49082 4.24537 3.88645
# Velocity P-wave (km/s) = 5.65458 7.12966 6.43453
#
# Compressibility (1/GPa) = 0.02275322
#
# Stress axis : x y z
#
# Youngs Moduli (GPa) = 109.48337 62.09779 85.28990
#
# Poissons Ratio (x) = -0.10377 0.38750
# Poissons Ratio (y) = -0.18296 0.36097
# Poissons Ratio (z) = 0.49742 0.26282
#
# Static dielectric constant tensor:
#      x y z
#    x 2.368670 0.121110 -0.024150 
#    y 0.121110 2.394030 0.048480 
#    z -0.024150 0.048480 2.193920 
# 
# From -- ./inp_files/551358.got.cif
#   From: 2010.05.17/outbox.cif.g08.bks.cpg/sg2_276_cif.got.tgz:551358.got - 2010.06.03 11:33:40.
