data_PCOD9084196
_publ_section_title
;
Structure prediction by ZEFSAII (Michael W. Deem and Ramdas Pophale) SiO2 
 PCOD9084196
Probable space group: P -1
;
_chemical_formula_sum "Si O2"
_cell_formula_units_Z 16
_cell_length_a 26.496030
_cell_length_b 26.088652
_cell_length_c 8.067212
_cell_angle_alpha 136.498083
_cell_angle_beta 135.074654
_cell_angle_gamma 11.281366
_cell_volume 750.726188
_symmetry_space_group_name_H-M "P -1"
_symmetry_group_IT_number 2
_symmetry_cell_setting 'triclinic'
loop_
_space_group_symop_operation_xyz
x,y,z
-x,-y,-z
loop_
_atom_site_type_symbol
_atom_site_label
_atom_site_fract_x
_atom_site_fract_y
_atom_site_fract_z
Si Si1 0.745259 0.038392 0.543823
Si Si2 0.246560 0.798616 0.658869
Si Si3 0.866056 0.612697 0.125647
Si Si4 0.244591 0.446311 0.332731
Si Si5 0.252066 0.793986 0.055650
Si Si6 0.210732 0.487827 0.754111
Si Si7 0.709853 0.077099 0.956021
Si Si8 0.366483 0.168048 0.423466
O O1 0.505897 0.226825 0.377428
O O2 0.730780 0.056238 0.754097
O O3 0.740157 0.128486 0.681045
O O4 0.007863 0.733727 0.396567
O O5 0.500000 0.500000 0.500000
O O6 0.248375 0.802902 0.870426
O O7 0.000000 0.000000 0.500000
O O8 0.244906 0.884411 0.788520
O O9 0.100874 0.392844 0.283245
O O10 0.603961 0.922787 0.269236
O O11 0.781233 0.611729 0.926631
O O12 0.000000 0.500000 0.000000
O O13 0.226131 0.461489 0.527433
O O14 0.500000 0.500000 0.000000
O O15 0.000000 0.000000 0.000000
O O16 0.285517 0.334488 0.645997
O O17 0.929653 0.800176 0.876361
O O18 0.426360 0.332206 0.936839
O O19 0.500000 0.000000 0.500000
#
# Coordination Sequence:
#
# PCOD9084196 Si02
#       8
#     2   2   2   2   2   2   2   2
#     4   9  19  34  57  91 118 157 200 252 303 358
#     4  11  22  39  65  94 125 159 207 261 306 355
#     4  12  24  40  67  97 119 159 217 261 306 360
#     4  10  19  34  61  90 119 148 208 269 295 337
#     4  11  22  39  65  92 125 166 207 245 306 383
#     4  10  19  35  61  87 117 157 207 254 297 357
#     4   9  19  34  59  90 114 155 209 251 293 360
#     4  12  26  42  63  91 131 168 203 250 321 382
#
# _framework density 21.312698000000001
#
# number of rings (size 3 to 8) (size 9 to 14) (size 15 to 20)
#    0.000    1.500    1.250    4.500    3.500    4.000 
#    0.000    0.000   27.500    0.000    0.000    0.000 
#    0.000    0.000    0.000    0.000    0.000    0.000 
#
# Total GULP energy -89484.856614 kJ/mol
# GULP energy per Si atom -5592.803538 kJ/mol
# Density = 2.126419 g / cm^3
# Si number density = 21.312698 Si / 1000 Ang^3
#
#
#
# Elastic Constant Matrix: (Units=GPa)
#
#
# Indices 1 2 3 4 5 6 
#
# 1 70.5730 28.0855 29.4275 -3.2996 29.9131 11.2931
# 2 28.0855 160.7546 42.2917 -12.7830 28.8586 4.6791
# 3 29.4275 42.2917 87.5476 -15.6368 40.6536 1.7404
# 4 -3.2996 -12.7830 -15.6368 41.7561 -4.8985 9.3753
# 5 29.9131 28.8586 40.6536 -4.8985 42.4846 5.4873
# 6 11.2931 4.6791 1.7404 9.3753 5.4873 33.8576
#
#
#
# Elastic Compliance Matrix: (Units=1/GPa)
#
#
# Indices 1 2 3 4 5 6 
#
# 1 0.021110 -0.001051 -0.000202 0.000837 -0.013217 -0.004975
# 2 -0.001051 0.007440 -0.001970 0.001331 -0.002199 -0.000589
# 3 -0.000202 -0.001970 0.022409 0.005292 -0.019465 0.000877
# 4 0.000837 0.001331 0.005292 0.027956 -0.002287 -0.008106
# 5 -0.013217 -0.002199 -0.019465 -0.002287 0.052990 -0.002242
# 6 -0.004975 -0.000589 0.000877 -0.008106 -0.002242 0.033839
#
#
# Mechanical properties :
#
#
# Convention : Reuss Voigt Hill
#
# Bulk Modulus (GPa) = 22.46585 57.60939 40.03762
# Shear Modulus (GPa) = 26.73406 38.22438 32.47922
#
# Velocity S-wave (km/s) = 3.54555 4.23957 3.90800
# Velocity P-wave (km/s) = 5.22735 7.14524 6.26018
#
# Compressibility (1/GPa) = 0.04451201
#
# Stress axis : x y z
#
# Youngs Moduli (GPa) = 47.37201 134.40144 44.62508
#
# Poissons Ratio (x) = 0.14123 0.00903
# Poissons Ratio (y) = 0.04978 0.08793
# Poissons Ratio (z) = 0.00958 0.26482
#
# Static dielectric constant tensor:
#      x y z
#    x 1.800410 -0.015920 -0.057090 
#    y -0.015920 1.726260 0.005830 
#    z -0.057090 0.005830 1.793150 
# 
# From -- ./inp_files/217776.got.cif
#   From: 2010.05.17/outbox.cif.g08.bks.cpg/sg2_109_cif.got.tgz:217776.got - 2010.06.03 11:33:40.
