data_PCOD9084841
_publ_section_title
;
Structure prediction by ZEFSAII (Michael W. Deem and Ramdas Pophale) SiO2 
 PCOD9084841
Probable space group: P -1
;
_chemical_formula_sum "Si O2"
_cell_formula_units_Z 16
_cell_length_a 8.940719
_cell_length_b 9.701379
_cell_length_c 9.459995
_cell_angle_alpha 102.395550
_cell_angle_beta 79.428292
_cell_angle_gamma 129.326972
_cell_volume 618.699255
_symmetry_space_group_name_H-M "P -1"
_symmetry_group_IT_number 2
_symmetry_cell_setting 'triclinic'
loop_
_space_group_symop_operation_xyz
x,y,z
-x,-y,-z
loop_
_atom_site_type_symbol
_atom_site_label
_atom_site_fract_x
_atom_site_fract_y
_atom_site_fract_z
Si Si1 0.182218 0.438794 0.781785
Si Si2 0.862644 0.837656 0.094092
Si Si3 0.741319 0.215631 0.139604
Si Si4 0.257727 0.984011 0.678193
Si Si5 0.687221 0.061855 0.816059
Si Si6 0.710644 0.562398 0.536703
Si Si7 0.284344 0.750635 0.414383
Si Si8 0.354681 0.274344 0.166370
O O1 0.084216 0.287471 0.885472
O O2 0.130978 0.574309 0.817044
O O3 0.170987 0.363242 0.613004
O O4 0.413725 0.583205 0.814418
O O5 0.813560 0.897352 0.258650
O O6 0.679747 0.718239 0.991978
O O7 0.000000 0.000000 0.000000
O O8 0.812225 0.116559 0.180060
O O9 0.533419 0.102461 0.231744
O O10 0.685347 0.157452 0.975813
O O11 0.202330 0.823074 0.550425
O O12 0.482456 0.127459 0.625281
O O13 0.778052 0.214171 0.715858
O O14 0.738292 0.931360 0.820833
O O15 0.500000 0.500000 0.500000
O O16 0.747610 0.422975 0.554011
O O17 0.744466 0.675702 0.694831
#
# Coordination Sequence:
#
# PCOD9084841 Si02
#       8
#     2   2   2   2   2   2   2   2
#     4  10  21  36  62  88 118 155 199 255 303 348
#     4  12  26  42  59  86 125 169 204 243 302 366
#     4   9  16  32  53  85 120 148 191 246 303 353
#     4  10  19  35  57  83 123 157 200 246 298 358
#     4   9  18  29  54  90 122 148 189 248 307 350
#     4  10  20  34  55  94 128 149 188 251 309 358
#     4  10  20  31  60  94 119 153 193 255 309 345
#     4  10  21  37  61  90 121 154 204 254 301 353
#
# _framework density 25.860704999999999
#
# number of rings (size 3 to 8) (size 9 to 14) (size 15 to 20)
#    0.000    2.000    2.500    1.875   10.500    0.000 
#    0.000    1.250    0.000    0.750    0.000    0.000 
#    0.000    0.000    0.000    0.000    0.000    0.000 
#
# Total GULP energy -89156.650156 kJ/mol
# GULP energy per Si atom -5572.290635 kJ/mol
# Density = 2.580184 g / cm^3
# Si number density = 25.860705 Si / 1000 Ang^3
#
#
#
# Elastic Constant Matrix: (Units=GPa)
#
#
# Indices 1 2 3 4 5 6 
#
# 1 65.0373 27.6765 13.9413 -5.2103 -6.2459 -9.1881
# 2 27.6765 139.7336 43.9876 -24.2478 -0.9468 -12.5438
# 3 13.9413 43.9876 96.7834 -18.6014 -7.0708 -21.3041
# 4 -5.2103 -24.2478 -18.6014 44.6098 -16.1568 3.1551
# 5 -6.2459 -0.9468 -7.0708 -16.1568 35.0973 -7.3368
# 6 -9.1881 -12.5438 -21.3041 3.1551 -7.3368 50.3131
#
#
#
# Elastic Compliance Matrix: (Units=1/GPa)
#
#
# Indices 1 2 3 4 5 6 
#
# 1 0.017619 -0.002883 0.000202 0.002056 0.004702 0.003141
# 2 -0.002883 0.009369 -0.002914 0.003884 0.001042 0.000484
# 3 0.000202 -0.002914 0.014873 0.006892 0.007435 0.006260
# 4 0.002056 0.003884 0.006892 0.034009 0.018525 0.004831
# 5 0.004702 0.001042 0.007435 0.018525 0.041290 0.009126
# 6 0.003141 0.000484 0.006260 0.004831 0.009126 0.024248
#
#
# Mechanical properties :
#
#
# Convention : Reuss Voigt Hill
#
# Bulk Modulus (GPa) = 32.60202 52.52948 42.56575
# Shear Modulus (GPa) = 30.70821 40.40065 35.55443
#
# Velocity S-wave (km/s) = 3.44967 3.95681 3.71191
# Velocity P-wave (km/s) = 5.33865 6.42119 5.90478
#
# Compressibility (1/GPa) = 0.03067295
#
# Stress axis : x y z
#
# Youngs Moduli (GPa) = 56.75620 106.73219 67.23446
#
# Poissons Ratio (x) = 0.30770 -0.01360
# Poissons Ratio (y) = 0.16362 0.19591
# Poissons Ratio (z) = -0.01148 0.31100
#
# Static dielectric constant tensor:
#      x y z
#    x 2.269320 0.068630 0.105490 
#    y 0.068630 2.067340 0.021980 
#    z 0.105490 0.021980 2.005350 
# 
# From -- ./inp_files/244531.got.cif
#   From: 2010.05.17/outbox.cif.g08.bks.cpg/sg2_123_cif.got.tgz:244531.got - 2010.06.03 11:33:40.
