data_PCOD9084045
_publ_section_title
;
Structure prediction by ZEFSAII (Michael W. Deem and Ramdas Pophale) SiO2 
 PCOD9084045
Probable space group: P -1
;
_chemical_formula_sum "Si O2"
_cell_formula_units_Z 16
_cell_length_a 9.023167
_cell_length_b 11.063881
_cell_length_c 9.075773
_cell_angle_alpha 101.136174
_cell_angle_beta 96.662296
_cell_angle_gamma 54.280222
_cell_volume 721.745510
_symmetry_space_group_name_H-M "P -1"
_symmetry_group_IT_number 2
_symmetry_cell_setting 'triclinic'
loop_
_space_group_symop_operation_xyz
x,y,z
-x,-y,-z
loop_
_atom_site_type_symbol
_atom_site_label
_atom_site_fract_x
_atom_site_fract_y
_atom_site_fract_z
Si Si1 0.378909 0.893479 0.842866
Si Si2 0.190402 0.846733 0.031085
Si Si3 0.425027 0.825702 0.489757
Si Si4 0.195054 0.056081 0.305619
Si Si5 0.196832 0.449776 0.453231
Si Si6 0.126634 0.754556 0.462878
Si Si7 0.783732 0.724115 0.861800
Si Si8 0.033744 0.236448 0.868060
O O1 0.405276 0.865182 0.667662
O O2 0.574335 0.837838 0.914380
O O3 0.211936 0.066786 0.880931
O O4 0.319883 0.796117 0.894760
O O5 0.141671 0.738859 0.064847
O O6 0.250642 0.913531 0.178237
O O7 0.000000 0.000000 0.000000
O O8 0.636465 0.687970 0.467282
O O9 0.278861 0.782539 0.442608
O O10 0.357705 0.973808 0.422311
O O11 0.175997 0.182774 0.227403
O O12 0.011553 0.127731 0.399758
O O13 0.214502 0.588083 0.495601
O O14 0.205906 0.400141 0.271824
O O15 0.000000 0.500000 0.500000
O O16 0.010510 0.761747 0.308924
O O17 0.910816 0.671395 0.007777
#
# Coordination Sequence:
#
# PCOD9084045 Si02
#       8
#     2   2   2   2   2   2   2   2
#     4  10  21  37  58  94 133 158 200 259 320 366
#     4  10  19  34  59  97 126 159 197 265 317 362
#     4  11  24  40  68  97 121 160 218 262 311 366
#     4  12  21  36  70  99 124 155 212 264 314 361
#     4  11  26  46  61  89 131 173 207 251 314 377
#     4  12  23  42  67  93 128 167 207 261 309 368
#     4  11  24  40  62  91 130 170 204 250 318 378
#     4  11  21  37  63  94 126 162 207 257 314 365
#
# _framework density 22.168481
#
# number of rings (size 3 to 8) (size 9 to 14) (size 15 to 20)
#    0.000    1.000    6.250    2.625    0.000    3.500 
#    0.000    0.000    0.000    3.750    0.000    0.000 
#    0.000    0.000    0.000    0.000    0.000    0.000 
#
# Total GULP energy -89253.387380 kJ/mol
# GULP energy per Si atom -5578.336711 kJ/mol
# Density = 2.211802 g / cm^3
# Si number density = 22.168481 Si / 1000 Ang^3
#
#
#
# Elastic Constant Matrix: (Units=GPa)
#
#
# Indices 1 2 3 4 5 6 
#
# 1 68.2348 8.5578 3.0363 -6.3786 2.0083 -21.0035
# 2 8.5578 51.4735 -8.1017 7.6083 -0.2691 -8.9570
# 3 3.0363 -8.1017 53.8583 -12.2339 8.3672 -13.0382
# 4 -6.3786 7.6083 -12.2339 17.8876 3.3233 1.0805
# 5 2.0083 -0.2691 8.3672 3.3233 35.6807 6.0528
# 6 -21.0035 -8.9570 -13.0382 1.0805 6.0528 26.0682
#
#
#
# Elastic Compliance Matrix: (Units=1/GPa)
#
#
# Indices 1 2 3 4 5 6 
#
# 1 0.023854 -0.000328 0.009784 0.015545 -0.009420 0.025543
# 2 -0.000328 0.023167 0.004941 -0.006848 -0.002187 0.010959
# 3 0.009784 0.004941 0.034240 0.025995 -0.015939 0.029330
# 4 0.015545 -0.006848 0.025995 0.084205 -0.018951 0.024083
# 5 -0.009420 -0.002187 -0.015939 -0.018951 0.038181 -0.024393
# 6 0.025543 0.010959 0.029330 0.024083 -0.024393 0.082042
#
#
# Mechanical properties :
#
#
# Convention : Reuss Voigt Hill
#
# Bulk Modulus (GPa) = 9.08643 20.06128 14.57385
# Shear Modulus (GPa) = 17.03107 27.26558 22.14833
#
# Velocity S-wave (km/s) = 2.77475 3.51083 3.16427
# Velocity P-wave (km/s) = 3.79122 5.05012 4.46526
#
# Compressibility (1/GPa) = 0.11005425
#
# Stress axis : x y z
#
# Youngs Moduli (GPa) = 41.92173 43.16437 29.20556
#
# Poissons Ratio (x) = 0.01416 -0.28574
# Poissons Ratio (y) = 0.01375 -0.14429
# Poissons Ratio (z) = -0.41016 -0.21326
#
# Static dielectric constant tensor:
#      x y z
#    x 1.826390 0.040150 -0.033100 
#    y 0.040150 1.819520 0.037710 
#    z -0.033100 0.037710 1.736600 
# 
# From -- ./inp_files/188654.got.cif
#   From: 2010.05.17/outbox.cif.g08.bks.cpg/sg2_95_cif.got.tgz:188654.got - 2010.06.03 11:33:40.
