data_PCOD9084774
_publ_section_title
;
Structure prediction by ZEFSAII (Michael W. Deem and Ramdas Pophale) SiO2 
 PCOD9084774
Probable space group: P -1
;
_chemical_formula_sum "Si O2"
_cell_formula_units_Z 14
_cell_length_a 13.882066
_cell_length_b 11.398623
_cell_length_c 8.276239
_cell_angle_alpha 100.728284
_cell_angle_beta 126.094501
_cell_angle_gamma 122.819625
_cell_volume 593.887578
_symmetry_space_group_name_H-M "P -1"
_symmetry_group_IT_number 2
_symmetry_cell_setting 'triclinic'
loop_
_space_group_symop_operation_xyz
x,y,z
-x,-y,-z
loop_
_atom_site_type_symbol
_atom_site_label
_atom_site_fract_x
_atom_site_fract_y
_atom_site_fract_z
Si Si1 0.044009 0.231058 0.627992
Si Si2 0.302823 0.210490 0.945777
Si Si3 0.296490 0.055222 0.192254
Si Si4 0.839154 0.269370 0.846632
Si Si5 0.722192 0.456204 0.314928
Si Si6 0.334675 0.655443 0.127180
Si Si7 0.409572 0.864633 0.718546
O O1 0.213199 0.265258 0.826887
O O2 0.078084 0.314218 0.503165
O O3 0.123150 0.399800 0.869424
O O4 0.820797 0.985330 0.342157
O O5 0.241528 0.124494 0.047140
O O6 0.549335 0.398864 0.209682
O O7 0.478177 0.235600 0.547733
O O8 0.415741 0.069480 0.182752
O O9 0.132118 0.836021 0.069362
O O10 0.715571 0.251442 0.847942
O O11 0.693742 0.132822 0.510667
O O12 0.000000 0.500000 0.000000
O O13 0.756396 0.371539 0.442035
O O14 0.624441 0.326501 0.017152
O O15 0.500000 0.000000 0.000000
#
# Coordination Sequence:
#
# PCOD9084774 Si02
#       7
#     2   2   2   2   2   2   2
#     4   9  21  36  61  84 117 137 200 226 274 339
#     4  10  20  38  61  85 110 152 182 239 278 321
#     4  10  21  36  55  80 114 149 187 224 284 337
#     4  11  23  35  55  82 118 146 184 236 279 330
#     4   9  19  35  62  80 113 147 185 228 277 334
#     4   9  20  38  56  81 116 146 188 230 275 339
#     4  10  19  35  57  79 108 149 185 223 280 335
#
# _framework density 23.573485000000002
#
# number of rings (size 3 to 8) (size 9 to 14) (size 15 to 20)
#    0.857    1.429    0.000    3.857    2.000    4.000 
#    0.000    2.143    0.000    2.571    0.000    0.000 
#    0.000    0.000    0.000    0.000    0.000    0.000 
#
# Total GULP energy -78062.459763 kJ/mol
# GULP energy per Si atom -5575.889983 kJ/mol
# Density = 2.351983 g / cm^3
# Si number density = 23.573485 Si / 1000 Ang^3
#
#
#
# Elastic Constant Matrix: (Units=GPa)
#
#
# Indices 1 2 3 4 5 6 
#
# 1 30.6750 12.9552 6.7881 -4.3049 -8.4772 5.6899
# 2 12.9552 109.4812 6.2589 -12.3385 -7.0770 6.3503
# 3 6.7881 6.2589 53.0687 -5.1727 -15.5198 -2.5341
# 4 -4.3049 -12.3385 -5.1727 50.5876 6.0975 3.2852
# 5 -8.4772 -7.0770 -15.5198 6.0975 17.6118 3.9045
# 6 5.6899 6.3503 -2.5341 3.2852 3.9045 26.5461
#
#
#
# Elastic Compliance Matrix: (Units=1/GPa)
#
#
# Indices 1 2 3 4 5 6 
#
# 1 0.041998 -0.002797 0.000991 0.001076 0.022171 -0.011632
# 2 -0.002797 0.009998 -0.000009 0.002057 0.002486 -0.002413
# 3 0.000991 -0.000009 0.025430 -0.000032 0.023157 -0.001185
# 4 0.001076 0.002057 -0.000032 0.021180 -0.005452 -0.002545
# 5 0.022171 0.002486 0.023157 -0.005452 0.094367 -0.016341
# 6 -0.011632 -0.002413 -0.001185 -0.002545 -0.016341 0.043346
#
#
# Mechanical properties :
#
#
# Convention : Reuss Voigt Hill
#
# Bulk Modulus (GPa) = 13.55099 27.24770 20.39934
# Shear Modulus (GPa) = 18.90016 30.09728 24.49872
#
# Velocity S-wave (km/s) = 2.83460 3.57703 3.22724
# Velocity P-wave (km/s) = 4.05884 5.35200 4.74963
#
# Compressibility (1/GPa) = 0.07379536
#
# Stress axis : x y z
#
# Youngs Moduli (GPa) = 23.81091 100.02030 39.32330
#
# Poissons Ratio (x) = 0.27978 -0.03897
# Poissons Ratio (y) = 0.06660 0.00036
# Poissons Ratio (z) = -0.02360 0.00091
#
# Static dielectric constant tensor:
#      x y z
#    x 1.859660 0.053560 0.026370 
#    y 0.053560 1.969010 0.075960 
#    z 0.026370 0.075960 1.960760 
# 
# From -- ./inp_files/214889.got.cif
#   From: 2010.05.17/outbox.cif.g08.bks.cpg/sg2_108_cif.got.tgz:214889.got - 2010.06.03 11:33:40.
