data_PCOD9084541
_publ_section_title
;
Structure prediction by ZEFSAII (Michael W. Deem and Ramdas Pophale) SiO2 
 PCOD9084541
Probable space group: P -1
;
_chemical_formula_sum "Si O2"
_cell_formula_units_Z 16
_cell_length_a 7.844851
_cell_length_b 5.830008
_cell_length_c 29.604642
_cell_angle_alpha 90.314089
_cell_angle_beta 35.743037
_cell_angle_gamma 102.883401
_cell_volume 733.494595
_symmetry_space_group_name_H-M "P -1"
_symmetry_group_IT_number 2
_symmetry_cell_setting 'triclinic'
loop_
_space_group_symop_operation_xyz
x,y,z
-x,-y,-z
loop_
_atom_site_type_symbol
_atom_site_label
_atom_site_fract_x
_atom_site_fract_y
_atom_site_fract_z
Si Si1 0.614774 0.396519 0.660320
Si Si2 0.694246 0.805425 0.184766
Si Si3 0.909323 0.466307 0.943826
Si Si4 0.274345 0.947070 0.913995
Si Si5 0.980305 0.287211 0.268287
Si Si6 0.928145 0.188804 0.757636
Si Si7 0.752565 0.934069 0.593579
Si Si8 0.213384 0.261592 0.117656
O O1 0.554499 0.362384 0.726638
O O2 0.773858 0.691752 0.614958
O O3 0.271064 0.297699 0.708990
O O4 0.774377 0.195811 0.612625
O O5 0.858613 0.661464 0.120187
O O6 0.629223 0.963909 0.159053
O O7 0.961713 0.997041 0.158575
O O8 0.833269 0.571590 0.913074
O O9 0.097513 0.662576 0.940730
O O10 0.575553 0.294854 0.035712
O O11 0.627721 0.087734 0.856450
O O12 0.000000 0.000000 0.000000
O O13 0.604734 0.174150 0.347496
O O14 0.081632 0.566303 0.265004
O O15 0.119639 0.327476 0.187011
O O16 0.075732 0.063824 0.265957
O O17 0.000000 0.000000 0.500000
#
# Coordination Sequence:
#
# PCOD9084541 Si02
#       8
#     2   2   2   2   2   2   2   2
#     4  10  21  38  64  89 122 155 197 233 303 364
#     4  11  22  36  57  81 114 157 208 246 296 344
#     4  10  22  34  55  76 112 154 208 247 298 329
#     4  11  26  38  51  82 118 160 214 258 294 330
#     4  10  20  35  61  82 116 153 192 229 303 355
#     4  10  21  37  57  80 117 158 193 241 291 351
#     4  10  19  35  62 100 125 141 182 250 306 360
#     4  10  19  35  54  81 109 152 198 251 289 345
#
# _framework density 21.813386999999999
#
# number of rings (size 3 to 8) (size 9 to 14) (size 15 to 20)
#    0.000    1.750    2.500    3.000    5.250    2.500 
#    0.000    0.000    0.000    0.000    0.000   21.000 
#    0.000    0.000    0.000    0.000    0.000    0.000 
#
# Total GULP energy -89076.649217 kJ/mol
# GULP energy per Si atom -5567.290576 kJ/mol
# Density = 2.176374 g / cm^3
# Si number density = 21.813387 Si / 1000 Ang^3
#
#
#
# Elastic Constant Matrix: (Units=GPa)
#
#
# Indices 1 2 3 4 5 6 
#
# 1 44.2914 59.5706 37.5637 27.2333 36.4756 -4.0414
# 2 59.5706 91.1101 17.0139 -63.9877 -30.7181 -60.0236
# 3 37.5637 17.0139 139.3524 -27.3070 1.3244 -35.1238
# 4 27.2333 -63.9877 -27.3070 -29.4831 -55.4473 -16.0802
# 5 36.4756 -30.7181 1.3244 -55.4473 -11.0265 -12.1704
# 6 -4.0414 -60.0236 -35.1238 -16.0802 -12.1704 16.6144
#
#
#
# Elastic Compliance Matrix: (Units=1/GPa)
#
#
# Indices 1 2 3 4 5 6 
#
# 1 0.020246 0.007031 0.002901 0.004640 -0.011499 0.032527
# 2 0.007031 0.022748 0.008348 -0.013740 -0.037276 0.060937
# 3 0.002901 0.008348 0.013875 -0.006133 -0.022697 0.037638
# 4 0.004640 -0.013740 -0.006133 0.018320 0.005002 -0.040080
# 5 -0.011499 -0.037276 -0.022697 0.005002 0.081047 -0.121238
# 6 0.032527 0.060937 0.037638 -0.040080 -0.121238 0.240220
#
#
# Mechanical properties :
#
#
# Convention : Reuss Voigt Hill
#
# Bulk Modulus (GPa) = 10.70316 55.89449 33.29882
# Shear Modulus (GPa) = 12.78648 5.92802 9.35725
#
# Velocity S-wave (km/s) = 2.42373 1.65031 2.07340
# Velocity P-wave (km/s) = 3.57071 5.41396 4.58590
#
# Compressibility (1/GPa) = 0.09343036
#
# Stress axis : x y z
#
# Youngs Moduli (GPa) = 49.39298 43.96058 72.07034
#
# Poissons Ratio (x) = -0.30910 -0.20908
# Poissons Ratio (y) = -0.34730 -0.60167
# Poissons Ratio (z) = -0.14329 -0.36700
#
# Static dielectric constant tensor:
#      x y z
#    x 2.180300 -0.061000 -0.076240 
#    y -0.061000 1.865840 -0.032290 
#    z -0.076240 -0.032290 1.747000 
# 
# From -- ./inp_files/44551.got.cif
#   From: 2010.05.17/outbox.cif.g08.bks.cpg/sg2_23_cif.got.tgz:44551.got - 2010.06.03 11:33:40.
