data_PCOD9084022
_publ_section_title
;
Structure prediction by ZEFSAII (Michael W. Deem and Ramdas Pophale) SiO2 
 PCOD9084022
Probable space group: P -1
;
_chemical_formula_sum "Si O2"
_cell_formula_units_Z 16
_cell_length_a 11.658835
_cell_length_b 7.914556
_cell_length_c 10.564263
_cell_angle_alpha 117.349932
_cell_angle_beta 128.171984
_cell_angle_gamma 79.470417
_cell_volume 673.506518
_symmetry_space_group_name_H-M "P -1"
_symmetry_group_IT_number 2
_symmetry_cell_setting 'triclinic'
loop_
_space_group_symop_operation_xyz
x,y,z
-x,-y,-z
loop_
_atom_site_type_symbol
_atom_site_label
_atom_site_fract_x
_atom_site_fract_y
_atom_site_fract_z
Si Si1 0.654222 0.271535 0.732668
Si Si2 0.661424 0.723407 0.538234
Si Si3 0.907939 0.032155 0.777245
Si Si4 0.013355 0.793584 0.380099
Si Si5 0.754310 0.914485 0.932110
Si Si6 0.701093 0.648383 0.056200
Si Si7 0.494200 0.079519 0.881612
Si Si8 0.312390 0.688790 0.528028
O O1 0.479151 0.192835 0.585010
O O2 0.782031 0.138559 0.794947
O O3 0.683761 0.343792 0.631872
O O4 0.667454 0.442574 0.899967
O O5 0.688138 0.781703 0.724347
O O6 0.628343 0.492559 0.430235
O O7 0.814382 0.823052 0.614734
O O8 0.946028 0.155485 0.719993
O O9 0.070242 0.027828 0.942975
O O10 0.151719 0.694733 0.481365
O O11 0.856414 0.666217 0.240065
O O12 0.000000 0.000000 0.500000
O O13 0.658107 0.087189 0.942483
O O14 0.728580 0.792688 0.002952
O O15 0.582017 0.730802 0.092226
O O16 0.397512 0.902532 0.682226
O O17 0.500000 0.000000 0.000000
#
# Coordination Sequence:
#
# PCOD9084022 Si02
#       8
#     2   2   2   2   2   2   2   2
#     4  11  22  39  62  91 120 156 203 252 292 350
#     4  12  21  38  60  91 123 156 199 246 300 356
#     4  10  25  38  59  89 125 160 193 244 311 353
#     4  10  21  40  63  86 121 158 201 246 300 355
#     4  10  20  36  59  87 121 155 197 245 299 350
#     4  10  20  36  63  91 117 152 206 248 296 348
#     4  10  19  34  59  91 118 151 203 251 291 346
#     4  11  21  35  65  92 115 159 204 248 292 352
#
# _framework density 23.756267000000001
#
# number of rings (size 3 to 8) (size 9 to 14) (size 15 to 20)
#    0.000    1.500    3.750    2.625    1.750    1.500 
#    0.000    0.625    0.000    1.500    0.000    0.000 
#    0.000    0.000    0.000    0.000    0.000    0.000 
#
# Total GULP energy -89372.539520 kJ/mol
# GULP energy per Si atom -5585.783720 kJ/mol
# Density = 2.370220 g / cm^3
# Si number density = 23.756267 Si / 1000 Ang^3
#
#
#
# Elastic Constant Matrix: (Units=GPa)
#
#
# Indices 1 2 3 4 5 6 
#
# 1 119.1038 46.7708 41.9962 -4.8232 17.8546 -41.7442
# 2 46.7708 110.6323 44.1756 11.8746 11.3628 -33.7210
# 3 41.9962 44.1756 121.1269 9.5491 26.7441 -41.9301
# 4 -4.8232 11.8746 9.5491 28.5188 -13.2990 3.4551
# 5 17.8546 11.3628 26.7441 -13.2990 33.2113 -7.6127
# 6 -41.7442 -33.7210 -41.9301 3.4551 -7.6127 40.4588
#
#
#
# Elastic Compliance Matrix: (Units=1/GPa)
#
#
# Indices 1 2 3 4 5 6 
#
# 1 0.014289 -0.001407 0.002604 -0.002978 -0.007004 0.015205
# 2 -0.001407 0.014828 0.002385 -0.012669 -0.008356 0.012888
# 3 0.002604 0.002385 0.021729 -0.021364 -0.022591 0.024767
# 4 -0.002978 -0.012669 -0.021364 0.071635 0.044125 -0.033587
# 5 -0.007004 -0.008356 -0.022591 0.044125 0.065958 -0.028962
# 6 0.015205 0.012888 0.024767 -0.033587 -0.028962 0.074234
#
#
# Mechanical properties :
#
#
# Convention : Reuss Voigt Hill
#
# Bulk Modulus (GPa) = 17.23837 68.52757 42.88297
# Shear Modulus (GPa) = 18.19210 34.96580 26.57895
#
# Velocity S-wave (km/s) = 2.77028 3.84064 3.34850
# Velocity P-wave (km/s) = 4.18386 6.96965 5.74808
#
# Compressibility (1/GPa) = 0.05801014
#
# Stress axis : x y z
#
# Youngs Moduli (GPa) = 69.98365 67.44116 46.02147
#
# Poissons Ratio (x) = 0.09488 -0.11983
# Poissons Ratio (y) = 0.09846 -0.10978
# Poissons Ratio (z) = -0.18222 -0.16087
#
# Static dielectric constant tensor:
#      x y z
#    x 1.979610 0.057210 -0.006240 
#    y 0.057210 1.996460 -0.033350 
#    z -0.006240 -0.033350 1.948320 
# 
# From -- ./inp_files/278690.got.cif
#   From: 2010.05.17/outbox.cif.g08.bks.cpg/sg2_140_cif.got.tgz:278690.got - 2010.06.03 11:33:40.
