data_PCOD9084255
_publ_section_title
;
Structure prediction by ZEFSAII (Michael W. Deem and Ramdas Pophale) SiO2 
 PCOD9084255
Probable space group: P -1
;
_chemical_formula_sum "Si O2"
_cell_formula_units_Z 16
_cell_length_a 22.407943
_cell_length_b 7.085903
_cell_length_c 22.068872
_cell_angle_alpha 55.793000
_cell_angle_beta 13.271350
_cell_angle_gamma 60.819200
_cell_volume 631.624147
_symmetry_space_group_name_H-M "P -1"
_symmetry_group_IT_number 2
_symmetry_cell_setting 'triclinic'
loop_
_space_group_symop_operation_xyz
x,y,z
-x,-y,-z
loop_
_atom_site_type_symbol
_atom_site_label
_atom_site_fract_x
_atom_site_fract_y
_atom_site_fract_z
Si Si1 0.691595 0.856289 0.056358
Si Si2 0.672464 0.847104 0.307298
Si Si3 0.891903 0.358601 0.381955
Si Si4 0.925093 0.160284 0.598876
Si Si5 0.893317 0.405503 0.747864
Si Si6 0.982270 0.678366 0.130440
Si Si7 0.545778 0.753395 0.876186
Si Si8 0.212383 0.385103 0.876493
O O1 0.403846 0.825908 0.311265
O O2 0.644532 0.732588 0.191796
O O3 0.636270 0.116876 0.927017
O O4 0.884852 0.132820 0.818628
O O5 0.385510 0.638555 0.628751
O O6 0.848775 0.791478 0.087611
O O7 0.797166 0.804293 0.255411
O O8 0.714865 0.126574 0.205678
O O9 0.142442 0.286212 0.119448
O O10 0.969245 0.433080 0.360634
O O11 0.891937 0.594738 0.301616
O O12 0.978006 0.423295 0.467801
O O13 0.133537 0.129656 0.450380
O O14 0.000000 0.000000 0.500000
O O15 0.571492 0.334390 0.058999
O O16 0.982284 0.451386 0.130084
O O17 0.500000 0.500000 0.000000
#
# Coordination Sequence:
#
# PCOD9084255 Si02
#       8
#     2   2   2   2   2   2   2   2
#     4  11  26  44  66  95 138 176 225 276 326 408
#     4  10  19  34  62  84 118 162 216 265 340 369
#     4  11  26  45  66  98 136 179 225 271 332 402
#     4  11  25  44  73 105 138 175 225 283 336 400
#     4  11  26  45  74  97 140 179 225 266 346 389
#     4  10  20  37  57  88 123 160 216 271 320 390
#     4  10  23  44  69 102 140 170 223 281 327 397
#     4  10  20  37  56  88 120 163 215 269 326 385
#
# _framework density 25.331520999999999
#
# number of rings (size 3 to 8) (size 9 to 14) (size 15 to 20)
#    0.000    1.500    1.250    3.375    3.500    6.000 
#    0.000    0.000    0.000    0.000    0.000    0.000 
#    0.000    0.000    0.000    0.000    0.000    0.000 
#
# Total GULP energy -89238.958441 kJ/mol
# GULP energy per Si atom -5577.434903 kJ/mol
# Density = 2.527386 g / cm^3
# Si number density = 25.331521 Si / 1000 Ang^3
#
#
#
# Elastic Constant Matrix: (Units=GPa)
#
#
# Indices 1 2 3 4 5 6 
#
# 1 160.3784 20.3423 46.4177 -4.5902 1.0026 -1.6957
# 2 20.3423 65.8989 43.5222 -2.2544 -1.5724 18.4047
# 3 46.4177 43.5222 89.5461 5.8700 6.6576 -3.7925
# 4 -4.5902 -2.2544 5.8700 43.6514 -8.9958 0.9524
# 5 1.0026 -1.5724 6.6576 -8.9958 32.6548 -5.6330
# 6 -1.6957 18.4047 -3.7925 0.9524 -5.6330 33.9333
#
#
#
# Elastic Compliance Matrix: (Units=1/GPa)
#
#
# Indices 1 2 3 4 5 6 
#
# 1 0.007466 0.000900 -0.004521 0.001680 0.001115 -0.000482
# 2 0.000900 0.031810 -0.017296 0.005134 0.003210 -0.018752
# 3 -0.004521 -0.017296 0.023143 -0.005772 -0.005095 0.011058
# 4 0.001680 0.005134 -0.005772 0.025839 0.008018 -0.002740
# 5 0.001115 0.003210 -0.005095 0.008018 0.034553 0.003256
# 6 -0.000482 -0.018752 0.011058 -0.002740 0.003256 0.041470
#
#
# Mechanical properties :
#
#
# Convention : Reuss Voigt Hill
#
# Bulk Modulus (GPa) = 48.58210 59.59865 54.09038
# Shear Modulus (GPa) = 23.47687 35.75064 29.61376
#
# Velocity S-wave (km/s) = 3.04762 3.76082 3.42284
# Velocity P-wave (km/s) = 5.62175 6.51436 6.08445
#
# Compressibility (1/GPa) = 0.02058371
#
# Stress axis : x y z
#
# Youngs Moduli (GPa) = 133.94886 31.43693 43.20968
#
# Poissons Ratio (x) = -0.02829 0.19534
# Poissons Ratio (y) = -0.12054 0.74737
# Poissons Ratio (z) = 0.60555 0.54375
#
# Static dielectric constant tensor:
#      x y z
#    x 2.041670 -0.000110 -0.010520 
#    y -0.000110 2.091670 -0.032540 
#    z -0.010520 -0.032540 2.141080 
# 
# From -- ./inp_files/600995.got.cif
#   From: 2010.05.17/outbox.cif.g08.bks.cpg/sg2_301_cif.got.tgz:600995.got - 2010.06.03 11:33:40.
