data_PCOD9084948
_publ_section_title
;
Structure prediction by ZEFSAII (Michael W. Deem and Ramdas Pophale) SiO2 
 PCOD9084948
Probable space group: P -1
;
_chemical_formula_sum "Si O2"
_cell_formula_units_Z 14
_cell_length_a 5.117749
_cell_length_b 8.318668
_cell_length_c 19.336478
_cell_angle_alpha 97.806603
_cell_angle_beta 45.454693
_cell_angle_gamma 89.474238
_cell_volume 574.864648
_symmetry_space_group_name_H-M "P -1"
_symmetry_group_IT_number 2
_symmetry_cell_setting 'triclinic'
loop_
_space_group_symop_operation_xyz
x,y,z
-x,-y,-z
loop_
_atom_site_type_symbol
_atom_site_label
_atom_site_fract_x
_atom_site_fract_y
_atom_site_fract_z
Si Si1 0.948522 0.082197 0.619225
Si Si2 0.753374 0.353653 0.047678
Si Si3 0.077264 0.224632 0.110145
Si Si4 0.164325 0.245228 0.719185
Si Si5 0.806301 0.125078 0.900956
Si Si6 0.530535 0.513805 0.412328
Si Si7 0.202401 0.225026 0.447770
O O1 0.553335 0.195148 0.684363
O O2 0.098245 0.105812 0.668336
O O3 0.227101 0.136061 0.512388
O O4 0.878491 0.901850 0.602009
O O5 0.320941 0.353543 0.105678
O O6 0.758891 0.311959 0.125664
O O7 0.928886 0.209250 0.953087
O O8 0.000000 0.500000 0.000000
O O9 0.009099 0.063632 0.155921
O O10 0.368769 0.133967 0.993623
O O11 0.161775 0.401114 0.678572
O O12 0.866676 0.242955 0.833616
O O13 0.500000 0.500000 0.500000
O O14 0.521132 0.330677 0.376987
O O15 0.161869 0.639162 0.469695
#
# Coordination Sequence:
#
# PCOD9084948 Si02
#       7
#     2   2   2   2   2   2   2
#     4  10  22  36  57  83 108 146 187 234 271 329
#     4  10  19  35  61  86 108 143 188 227 269 334
#     4   9  20  36  60  81 107 154 181 222 270 340
#     4  11  23  36  56  84 113 145 186 234 283 315
#     4   9  22  36  60  80 114 145 190 228 271 335
#     4  10  19  35  58  79 109 151 182 227 278 338
#     4   9  20  36  57  79 108 147 192 224 275 335
#
# _framework density 24.353560999999999
#
# number of rings (size 3 to 8) (size 9 to 14) (size 15 to 20)
#    0.857    1.429    1.429    0.857    4.000    1.714 
#    0.000    2.857    0.000    0.000    0.000    0.000 
#    0.000    0.000    0.000    0.000    0.000    0.000 
#
# Total GULP energy -78035.324498 kJ/mol
# GULP energy per Si atom -5573.951750 kJ/mol
# Density = 2.429813 g / cm^3
# Si number density = 24.353561 Si / 1000 Ang^3
#
#
#
# Elastic Constant Matrix: (Units=GPa)
#
#
# Indices 1 2 3 4 5 6 
#
# 1 93.1034 5.1337 15.0494 -3.4122 26.6344 9.0090
# 2 5.1337 127.8172 27.3746 -31.7905 6.8580 25.5477
# 3 15.0494 27.3746 54.3367 -22.1962 7.6666 4.2081
# 4 -3.4122 -31.7905 -22.1962 31.3813 -8.0172 -4.5748
# 5 26.6344 6.8580 7.6666 -8.0172 18.2947 -0.1623
# 6 9.0090 25.5477 4.2081 -4.5748 -0.1623 26.8248
#
#
#
# Elastic Compliance Matrix: (Units=1/GPa)
#
#
# Indices 1 2 3 4 5 6 
#
# 1 0.022219 0.001636 -0.005396 -0.010232 -0.035273 -0.010132
# 2 0.001636 0.012869 -0.001773 0.009797 -0.002266 -0.010870
# 3 -0.005396 -0.001773 0.027540 0.018786 0.005234 0.002416
# 4 -0.010232 0.009797 0.018786 0.062054 0.030562 0.001927
# 5 -0.035273 -0.002266 0.005234 0.030562 0.118232 0.019111
# 6 -0.010132 -0.010870 0.002416 0.001927 0.019111 0.051100
#
#
# Mechanical properties :
#
#
# Convention : Reuss Voigt Hill
#
# Bulk Modulus (GPa) = 19.39435 41.15252 30.27344
# Shear Modulus (GPa) = 15.51509 30.48013 22.99761
#
# Velocity S-wave (km/s) = 2.52678 3.54159 3.07632
# Velocity P-wave (km/s) = 4.06125 5.80159 5.00760
#
# Compressibility (1/GPa) = 0.05156141
#
# Stress axis : x y z
#
# Youngs Moduli (GPa) = 45.00651 77.70865 36.31114
#
# Poissons Ratio (x) = -0.12715 0.19595
# Poissons Ratio (y) = -0.07364 0.06437
# Poissons Ratio (z) = 0.24287 0.13776
#
# Static dielectric constant tensor:
#      x y z
#    x 1.976520 -0.059800 -0.030240 
#    y -0.059800 2.096400 -0.038080 
#    z -0.030240 -0.038080 2.022000 
# 
# From -- ./inp_files/581597.got.cif
#   From: 2010.05.17/outbox.cif.g08.bks.cpg/sg2_291_cif.got.tgz:581597.got - 2010.06.03 11:33:40.
