data_PCOD9084849
_publ_section_title
;
Structure prediction by ZEFSAII (Michael W. Deem and Ramdas Pophale) SiO2 
 PCOD9084849
Probable space group: P -1
;
_chemical_formula_sum "Si O2"
_cell_formula_units_Z 10
_cell_length_a 8.332300
_cell_length_b 11.368370
_cell_length_c 6.573827
_cell_angle_alpha 126.347141
_cell_angle_beta 56.427820
_cell_angle_gamma 101.986500
_cell_volume 411.145060
_symmetry_space_group_name_H-M "P -1"
_symmetry_group_IT_number 2
_symmetry_cell_setting 'triclinic'
loop_
_space_group_symop_operation_xyz
x,y,z
-x,-y,-z
loop_
_atom_site_type_symbol
_atom_site_label
_atom_site_fract_x
_atom_site_fract_y
_atom_site_fract_z
Si Si1 0.770341 0.845023 0.679493
Si Si2 0.015022 0.350672 0.966727
Si Si3 0.357148 0.463574 0.436333
Si Si4 0.563904 0.604225 0.177296
Si Si5 0.573445 0.077289 0.332900
O O1 0.963327 0.785856 0.347409
O O2 0.714297 0.697812 0.672556
O O3 0.600382 0.900267 0.690064
O O4 0.756372 0.974104 0.988344
O O5 0.221245 0.345185 0.925541
O O6 0.000000 0.500000 0.000000
O O7 0.822843 0.395046 0.279769
O O8 0.421709 0.462143 0.141137
O O9 0.431380 0.449180 0.623502
O O10 0.408185 0.758387 0.442710
O O11 0.500000 0.000000 0.500000
#
# Coordination Sequence:
#
# PCOD9084849 Si02
#       5
#     2   2   2   2   2
#     4   9  19  35  59  84 116 152 190 241 290 339
#     4   9  18  35  59  87 114 146 196 237 289 344
#     4  11  18  36  64  86 107 150 200 238 285 342
#     4  11  22  36  60  90 116 149 195 244 289 341
#     4  10  19  35  57  84 119 157 187 232 297 344
#
# _framework density 24.322315
#
# number of rings (size 3 to 8) (size 9 to 14) (size 15 to 20)
#    0.000    2.000    6.000    1.200    0.000    0.800 
#    0.000    3.000    0.000   10.800    0.000    0.000 
#    0.000    0.000    0.000    0.000    0.000    0.000 
#
# Total GULP energy -55671.389693 kJ/mol
# GULP energy per Si atom -5567.138969 kJ/mol
# Density = 2.426696 g / cm^3
# Si number density = 24.322315 Si / 1000 Ang^3
#
#
#
# Elastic Constant Matrix: (Units=GPa)
#
#
# Indices 1 2 3 4 5 6 
#
# 1 54.8551 10.2615 66.0567 -2.7158 16.4544 12.4264
# 2 10.2615 146.9044 73.4206 -21.6774 7.3501 -8.3256
# 3 66.0567 73.4206 247.8913 8.6703 43.5334 0.7560
# 4 -2.7158 -21.6774 8.6703 52.4737 5.1087 8.7542
# 5 16.4544 7.3501 43.5334 5.1087 47.6878 -4.7229
# 6 12.4264 -8.3256 0.7560 8.7542 -4.7229 18.9939
#
#
#
# Elastic Compliance Matrix: (Units=1/GPa)
#
#
# Indices 1 2 3 4 5 6 
#
# 1 0.041086 0.002570 -0.010313 0.011329 -0.009636 -0.032960
# 2 0.002570 0.009089 -0.003641 0.004326 0.000633 0.000611
# 3 -0.010313 -0.003641 0.008432 -0.004208 -0.002520 0.006129
# 4 0.011329 0.004326 -0.004208 0.025737 -0.005327 -0.018535
# 5 -0.009636 0.000633 -0.002520 -0.005327 0.028679 0.016268
# 6 -0.032960 0.000611 0.006129 -0.018535 0.016268 0.086824
#
#
# Mechanical properties :
#
#
# Convention : Reuss Voigt Hill
#
# Bulk Modulus (GPa) = 27.90312 83.23650 55.56981
# Shear Modulus (GPa) = 21.31653 43.82521 32.57087
#
# Velocity S-wave (km/s) = 2.96365 4.24943 3.66339
# Velocity P-wave (km/s) = 4.81748 7.64025 6.38676
#
# Compressibility (1/GPa) = 0.03583828
#
# Stress axis : x y z
#
# Youngs Moduli (GPa) = 24.33914 110.02719 118.60049
#
# Poissons Ratio (x) = -0.28281 1.22315
# Poissons Ratio (y) = -0.06256 0.43185
# Poissons Ratio (z) = 0.25101 0.40063
#
# Static dielectric constant tensor:
#      x y z
#    x 1.951930 -0.030260 0.012180 
#    y -0.030260 1.957440 -0.059160 
#    z 0.012180 -0.059160 2.038690 
# 
# From -- ./inp_files/146813.got.cif
#   From: 2010.05.17/outbox.cif.g08.bks.cpg/sg2_74_cif.got.tgz:146813.got - 2010.06.03 11:33:40.
