data_PCOD9084165
_publ_section_title
;
Structure prediction by ZEFSAII (Michael W. Deem and Ramdas Pophale) SiO2 
 PCOD9084165
Probable space group: P -1
;
_chemical_formula_sum "Si O2"
_cell_formula_units_Z 12
_cell_length_a 8.014430
_cell_length_b 7.973323
_cell_length_c 13.628889
_cell_angle_alpha 79.250190
_cell_angle_beta 123.551214
_cell_angle_gamma 132.461975
_cell_volume 510.191196
_symmetry_space_group_name_H-M "P -1"
_symmetry_group_IT_number 2
_symmetry_cell_setting 'triclinic'
loop_
_space_group_symop_operation_xyz
x,y,z
-x,-y,-z
loop_
_atom_site_type_symbol
_atom_site_label
_atom_site_fract_x
_atom_site_fract_y
_atom_site_fract_z
Si Si1 0.321858 0.824531 0.758740
Si Si2 0.745158 0.559649 0.712350
Si Si3 0.058755 0.955033 0.275553
Si Si4 0.254850 0.479403 0.890679
Si Si5 0.417890 0.718954 0.113415
Si Si6 0.253870 0.035348 0.538325
O O1 0.349497 0.640725 0.807461
O O2 0.307114 0.904170 0.639360
O O3 0.026586 0.687095 0.730868
O O4 0.551391 0.066530 0.868502
O O5 0.509011 0.320212 0.599605
O O6 0.744246 0.763386 0.703513
O O7 0.717072 0.465198 0.821670
O O8 0.019890 0.792979 0.195040
O O9 0.740010 0.838956 0.197485
O O10 0.168805 0.933345 0.412574
O O11 0.500000 0.500000 0.000000
O O12 0.252199 0.597627 0.972126
O O13 0.000000 0.000000 0.500000
#
# Coordination Sequence:
#
# PCOD9084165 Si02
#       6
#     2   2   2   2   2   2
#     4  10  21  36  60  88 110 149 193 230 277 331
#     4  10  19  34  61  87 112 141 194 236 270 337
#     4  10  20  35  58  88 114 150 183 228 289 330
#     4  10  22  40  57  80 121 153 185 232 282 333
#     4   9  19  37  60  84 109 153 193 225 277 331
#     4  11  19  36  63  87 108 148 191 229 284 335
#
# _framework density 23.520593999999999
#
# number of rings (size 3 to 8) (size 9 to 14) (size 15 to 20)
#    0.000    2.000    5.000    1.000    0.000    2.000 
#    0.000   10.833    0.000    0.000    0.000    0.000 
#    0.000    0.000    0.000    0.000    0.000    0.000 
#
# Total GULP energy -67040.220909 kJ/mol
# GULP energy per Si atom -5586.685076 kJ/mol
# Density = 2.346706 g / cm^3
# Si number density = 23.520594 Si / 1000 Ang^3
#
#
#
# Elastic Constant Matrix: (Units=GPa)
#
#
# Indices 1 2 3 4 5 6 
#
# 1 28.3707 9.0027 25.9241 7.5001 3.5073 7.5316
# 2 9.0027 140.4147 65.0274 3.2765 -0.9487 -6.1138
# 3 25.9241 65.0274 162.9747 16.7062 -27.8306 -4.7748
# 4 7.5001 3.2765 16.7062 24.6455 -10.2655 6.1684
# 5 3.5073 -0.9487 -27.8306 -10.2655 25.6869 -1.9774
# 6 7.5316 -6.1138 -4.7748 6.1684 -1.9774 27.1116
#
#
#
# Elastic Compliance Matrix: (Units=1/GPa)
#
#
# Indices 1 2 3 4 5 6 
#
# 1 0.062124 0.002519 -0.015256 -0.018515 -0.033674 -0.017620
# 2 0.002519 0.009260 -0.004959 -0.001142 -0.005804 0.000351
# 3 -0.015256 -0.004959 0.013582 0.001950 0.017886 0.006373
# 4 -0.018515 -0.001142 0.001950 0.057891 0.027276 -0.005952
# 5 -0.033674 -0.005804 0.017886 0.027276 0.074394 0.010416
# 6 -0.017620 0.000351 0.006373 -0.005952 0.010416 0.045095
#
#
# Mechanical properties :
#
#
# Convention : Reuss Voigt Hill
#
# Bulk Modulus (GPa) = 20.17172 59.07430 39.62301
# Shear Modulus (GPa) = 15.91030 30.94253 23.42642
#
# Velocity S-wave (km/s) = 2.60367 3.63099 3.15936
# Velocity P-wave (km/s) = 4.19924 6.53829 5.49467
#
# Compressibility (1/GPa) = 0.04957437
#
# Stress axis : x y z
#
# Youngs Moduli (GPa) = 16.09694 107.99587 73.62416
#
# Poissons Ratio (x) = -0.27208 1.12320
# Poissons Ratio (y) = -0.04055 0.36512
# Poissons Ratio (z) = 0.24557 0.53558
#
# Static dielectric constant tensor:
#      x y z
#    x 2.010350 -0.061990 -0.001340 
#    y -0.061990 1.931990 0.004970 
#    z -0.001340 0.004970 1.867530 
# 
# From -- ./inp_files/171588.got.cif
#   From: 2010.05.17/outbox.cif.g08.bks.cpg/sg2_86_cif.got.tgz:171588.got - 2010.06.03 11:33:40.
