data_PCOD9084049
_publ_section_title
;
Structure prediction by ZEFSAII (Michael W. Deem and Ramdas Pophale) SiO2 
 PCOD9084049
Probable space group: P -1
;
_chemical_formula_sum "Si O2"
_cell_formula_units_Z 16
_cell_length_a 12.824202
_cell_length_b 14.601083
_cell_length_c 14.131081
_cell_angle_alpha 146.500043
_cell_angle_beta 147.895901
_cell_angle_gamma 30.995169
_cell_volume 665.674373
_symmetry_space_group_name_H-M "P -1"
_symmetry_group_IT_number 2
_symmetry_cell_setting 'triclinic'
loop_
_space_group_symop_operation_xyz
x,y,z
-x,-y,-z
loop_
_atom_site_type_symbol
_atom_site_label
_atom_site_fract_x
_atom_site_fract_y
_atom_site_fract_z
Si Si1 0.823238 0.119165 0.751349
Si Si2 0.198774 0.143933 0.184417
Si Si3 0.574727 0.265009 0.055235
Si Si4 0.627839 0.539408 0.215527
Si Si5 0.845089 0.397642 0.888804
Si Si6 0.237785 0.177734 0.460061
Si Si7 0.418665 0.671573 0.680232
Si Si8 0.711176 0.635877 0.720419
O O1 0.561239 0.279384 0.712111
O O2 0.871533 0.191636 0.753392
O O3 0.858422 0.910047 0.613450
O O4 0.980600 0.147704 0.973045
O O5 0.150419 0.199735 0.304044
O O6 0.272458 0.264368 0.277684
O O7 0.393095 0.917023 0.133123
O O8 0.710544 0.357927 0.192006
O O9 0.314971 0.443689 0.017217
O O10 0.650203 0.203520 0.169437
O O11 0.778280 0.620491 0.356621
O O12 0.500000 0.500000 0.000000
O O13 0.675683 0.494145 0.753976
O O14 0.087457 0.378596 0.070798
O O15 0.500000 0.000000 0.500000
O O16 0.473862 0.752135 0.698405
O O17 0.274075 0.567050 0.465886
#
# Coordination Sequence:
#
# PCOD9084049 Si02
#       8
#     2   2   2   2   2   2   2   2
#     4   9  19  35  54  78 106 141 183 219 263 327
#     4  11  21  35  54  82 108 140 183 220 273 321
#     4   9  19  34  52  75 112 142 172 230 269 318
#     4  10  19  36  54  76 105 144 183 216 271 319
#     4   8  18  35  57  78 111 142 182 222 273 320
#     4  10  20  33  55  77 105 144 177 219 266 322
#     4   9  19  35  58  80 110 139 190 220 274 321
#     4  10  19  34  60  81 103 148 184 226 266 329
#
# _framework density 24.035778000000001
#
# number of rings (size 3 to 8) (size 9 to 14) (size 15 to 20)
#    0.750    1.750    0.000    3.000    1.750    0.500 
#    0.000    8.750    0.000    1.500    0.000    0.000 
#    0.000    0.000    0.000    0.000    0.000    0.000 
#
# Total GULP energy -89230.663132 kJ/mol
# GULP energy per Si atom -5576.916446 kJ/mol
# Density = 2.398107 g / cm^3
# Si number density = 24.035778 Si / 1000 Ang^3
#
#
#
# Elastic Constant Matrix: (Units=GPa)
#
#
# Indices 1 2 3 4 5 6 
#
# 1 85.8171 12.9452 34.7746 13.4311 23.3868 12.9739
# 2 12.9452 70.4854 2.0108 6.3856 17.8379 5.9605
# 3 34.7746 2.0108 91.9142 19.8758 17.4283 13.2793
# 4 13.4311 6.3856 19.8758 25.3659 11.4514 0.2058
# 5 23.3868 17.8379 17.4283 11.4514 45.8183 6.5561
# 6 12.9739 5.9605 13.2793 0.2058 6.5561 24.0949
#
#
#
# Elastic Compliance Matrix: (Units=1/GPa)
#
#
# Indices 1 2 3 4 5 6 
#
# 1 0.015822 -0.000876 -0.003674 -0.003038 -0.004873 -0.004926
# 2 -0.000876 0.016197 0.002065 -0.002717 -0.005515 -0.003150
# 3 -0.003674 0.002065 0.015651 -0.010158 -0.001385 -0.006695
# 4 -0.003038 -0.002717 -0.010158 0.053317 -0.008240 0.009693
# 5 -0.004873 -0.005515 -0.001385 -0.008240 0.029505 -0.003206
# 6 -0.004926 -0.003150 -0.006695 0.009693 -0.003206 0.049413
#
#
# Mechanical properties :
#
#
# Convention : Reuss Voigt Hill
#
# Bulk Modulus (GPa) = 23.41882 38.63087 31.02484
# Shear Modulus (GPa) = 25.11196 32.28823 28.70009
#
# Velocity S-wave (km/s) = 3.23580 3.66914 3.45926
# Velocity P-wave (km/s) = 4.87083 5.83586 5.37505
#
# Compressibility (1/GPa) = 0.04270070
#
# Stress axis : x y z
#
# Youngs Moduli (GPa) = 63.20356 61.73827 63.89298
#
# Poissons Ratio (x) = 0.05408 0.23476
# Poissons Ratio (y) = 0.05536 -0.13196
# Poissons Ratio (z) = 0.23222 -0.12751
#
# Static dielectric constant tensor:
#      x y z
#    x 1.978740 -0.004760 0.048320 
#    y -0.004760 1.990770 -0.028750 
#    z 0.048320 -0.028750 1.931760 
# 
# From -- ./inp_files/503391.got.cif
#   From: 2010.05.17/outbox.cif.g08.bks.cpg/sg2_252_cif.got.tgz:503391.got - 2010.06.03 11:33:40.
