data_PCOD9084806
_publ_section_title
;
Structure prediction by ZEFSAII (Michael W. Deem and Ramdas Pophale) SiO2 
 PCOD9084806
Probable space group: P -1
;
_chemical_formula_sum "Si O2"
_cell_formula_units_Z 16
_cell_length_a 8.162543
_cell_length_b 18.255975
_cell_length_c 6.792654
_cell_angle_alpha 111.137747
_cell_angle_beta 101.339573
_cell_angle_gamma 49.437217
_cell_volume 716.204120
_symmetry_space_group_name_H-M "P -1"
_symmetry_group_IT_number 2
_symmetry_cell_setting 'triclinic'
loop_
_space_group_symop_operation_xyz
x,y,z
-x,-y,-z
loop_
_atom_site_type_symbol
_atom_site_label
_atom_site_fract_x
_atom_site_fract_y
_atom_site_fract_z
Si Si1 0.399680 0.426614 0.212369
Si Si2 0.681260 0.713650 0.952366
Si Si3 0.804820 0.960412 0.774615
Si Si4 0.901044 0.777860 0.798080
Si Si5 0.735574 0.361941 0.564277
Si Si6 0.715036 0.122095 0.216212
Si Si7 0.774712 0.250153 0.851778
Si Si8 0.570758 0.147099 0.636839
O O1 0.240183 0.399162 0.145098
O O2 0.522893 0.400152 0.425942
O O3 0.297113 0.541727 0.261363
O O4 0.573707 0.352350 0.013597
O O5 0.798975 0.738665 0.861643
O O6 0.440401 0.780687 0.865166
O O7 0.643975 0.761590 0.207284
O O8 0.765065 0.882069 0.743101
O O9 0.056254 0.902613 0.726210
O O10 0.657938 0.040928 0.647174
O O11 0.756508 0.029478 0.018840
O O12 0.074889 0.692684 0.603956
O O13 0.022016 0.793919 0.006638
O O14 0.786775 0.286045 0.675863
O O15 0.583062 0.144366 0.403999
O O16 0.737131 0.168725 0.745689
#
# Coordination Sequence:
#
# PCOD9084806 Si02
#       8
#     2   2   2   2   2   2   2   2
#     4   9  19  37  59  83 104 132 177 224 265 309
#     4  10  22  37  52  77 114 143 171 214 263 318
#     4  10  20  35  54  80 107 136 180 224 260 305
#     4  11  23  36  50  77 115 146 173 212 261 317
#     4  10  20  36  61  82 102 136 178 222 266 310
#     4  10  19  35  58  80 101 137 182 223 264 306
#     4  10  19  35  57  82 107 134 177 223 263 309
#     4  10  20  35  58  80 103 139 180 222 264 307
#
# _framework density 22.34
#
# number of rings (size 3 to 8) (size 9 to 14) (size 15 to 20)
#    0.000    2.000    0.000    6.000    0.000    4.500 
#    0.000    1.875    0.000    0.000    0.000    0.000 
#    0.000    0.000    0.000    0.000    0.000    0.000 
#
# Total GULP energy -89410.284321 kJ/mol
# GULP energy per Si atom -5588.142770 kJ/mol
# Density = 2.228915 g / cm^3
# Si number density = 22.340000 Si / 1000 Ang^3
#
#
#
# Elastic Constant Matrix: (Units=GPa)
#
#
# Indices 1 2 3 4 5 6 
#
# 1 69.3180 10.8959 14.1212 1.0783 -19.6388 29.8476
# 2 10.8959 58.8164 9.3902 1.4447 -3.3740 26.0977
# 3 14.1212 9.3902 107.6046 -14.8263 -31.1214 8.3353
# 4 1.0783 1.4447 -14.8263 26.8471 11.9722 2.1616
# 5 -19.6388 -3.3740 -31.1214 11.9722 26.3459 -10.1477
# 6 29.8476 26.0977 8.3353 2.1616 -10.1477 25.2456
#
#
#
# Elastic Compliance Matrix: (Units=1/GPa)
#
#
# Indices 1 2 3 4 5 6 
#
# 1 0.047563 0.028280 -0.000320 -0.000040 0.006908 -0.082582
# 2 0.028280 0.053906 -0.005352 0.009529 -0.019693 -0.096126
# 3 -0.000320 -0.005352 0.014964 -0.001681 0.021233 0.009649
# 4 -0.000040 0.009529 -0.001681 0.054399 -0.036527 -0.028588
# 5 0.006908 -0.019693 0.021233 -0.036527 0.101120 0.048953
# 6 -0.082582 -0.096126 0.009649 -0.028588 0.048953 0.255556
#
#
# Mechanical properties :
#
#
# Convention : Reuss Voigt Hill
#
# Bulk Modulus (GPa) = 6.18625 33.83929 20.01277
# Shear Modulus (GPa) = 9.32531 29.10984 19.21757
#
# Velocity S-wave (km/s) = 2.04532 3.61368 2.93615
# Velocity P-wave (km/s) = 2.89014 5.70892 4.52464
#
# Compressibility (1/GPa) = 0.16164877
#
# Stress axis : x y z
#
# Youngs Moduli (GPa) = 21.02485 18.55075 66.82559
#
# Poissons Ratio (x) = -0.52461 0.02140
# Poissons Ratio (y) = -0.59458 0.35765
# Poissons Ratio (z) = 0.00673 0.09928
#
# Static dielectric constant tensor:
#      x y z
#    x 1.866970 -0.011270 0.023740 
#    y -0.011270 1.836770 0.011240 
#    z 0.023740 0.011240 1.821670 
# 
# From -- ./inp_files/48255.got.cif
#   From: 2010.05.17/outbox.cif.g08.bks.cpg/sg2_25_cif.got.tgz:48255.got - 2010.06.03 11:33:40.
