data_PCOD9084800
_publ_section_title
;
Structure prediction by ZEFSAII (Michael W. Deem and Ramdas Pophale) SiO2 
 PCOD9084800
Probable space group: P -1
;
_chemical_formula_sum "Si O2"
_cell_formula_units_Z 16
_cell_length_a 15.059228
_cell_length_b 8.921351
_cell_length_c 14.727510
_cell_angle_alpha 61.147407
_cell_angle_beta 138.783113
_cell_angle_gamma 141.905581
_cell_volume 774.658165
_symmetry_space_group_name_H-M "P -1"
_symmetry_group_IT_number 2
_symmetry_cell_setting 'triclinic'
loop_
_space_group_symop_operation_xyz
x,y,z
-x,-y,-z
loop_
_atom_site_type_symbol
_atom_site_label
_atom_site_fract_x
_atom_site_fract_y
_atom_site_fract_z
Si Si1 0.277363 0.988761 0.907185
Si Si2 0.058126 0.835011 0.274152
Si Si3 0.835804 0.503393 0.034566
Si Si4 0.569539 0.584478 0.835547
Si Si5 0.950478 0.103051 0.063636
Si Si6 0.791942 0.201516 0.435639
Si Si7 0.789949 0.901300 0.371091
Si Si8 0.645016 0.400176 0.186714
O O1 0.259093 0.768819 0.954449
O O2 0.133148 0.921588 0.895844
O O3 0.231500 0.022618 0.764081
O O4 0.494956 0.236703 0.037183
O O5 0.004285 0.673980 0.191851
O O6 0.858712 0.647490 0.238338
O O7 0.218327 0.895450 0.444864
O O8 0.078629 0.049132 0.193325
O O9 0.677994 0.503827 0.935000
O O10 0.925329 0.635802 0.967247
O O11 0.398223 0.405618 0.678596
O O12 0.434156 0.523920 0.832511
O O13 0.765108 0.885174 0.917033
O O14 0.643881 0.218558 0.293045
O O15 0.000000 0.500000 0.500000
O O16 0.784838 0.041309 0.404129
O O17 0.000000 0.000000 0.500000
#
# Coordination Sequence:
#
# PCOD9084800 Si02
#       8
#     2   2   2   2   2   2   2   2
#     4  11  21  36  59  85 114 143 185 237 284 332
#     4  10  19  35  57  81 114 150 184 228 285 336
#     4  11  22  36  59  84 111 153 195 229 268 328
#     4  10  21  36  57  83 114 146 185 231 278 332
#     4  10  21  38  59  81 112 153 193 231 271 326
#     4  10  20  34  53  83 121 147 175 225 286 344
#     4  12  23  36  59  90 117 144 181 231 292 345
#     4  10  20  35  57  87 115 145 182 233 294 338
#
# _framework density 20.654273
#
# number of rings (size 3 to 8) (size 9 to 14) (size 15 to 20)
#    0.000    1.500    0.000    8.625    0.000    5.000 
#    0.000    0.000    0.000   27.000    0.000    0.000 
#    0.000    0.000    0.000    0.000    0.000    0.000 
#
# Total GULP energy -89265.596738 kJ/mol
# GULP energy per Si atom -5579.099796 kJ/mol
# Density = 2.060726 g / cm^3
# Si number density = 20.654273 Si / 1000 Ang^3
#
#
#
# Elastic Constant Matrix: (Units=GPa)
#
#
# Indices 1 2 3 4 5 6 
#
# 1 50.5690 5.4824 6.5821 -2.9566 -11.8905 -8.6231
# 2 5.4824 37.8989 11.9085 -9.5538 0.7965 -12.8008
# 3 6.5821 11.9085 112.7559 -6.3205 -6.9368 -2.1940
# 4 -2.9566 -9.5538 -6.3205 20.7592 -8.4362 -9.0031
# 5 -11.8905 0.7965 -6.9368 -8.4362 24.9111 -2.0788
# 6 -8.6231 -12.8008 -2.1940 -9.0031 -2.0788 35.9342
#
#
#
# Elastic Compliance Matrix: (Units=1/GPa)
#
#
# Indices 1 2 3 4 5 6 
#
# 1 0.028694 0.006932 0.000713 0.024255 0.023291 0.016823
# 2 0.006932 0.045915 -0.001212 0.041925 0.018163 0.029501
# 3 0.000713 -0.001212 0.009604 0.005363 0.005033 0.001960
# 4 0.024255 0.041925 0.005363 0.119037 0.056564 0.054179
# 5 0.023291 0.018163 0.005033 0.056564 0.073807 0.030808
# 6 0.016823 0.029501 0.001960 0.054179 0.030808 0.057851
#
#
# Mechanical properties :
#
#
# Convention : Reuss Voigt Hill
#
# Bulk Modulus (GPa) = 10.30099 27.68552 18.99325
# Shear Modulus (GPa) = 14.10828 28.13762 21.12295
#
# Velocity S-wave (km/s) = 2.61639 3.69496 3.20142
# Velocity P-wave (km/s) = 3.75839 5.62468 4.78344
#
# Compressibility (1/GPa) = 0.09707807
#
# Stress axis : x y z
#
# Youngs Moduli (GPa) = 34.85054 21.77921 104.12824
#
# Poissons Ratio (x) = -0.15098 -0.07421
# Poissons Ratio (y) = -0.24160 0.12625
# Poissons Ratio (z) = -0.02484 0.02641
#
# Static dielectric constant tensor:
#      x y z
#    x 1.732770 0.016660 -0.003580 
#    y 0.016660 1.788960 -0.001420 
#    z -0.003580 -0.001420 1.795670 
# 
# From -- ./inp_files/503751.got.cif
#   From: 2010.05.17/outbox.cif.g08.bks.cpg/sg2_252_cif.got.tgz:503751.got - 2010.06.03 11:33:40.
