data_PCOD9084488
_publ_section_title
;
Structure prediction by ZEFSAII (Michael W. Deem and Ramdas Pophale) SiO2 
 PCOD9084488
Probable space group: P -1
;
_chemical_formula_sum "Si O2"
_cell_formula_units_Z 16
_cell_length_a 12.600017
_cell_length_b 25.093168
_cell_length_c 9.620134
_cell_angle_alpha 38.722599
_cell_angle_beta 121.913163
_cell_angle_gamma 155.036145
_cell_volume 591.223024
_symmetry_space_group_name_H-M "P -1"
_symmetry_group_IT_number 2
_symmetry_cell_setting 'triclinic'
loop_
_space_group_symop_operation_xyz
x,y,z
-x,-y,-z
loop_
_atom_site_type_symbol
_atom_site_label
_atom_site_fract_x
_atom_site_fract_y
_atom_site_fract_z
Si Si1 0.606007 0.175812 0.991709
Si Si2 0.686350 0.281221 0.526541
Si Si3 0.075703 0.794044 0.848223
Si Si4 0.913659 0.557101 0.753079
Si Si5 0.755357 0.672232 0.116299
Si Si6 0.737940 0.947714 0.758581
Si Si7 0.326340 0.282579 0.766094
Si Si8 0.402673 0.601398 0.863581
O O1 0.570498 0.163699 0.826985
O O2 0.954121 0.445216 0.732289
O O3 0.640888 0.097828 0.205722
O O4 0.322611 0.040814 0.163688
O O5 0.782636 0.282404 0.461158
O O6 0.464225 0.220698 0.443981
O O7 0.736345 0.527971 0.109695
O O8 0.078190 0.876370 0.581684
O O9 0.035027 0.797076 0.971686
O O10 0.710693 0.502153 0.641569
O O11 0.894622 0.571448 0.872446
O O12 0.632550 0.302613 0.062882
O O13 0.425940 0.400286 0.460510
O O14 0.835360 0.759213 0.146135
O O15 0.650814 0.690446 0.922183
O O16 0.847043 0.920445 0.927512
#
# Coordination Sequence:
#
# PCOD9084488 Si02
#       8
#     2   2   2   2   2   2   2   2
#     4   9  18  31  53  79 103 128 173 220 251 302
#     4   9  16  29  54  79  96 136 178 209 250 299
#     4  11  21  32  54  82 104 134 167 214 264 301
#     4   8  16  33  53  76  99 135 171 211 251 304
#     4  10  19  35  53  78 104 134 180 209 242 306
#     4   9  19  35  55  78 103 132 169 217 264 295
#     4   8  18  34  57  74  99 136 174 215 245 293
#     4  10  20  31  50  78 106 136 169 212 250 304
#
# _framework density 27.062545
#
# number of rings (size 3 to 8) (size 9 to 14) (size 15 to 20)
#    0.750    2.000    0.000    1.875    3.500    0.500 
#    0.000    0.625    0.000    4.500    0.000    0.000 
#    0.000    0.000    0.000    0.000    0.000    0.000 
#
# Total GULP energy -89467.504489 kJ/mol
# GULP energy per Si atom -5591.719031 kJ/mol
# Density = 2.700095 g / cm^3
# Si number density = 27.062545 Si / 1000 Ang^3
#
#
#
# Elastic Constant Matrix: (Units=GPa)
#
#
# Indices 1 2 3 4 5 6 
#
# 1 177.9097 34.9997 60.3968 2.1172 -15.3226 -12.0343
# 2 34.9997 49.6988 26.0980 6.6003 5.6056 -11.2274
# 3 60.3968 26.0980 96.7051 22.6884 -9.5695 0.8470
# 4 2.1172 6.6003 22.6884 38.7022 1.2769 -4.6821
# 5 -15.3226 5.6056 -9.5695 1.2769 46.9454 7.1021
# 6 -12.0343 -11.2274 0.8470 -4.6821 7.1021 28.9942
#
#
#
# Elastic Compliance Matrix: (Units=1/GPa)
#
#
# Indices 1 2 3 4 5 6 
#
# 1 0.008166 -0.003293 -0.004814 0.003169 0.001633 0.002367
# 2 -0.003293 0.029768 -0.007126 0.001057 -0.008002 0.012499
# 3 -0.004814 -0.007126 0.018206 -0.010317 0.004490 -0.008055
# 4 0.003169 0.001057 -0.010317 0.032622 -0.003308 0.008104
# 5 0.001633 -0.008002 0.004490 -0.003308 0.025196 -0.009258
# 6 0.002367 0.012499 -0.008055 0.008104 -0.009258 0.044124
#
#
# Mechanical properties :
#
#
# Convention : Reuss Voigt Hill
#
# Bulk Modulus (GPa) = 38.95106 63.03362 50.99234
# Shear Modulus (GPa) = 25.36703 36.44963 30.90833
#
# Velocity S-wave (km/s) = 3.06494 3.67395 3.38317
# Velocity P-wave (km/s) = 5.19127 6.42959 5.84333
#
# Compressibility (1/GPa) = 0.02567324
#
# Stress axis : x y z
#
# Youngs Moduli (GPa) = 122.45937 33.59265 54.92777
#
# Poissons Ratio (x) = 0.11063 0.26442
# Poissons Ratio (y) = 0.40330 0.39142
# Poissons Ratio (z) = 0.58952 0.23939
#
# Static dielectric constant tensor:
#      x y z
#    x 2.029720 0.018750 0.027370 
#    y 0.018750 2.260330 -0.061370 
#    z 0.027370 -0.061370 2.063700 
# 
# From -- ./inp_files/285471.got.cif
#   From: 2010.05.17/outbox.cif.g08.bks.cpg/sg2_143_cif.got.tgz:285471.got - 2010.06.03 11:33:40.
