data_PCOD9084233
_publ_section_title
;
Structure prediction by ZEFSAII (Michael W. Deem and Ramdas Pophale) SiO2 
 PCOD9084233
Probable space group: P -1
;
_chemical_formula_sum "Si O2"
_cell_formula_units_Z 16
_cell_length_a 6.825467
_cell_length_b 13.964468
_cell_length_c 8.940986
_cell_angle_alpha 85.372109
_cell_angle_beta 74.995052
_cell_angle_gamma 121.381690
_cell_volume 678.309957
_symmetry_space_group_name_H-M "P -1"
_symmetry_group_IT_number 2
_symmetry_cell_setting 'triclinic'
loop_
_space_group_symop_operation_xyz
x,y,z
-x,-y,-z
loop_
_atom_site_type_symbol
_atom_site_label
_atom_site_fract_x
_atom_site_fract_y
_atom_site_fract_z
Si Si1 0.108204 0.529396 0.778582
Si Si2 0.535553 0.781329 0.268268
Si Si3 0.610275 0.585941 0.827045
Si Si4 0.053255 0.045655 0.652206
Si Si5 0.314215 0.520486 0.442383
Si Si6 0.763105 0.817754 0.904748
Si Si7 0.728194 0.119924 0.866188
Si Si8 0.790925 0.294038 0.046377
O O1 0.366577 0.561085 0.794448
O O2 0.123408 0.505246 0.606334
O O3 0.889851 0.407453 0.906816
O O4 0.111139 0.639848 0.823754
O O5 0.435551 0.649672 0.339820
O O6 0.668083 0.852095 0.383001
O O7 0.358678 0.816818 0.234271
O O8 0.725330 0.818551 0.088454
O O9 0.748433 0.558660 0.680706
O O10 0.766396 0.713335 0.848949
O O11 0.500000 0.500000 0.000000
O O12 0.890153 0.090752 0.739872
O O13 0.985016 0.939226 0.786607
O O14 0.000000 0.000000 0.500000
O O15 0.500000 0.500000 0.500000
O O16 0.504321 0.788898 0.890643
O O17 0.864304 0.213859 0.962868
O O18 0.500000 0.000000 0.000000
#
# Coordination Sequence:
#
# PCOD9084233 Si02
#       8
#     2   2   2   2   2   2   2   2
#     4   9  20  36  61  90 127 178 219 279 344 402
#     4  11  24  45  72  98 140 185 238 285 349 421
#     4  10  19  34  61  95 130 171 229 274 344 409
#     4  12  28  44  74 104 138 183 235 295 358 409
#     4  10  22  37  66  99 135 179 220 290 348 407
#     4  10  21  42  64  96 133 178 233 283 329 423
#     4  11  24  44  73 100 135 187 236 290 339 418
#     4   9  19  38  64  87 129 173 229 270 340 404
#
# _framework density 23.588038000000001
#
# number of rings (size 3 to 8) (size 9 to 14) (size 15 to 20)
#    0.000    1.750    3.750    0.375    8.750    0.500 
#    0.000    2.500    5.500    0.000    0.000    0.000 
#    0.000    0.000    0.000    0.000    0.000    0.000 
#
# Total GULP energy -89457.942502 kJ/mol
# GULP energy per Si atom -5591.121406 kJ/mol
# Density = 2.353435 g / cm^3
# Si number density = 23.588038 Si / 1000 Ang^3
#
#
#
# Elastic Constant Matrix: (Units=GPa)
#
#
# Indices 1 2 3 4 5 6 
#
# 1 85.8087 34.1452 23.3660 20.2160 11.9687 -17.9570
# 2 34.1452 154.2752 39.4692 40.8596 8.4400 -21.3799
# 3 23.3660 39.4692 130.3937 45.9988 6.5995 -12.3117
# 4 20.2160 40.8596 45.9988 58.0710 -4.3413 3.8492
# 5 11.9687 8.4400 6.5995 -4.3413 38.8740 13.3705
# 6 -17.9570 -21.3799 -12.3117 3.8492 13.3705 41.2075
#
#
#
# Elastic Compliance Matrix: (Units=1/GPa)
#
#
# Indices 1 2 3 4 5 6 
#
# 1 0.017574 0.000715 0.001986 -0.009943 -0.011592 0.013312
# 2 0.000715 0.010156 0.001404 -0.009626 -0.006879 0.009131
# 3 0.001986 0.001404 0.012677 -0.012891 -0.007624 0.009059
# 4 -0.009943 -0.009626 -0.012891 0.040713 0.019954 -0.023456
# 5 -0.011592 -0.006879 -0.007624 0.019954 0.043560 -0.026896
# 6 0.013312 0.009131 0.009059 -0.023456 -0.026896 0.048431
#
#
# Mechanical properties :
#
#
# Convention : Reuss Voigt Hill
#
# Bulk Modulus (GPa) = 20.56960 62.71539 41.64249
# Shear Modulus (GPa) = 27.60803 45.86364 36.73584
#
# Velocity S-wave (km/s) = 3.42486 4.41427 3.95066
# Velocity P-wave (km/s) = 4.93749 7.25442 6.20506
#
# Compressibility (1/GPa) = 0.04861543
#
# Stress axis : x y z
#
# Youngs Moduli (GPa) = 56.90273 98.46565 78.88220
#
# Poissons Ratio (x) = -0.07038 -0.15662
# Poissons Ratio (y) = -0.04067 -0.11075
# Poissons Ratio (z) = -0.11298 -0.13825
#
# Static dielectric constant tensor:
#      x y z
#    x 2.002060 -0.029640 0.001870 
#    y -0.029640 1.880710 0.035660 
#    z 0.001870 0.035660 1.880700 
# 
# From -- ./inp_files/196849.got.cif
#   From: 2010.05.17/outbox.cif.g08.bks.cpg/sg2_99_cif.got.tgz:196849.got - 2010.06.03 11:33:40.
