data_PCOD9084386
_publ_section_title
;
Structure prediction by ZEFSAII (Michael W. Deem and Ramdas Pophale) SiO2 
 PCOD9084386
Probable space group: P -1
;
_chemical_formula_sum "Si O2"
_cell_formula_units_Z 14
_cell_length_a 9.132349
_cell_length_b 9.132901
_cell_length_c 9.336267
_cell_angle_alpha 43.630872
_cell_angle_beta 101.371275
_cell_angle_gamma 96.113545
_cell_volume 526.001140
_symmetry_space_group_name_H-M "P -1"
_symmetry_group_IT_number 2
_symmetry_cell_setting 'triclinic'
loop_
_space_group_symop_operation_xyz
x,y,z
-x,-y,-z
loop_
_atom_site_type_symbol
_atom_site_label
_atom_site_fract_x
_atom_site_fract_y
_atom_site_fract_z
Si Si1 0.850262 0.389386 0.693376
Si Si2 0.847944 0.985340 0.645601
Si Si3 0.824583 0.534889 0.891718
Si Si4 0.658445 0.889430 0.958760
Si Si5 0.337238 0.597318 0.765216
Si Si6 0.101074 0.149638 0.748945
Si Si7 0.551800 0.295589 0.561095
O O1 0.802051 0.404793 0.835965
O O2 0.875238 0.630212 0.482858
O O3 0.728356 0.311441 0.616012
O O4 0.995029 0.236896 0.798566
O O5 0.821185 0.787735 0.678040
O O6 0.752409 0.916256 0.812749
O O7 0.792556 0.215154 0.412808
O O8 0.013991 0.005259 0.725583
O O9 0.700768 0.467844 0.032403
O O10 0.000000 0.500000 0.000000
O O11 0.521638 0.064346 0.784172
O O12 0.646780 0.636111 0.140735
O O13 0.752871 0.944583 0.077528
O O14 0.466794 0.699540 0.618292
O O15 0.500000 0.500000 0.500000
#
# Coordination Sequence:
#
# PCOD9084386 Si02
#       7
#     2   2   2   2   2   2   2
#     4  11  22  38  60  96 127 156 204 254 301 362
#     4  10  20  35  57  89 129 166 186 236 310 380
#     4  11  24  35  58  95 135 163 189 242 319 383
#     4  10  19  34  64  89 116 158 202 252 305 356
#     4  10  20  42  58  86 123 164 201 251 302 355
#     4  11  18  35  63  90 128 156 197 252 307 366
#     4  11  24  42  64  89 118 163 219 257 292 356
#
# _framework density 26.615911000000001
#
# number of rings (size 3 to 8) (size 9 to 14) (size 15 to 20)
#    0.000    1.429    4.286    3.857    2.000    2.857 
#    0.000    0.714    0.000    7.714    0.000    0.000 
#    0.000    0.000    0.000    0.000    0.000    0.000 
#
# Total GULP energy -78107.229644 kJ/mol
# GULP energy per Si atom -5579.087832 kJ/mol
# Density = 2.655533 g / cm^3
# Si number density = 26.615911 Si / 1000 Ang^3
#
#
#
# Elastic Constant Matrix: (Units=GPa)
#
#
# Indices 1 2 3 4 5 6 
#
# 1 39.1603 15.7585 27.6798 12.4358 -11.8189 -21.2544
# 2 15.7585 121.8886 54.7984 -2.5394 -11.7553 -11.2408
# 3 27.6798 54.7984 167.8232 -21.8180 0.1425 -12.9009
# 4 12.4358 -2.5394 -21.8180 54.5037 -11.0269 -11.1256
# 5 -11.8189 -11.7553 0.1425 -11.0269 28.6381 4.8614
# 6 -21.2544 -11.2408 -12.9009 -11.1256 4.8614 33.9393
#
#
#
# Elastic Compliance Matrix: (Units=1/GPa)
#
#
# Indices 1 2 3 4 5 6 
#
# 1 0.050391 0.000318 -0.007376 -0.006511 0.014267 0.024681
# 2 0.000318 0.010177 -0.003190 0.000345 0.004139 0.001877
# 3 -0.007376 -0.003190 0.008750 0.004400 -0.002612 -0.000533
# 4 -0.006511 0.000345 0.004400 0.023731 0.005779 0.004661
# 5 0.014267 0.004139 -0.002612 0.005779 0.043909 0.004917
# 6 0.024681 0.001877 -0.000533 0.004661 0.004917 0.046163
#
#
# Mechanical properties :
#
#
# Convention : Reuss Voigt Hill
#
# Bulk Modulus (GPa) = 20.48291 58.37174 39.42732
# Shear Modulus (GPa) = 22.73864 38.79192 30.76528
#
# Velocity S-wave (km/s) = 2.92606 3.82183 3.40354
# Velocity P-wave (km/s) = 4.37358 6.43847 5.50373
#
# Compressibility (1/GPa) = 0.04882119
#
# Stress axis : x y z
#
# Youngs Moduli (GPa) = 19.84481 98.26488 114.28662
#
# Poissons Ratio (x) = -0.03122 0.84301
# Poissons Ratio (y) = -0.00631 0.36453
# Poissons Ratio (z) = 0.14638 0.31343
#
# Static dielectric constant tensor:
#      x y z
#    x 2.162330 -0.066840 0.013330 
#    y -0.066840 2.066580 -0.074000 
#    z 0.013330 -0.074000 2.171470 
# 
# From -- ./inp_files/242137.got.cif
#   From: 2010.05.17/outbox.cif.g08.bks.cpg/sg2_122_cif.got.tgz:242137.got - 2010.06.03 11:33:40.
