data_PCOD9084274
_publ_section_title
;
Structure prediction by ZEFSAII (Michael W. Deem and Ramdas Pophale) SiO2 
 PCOD9084274
Probable space group: P -1
;
_chemical_formula_sum "Si O2"
_cell_formula_units_Z 14
_cell_length_a 8.235507
_cell_length_b 12.811465
_cell_length_c 6.946938
_cell_angle_alpha 56.416462
_cell_angle_beta 80.698550
_cell_angle_gamma 87.583406
_cell_volume 601.593417
_symmetry_space_group_name_H-M "P -1"
_symmetry_group_IT_number 2
_symmetry_cell_setting 'triclinic'
loop_
_space_group_symop_operation_xyz
x,y,z
-x,-y,-z
loop_
_atom_site_type_symbol
_atom_site_label
_atom_site_fract_x
_atom_site_fract_y
_atom_site_fract_z
Si Si1 0.591486 0.189872 0.648455
Si Si2 0.767405 0.371079 0.687445
Si Si3 0.123642 0.888388 0.603441
Si Si4 0.423146 0.432297 0.271478
Si Si5 0.056791 0.448816 0.834908
Si Si6 0.352640 0.041392 0.616698
Si Si7 0.185691 0.278413 0.234271
O O1 0.675536 0.239749 0.777516
O O2 0.733477 0.125558 0.566502
O O3 0.534910 0.320536 0.430008
O O4 0.428345 0.095981 0.746568
O O5 0.624280 0.461857 0.680709
O O6 0.866646 0.437442 0.423471
O O7 0.905463 0.376977 0.823216
O O8 0.003378 0.768295 0.707125
O O9 0.216561 0.926327 0.746265
O O10 0.000000 0.000000 0.500000
O O11 0.246057 0.367761 0.305451
O O12 0.500000 0.500000 0.000000
O O13 0.204872 0.357318 0.952536
O O14 0.000000 0.500000 0.000000
O O15 0.283619 0.156743 0.389443
O O16 0.500000 0.000000 0.500000
#
# Coordination Sequence:
#
# PCOD9084274 Si02
#       7
#     2   2   2   2   2   2   2
#     4  10  20  35  59  92 125 164 210 254 325 376
#     4  11  24  38  62  95 135 174 205 259 310 382
#     4   9  18  34  63  91 114 162 217 263 317 371
#     4  11  23  38  60  96 134 169 210 252 314 392
#     4  11  22  39  61  94 136 163 216 255 306 386
#     4   8  17  35  58  91 118 158 212 266 322 373
#     4  10  19  34  62  90 117 168 211 252 314 373
#
# _framework density 23.271532000000001
#
# number of rings (size 3 to 8) (size 9 to 14) (size 15 to 20)
#    0.000    2.000    1.429    2.143    4.000    0.000 
#    0.000    0.000    0.000    8.571    0.000    0.000 
#    0.000    0.000    0.000    0.000    0.000    0.000 
#
# Total GULP energy -77983.771837 kJ/mol
# GULP energy per Si atom -5570.269417 kJ/mol
# Density = 2.321856 g / cm^3
# Si number density = 23.271532 Si / 1000 Ang^3
#
#
#
# Elastic Constant Matrix: (Units=GPa)
#
#
# Indices 1 2 3 4 5 6 
#
# 1 124.9091 60.9411 35.7224 16.6159 26.2690 26.4809
# 2 60.9411 144.6421 22.9199 34.6734 13.6569 27.5704
# 3 35.7224 22.9199 76.4602 12.9711 24.1081 -4.9963
# 4 16.6159 34.6734 12.9711 24.0435 -1.0983 13.5548
# 5 26.2690 13.6569 24.1081 -1.0983 39.3480 10.2043
# 6 26.4809 27.5704 -4.9963 13.5548 10.2043 64.1303
#
#
#
# Elastic Compliance Matrix: (Units=1/GPa)
#
#
# Indices 1 2 3 4 5 6 
#
# 1 0.012323 -0.003766 -0.003779 0.000647 -0.003729 -0.003307
# 2 -0.003766 0.012500 0.002118 -0.017043 -0.003739 0.000543
# 3 -0.003779 0.002118 0.022467 -0.018059 -0.014701 0.008556
# 4 0.000647 -0.017043 -0.018059 0.085608 0.023118 -0.016120
# 5 -0.003729 -0.003739 -0.014701 0.023118 0.041306 -0.009457
# 6 -0.003307 0.000543 0.008556 -0.016120 -0.009457 0.022304
#
#
# Mechanical properties :
#
#
# Convention : Reuss Voigt Hill
#
# Bulk Modulus (GPa) = 27.44482 65.01981 46.23231
# Shear Modulus (GPa) = 22.77835 40.59956 31.68896
#
# Velocity S-wave (km/s) = 3.13198 4.18137 3.69413
# Velocity P-wave (km/s) = 4.98979 7.16325 6.17293
#
# Compressibility (1/GPa) = 0.03643675
#
# Stress axis : x y z
#
# Youngs Moduli (GPa) = 81.14866 80.00253 44.50949
#
# Poissons Ratio (x) = 0.30128 0.16819
# Poissons Ratio (y) = 0.30560 -0.09428
# Poissons Ratio (z) = 0.30664 -0.16945
#
# Static dielectric constant tensor:
#      x y z
#    x 1.937930 0.042320 0.034590 
#    y 0.042320 1.963040 -0.033180 
#    z 0.034590 -0.033180 1.888800 
# 
# From -- ./inp_files/27036.got.cif
#   From: 2010.05.17/outbox.cif.g08.bks.cpg/sg2_14_cif.got.tgz:27036.got - 2010.06.03 11:33:40.
