data_PCOD9084907
_publ_section_title
;
Structure prediction by ZEFSAII (Michael W. Deem and Ramdas Pophale) SiO2 
 PCOD9084907
Probable space group: P -1
;
_chemical_formula_sum "Si O2"
_cell_formula_units_Z 16
_cell_length_a 8.349553
_cell_length_b 22.700556
_cell_length_c 12.280995
_cell_angle_alpha 157.461406
_cell_angle_beta 49.963503
_cell_angle_gamma 134.966293
_cell_volume 630.892892
_symmetry_space_group_name_H-M "P -1"
_symmetry_group_IT_number 2
_symmetry_cell_setting 'triclinic'
loop_
_space_group_symop_operation_xyz
x,y,z
-x,-y,-z
loop_
_atom_site_type_symbol
_atom_site_label
_atom_site_fract_x
_atom_site_fract_y
_atom_site_fract_z
Si Si1 0.692784 0.411821 0.365514
Si Si2 0.067016 0.723370 0.465256
Si Si3 0.456603 0.497552 0.186923
Si Si4 0.607750 0.223541 0.404179
Si Si5 0.136977 0.952606 0.148918
Si Si6 0.757871 0.768184 0.845133
Si Si7 0.971962 0.638842 0.129374
Si Si8 0.021929 0.232632 0.888911
O O1 0.575581 0.425740 0.553834
O O2 0.754335 0.593584 0.597394
O O3 0.503084 0.271777 0.135999
O O4 0.905751 0.360667 0.198699
O O5 0.297894 0.807491 0.575591
O O6 0.895219 0.794863 0.717301
O O7 0.100758 0.740381 0.351481
O O8 0.965076 0.522799 0.191691
O O9 0.351817 0.584932 0.293743
O O10 0.714625 0.548978 0.132331
O O11 0.288116 0.307490 0.930499
O O12 0.748149 0.170382 0.161521
O O13 0.341888 0.126709 0.336822
O O14 0.907507 0.905830 0.100286
O O15 0.093481 0.921681 0.243389
O O16 0.001209 0.754927 0.209630
#
# Coordination Sequence:
#
# PCOD9084907 Si02
#       8
#     2   2   2   2   2   2   2   2
#     4  11  20  33  59  89 116 146 190 249 284 326
#     4  10  20  37  56  84 121 153 185 233 291 342
#     4  12  21  37  59  90 115 150 196 238 283 339
#     4  10  21  38  61  85 116 151 193 237 290 336
#     4  10  21  38  60  86 116 152 188 242 290 336
#     4  10  19  35  57  90 119 144 189 240 293 332
#     4  11  23  36  58  88 119 155 187 235 289 343
#     4  12  21  37  58  90 115 148 198 238 280 339
#
# _framework density 25.360882
#
# number of rings (size 3 to 8) (size 9 to 14) (size 15 to 20)
#    0.000    1.250    6.250    1.500    0.000    0.000 
#    0.000    3.125    0.000    0.000    0.000    0.000 
#    0.000    0.000    0.000    0.000    0.000    0.000 
#
# Total GULP energy -89519.617064 kJ/mol
# GULP energy per Si atom -5594.976067 kJ/mol
# Density = 2.530316 g / cm^3
# Si number density = 25.360882 Si / 1000 Ang^3
#
#
#
# Elastic Constant Matrix: (Units=GPa)
#
#
# Indices 1 2 3 4 5 6 
#
# 1 72.4124 44.5801 26.3458 -4.6996 33.4627 -2.1677
# 2 44.5801 103.8697 30.9221 -14.5390 21.5693 -0.9066
# 3 26.3458 30.9221 57.0803 -17.8252 16.8349 -2.9976
# 4 -4.6996 -14.5390 -17.8252 47.4363 -4.6680 12.6022
# 5 33.4627 21.5693 16.8349 -4.6680 49.2202 -3.5721
# 6 -2.1677 -0.9066 -2.9976 12.6022 -3.5721 42.0274
#
#
#
# Elastic Compliance Matrix: (Units=1/GPa)
#
#
# Indices 1 2 3 4 5 6 
#
# 1 0.026016 -0.007376 -0.005111 -0.003046 -0.012950 0.000631
# 2 -0.007376 0.014170 -0.003583 0.002574 0.000196 -0.001085
# 3 -0.005111 -0.003583 0.025049 0.007831 -0.002863 -0.001146
# 4 -0.003046 0.002574 0.007831 0.026520 0.000237 -0.007475
# 5 -0.012950 0.000196 -0.002863 0.000237 0.030155 0.001624
# 6 0.000631 -0.001085 -0.001146 -0.007475 0.001624 0.026101
#
#
# Mechanical properties :
#
#
# Convention : Reuss Voigt Hill
#
# Bulk Modulus (GPa) = 30.21579 48.56204 39.38892
# Shear Modulus (GPa) = 26.15335 36.50439 31.32887
#
# Velocity S-wave (km/s) = 3.21479 3.79806 3.51853
# Velocity P-wave (km/s) = 5.07149 6.19868 5.66320
#
# Compressibility (1/GPa) = 0.03309528
#
# Stress axis : x y z
#
# Youngs Moduli (GPa) = 38.43853 70.57228 39.92217
#
# Poissons Ratio (x) = 0.52054 0.20402
# Poissons Ratio (y) = 0.28352 0.14304
# Poissons Ratio (z) = 0.19644 0.25285
#
# Static dielectric constant tensor:
#      x y z
#    x 1.993610 -0.039370 0.001440 
#    y -0.039370 1.958730 -0.025530 
#    z 0.001440 -0.025530 2.031960 
# 
# From -- ./inp_files/208729.got.cif
#   From: 2010.05.17/outbox.cif.g08.bks.cpg/sg2_105_cif.got.tgz:208729.got - 2010.06.03 11:33:40.
