data_PCOD9084106
_publ_section_title
;
Structure prediction by ZEFSAII (Michael W. Deem and Ramdas Pophale) SiO2 
 PCOD9084106
Probable space group: P -1
;
_chemical_formula_sum "Si O2"
_cell_formula_units_Z 16
_cell_length_a 14.650497
_cell_length_b 15.503143
_cell_length_c 14.960303
_cell_angle_alpha 45.759274
_cell_angle_beta 19.306246
_cell_angle_gamma 46.784218
_cell_volume 799.847699
_symmetry_space_group_name_H-M "P -1"
_symmetry_group_IT_number 2
_symmetry_cell_setting 'triclinic'
loop_
_space_group_symop_operation_xyz
x,y,z
-x,-y,-z
loop_
_atom_site_type_symbol
_atom_site_label
_atom_site_fract_x
_atom_site_fract_y
_atom_site_fract_z
Si Si1 0.583186 0.862526 0.762580
Si Si2 0.766136 0.935642 0.352309
Si Si3 0.697549 0.106986 0.751680
Si Si4 0.826887 0.076226 0.464763
Si Si5 0.705732 0.506717 0.719132
Si Si6 0.727358 0.736094 0.405865
Si Si7 0.821214 0.265649 0.674762
Si Si8 0.897304 0.170968 0.141157
O O1 0.641447 0.875732 0.596308
O O2 0.846334 0.767024 0.621141
O O3 0.598329 0.994475 0.696960
O O4 0.287539 0.821178 0.086579
O O5 0.882341 0.826773 0.260117
O O6 0.500000 0.000000 0.500000
O O7 0.953088 0.037309 0.140057
O O8 0.739692 0.151098 0.579956
O O9 0.654209 0.222395 0.773857
O O10 0.953671 0.028713 0.620667
O O11 0.500000 0.000000 0.000000
O O12 0.930439 0.148288 0.233196
O O13 0.674931 0.625073 0.598836
O O14 0.724439 0.396152 0.710742
O O15 0.000000 0.500000 0.500000
O O16 0.500000 0.500000 0.000000
O O17 0.425204 0.789448 0.610997
O O18 0.920854 0.732724 0.141309
#
# Coordination Sequence:
#
# PCOD9084106 Si02
#       8
#     2   2   2   2   2   2   2   2
#     4  10  20  34  54  83 116 146 183 228 287 349
#     4   9  19  32  51  77 109 144 185 224 276 333
#     4  10  19  34  60  89 121 143 190 237 295 348
#     4   9  20  34  54  90 120 150 178 234 296 351
#     4  12  25  42  62  84 115 156 200 241 283 329
#     4  11  22  37  54  79 110 150 195 234 273 340
#     4  11  22  37  58  83 113 150 186 238 289 333
#     4  10  22  35  56  79 114 150 183 229 290 342
#
# _framework density 20.003809
#
# number of rings (size 3 to 8) (size 9 to 14) (size 15 to 20)
#    0.000    1.750    1.250    3.375    1.750    9.000 
#    0.000    0.000    0.000    1.500    0.000    0.000 
#    0.000    0.000    0.000    0.000    0.000    0.000 
#
# Total GULP energy -89134.751139 kJ/mol
# GULP energy per Si atom -5570.921946 kJ/mol
# Density = 1.995828 g / cm^3
# Si number density = 20.003809 Si / 1000 Ang^3
#
#
#
# Elastic Constant Matrix: (Units=GPa)
#
#
# Indices 1 2 3 4 5 6 
#
# 1 129.3298 50.0328 38.1374 -8.0375 35.4756 10.1923
# 2 50.0328 62.7707 20.7673 -4.9607 16.0476 14.1112
# 3 38.1374 20.7673 103.4456 -1.8728 20.7410 -2.0880
# 4 -8.0375 -4.9607 -1.8728 20.9978 -8.1959 4.0923
# 5 35.4756 16.0476 20.7410 -8.1959 39.5636 -1.0143
# 6 10.1923 14.1112 -2.0880 4.0923 -1.0143 36.7832
#
#
#
# Elastic Compliance Matrix: (Units=1/GPa)
#
#
# Indices 1 2 3 4 5 6 
#
# 1 0.013659 -0.007960 -0.001846 0.000263 -0.008025 -0.001086
# 2 -0.007960 0.025454 -0.001952 0.003755 -0.001594 -0.008132
# 3 -0.001846 -0.001952 0.011541 -0.002091 -0.003985 0.002038
# 4 0.000263 0.003755 -0.002091 0.053881 0.010311 -0.007342
# 5 -0.008025 -0.001594 -0.003985 0.010311 0.037407 0.002493
# 6 -0.001086 -0.008132 0.002038 -0.007342 0.002493 0.031608
#
#
# Mechanical properties :
#
#
# Convention : Reuss Voigt Hill
#
# Bulk Modulus (GPa) = 36.84747 57.04678 46.94712
# Shear Modulus (GPa) = 24.25861 31.90948 28.08404
#
# Velocity S-wave (km/s) = 3.48616 3.99829 3.75098
# Velocity P-wave (km/s) = 5.88767 7.06364 6.50229
#
# Compressibility (1/GPa) = 0.02713891
#
# Stress axis : x y z
#
# Youngs Moduli (GPa) = 73.21135 39.28673 86.64391
#
# Poissons Ratio (x) = 0.31272 0.15993
# Poissons Ratio (y) = 0.58276 0.16912
# Poissons Ratio (z) = 0.13514 0.07668
#
# Static dielectric constant tensor:
#      x y z
#    x 1.782310 0.042700 0.022470 
#    y 0.042700 1.786070 0.026610 
#    z 0.022470 0.026610 1.783530 
# 
# From -- ./inp_files/78658.got.cif
#   From: 2010.05.17/outbox.cif.g08.bks.cpg/sg2_40_cif.got.tgz:78658.got - 2010.06.03 11:33:40.
