data_PCOD9084451
_publ_section_title
;
Structure prediction by ZEFSAII (Michael W. Deem and Ramdas Pophale) SiO2 
 PCOD9084451
Probable space group: P -1
;
_chemical_formula_sum "Si O2"
_cell_formula_units_Z 16
_cell_length_a 11.424469
_cell_length_b 8.039669
_cell_length_c 14.911290
_cell_angle_alpha 78.114365
_cell_angle_beta 92.076168
_cell_angle_gamma 35.047832
_cell_volume 716.682543
_symmetry_space_group_name_H-M "P -1"
_symmetry_group_IT_number 2
_symmetry_cell_setting 'triclinic'
loop_
_space_group_symop_operation_xyz
x,y,z
-x,-y,-z
loop_
_atom_site_type_symbol
_atom_site_label
_atom_site_fract_x
_atom_site_fract_y
_atom_site_fract_z
Si Si1 0.263946 0.446078 0.714585
Si Si2 0.045314 0.025236 0.716935
Si Si3 0.138186 0.448517 0.882244
Si Si4 0.286016 0.104857 0.288894
Si Si5 0.002222 0.471483 0.608627
Si Si6 0.922176 0.838310 0.004613
Si Si7 0.515195 0.469621 0.110577
Si Si8 0.249811 0.541546 0.186302
O O1 0.089601 0.814980 0.674498
O O2 0.307462 0.323685 0.831471
O O3 0.178234 0.386378 0.665155
O O4 0.480138 0.250507 0.693863
O O5 0.257112 0.752277 0.818292
O O6 0.042823 0.221649 0.658004
O O7 0.828520 0.275353 0.744148
O O8 0.912464 0.739216 0.787277
O O9 0.157669 0.226750 0.932431
O O10 0.103887 0.574244 0.963970
O O11 0.218372 0.201522 0.380395
O O12 0.281640 0.304877 0.232729
O O13 0.000000 0.500000 0.500000
O O14 0.044460 0.806375 0.083009
O O15 0.707131 0.160095 0.910479
O O16 0.462048 0.352467 0.164436
O O17 0.500000 0.500000 0.000000
#
# Coordination Sequence:
#
# PCOD9084451 Si02
#       8
#     2   2   2   2   2   2   2   2
#     4  11  22  39  67  90 125 160 201 257 315 362
#     4  11  24  42  63  93 124 165 209 249 312 369
#     4   9  20  35  53  80 125 164 206 256 293 351
#     4   9  20  39  62  88 121 161 203 247 316 373
#     4  10  24  47  70  92 122 154 198 262 320 381
#     4  10  19  35  50  80 120 170 219 250 293 342
#     4  12  23  31  54  85 123 164 211 251 286 346
#     4  10  21  37  54  81 127 173 210 254 294 350
#
# _framework density 22.325087
#
# number of rings (size 3 to 8) (size 9 to 14) (size 15 to 20)
#    0.000    1.750    1.250    3.375    3.500    2.000 
#    0.000    3.125    0.000    0.000    0.000    0.000 
#    0.000    0.000    0.000    0.000    0.000    0.000 
#
# Total GULP energy -89310.287373 kJ/mol
# GULP energy per Si atom -5581.892961 kJ/mol
# Density = 2.227427 g / cm^3
# Si number density = 22.325087 Si / 1000 Ang^3
#
#
#
# Elastic Constant Matrix: (Units=GPa)
#
#
# Indices 1 2 3 4 5 6 
#
# 1 67.8583 16.2057 25.5951 11.3735 -9.0902 3.4054
# 2 16.2057 82.7641 24.3647 20.4131 -5.4330 2.8061
# 3 25.5951 24.3647 84.5978 29.5991 -16.5574 2.4986
# 4 11.3735 20.4131 29.5991 24.9669 -5.1156 -6.5409
# 5 -9.0902 -5.4330 -16.5574 -5.1156 14.4003 2.8980
# 6 3.4054 2.8061 2.4986 -6.5409 2.8980 35.0805
#
#
#
# Elastic Compliance Matrix: (Units=1/GPa)
#
#
# Indices 1 2 3 4 5 6 
#
# 1 0.017598 -0.001359 -0.002172 -0.003526 0.007391 -0.002713
# 2 -0.001359 0.015849 0.001725 -0.014959 0.002649 -0.004267
# 3 -0.002172 0.001725 0.027237 -0.030752 0.021561 -0.009382
# 4 -0.003526 -0.014959 -0.030752 0.093200 -0.014610 0.022314
# 5 0.007391 0.002649 0.021561 -0.014610 0.097372 -0.013233
# 6 -0.002713 -0.004267 -0.009382 0.022314 -0.013233 0.035032
#
#
# Mechanical properties :
#
#
# Convention : Reuss Voigt Hill
#
# Bulk Modulus (GPa) = 17.52190 40.83901 29.18045
# Shear Modulus (GPa) = 16.18516 26.15987 21.17251
#
# Velocity S-wave (km/s) = 2.69546 3.42683 3.08291
# Velocity P-wave (km/s) = 4.18962 5.83010 5.07656
#
# Compressibility (1/GPa) = 0.05707145
#
# Stress axis : x y z
#
# Youngs Moduli (GPa) = 56.82513 63.09547 36.71415
#
# Poissons Ratio (x) = 0.08577 0.07975
# Poissons Ratio (y) = 0.07725 -0.06334
# Poissons Ratio (z) = 0.12343 -0.10885
#
# Static dielectric constant tensor:
#      x y z
#    x 1.898030 0.008300 -0.009320 
#    y 0.008300 1.913720 0.015340 
#    z -0.009320 0.015340 1.793470 
# 
# From -- ./inp_files/284773.got.cif
#   From: 2010.05.17/outbox.cif.g08.bks.cpg/sg2_143_cif.got.tgz:284773.got - 2010.06.03 11:33:40.
