data_PCOD9084192
_publ_section_title
;
Structure prediction by ZEFSAII (Michael W. Deem and Ramdas Pophale) SiO2 
 PCOD9084192
Probable space group: P -1
;
_chemical_formula_sum "Si O2"
_cell_formula_units_Z 14
_cell_length_a 9.191320
_cell_length_b 9.171680
_cell_length_c 10.246988
_cell_angle_alpha 55.181442
_cell_angle_beta 120.291519
_cell_angle_gamma 133.032450
_cell_volume 508.810011
_symmetry_space_group_name_H-M "P -1"
_symmetry_group_IT_number 2
_symmetry_cell_setting 'triclinic'
loop_
_space_group_symop_operation_xyz
x,y,z
-x,-y,-z
loop_
_atom_site_type_symbol
_atom_site_label
_atom_site_fract_x
_atom_site_fract_y
_atom_site_fract_z
Si Si1 0.217475 0.061190 0.745030
Si Si2 0.106234 0.255032 0.801573
Si Si3 0.687213 0.284014 0.422243
Si Si4 0.204532 0.799048 0.096766
Si Si5 0.488532 0.250740 0.077259
Si Si6 0.673024 0.477141 0.799911
Si Si7 0.302097 0.099853 0.469792
O O1 0.071514 0.105444 0.739345
O O2 0.439421 0.285918 0.752743
O O3 0.201496 0.027714 0.602351
O O4 0.177971 0.856797 0.908985
O O5 0.147128 0.469688 0.647062
O O6 0.301970 0.276716 0.950458
O O7 0.940081 0.192437 0.868149
O O8 0.542140 0.255299 0.248705
O O9 0.551027 0.233002 0.514131
O O10 0.741320 0.111003 0.517210
O O11 0.196404 0.583931 0.193950
O O12 0.421071 0.016926 0.116220
O O13 0.670817 0.426223 0.978666
O O14 0.724088 0.711256 0.682967
#
# Coordination Sequence:
#
# PCOD9084192 Si02
#       7
#     2   2   2   2   2   2   2
#     4  10  19  38  62  88 115 156 199 242 284 349
#     4  10  21  38  66  88 118 149 200 244 295 338
#     4  11  22  38  62  91 115 155 198 247 287 343
#     4  10  20  38  64  90 116 152 196 247 290 344
#     4  10  19  38  63  90 112 153 203 242 284 345
#     4  10  19  34  61  90 114 155 201 239 281 349
#     4  11  22  36  60  86 122 154 201 237 289 346
#
# _framework density 27.515181999999999
#
# number of rings (size 3 to 8) (size 9 to 14) (size 15 to 20)
#    0.000    2.000    2.857    6.000    0.000    0.000 
#    0.000    4.286    9.429    0.000    0.000    0.000 
#    0.000    0.000    0.000    0.000    0.000    0.000 
#
# Total GULP energy -78376.327673 kJ/mol
# GULP energy per Si atom -5598.309120 kJ/mol
# Density = 2.745256 g / cm^3
# Si number density = 27.515182 Si / 1000 Ang^3
#
#
#
# Elastic Constant Matrix: (Units=GPa)
#
#
# Indices 1 2 3 4 5 6 
#
# 1 181.6719 47.2836 82.3649 -0.3289 -14.2706 -47.9715
# 2 47.2836 120.0382 44.5909 -41.6111 9.4601 -40.6271
# 3 82.3649 44.5909 139.5975 -36.1968 -4.3558 -35.8920
# 4 -0.3289 -41.6111 -36.1968 45.9460 -8.1728 6.8500
# 5 -14.2706 9.4601 -4.3558 -8.1728 58.0657 0.5465
# 6 -47.9715 -40.6271 -35.8920 6.8500 0.5465 46.6569
#
#
#
# Elastic Compliance Matrix: (Units=1/GPa)
#
#
# Indices 1 2 3 4 5 6 
#
# 1 0.010276 -0.003237 -0.005919 -0.007909 0.001455 0.004337
# 2 -0.003237 0.019229 0.004035 0.018296 -0.001181 0.013847
# 3 -0.005919 0.004035 0.014896 0.014517 0.000985 0.006744
# 4 -0.007909 0.018296 0.014517 0.048464 0.002874 0.011818
# 5 0.001455 -0.001181 0.000985 0.002874 0.018245 0.000590
# 6 0.004337 0.013847 0.006744 0.011818 0.000590 0.041396
#
#
# Mechanical properties :
#
#
# Convention : Reuss Voigt Hill
#
# Bulk Modulus (GPa) = 29.27568 87.75405 58.51486
# Shear Modulus (GPa) = 28.71364 47.93829 38.32597
#
# Velocity S-wave (km/s) = 3.23392 4.17855 3.73621
# Velocity P-wave (km/s) = 4.96057 7.43254 6.31862
#
# Compressibility (1/GPa) = 0.03415804
#
# Stress axis : x y z
#
# Youngs Moduli (GPa) = 97.31621 52.00526 67.13340
#
# Poissons Ratio (x) = 0.16837 0.39737
# Poissons Ratio (y) = 0.31506 -0.27091
# Poissons Ratio (z) = 0.57603 -0.20987
#
# Static dielectric constant tensor:
#      x y z
#    x 2.190500 0.108940 0.078620 
#    y 0.108940 2.179370 0.081870 
#    z 0.078620 0.081870 2.107070 
# 
# From -- ./inp_files/381365.got.cif
#   From: 2010.05.17/outbox.cif.g08.bks.cpg/sg2_191_cif.got.tgz:381365.got - 2010.06.03 11:33:40.
