data_PCOD9084020
_publ_section_title
;
Structure prediction by ZEFSAII (Michael W. Deem and Ramdas Pophale) SiO2 
 PCOD9084020
Probable space group: P -1
;
_chemical_formula_sum "Si O2"
_cell_formula_units_Z 16
_cell_length_a 19.835355
_cell_length_b 9.320275
_cell_length_c 8.454797
_cell_angle_alpha 76.839747
_cell_angle_beta 71.359501
_cell_angle_gamma 138.329570
_cell_volume 661.856829
_symmetry_space_group_name_H-M "P -1"
_symmetry_group_IT_number 2
_symmetry_cell_setting 'triclinic'
loop_
_space_group_symop_operation_xyz
x,y,z
-x,-y,-z
loop_
_atom_site_type_symbol
_atom_site_label
_atom_site_fract_x
_atom_site_fract_y
_atom_site_fract_z
Si Si1 0.917871 0.710000 0.469960
Si Si2 0.514275 0.211142 0.231471
Si Si3 0.765371 0.239901 0.949169
Si Si4 0.607492 0.654247 0.236345
Si Si5 0.780587 0.748272 0.657685
Si Si6 0.096719 0.000070 0.969618
Si Si7 0.721840 0.375904 0.249734
Si Si8 0.944084 0.267117 0.216987
O O1 0.843040 0.733066 0.502680
O O2 0.788381 0.391175 0.750206
O O3 0.083193 0.012945 0.368451
O O4 0.970270 0.733464 0.264253
O O5 0.519471 0.386629 0.248959
O O6 0.612606 0.291318 0.259193
O O7 0.349104 0.832129 0.487647
O O8 0.615215 0.405022 0.946173
O O9 0.730822 0.265424 0.132263
O O10 0.660691 0.909819 0.068305
O O11 0.936739 0.494970 0.790039
O O12 0.500000 0.500000 0.500000
O O13 0.754354 0.831500 0.148291
O O14 0.791667 0.924746 0.511342
O O15 0.149638 0.266744 0.884023
O O16 0.031017 0.823440 0.897865
O O17 0.000000 0.500000 0.000000
#
# Coordination Sequence:
#
# PCOD9084020 Si02
#       8
#     2   2   2   2   2   2   2   2
#     4  10  19  34  59  91 114 144 203 260 284 332
#     4  10  19  35  59  89 117 150 194 251 296 332
#     4  11  21  36  62  89 120 151 195 247 300 344
#     4  11  21  35  59  88 116 150 198 247 284 348
#     4  10  19  36  59  87 119 151 200 247 294 339
#     4  11  22  39  57  89 118 157 200 234 301 356
#     4  10  19  34  61  86 114 150 201 244 288 342
#     4  11  24  38  57  83 128 164 185 234 305 371
#
# _framework density 24.174410999999999
#
# number of rings (size 3 to 8) (size 9 to 14) (size 15 to 20)
#    0.000    1.500    6.250    1.500    0.000    3.500 
#    0.000    0.625    0.000    4.500    0.000    0.000 
#    0.000    0.000    0.000    0.000    0.000    0.000 
#
# Total GULP energy -89120.570587 kJ/mol
# GULP energy per Si atom -5570.035662 kJ/mol
# Density = 2.411939 g / cm^3
# Si number density = 24.174411 Si / 1000 Ang^3
#
#
#
# Elastic Constant Matrix: (Units=GPa)
#
#
# Indices 1 2 3 4 5 6 
#
# 1 62.6760 23.0903 37.7291 -15.3606 8.7406 -27.6413
# 2 23.0903 87.1111 34.6252 -21.2827 2.3657 -26.8586
# 3 37.7291 34.6252 190.5038 -12.4942 20.8877 -29.5757
# 4 -15.3606 -21.2827 -12.4942 41.2425 -16.4772 9.4164
# 5 8.7406 2.3657 20.8877 -16.4772 41.4764 -7.8761
# 6 -27.6413 -26.8586 -29.5757 9.4164 -7.8761 31.9464
#
#
#
# Elastic Compliance Matrix: (Units=1/GPa)
#
#
# Indices 1 2 3 4 5 6 
#
# 1 0.027559 0.001809 -0.002167 0.006261 0.001839 0.021968
# 2 0.001809 0.017797 -0.001449 0.008335 0.005311 0.014039
# 3 -0.002167 -0.001449 0.006580 -0.001284 -0.002773 0.002693
# 4 0.006261 0.008335 -0.001284 0.034922 0.013538 0.004279
# 5 0.001839 0.005311 -0.002773 0.013538 0.031578 0.007284
# 6 0.021968 0.014039 0.002693 0.004279 0.007284 0.065140
#
#
# Mechanical properties :
#
#
# Convention : Reuss Voigt Hill
#
# Bulk Modulus (GPa) = 20.69470 59.02002 39.85736
# Shear Modulus (GPa) = 24.59446 39.25613 31.92529
#
# Velocity S-wave (km/s) = 3.19309 4.03410 3.63798
# Velocity P-wave (km/s) = 4.70889 6.79455 5.84549
#
# Compressibility (1/GPa) = 0.04832156
#
# Stress axis : x y z
#
# Youngs Moduli (GPa) = 36.28516 56.19028 151.98156
#
# Poissons Ratio (x) = -0.10167 0.32942
# Poissons Ratio (y) = -0.06565 0.22023
# Poissons Ratio (z) = 0.07865 0.08142
#
# Static dielectric constant tensor:
#      x y z
#    x 2.364270 0.495880 -1.166000 
#    y 0.495880 2.639410 -1.705120 
#    z -1.166000 -1.705120 5.976430 
# 
# From -- ./inp_files/203164.got.cif
#   From: 2010.05.17/outbox.cif.g08.bks.cpg/sg2_102_cif.got.tgz:203164.got - 2010.06.03 11:33:40.
