data_PCOD9084834
_publ_section_title
;
Structure prediction by ZEFSAII (Michael W. Deem and Ramdas Pophale) SiO2 
 PCOD9084834
Probable space group: P -1
;
_chemical_formula_sum "Si O2"
_cell_formula_units_Z 16
_cell_length_a 15.152186
_cell_length_b 21.681783
_cell_length_c 24.492028
_cell_angle_alpha 17.334120
_cell_angle_beta 157.725216
_cell_angle_gamma 163.066321
_cell_volume 691.345406
_symmetry_space_group_name_H-M "P -1"
_symmetry_group_IT_number 2
_symmetry_cell_setting 'triclinic'
loop_
_space_group_symop_operation_xyz
x,y,z
-x,-y,-z
loop_
_atom_site_type_symbol
_atom_site_label
_atom_site_fract_x
_atom_site_fract_y
_atom_site_fract_z
Si Si1 0.354734 0.990783 0.191086
Si Si2 0.853026 0.678049 0.747729
Si Si3 0.452356 0.802583 0.687213
Si Si4 0.821992 0.438846 0.700259
Si Si5 0.663394 0.225234 0.530347
Si Si6 0.490931 0.874192 0.957828
Si Si7 0.191122 0.297397 0.423307
Si Si8 0.611981 0.536084 0.153171
O O1 0.461306 0.021240 0.164956
O O2 0.456059 0.892376 0.378914
O O3 0.472016 0.283275 0.029944
O O4 0.983852 0.759777 0.173291
O O5 0.826348 0.617656 0.718776
O O6 0.153731 0.752680 0.885128
O O7 0.544734 0.394906 0.834291
O O8 0.948912 0.970685 0.560451
O O9 0.498031 0.612557 0.842825
O O10 0.116993 0.625472 0.672349
O O11 0.500000 0.000000 0.500000
O O12 0.672763 0.010618 0.685272
O O13 0.527509 0.388294 0.548594
O O14 0.866657 0.573971 0.669928
O O15 0.733303 0.144484 0.902679
O O16 0.512483 0.311282 0.332394
O O17 0.000000 0.500000 0.500000
#
# Coordination Sequence:
#
# PCOD9084834 Si02
#       8
#     2   2   2   2   2   2   2   2
#     4  10  19  35  57  83 116 158 191 239 289 352
#     4   9  20  38  59  88 114 150 195 249 296 361
#     4  10  20  36  58  85 119 157 194 243 299 351
#     4  10  20  37  61  85 119 155 191 252 295 351
#     4   9  20  36  57  82 112 159 197 242 290 351
#     4  10  20  36  58  85 121 153 192 244 305 348
#     4   9  20  39  61  88 114 150 206 242 297 358
#     4   9  19  37  55  82 119 152 198 238 284 349
#
# _framework density 23.143279
#
# number of rings (size 3 to 8) (size 9 to 14) (size 15 to 20)
#    0.000    2.500    1.250    0.000    1.750    3.000 
#    4.500    2.500    5.500    0.000    0.000    0.000 
#    0.000    0.000    0.000    0.000    0.000    0.000 
#
# Total GULP energy -89257.211283 kJ/mol
# GULP energy per Si atom -5578.575705 kJ/mol
# Density = 2.309060 g / cm^3
# Si number density = 23.143279 Si / 1000 Ang^3
#
#
#
# Elastic Constant Matrix: (Units=GPa)
#
#
# Indices 1 2 3 4 5 6 
#
# 1 109.0394 46.2563 47.4793 -25.9502 3.2445 -22.9959
# 2 46.2563 85.6840 33.7961 -26.7925 10.1449 -14.8693
# 3 47.4793 33.7961 91.3103 -35.7791 -19.3450 -10.9384
# 4 -25.9502 -26.7925 -35.7791 42.6444 -5.2390 8.0734
# 5 3.2445 10.1449 -19.3450 -5.2390 34.3687 -2.5773
# 6 -22.9959 -14.8693 -10.9384 8.0734 -2.5773 33.3436
#
#
#
# Elastic Compliance Matrix: (Units=1/GPa)
#
#
# Indices 1 2 3 4 5 6 
#
# 1 0.015082 -0.004281 -0.006421 -0.000497 -0.003382 0.006245
# 2 -0.004281 0.017944 -0.003753 0.004327 -0.006174 0.002294
# 3 -0.006421 -0.003753 0.027475 0.019295 0.020105 -0.000207
# 4 -0.000497 0.004327 0.019295 0.044351 0.016274 -0.001564
# 5 -0.003382 -0.006174 0.020105 0.016274 0.045114 0.001057
# 6 0.006245 0.002294 -0.000207 -0.001564 0.001057 0.035713
#
#
# Mechanical properties :
#
#
# Convention : Reuss Voigt Hill
#
# Bulk Modulus (GPa) = 31.65404 60.12190 45.88797
# Shear Modulus (GPa) = 22.21043 32.63814 27.42429
#
# Velocity S-wave (km/s) = 3.10125 3.75942 3.44609
# Velocity P-wave (km/s) = 5.15081 6.69917 5.97535
#
# Compressibility (1/GPa) = 0.03159154
#
# Stress axis : x y z
#
# Youngs Moduli (GPa) = 66.30247 55.72851 36.39687
#
# Poissons Ratio (x) = 0.23855 0.23371
# Poissons Ratio (y) = 0.28382 0.13661
# Poissons Ratio (z) = 0.42573 0.20916
#
# Static dielectric constant tensor:
#      x y z
#    x 1.885060 -0.005970 0.031280 
#    y -0.005970 1.902800 -0.017130 
#    z 0.031280 -0.017130 2.001300 
# 
# From -- ./inp_files/221863.got.cif
#   From: 2010.05.17/outbox.cif.g08.bks.cpg/sg2_111_cif.got.tgz:221863.got - 2010.06.03 11:33:40.
