data_PCOD9084662
_publ_section_title
;
Structure prediction by ZEFSAII (Michael W. Deem and Ramdas Pophale) SiO2 
 PCOD9084662
Probable space group: P -1
;
_chemical_formula_sum "Si O2"
_cell_formula_units_Z 14
_cell_length_a 11.256813
_cell_length_b 13.100987
_cell_length_c 12.927007
_cell_angle_alpha 115.998662
_cell_angle_beta 45.809495
_cell_angle_gamma 149.445723
_cell_volume 622.577782
_symmetry_space_group_name_H-M "P -1"
_symmetry_group_IT_number 2
_symmetry_cell_setting 'triclinic'
loop_
_space_group_symop_operation_xyz
x,y,z
-x,-y,-z
loop_
_atom_site_type_symbol
_atom_site_label
_atom_site_fract_x
_atom_site_fract_y
_atom_site_fract_z
Si Si1 0.226999 0.084729 0.310230
Si Si2 0.713157 0.405099 0.682302
Si Si3 0.322506 0.176330 0.611430
Si Si4 0.235671 0.956027 0.869012
Si Si5 0.258510 0.479044 0.933464
Si Si6 0.663003 0.232863 0.265216
Si Si7 0.144772 0.263719 0.194789
O O1 0.508435 0.340813 0.219299
O O2 0.424149 0.100436 0.252059
O O3 0.000000 0.000000 0.500000
O O4 0.961728 0.911806 0.302998
O O5 0.492079 0.311633 0.675563
O O6 0.843708 0.595425 0.739075
O O7 0.000000 0.500000 0.500000
O O8 0.516510 0.214338 0.801469
O O9 0.578872 0.284934 0.417576
O O10 0.123035 0.944438 0.657428
O O11 0.379224 0.918287 0.728762
O O12 0.973321 0.842353 0.893194
O O13 0.017844 0.784048 0.021958
O O14 0.515170 0.589882 0.913031
O O15 0.035871 0.451776 0.096210
#
# Coordination Sequence:
#
# PCOD9084662 Si02
#       7
#     2   2   2   2   2   2   2
#     4   9  17  33  58  82 102 141 184 220 269 323
#     4  11  21  33  56  82 110 146 183 217 265 319
#     4   9  19  35  55  83 107 142 183 220 264 317
#     4   9  20  33  52  83 111 143 177 215 272 316
#     4   9  19  32  55  82 109 141 177 223 273 316
#     4   9  17  31  56  79 110 139 179 222 264 316
#     4  10  19  35  56  78 115 144 177 219 265 322
#
# _framework density 22.48715
#
# number of rings (size 3 to 8) (size 9 to 14) (size 15 to 20)
#    0.857    1.714    0.000    2.571    0.000    2.857 
#    0.000    0.000    0.000   35.143    0.000    0.000 
#    0.000    0.000    0.000    0.000    0.000    0.000 
#
# Total GULP energy -77970.369034 kJ/mol
# GULP energy per Si atom -5569.312074 kJ/mol
# Density = 2.243597 g / cm^3
# Si number density = 22.487150 Si / 1000 Ang^3
#
#
#
# Elastic Constant Matrix: (Units=GPa)
#
#
# Indices 1 2 3 4 5 6 
#
# 1 91.8656 13.8816 24.4372 -6.3138 -12.7656 14.2136
# 2 13.8816 59.3539 29.4710 -1.4545 1.4543 5.8486
# 3 24.4372 29.4710 137.8958 -19.8399 6.8582 -10.4896
# 4 -6.3138 -1.4545 -19.8399 27.3280 -2.9744 1.4557
# 5 -12.7656 1.4543 6.8582 -2.9744 35.9865 -4.1878
# 6 14.2136 5.8486 -10.4896 1.4557 -4.1878 12.3516
#
#
#
# Elastic Compliance Matrix: (Units=1/GPa)
#
#
# Indices 1 2 3 4 5 6 
#
# 1 0.016024 0.000528 -0.004486 0.002067 0.004208 -0.021315
# 2 0.000528 0.021368 -0.006179 -0.002537 -0.001595 -0.016214
# 3 -0.004486 -0.006179 0.011568 0.006018 -0.001090 0.016833
# 4 0.002067 -0.002537 0.006018 0.041641 0.003141 0.000091
# 5 0.004208 -0.001595 -0.001090 0.003141 0.030385 0.004919
# 6 -0.021315 -0.016214 0.016833 0.000091 0.004919 0.129120
#
#
# Mechanical properties :
#
#
# Convention : Reuss Voigt Hill
#
# Bulk Modulus (GPa) = 34.86206 47.18833 41.02520
# Shear Modulus (GPa) = 17.86088 29.88826 23.87457
#
# Velocity S-wave (km/s) = 2.82134 3.64967 3.26191
# Velocity P-wave (km/s) = 5.11371 6.22819 5.69826
#
# Compressibility (1/GPa) = 0.02868448
#
# Stress axis : x y z
#
# Youngs Moduli (GPa) = 62.40737 46.80002 86.44613
#
# Poissons Ratio (x) = -0.02469 0.38778
# Poissons Ratio (y) = -0.03293 0.53417
# Poissons Ratio (z) = 0.27994 0.28919
#
# Static dielectric constant tensor:
#      x y z
#    x 1.885770 0.019870 0.015950 
#    y 0.019870 1.854670 -0.021950 
#    z 0.015950 -0.021950 1.886890 
# 
# From -- ./inp_files/78033.got.cif
#   From: 2010.05.17/outbox.cif.g08.bks.cpg/sg2_40_cif.got.tgz:78033.got - 2010.06.03 11:33:40.
