data_PCOD9084425
_publ_section_title
;
Structure prediction by ZEFSAII (Michael W. Deem and Ramdas Pophale) SiO2 
 PCOD9084425
Probable space group: P -1
;
_chemical_formula_sum "Si O2"
_cell_formula_units_Z 14
_cell_length_a 12.056742
_cell_length_b 20.562020
_cell_length_c 15.650361
_cell_angle_alpha 19.596026
_cell_angle_beta 27.781659
_cell_angle_gamma 29.535663
_cell_volume 589.701391
_symmetry_space_group_name_H-M "P -1"
_symmetry_group_IT_number 2
_symmetry_cell_setting 'triclinic'
loop_
_space_group_symop_operation_xyz
x,y,z
-x,-y,-z
loop_
_atom_site_type_symbol
_atom_site_label
_atom_site_fract_x
_atom_site_fract_y
_atom_site_fract_z
Si Si1 0.621863 0.247537 0.077648
Si Si2 0.480982 0.969349 0.950677
Si Si3 0.199136 0.642248 0.474465
Si Si4 0.594955 0.499024 0.244050
Si Si5 0.140631 0.271998 0.698870
Si Si6 0.901107 0.692163 0.914937
Si Si7 0.714643 0.819576 0.478349
O O1 0.454932 0.301734 0.207177
O O2 0.585728 0.048497 0.302354
O O3 0.550633 0.418075 0.844503
O O4 0.904016 0.187188 0.985143
O O5 0.745492 0.880523 0.838161
O O6 0.341545 0.180989 0.743993
O O7 0.322772 0.806907 0.231190
O O8 0.500000 0.000000 0.000000
O O9 0.403020 0.503136 0.446367
O O10 0.979310 0.749943 0.429043
O O11 0.104244 0.499705 0.782675
O O12 0.822376 0.317337 0.290573
O O13 0.744416 0.659078 0.979827
O O14 0.254187 0.205417 0.612005
O O15 0.000000 0.500000 0.500000
#
# Coordination Sequence:
#
# PCOD9084425 Si02
#       7
#     2   2   2   2   2   2   2
#     4  11  22  40  70 101 128 170 226 285 329 393
#     4  11  25  43  66  98 138 180 219 267 339 402
#     4  11  20  40  71  98 129 171 220 281 330 391
#     4  10  19  34  65  97 127 162 220 270 326 387
#     4  12  27  44  68  98 141 182 216 275 336 402
#     4  10  22  38  63  99 132 171 220 274 329 395
#     4  11  22  40  71 102 128 165 230 280 336 383
#
# _framework density 23.740829000000002
#
# number of rings (size 3 to 8) (size 9 to 14) (size 15 to 20)
#    0.000    1.143    4.286    3.857    2.000    1.714 
#    0.000    0.000    0.000   17.143    0.000    0.000 
#    0.000    0.000    0.000    0.000    0.000    0.000 
#
# Total GULP energy -78290.266896 kJ/mol
# GULP energy per Si atom -5592.161921 kJ/mol
# Density = 2.368679 g / cm^3
# Si number density = 23.740829 Si / 1000 Ang^3
#
#
#
# Elastic Constant Matrix: (Units=GPa)
#
#
# Indices 1 2 3 4 5 6 
#
# 1 84.7232 169.7717 -52.2549 50.6773 -212.2816 -220.4451
# 2 169.7717 12.3457 184.5063 -50.4653 418.4693 359.8751
# 3 -52.2549 184.5063 -54.6579 61.9244 -351.6416 -314.0474
# 4 50.6773 -50.4653 61.9244 23.9728 178.0910 163.6254
# 5 -212.2816 418.4693 -351.6416 178.0910-1010.7639 -910.7609
# 6 -220.4451 359.8751 -314.0474 163.6254 -910.7609 -744.7642
#
#
#
# Elastic Compliance Matrix: (Units=1/GPa)
#
#
# Indices 1 2 3 4 5 6 
#
# 1 0.011664 -0.004386 -0.001349 -0.001159 -0.007233 0.003587
# 2 -0.004386 0.008403 -0.003453 -0.002508 0.004754 0.000450
# 3 -0.001349 -0.003453 0.017277 0.001900 -0.005004 -0.002018
# 4 -0.001159 -0.002508 0.001900 0.019508 0.003688 -0.001895
# 5 -0.007233 0.004754 -0.005004 0.003688 0.017093 -0.013545
# 6 0.003587 0.000450 -0.002018 -0.001895 -0.013545 0.014811
#
#
# Mechanical properties :
#
#
# Convention : Reuss Voigt Hill
#
# Bulk Modulus (GPa) = 52.71878 71.82858 62.27368
# Shear Modulus (GPa) = 44.06994 -363.61855 -159.77430
#
# Velocity S-wave (km/s) = 4.31315 -12.38928 -8.21252
# Velocity P-wave (km/s) = 6.85992 13.20371 7.97745
#
# Compressibility (1/GPa) = 0.01896857
#
# Stress axis : x y z
#
# Youngs Moduli (GPa) = 85.73150 119.00249 57.88011
#
# Poissons Ratio (x) = 0.52190 0.07810
# Poissons Ratio (y) = 0.37599 0.19987
# Poissons Ratio (z) = 0.11567 0.41093
#
# Static dielectric constant tensor:
#      x y z
#    x 1.952050 -0.078420 -0.299840 
#    y -0.078420 1.930490 0.197070 
#    z -0.299840 0.197070 2.698410 
# 
# From -- ./inp_files/305783.got.cif
#   From: 2010.05.17/outbox.cif.g08.bks.cpg/sg2_153_cif.got.tgz:305783.got - 2010.06.03 11:33:40.
