data_PCOD9084202
_publ_section_title
;
Structure prediction by ZEFSAII (Michael W. Deem and Ramdas Pophale) SiO2 
 PCOD9084202
Probable space group: P -1
;
_chemical_formula_sum "Si O2"
_cell_formula_units_Z 16
_cell_length_a 7.633716
_cell_length_b 23.428505
_cell_length_c 12.330069
_cell_angle_alpha 147.853125
_cell_angle_beta 129.244452
_cell_angle_gamma 41.035606
_cell_volume 770.230852
_symmetry_space_group_name_H-M "P -1"
_symmetry_group_IT_number 2
_symmetry_cell_setting 'triclinic'
loop_
_space_group_symop_operation_xyz
x,y,z
-x,-y,-z
loop_
_atom_site_type_symbol
_atom_site_label
_atom_site_fract_x
_atom_site_fract_y
_atom_site_fract_z
Si Si1 0.760838 0.330962 0.595793
Si Si2 0.486355 0.068756 0.292266
Si Si3 0.601969 0.432187 0.046494
Si Si4 0.048763 0.177573 0.858842
Si Si5 0.317384 0.843076 0.134486
Si Si6 0.061170 0.889401 0.524101
Si Si7 0.084535 0.859442 0.845135
Si Si8 0.693153 0.715712 0.253976
O O1 0.490775 0.459941 0.725444
O O2 0.847006 0.238904 0.584966
O O3 0.782007 0.244584 0.364719
O O4 0.993368 0.361289 0.725785
O O5 0.694750 0.087842 0.337104
O O6 0.204497 0.119845 0.207812
O O7 0.422550 0.156106 0.514350
O O8 0.644459 0.920083 0.146292
O O9 0.500000 0.500000 0.000000
O O10 0.913143 0.323968 0.009088
O O11 0.444783 0.359269 0.883842
O O12 0.873501 0.174561 0.884867
O O13 0.000682 0.117615 0.636613
O O14 0.606629 0.759792 0.167083
O O15 0.198497 0.992896 0.334200
O O16 0.271800 0.814439 0.950324
O O17 0.000000 0.000000 0.000000
#
# Coordination Sequence:
#
# PCOD9084202 Si02
#       8
#     2   2   2   2   2   2   2   2
#     4  11  23  36  58  88 122 149 190 239 288 344
#     4  10  19  36  62  86 114 148 192 238 293 333
#     4  11  20  36  60  87 119 149 197 238 284 335
#     4  10  19  34  61  91 112 145 197 245 283 330
#     4  10  19  36  58  87 118 150 190 236 292 341
#     4  11  17  34  60  87 112 146 191 244 282 335
#     4  11  24  39  54  88 122 154 187 234 295 350
#     4  10  20  36  60  89 117 150 190 240 295 334
#
# _framework density 20.772994000000001
#
# number of rings (size 3 to 8) (size 9 to 14) (size 15 to 20)
#    0.000    1.500    6.250    1.125    0.000    3.500 
#    0.000    2.500    0.000    0.750    0.000    0.000 
#    0.000    0.000    0.000    0.000    0.000    0.000 
#
# Total GULP energy -89320.365426 kJ/mol
# GULP energy per Si atom -5582.522839 kJ/mol
# Density = 2.072571 g / cm^3
# Si number density = 20.772994 Si / 1000 Ang^3
#
#
#
# Elastic Constant Matrix: (Units=GPa)
#
#
# Indices 1 2 3 4 5 6 
#
# 1 34.3850 5.7859 15.1664 -0.3309 0.2273 4.2335
# 2 5.7859 69.4682 38.0755 12.3388 -7.5534 6.3716
# 3 15.1664 38.0755 94.6424 1.2511 -20.1453 -0.4516
# 4 -0.3309 12.3388 1.2511 38.4120 -1.5435 -6.8412
# 5 0.2273 -7.5534 -20.1453 -1.5435 27.2308 5.5650
# 6 4.2335 6.3716 -0.4516 -6.8412 5.5650 23.3794
#
#
#
# Elastic Compliance Matrix: (Units=1/GPa)
#
#
# Indices 1 2 3 4 5 6 
#
# 1 0.032455 0.001154 -0.006445 -0.001053 -0.003600 -0.005767
# 2 0.001154 0.021290 -0.008482 -0.008075 0.000954 -0.008765
# 3 -0.006445 -0.008482 0.017128 0.002920 0.010075 0.002266
# 4 -0.001053 -0.008075 0.002920 0.030553 -0.000701 0.011555
# 5 -0.003600 0.000954 0.010075 -0.000701 0.046621 -0.010716
# 6 -0.005767 -0.008765 0.002266 0.011555 -0.010716 0.052181
#
#
# Mechanical properties :
#
#
# Convention : Reuss Voigt Hill
#
# Bulk Modulus (GPa) = 23.08051 35.17234 29.12643
# Shear Modulus (GPa) = 20.64268 27.10231 23.87250
#
# Velocity S-wave (km/s) = 3.15576 3.61597 3.39368
# Velocity P-wave (km/s) = 4.94099 5.86533 5.42289
#
# Compressibility (1/GPa) = 0.04332660
#
# Stress axis : x y z
#
# Youngs Moduli (GPa) = 30.81223 46.97049 58.38405
#
# Poissons Ratio (x) = -0.05420 0.37628
# Poissons Ratio (y) = -0.03556 0.49521
# Poissons Ratio (z) = 0.19858 0.39840
#
# Static dielectric constant tensor:
#      x y z
#    x 1.796850 -0.013650 -0.002450 
#    y -0.013650 1.754890 0.023670 
#    z -0.002450 0.023670 1.746750 
# 
# From -- ./inp_files/171435.got.cif
#   From: 2010.05.17/outbox.cif.g08.bks.cpg/sg2_86_cif.got.tgz:171435.got - 2010.06.03 11:33:40.
