data_PCOD9084658
_publ_section_title
;
Structure prediction by ZEFSAII (Michael W. Deem and Ramdas Pophale) SiO2 
 PCOD9084658
Probable space group: P -1
;
_chemical_formula_sum "Si O2"
_cell_formula_units_Z 16
_cell_length_a 22.159950
_cell_length_b 13.860933
_cell_length_c 13.767370
_cell_angle_alpha 149.934841
_cell_angle_beta 30.521137
_cell_angle_gamma 158.110868
_cell_volume 750.243386
_symmetry_space_group_name_H-M "P -1"
_symmetry_group_IT_number 2
_symmetry_cell_setting 'triclinic'
loop_
_space_group_symop_operation_xyz
x,y,z
-x,-y,-z
loop_
_atom_site_type_symbol
_atom_site_label
_atom_site_fract_x
_atom_site_fract_y
_atom_site_fract_z
Si Si1 0.908425 0.424207 0.958079
Si Si2 0.036770 0.218422 0.264636
Si Si3 0.302669 0.786036 0.470964
Si Si4 0.540915 0.484069 0.539148
Si Si5 0.074705 0.102322 0.662455
Si Si6 0.264988 0.171472 0.806872
Si Si7 0.818147 0.532458 0.448367
Si Si8 0.407513 0.860150 0.760858
O O1 0.920126 0.662672 0.124732
O O2 0.710777 0.150941 0.015023
O O3 0.000000 0.500000 0.000000
O O4 0.018553 0.421322 0.732353
O O5 0.125605 0.518903 0.434067
O O6 0.187102 0.246665 0.047936
O O7 0.948921 0.025548 0.312756
O O8 0.894735 0.069081 0.249726
O O9 0.301561 0.674167 0.477505
O O10 0.318116 0.036240 0.671051
O O11 0.450065 0.882030 0.278686
O O12 0.500000 0.500000 0.500000
O O13 0.743415 0.749314 0.504127
O O14 0.417012 0.416336 0.737263
O O15 0.513321 0.220778 0.357175
O O16 0.908604 0.843541 0.606299
O O17 0.718329 0.385741 0.359037
#
# Coordination Sequence:
#
# PCOD9084658 Si02
#       8
#     2   2   2   2   2   2   2   2
#     4   9  19  34  53  78 108 141 178 223 261 313
#     4  10  20  34  55  81 106 144 180 222 267 321
#     4  10  20  35  55  79 112 138 180 223 269 324
#     4  10  19  35  56  78 109 144 178 225 270 314
#     4  10  20  35  58  81 110 141 183 220 269 329
#     4  10  20  35  56  78 109 144 180 221 270 319
#     4  10  20  36  57  83 107 146 180 220 273 318
#     4   9  20  35  56  78 111 146 177 225 267 321
#
# _framework density 21.326412999999999
#
# number of rings (size 3 to 8) (size 9 to 14) (size 15 to 20)
#    0.000    2.250    1.250    1.500    0.000    5.500 
#    0.000    3.750    0.000   16.500    0.000    0.000 
#    0.000    0.000    0.000    0.000    0.000    0.000 
#
# Total GULP energy -89224.313408 kJ/mol
# GULP energy per Si atom -5576.519588 kJ/mol
# Density = 2.127787 g / cm^3
# Si number density = 21.326413 Si / 1000 Ang^3
#
#
#
# Elastic Constant Matrix: (Units=GPa)
#
#
# Indices 1 2 3 4 5 6 
#
# 1 59.8275 23.9294 5.2930 1.6690 0.2635 -14.4912
# 2 23.9294 97.9475 30.7089 -27.7871 3.2821 -31.1970
# 3 5.2930 30.7089 62.5111 -20.1323 -4.4680 -19.7434
# 4 1.6690 -27.7871 -20.1323 34.3956 3.5511 11.5164
# 5 0.2635 3.2821 -4.4680 3.5511 18.7138 -4.4763
# 6 -14.4912 -31.1970 -19.7434 11.5164 -4.4763 31.3241
#
#
#
# Elastic Compliance Matrix: (Units=1/GPa)
#
#
# Indices 1 2 3 4 5 6 
#
# 1 0.021006 -0.005032 0.001384 -0.007792 0.004572 0.009096
# 2 -0.005032 0.018624 -0.002177 0.010882 -0.003298 0.010376
# 3 0.001384 -0.002177 0.023502 0.007260 0.007388 0.011672
# 4 -0.007792 0.010882 0.007260 0.045721 -0.010289 -0.006471
# 5 0.004572 -0.003298 0.007388 -0.010289 0.061508 0.016059
# 6 0.009096 0.010376 0.011672 -0.006471 0.016059 0.058497
#
#
# Mechanical properties :
#
#
# Convention : Reuss Voigt Hill
#
# Bulk Modulus (GPa) = 19.42493 37.79430 28.60962
# Shear Modulus (GPa) = 19.40469 27.57701 23.49085
#
# Velocity S-wave (km/s) = 3.01971 3.59986 3.32247
# Velocity P-wave (km/s) = 4.61372 5.91937 5.30685
#
# Compressibility (1/GPa) = 0.05148023
#
# Stress axis : x y z
#
# Youngs Moduli (GPa) = 47.60646 53.69377 42.54973
#
# Poissons Ratio (x) = 0.27020 -0.05887
# Poissons Ratio (y) = 0.23957 0.09263
# Poissons Ratio (z) = -0.06586 0.11689
#
# Static dielectric constant tensor:
#      x y z
#    x 1.748410 0.003620 -0.011720 
#    y 0.003620 1.818370 -0.028390 
#    z -0.011720 -0.028390 1.802160 
# 
# From -- ./inp_files/267375.got.cif
#   From: 2010.05.17/outbox.cif.g08.bks.cpg/sg2_134_cif.got.tgz:267375.got - 2010.06.03 11:33:40.
