data_PCOD9084825
_publ_section_title
;
Structure prediction by ZEFSAII (Michael W. Deem and Ramdas Pophale) SiO2 
 PCOD9084825
Probable space group: P -1
;
_chemical_formula_sum "Si O2"
_cell_formula_units_Z 16
_cell_length_a 12.442461
_cell_length_b 9.544021
_cell_length_c 13.276834
_cell_angle_alpha 54.655782
_cell_angle_beta 36.122112
_cell_angle_gamma 63.446935
_cell_volume 757.464516
_symmetry_space_group_name_H-M "P -1"
_symmetry_group_IT_number 2
_symmetry_cell_setting 'triclinic'
loop_
_space_group_symop_operation_xyz
x,y,z
-x,-y,-z
loop_
_atom_site_type_symbol
_atom_site_label
_atom_site_fract_x
_atom_site_fract_y
_atom_site_fract_z
Si Si1 0.868644 0.802605 0.443179
Si Si2 0.833266 0.813570 0.913110
Si Si3 0.668646 0.500986 0.608996
Si Si4 0.260356 0.575057 0.853048
Si Si5 0.209213 0.936111 0.464670
Si Si6 0.745943 0.141599 0.767841
Si Si7 0.950507 0.094784 0.099966
Si Si8 0.317850 0.597920 0.577585
O O1 0.793929 0.623702 0.531614
O O2 0.077169 0.797213 0.325348
O O3 0.760098 0.875428 0.591039
O O4 0.855637 0.948224 0.305208
O O5 0.018052 0.868215 0.688746
O O6 0.882122 0.833305 0.986209
O O7 0.686829 0.958878 0.939433
O O8 0.787167 0.619516 0.997456
O O9 0.478314 0.590130 0.696288
O O10 0.636689 0.313066 0.761923
O O11 0.758177 0.470169 0.443554
O O12 0.167105 0.739078 0.901385
O O13 0.208542 0.578127 0.771905
O O14 0.198966 0.916332 0.362064
O O15 0.353626 0.801148 0.449673
O O16 0.000000 0.000000 0.000000
O O17 0.500000 0.500000 0.500000
#
# Coordination Sequence:
#
# PCOD9084825 Si02
#       8
#     2   2   2   2   2   2   2   2
#     4  10  19  35  57  83 111 148 181 237 276 324
#     4  10  20  34  61  77 112 150 185 236 267 327
#     4  10  22  34  58  82 116 149 181 234 282 327
#     4  11  21  38  53  82 117 150 188 226 276 340
#     4   9  17  35  58  82 105 142 192 232 271 323
#     4   9  19  38  59  86 105 145 198 229 273 331
#     4  10  22  36  55  84 114 144 189 231 282 330
#     4   9  18  34  52  82 110 144 184 223 274 334
#
# _framework density 21.123103
#
# number of rings (size 3 to 8) (size 9 to 14) (size 15 to 20)
#    0.000    2.500    2.500    2.250    1.750    2.000 
#    0.000    3.750    0.000    9.000    0.000    0.000 
#    0.000    0.000    0.000    0.000    0.000    0.000 
#
# Total GULP energy -89150.732283 kJ/mol
# GULP energy per Si atom -5571.920768 kJ/mol
# Density = 2.107503 g / cm^3
# Si number density = 21.123103 Si / 1000 Ang^3
#
#
#
# Elastic Constant Matrix: (Units=GPa)
#
#
# Indices 1 2 3 4 5 6 
#
# 1 73.7075 53.5464 21.3234 -1.8135 16.8845 -3.8699
# 2 53.5464 166.9698 31.9996 -5.5601 12.2871 2.1695
# 3 21.3234 31.9996 30.2105 -5.4507 7.7746 8.9320
# 4 -1.8135 -5.5601 -5.4507 27.8021 -0.2123 9.5759
# 5 16.8845 12.2871 7.7746 -0.2123 16.6641 -5.3744
# 6 -3.8699 2.1695 8.9320 9.5759 -5.3744 46.1451
#
#
#
# Elastic Compliance Matrix: (Units=1/GPa)
#
#
# Indices 1 2 3 4 5 6 
#
# 1 0.022986 -0.004751 -0.008397 -0.002054 -0.015108 0.002443
# 2 -0.004751 0.008604 -0.006381 -0.000046 0.001650 0.000634
# 3 -0.008397 -0.006381 0.058714 0.015482 -0.019548 -0.017259
# 4 -0.002054 -0.000046 0.015482 0.043335 -0.008809 -0.013186
# 5 -0.015108 0.001650 -0.019548 -0.008809 0.087782 0.014491
# 6 0.002443 0.000634 -0.017259 -0.013186 0.014491 0.029610
#
#
# Mechanical properties :
#
#
# Convention : Reuss Voigt Hill
#
# Bulk Modulus (GPa) = 19.51355 53.84740 36.68048
# Shear Modulus (GPa) = 16.27750 29.05681 22.66715
#
# Velocity S-wave (km/s) = 2.77898 3.71292 3.27937
# Velocity P-wave (km/s) = 4.42211 6.62786 5.63399
#
# Compressibility (1/GPa) = 0.05124643
#
# Stress axis : x y z
#
# Youngs Moduli (GPa) = 43.50425 116.22031 17.03173
#
# Poissons Ratio (x) = 0.55212 0.14302
# Poissons Ratio (y) = 0.20667 0.10868
# Poissons Ratio (z) = 0.36532 0.74162
#
# Static dielectric constant tensor:
#      x y z
#    x 1.788970 -0.040520 0.001020 
#    y -0.040520 1.804630 -0.006410 
#    z 0.001020 -0.006410 1.817010 
# 
# From -- ./inp_files/333120.got.cif
#   From: 2010.05.17/outbox.cif.g08.bks.cpg/sg2_167_cif.got.tgz:333120.got - 2010.06.03 11:33:40.
