data_PCOD9084134
_publ_section_title
;
Structure prediction by ZEFSAII (Michael W. Deem and Ramdas Pophale) SiO2 
 PCOD9084134
Probable space group: P -1
;
_chemical_formula_sum "Si O2"
_cell_formula_units_Z 14
_cell_length_a 11.678528
_cell_length_b 7.773273
_cell_length_c 7.394133
_cell_angle_alpha 73.075609
_cell_angle_beta 73.534013
_cell_angle_gamma 115.289312
_cell_volume 512.050455
_symmetry_space_group_name_H-M "P -1"
_symmetry_group_IT_number 2
_symmetry_cell_setting 'triclinic'
loop_
_space_group_symop_operation_xyz
x,y,z
-x,-y,-z
loop_
_atom_site_type_symbol
_atom_site_label
_atom_site_fract_x
_atom_site_fract_y
_atom_site_fract_z
Si Si1 0.306746 0.221526 0.509055
Si Si2 0.176718 0.976322 0.985603
Si Si3 0.101045 0.259131 0.357190
Si Si4 0.646072 0.196819 0.950983
Si Si5 0.418736 0.744255 0.667538
Si Si6 0.816000 0.154100 0.607721
Si Si7 0.098616 0.414542 0.919465
O O1 0.243003 0.332356 0.385984
O O2 0.475431 0.326592 0.420442
O O3 0.233481 0.161188 0.756814
O O4 0.249763 0.994838 0.494361
O O5 0.010008 0.792064 0.090564
O O6 0.268415 0.871694 0.937334
O O7 0.209267 0.017998 0.169661
O O8 0.126855 0.328813 0.117068
O O9 0.985915 0.313613 0.455054
O O10 0.000000 0.000000 0.500000
O O11 0.745895 0.266949 0.705726
O O12 0.594368 0.291415 0.097382
O O13 0.500000 0.000000 0.000000
O O14 0.500000 0.000000 0.500000
O O15 0.254307 0.596334 0.716809
O O16 0.000000 0.500000 0.000000
#
# Coordination Sequence:
#
# PCOD9084134 Si02
#       7
#     2   2   2   2   2   2   2
#     4  11  20  40  65  88 128 171 209 252 324 369
#     4  10  20  38  62  97 119 167 210 255 317 372
#     4  10  22  40  63  95 126 164 214 259 312 382
#     4  10  19  34  60  94 123 163 211 255 317 370
#     4  12  22  38  64  90 127 169 208 263 313 374
#     4   9  19  35  62  92 123 159 209 264 303 373
#     4  12  22  39  65  96 126 166 218 255 316 383
#
# _framework density 27.341054
#
# number of rings (size 3 to 8) (size 9 to 14) (size 15 to 20)
#    0.857    0.571    7.143    0.000    0.000    1.143 
#    0.000    4.286    0.000    0.857    0.000    0.000 
#    0.000    0.000    0.000    0.000    0.000    0.000 
#
# Total GULP energy -78174.134100 kJ/mol
# GULP energy per Si atom -5583.866721 kJ/mol
# Density = 2.727882 g / cm^3
# Si number density = 27.341054 Si / 1000 Ang^3
#
#
#
# Elastic Constant Matrix: (Units=GPa)
#
#
# Indices 1 2 3 4 5 6 
#
# 1 156.2658 32.3712 34.9601 -25.0485 -31.5448 20.5699
# 2 32.3712 79.7885 37.6558 -16.1583 -12.8528 6.4846
# 3 34.9601 37.6558 122.0565 2.2220 6.7924 17.5820
# 4 -25.0485 -16.1583 2.2220 44.9796 15.8018 -8.4533
# 5 -31.5448 -12.8528 6.7924 15.8018 67.8259 -3.1042
# 6 20.5699 6.4846 17.5820 -8.4533 -3.1042 48.9180
#
#
#
# Elastic Compliance Matrix: (Units=1/GPa)
#
#
# Indices 1 2 3 4 5 6 
#
# 1 0.008456 -0.001247 -0.001979 0.002886 0.003131 -0.001982
# 2 -0.001247 0.016739 -0.005179 0.005101 0.001976 0.001174
# 3 -0.001979 -0.005179 0.011004 -0.003259 -0.002389 -0.003151
# 4 0.002886 0.005101 -0.003259 0.027850 -0.003676 0.003861
# 5 0.003131 0.001976 -0.002389 -0.003676 0.017659 -0.000235
# 6 -0.001982 0.001174 -0.003151 0.003861 -0.000235 0.022905
#
#
# Mechanical properties :
#
#
# Convention : Reuss Voigt Hill
#
# Bulk Modulus (GPa) = 51.57371 63.12056 57.34714
# Shear Modulus (GPa) = 39.09740 49.21964 44.15852
#
# Velocity S-wave (km/s) = 3.78562 4.24749 4.02319
# Velocity P-wave (km/s) = 6.16538 6.86960 6.52700
#
# Compressibility (1/GPa) = 0.01938972
#
# Stress axis : x y z
#
# Youngs Moduli (GPa) = 118.25941 59.74004 90.87926
#
# Poissons Ratio (x) = 0.07449 0.17982
# Poissons Ratio (y) = 0.14745 0.47066
# Poissons Ratio (z) = 0.23400 0.30939
#
# Static dielectric constant tensor:
#      x y z
#    x 2.279660 -0.221990 0.095510 
#    y -0.221990 3.037830 -0.460980 
#    z 0.095510 -0.460980 2.332320 
# 
# From -- ./inp_files/252037.got.cif
#   From: 2010.05.17/outbox.cif.g08.bks.cpg/sg2_127_cif.got.tgz:252037.got - 2010.06.03 11:33:40.
