data_PCOD9084568
_publ_section_title
;
Structure prediction by ZEFSAII (Michael W. Deem and Ramdas Pophale) SiO2 
 PCOD9084568
Probable space group: P -1
;
_chemical_formula_sum "Si O2"
_cell_formula_units_Z 16
_cell_length_a 8.496357
_cell_length_b 10.396839
_cell_length_c 11.377839
_cell_angle_alpha 70.082163
_cell_angle_beta 133.483615
_cell_angle_gamma 106.622079
_cell_volume 683.657636
_symmetry_space_group_name_H-M "P -1"
_symmetry_group_IT_number 2
_symmetry_cell_setting 'triclinic'
loop_
_space_group_symop_operation_xyz
x,y,z
-x,-y,-z
loop_
_atom_site_type_symbol
_atom_site_label
_atom_site_fract_x
_atom_site_fract_y
_atom_site_fract_z
Si Si1 0.977399 0.791957 0.060296
Si Si2 0.888917 0.487777 0.074729
Si Si3 0.547090 0.614583 0.185980
Si Si4 0.991301 0.551447 0.346321
Si Si5 0.467185 0.611147 0.550924
Si Si6 0.437913 0.865568 0.181005
Si Si7 0.948500 0.007757 0.164316
Si Si8 0.349835 0.080058 0.488328
O O1 0.233101 0.780628 0.166744
O O2 0.944203 0.861005 0.146361
O O3 0.918006 0.896437 0.895081
O O4 0.851109 0.647175 0.024831
O O5 0.682058 0.381415 0.996997
O O6 0.009033 0.456301 0.268777
O O7 0.000000 0.500000 0.000000
O O8 0.746107 0.594237 0.210925
O O9 0.503190 0.481851 0.289252
O O10 0.583974 0.755077 0.233489
O O11 0.000000 0.500000 0.500000
O O12 0.214647 0.645333 0.419198
O O13 0.500000 0.500000 0.500000
O O14 0.609067 0.754911 0.564773
O O15 0.568438 0.944277 0.328575
O O16 0.298162 0.947077 0.989014
O O17 0.097520 0.029746 0.348002
O O18 0.500000 0.000000 0.500000
#
# Coordination Sequence:
#
# PCOD9084568 Si02
#       8
#     2   2   2   2   2   2   2   2
#     4   9  17  34  53  92 126 152 210 289 305 374
#     4  12  20  35  67  94 119 166 229 269 323 390
#     4  11  22  39  58  89 134 172 211 266 346 397
#     4  10  25  42  56  90 140 175 204 273 344 400
#     4  11  22  38  62  97 125 162 225 280 319 392
#     4  10  19  35  54  86 129 164 210 271 325 383
#     4   9  19  33  53  94 130 155 213 277 332 376
#     4  12  20  34  62  96 125 173 216 280 341 381
#
# _framework density 23.403525999999999
#
# number of rings (size 3 to 8) (size 9 to 14) (size 15 to 20)
#    0.750    0.750    3.750    2.625    0.000    1.000 
#    0.000    0.000    0.000    1.500    3.250    0.000 
#    0.000    0.000    0.000    0.000    0.000    0.000 
#
# Total GULP energy -89108.995730 kJ/mol
# GULP energy per Si atom -5569.312233 kJ/mol
# Density = 2.335026 g / cm^3
# Si number density = 23.403526 Si / 1000 Ang^3
#
#
#
# Elastic Constant Matrix: (Units=GPa)
#
#
# Indices 1 2 3 4 5 6 
#
# 1 92.5733 21.8693 38.5622 4.0437 2.1028 -17.8743
# 2 21.8693 102.9799 15.0150 14.0303 -5.7165 -22.7672
# 3 38.5622 15.0150 130.9940 29.6471 -0.0705 -10.5326
# 4 4.0437 14.0303 29.6471 39.5894 0.0501 -4.8090
# 5 2.1028 -5.7165 -0.0705 0.0501 27.7493 -0.5618
# 6 -17.8743 -22.7672 -10.5326 -4.8090 -0.5618 20.4490
#
#
#
# Elastic Compliance Matrix: (Units=1/GPa)
#
#
# Indices 1 2 3 4 5 6 
#
# 1 0.014589 -0.000625 -0.004061 0.003069 -0.001034 0.010657
# 2 -0.000625 0.013512 0.000543 -0.003428 0.003123 0.014057
# 3 -0.004061 0.000543 0.010542 -0.007586 0.000475 0.000713
# 4 0.003069 -0.003428 -0.007586 0.032145 -0.000966 0.002492
# 5 -0.001034 0.003123 0.000475 -0.000966 0.036835 0.003602
# 6 0.010657 0.014057 0.000713 0.002492 0.003602 0.074920
#
#
# Mechanical properties :
#
#
# Convention : Reuss Voigt Hill
#
# Bulk Modulus (GPa) = 32.94254 53.04893 42.99574
# Shear Modulus (GPa) = 24.88192 34.29760 29.58976
#
# Velocity S-wave (km/s) = 3.26417 3.83232 3.55960
# Velocity P-wave (km/s) = 5.32098 6.50373 5.94186
#
# Compressibility (1/GPa) = 0.03035589
#
# Stress axis : x y z
#
# Youngs Moduli (GPa) = 68.54533 74.00591 94.86111
#
# Poissons Ratio (x) = 0.04628 0.38525
# Poissons Ratio (y) = 0.04287 -0.05151
# Poissons Ratio (z) = 0.27838 -0.04019
#
# Static dielectric constant tensor:
#      x y z
#    x 1.860730 -0.003890 -0.025340 
#    y -0.003890 1.835480 -0.095630 
#    z -0.025340 -0.095630 2.071680 
# 
# From -- ./inp_files/382129.got.cif
#   From: 2010.05.17/outbox.cif.g08.bks.cpg/sg2_192_cif.got.tgz:382129.got - 2010.06.03 11:33:40.
