data_PCOD9084689
_publ_section_title
;
Structure prediction by ZEFSAII (Michael W. Deem and Ramdas Pophale) SiO2 
 PCOD9084689
Probable space group: P -1
;
_chemical_formula_sum "Si O2"
_cell_formula_units_Z 14
_cell_length_a 8.542596
_cell_length_b 11.966187
_cell_length_c 10.247798
_cell_angle_alpha 114.087482
_cell_angle_beta 111.484667
_cell_angle_gamma 117.929875
_cell_volume 610.706314
_symmetry_space_group_name_H-M "P -1"
_symmetry_group_IT_number 2
_symmetry_cell_setting 'triclinic'
loop_
_space_group_symop_operation_xyz
x,y,z
-x,-y,-z
loop_
_atom_site_type_symbol
_atom_site_label
_atom_site_fract_x
_atom_site_fract_y
_atom_site_fract_z
Si Si1 0.279636 0.940544 0.245246
Si Si2 0.518852 0.328991 0.017947
Si Si3 0.487627 0.328245 0.475042
Si Si4 0.013244 0.510298 0.352616
Si Si5 0.834755 0.808879 0.924256
Si Si6 0.709705 0.703277 0.320506
Si Si7 0.784172 0.117311 0.491753
O O1 0.223016 0.895089 0.359526
O O2 0.390337 0.135250 0.351531
O O3 0.500586 0.965662 0.288056
O O4 0.022367 0.803671 0.026180
O O5 0.301456 0.207024 0.999009
O O6 0.627998 0.523508 0.168085
O O7 0.742917 0.358278 0.136061
O O8 0.413797 0.273949 0.813622
O O9 0.779590 0.474814 0.620954
O O10 0.365993 0.327659 0.311723
O O11 0.392877 0.326600 0.582562
O O12 0.116855 0.697208 0.430841
O O13 0.000000 0.500000 0.500000
O O14 0.000000 0.000000 0.000000
O O15 0.005071 0.861784 0.484308
#
# Coordination Sequence:
#
# PCOD9084689 Si02
#       7
#     2   2   2   2   2   2   2
#     4   9  18  35  59  78 107 151 183 215 268 333
#     4  10  20  37  59  76 111 148 181 219 280 328
#     4  10  21  35  57  85 111 138 187 231 267 312
#     4  10  19  35  57  80 108 146 183 222 274 328
#     4  10  19  35  56  82 108 147 181 218 270 333
#     4  10  21  36  57  85 107 141 186 233 267 319
#     4   9  18  34  56  80 107 146 184 216 271 327
#
# _framework density 22.924275000000002
#
# number of rings (size 3 to 8) (size 9 to 14) (size 15 to 20)
#    0.000    2.286    2.857    0.000    0.000    1.714 
#    0.000    0.714    0.000    0.000    0.000    0.000 
#    0.000    0.000    0.000    0.000    0.000    0.000 
#
# Total GULP energy -78234.309793 kJ/mol
# GULP energy per Si atom -5588.164985 kJ/mol
# Density = 2.287210 g / cm^3
# Si number density = 22.924275 Si / 1000 Ang^3
#
#
#
# Elastic Constant Matrix: (Units=GPa)
#
#
# Indices 1 2 3 4 5 6 
#
# 1 138.9124 38.7755 91.7387 -5.1616 50.3172 41.8433
# 2 38.7755 94.9460 43.6353 -13.7170 24.2529 27.0612
# 3 91.7387 43.6353 165.1494 -25.7895 48.0645 26.6799
# 4 -5.1616 -13.7170 -25.7895 37.4079 -5.4067 -3.3862
# 5 50.3172 24.2529 48.0645 -5.4067 49.0824 12.8077
# 6 41.8433 27.0612 26.6799 -3.3862 12.8077 51.9673
#
#
#
# Elastic Compliance Matrix: (Units=1/GPa)
#
#
# Indices 1 2 3 4 5 6 
#
# 1 0.017106 0.000175 -0.005810 -0.003823 -0.010100 -0.008642
# 2 0.000175 0.014163 -0.001202 0.003275 -0.004163 -0.005659
# 3 -0.005810 -0.001202 0.011759 0.006288 -0.004475 0.000780
# 4 -0.003823 0.003275 0.006288 0.031705 -0.000448 0.000321
# 5 -0.010100 -0.004163 -0.004475 -0.000448 0.036164 0.003655
# 6 -0.008642 -0.005659 0.000780 0.000321 0.003655 0.027868
#
#
# Mechanical properties :
#
#
# Convention : Reuss Voigt Hill
#
# Bulk Modulus (GPa) = 34.06821 83.03409 58.55115
# Shear Modulus (GPa) = 30.82165 42.68208 36.75186
#
# Velocity S-wave (km/s) = 3.67072 4.31962 4.00832
# Velocity P-wave (km/s) = 5.73228 7.82167 6.85702
#
# Compressibility (1/GPa) = 0.02935288
#
# Stress axis : x y z
#
# Youngs Moduli (GPa) = 58.45741 70.60747 85.04438
#
# Poissons Ratio (x) = -0.01233 0.49413
# Poissons Ratio (y) = -0.01021 0.10221
# Poissons Ratio (z) = 0.33965 0.08486
#
# Static dielectric constant tensor:
#      x y z
#    x 1.882260 -0.039270 0.031480 
#    y -0.039270 1.837810 0.050090 
#    z 0.031480 0.050090 1.872980 
# 
# From -- ./inp_files/157957.got.cif
#   From: 2010.05.17/outbox.cif.g08.bks.cpg/sg2_79_cif.got.tgz:157957.got - 2010.06.03 11:33:40.
