data_PCOD9084552
_publ_section_title
;
Structure prediction by ZEFSAII (Michael W. Deem and Ramdas Pophale) SiO2 
 PCOD9084552
Probable space group: P -1
;
_chemical_formula_sum "Si O2"
_cell_formula_units_Z 16
_cell_length_a 8.492858
_cell_length_b 14.532206
_cell_length_c 10.995016
_cell_angle_alpha 93.337908
_cell_angle_beta 51.682008
_cell_angle_gamma 59.046259
_cell_volume 756.145263
_symmetry_space_group_name_H-M "P -1"
_symmetry_group_IT_number 2
_symmetry_cell_setting 'triclinic'
loop_
_space_group_symop_operation_xyz
x,y,z
-x,-y,-z
loop_
_atom_site_type_symbol
_atom_site_label
_atom_site_fract_x
_atom_site_fract_y
_atom_site_fract_z
Si Si1 0.301109 0.089594 0.487924
Si Si2 0.639185 0.855945 0.144412
Si Si3 0.829556 0.336169 0.270923
Si Si4 0.737105 0.542659 0.803772
Si Si5 0.338776 0.764341 0.195745
Si Si6 0.165426 0.298603 0.713648
Si Si7 0.747962 0.491244 0.525964
Si Si8 0.296071 0.430681 0.788372
O O1 0.256694 0.212131 0.544284
O O2 0.996083 0.139054 0.646240
O O3 0.500000 0.000000 0.500000
O O4 0.451252 0.002648 0.288809
O O5 0.451269 0.830207 0.184337
O O6 0.802153 0.771254 0.184050
O O7 0.878898 0.798103 0.925667
O O8 0.816276 0.371459 0.419844
O O9 0.547597 0.374497 0.373406
O O10 0.224470 0.549325 0.766497
O O11 0.691433 0.505511 0.696945
O O12 0.854042 0.434631 0.840722
O O13 0.992094 0.529261 0.642096
O O14 0.487843 0.681858 0.993733
O O15 0.462057 0.658538 0.234546
O O16 0.341455 0.332382 0.664907
O O17 0.000000 0.500000 0.000000
#
# Coordination Sequence:
#
# PCOD9084552 Si02
#       8
#     2   2   2   2   2   2   2   2
#     4  10  24  35  52  86 111 148 185 221 285 330
#     4  10  19  38  57  80 113 147 180 225 272 338
#     4  11  19  37  56  84 110 151 179 225 276 336
#     4  11  20  36  53  89 114 139 179 236 281 325
#     4  11  20  34  60  84 111 144 177 232 288 330
#     4  10  19  35  54  82 117 136 173 234 285 329
#     4  10  23  32  54  85 113 149 182 219 280 327
#     4  11  17  33  58  85 113 139 172 232 295 332
#
# _framework density 21.159953000000002
#
# number of rings (size 3 to 8) (size 9 to 14) (size 15 to 20)
#    0.000    1.500    6.250    0.375    5.250    0.500 
#    0.000    0.000    0.000    1.500    0.000    0.000 
#    0.000    0.000    0.000    0.000    0.000    0.000 
#
# Total GULP energy -89222.698816 kJ/mol
# GULP energy per Si atom -5576.418676 kJ/mol
# Density = 2.111179 g / cm^3
# Si number density = 21.159953 Si / 1000 Ang^3
#
#
#
# Elastic Constant Matrix: (Units=GPa)
#
#
# Indices 1 2 3 4 5 6 
#
# 1 117.9155 7.6512 74.8681 14.4784 17.7314 -16.0807
# 2 7.6512 13.6552 11.9065 4.4571 4.9502 2.1750
# 3 74.8681 11.9065 165.8889 24.6556 19.5050 6.4182
# 4 14.4784 4.4571 24.6556 33.3949 2.0995 4.4001
# 5 17.7314 4.9502 19.5050 2.0995 43.8908 5.2251
# 6 -16.0807 2.1750 6.4182 4.4001 5.2251 27.4183
#
#
#
# Elastic Compliance Matrix: (Units=1/GPa)
#
#
# Indices 1 2 3 4 5 6 
#
# 1 0.015220 -0.002454 -0.006192 -0.002990 -0.004392 0.011888
# 2 -0.002454 0.082339 -0.002889 -0.006744 -0.006087 -0.005053
# 3 -0.006192 -0.002889 0.009833 -0.003482 -0.000781 -0.004997
# 4 -0.002990 -0.006744 -0.003482 0.035415 0.002605 -0.006583
# 5 -0.004392 -0.006087 -0.000781 0.002605 0.026342 -0.007349
# 6 0.011888 -0.005053 -0.004997 -0.006583 -0.007349 0.047471
#
#
# Mechanical properties :
#
#
# Convention : Reuss Voigt Hill
#
# Bulk Modulus (GPa) = 11.85929 54.03459 32.94694
# Shear Modulus (GPa) = 18.67080 34.47639 26.57359
#
# Velocity S-wave (km/s) = 2.97369 4.04087 3.54763
# Velocity P-wave (km/s) = 4.17219 6.88209 5.69080
#
# Compressibility (1/GPa) = 0.08432211
#
# Stress axis : x y z
#
# Youngs Moduli (GPa) = 65.70219 12.14491 101.70173
#
# Poissons Ratio (x) = 0.02981 0.62974
# Poissons Ratio (y) = 0.16125 0.29377
# Poissons Ratio (z) = 0.40683 0.03508
#
# Static dielectric constant tensor:
#      x y z
#    x 1.878830 0.013010 0.012330 
#    y 0.013010 1.786370 -0.006450 
#    z 0.012330 -0.006450 1.809250 
# 
# From -- ./inp_files/403114.got.cif
#   From: 2010.05.17/outbox.cif.g08.bks.cpg/sg2_202_cif.got.tgz:403114.got - 2010.06.03 11:33:40.
