data_PCOD9084505
_publ_section_title
;
Structure prediction by ZEFSAII (Michael W. Deem and Ramdas Pophale) SiO2 
 PCOD9084505
Probable space group: P -1
;
_chemical_formula_sum "Si O2"
_cell_formula_units_Z 16
_cell_length_a 7.581516
_cell_length_b 11.480106
_cell_length_c 11.880241
_cell_angle_alpha 101.094178
_cell_angle_beta 84.707475
_cell_angle_gamma 51.981453
_cell_volume 769.107763
_symmetry_space_group_name_H-M "P -1"
_symmetry_group_IT_number 2
_symmetry_cell_setting 'triclinic'
loop_
_space_group_symop_operation_xyz
x,y,z
-x,-y,-z
loop_
_atom_site_type_symbol
_atom_site_label
_atom_site_fract_x
_atom_site_fract_y
_atom_site_fract_z
Si Si1 0.093541 0.706161 0.705532
Si Si2 0.254697 0.009416 0.383879
Si Si3 0.877556 0.432160 0.861839
Si Si4 0.806986 0.471255 0.126677
Si Si5 0.208542 0.177487 0.634125
Si Si6 0.393769 0.428912 0.311361
Si Si7 0.271500 0.384299 0.529759
Si Si8 0.351635 0.712153 0.350445
O O1 0.049886 0.682128 0.831848
O O2 0.333478 0.676606 0.697276
O O3 0.154754 0.556560 0.610368
O O4 0.894792 0.857772 0.676225
O O5 0.187449 0.081513 0.527395
O O6 0.530278 0.924701 0.349189
O O7 0.216929 0.885209 0.346378
O O8 0.675367 0.560800 0.811869
O O9 0.061213 0.460185 0.864523
O O10 0.021043 0.264383 0.761229
O O11 0.790144 0.440875 0.992730
O O12 0.557203 0.596894 0.225175
O O13 0.177262 0.310293 0.584618
O O14 0.284995 0.381878 0.394747
O O15 0.287743 0.607327 0.373436
O O16 0.530882 0.283983 0.544250
#
# Coordination Sequence:
#
# PCOD9084505 Si02
#       8
#     2   2   2   2   2   2   2   2
#     4  10  19  35  53  84 108 148 177 228 277 318
#     4  10  20  34  57  78 122 148 172 214 286 338
#     4  11  19  36  59  86 101 140 195 233 268 308
#     4   9  20  36  62  77 107 140 192 238 262 310
#     4  10  20  35  56  86 111 148 179 225 271 330
#     4  10  21  32  59  83 110 140 187 231 268 323
#     4   9  17  34  53  81 111 137 188 226 268 311
#     4   9  18  39  53  80 115 150 174 214 279 333
#
# _framework density 20.803325999999998
#
# number of rings (size 3 to 8) (size 9 to 14) (size 15 to 20)
#    0.000    2.500    3.750    2.250    1.750    3.000 
#    0.000   11.875    0.000    1.500    0.000    0.000 
#    0.000    0.000    0.000    0.000    0.000    0.000 
#
# Total GULP energy -89239.740235 kJ/mol
# GULP energy per Si atom -5577.483765 kJ/mol
# Density = 2.075598 g / cm^3
# Si number density = 20.803326 Si / 1000 Ang^3
#
#
#
# Elastic Constant Matrix: (Units=GPa)
#
#
# Indices 1 2 3 4 5 6 
#
# 1 55.8388 13.5992 27.1130 -6.2479 -0.4826 -9.0042
# 2 13.5992 132.3006 51.4058 -22.8877 0.6020 -11.2821
# 3 27.1130 51.4058 156.4230 -24.5310 2.6790 -10.5413
# 4 -6.2479 -22.8877 -24.5310 29.1705 -1.0318 5.3170
# 5 -0.4826 0.6020 2.6790 -1.0318 21.1723 -5.0634
# 6 -9.0042 -11.2821 -10.5413 5.3170 -5.0634 34.2874
#
#
#
# Elastic Compliance Matrix: (Units=1/GPa)
#
#
# Indices 1 2 3 4 5 6 
#
# 1 0.020282 -0.000421 -0.002993 0.000757 0.001951 0.004438
# 2 -0.000421 0.009474 -0.002111 0.005293 0.000636 0.001631
# 3 -0.002993 -0.002111 0.008368 0.004665 -0.000779 0.000253
# 4 0.000757 0.005293 0.004665 0.043129 0.000607 -0.003224
# 5 0.001951 0.000636 -0.000779 0.000607 0.049217 0.007656
# 6 0.004438 0.001631 0.000253 -0.003224 0.007656 0.032576
#
#
# Mechanical properties :
#
#
# Convention : Reuss Voigt Hill
#
# Bulk Modulus (GPa) = 36.93793 58.75536 47.84664
# Shear Modulus (GPa) = 27.30453 33.75566 30.53010
#
# Velocity S-wave (km/s) = 3.62679 4.03253 3.83503
# Velocity P-wave (km/s) = 5.94411 7.07010 6.53141
#
# Compressibility (1/GPa) = 0.02707245
#
# Stress axis : x y z
#
# Youngs Moduli (GPa) = 49.30569 105.55102 119.50908
#
# Poissons Ratio (x) = 0.04449 0.35764
# Poissons Ratio (y) = 0.02078 0.25233
# Poissons Ratio (z) = 0.14755 0.22286
#
# Static dielectric constant tensor:
#      x y z
#    x 1.916200 -0.048660 0.006120 
#    y -0.048660 1.772170 0.001010 
#    z 0.006120 0.001010 1.766480 
# 
# From -- ./inp_files/390199.got.cif
#   From: 2010.05.17/outbox.cif.g08.bks.cpg/sg2_196_cif.got.tgz:390199.got - 2010.06.03 11:33:40.
