data_PCOD9084422
_publ_section_title
;
Structure prediction by ZEFSAII (Michael W. Deem and Ramdas Pophale) SiO2 
 PCOD9084422
Probable space group: P -1
;
_chemical_formula_sum "Si O2"
_cell_formula_units_Z 16
_cell_length_a 25.474915
_cell_length_b 20.145341
_cell_length_c 5.369727
_cell_angle_alpha 108.894129
_cell_angle_beta 81.770856
_cell_angle_gamma 162.690926
_cell_volume 626.444178
_symmetry_space_group_name_H-M "P -1"
_symmetry_group_IT_number 2
_symmetry_cell_setting 'triclinic'
loop_
_space_group_symop_operation_xyz
x,y,z
-x,-y,-z
loop_
_atom_site_type_symbol
_atom_site_label
_atom_site_fract_x
_atom_site_fract_y
_atom_site_fract_z
Si Si1 0.527041 0.591906 0.304785
Si Si2 0.736486 0.149800 0.756920
Si Si3 0.770165 0.251318 0.356372
Si Si4 0.381730 0.143362 0.279003
Si Si5 0.965529 0.742667 0.339521
Si Si6 0.076772 0.394298 0.276347
Si Si7 0.099154 0.071056 0.210835
Si Si8 0.240420 0.386723 0.753188
O O1 0.311622 0.298380 0.265537
O O2 0.790773 0.932135 0.537765
O O3 0.500000 0.500000 0.000000
O O4 0.496799 0.638430 0.387929
O O5 0.652978 0.072576 0.462824
O O6 0.680657 0.997919 0.661706
O O7 0.652423 0.082817 0.974234
O O8 0.000000 0.500000 0.000000
O O9 0.000000 0.500000 0.500000
O O10 0.806010 0.379999 0.508006
O O11 0.521144 0.296907 0.134062
O O12 0.165411 0.894289 0.995859
O O13 0.944135 0.668337 0.513462
O O14 0.889166 0.721774 0.451763
O O15 0.846965 0.554199 0.952130
O O16 0.200735 0.252889 0.575313
O O17 0.882942 0.755735 0.078150
O O18 0.000000 0.000000 0.000000
#
# Coordination Sequence:
#
# PCOD9084422 Si02
#       8
#     2   2   2   2   2   2   2   2
#     4  10  23  40  66  98 133 175 226 281 337 399
#     4  10  19  35  63 103 129 166 221 286 332 382
#     4  10  19  34  65  95 134 164 217 284 336 387
#     4  10  22  42  68 102 132 178 234 282 332 415
#     4  11  26  42  66  97 142 175 223 278 345 404
#     4  11  23  41  67 104 130 175 227 283 336 401
#     4  10  22  42  67  90 126 176 236 279 338 401
#     4  10  24  44  63  92 133 181 223 281 344 404
#
# _framework density 25.540984999999999
#
# number of rings (size 3 to 8) (size 9 to 14) (size 15 to 20)
#    0.000    1.750    2.500    1.500   10.500    0.500 
#    4.500    0.000    0.000    4.500    0.000    0.000 
#    0.000    0.000    0.000    0.000    0.000    0.000 
#
# Total GULP energy -89163.470361 kJ/mol
# GULP energy per Si atom -5572.716898 kJ/mol
# Density = 2.548285 g / cm^3
# Si number density = 25.540985 Si / 1000 Ang^3
#
#
#
# Elastic Constant Matrix: (Units=GPa)
#
#
# Indices 1 2 3 4 5 6 
#
# 1 104.8445 59.1938 42.6561 -16.1086 -21.5095 -13.1916
# 2 59.1938 152.4019 55.2780 -29.8272 5.9704 -14.8257
# 3 42.6561 55.2780 88.1267 -37.9617 -30.0165 -6.8127
# 4 -16.1086 -29.8272 -37.9617 50.1519 2.2664 11.4232
# 5 -21.5095 5.9704 -30.0165 2.2664 40.5570 3.2985
# 6 -13.1916 -14.8257 -6.8127 11.4232 3.2985 63.2552
#
#
#
# Elastic Compliance Matrix: (Units=1/GPa)
#
#
# Indices 1 2 3 4 5 6 
#
# 1 0.014879 -0.005687 -0.000669 0.000243 0.008119 0.001231
# 2 -0.005687 0.012727 -0.010028 -0.001669 -0.012354 0.001662
# 3 -0.000669 -0.010028 0.035461 0.020311 0.026534 -0.003722
# 4 0.000243 -0.001669 0.020311 0.034954 0.013875 -0.005189
# 5 0.008119 -0.012354 0.026534 0.013875 0.049924 -0.003454
# 6 0.001231 0.001662 -0.003722 -0.005189 -0.003454 0.017171
#
#
# Mechanical properties :
#
#
# Convention : Reuss Voigt Hill
#
# Bulk Modulus (GPa) = 33.00697 73.29210 53.14954
# Shear Modulus (GPa) = 24.04016 43.34250 33.69133
#
# Velocity S-wave (km/s) = 3.07129 4.12391 3.63589
# Velocity P-wave (km/s) = 5.05255 7.17173 6.20330
#
# Compressibility (1/GPa) = 0.03029663
#
# Stress axis : x y z
#
# Youngs Moduli (GPa) = 67.20871 78.57290 28.20030
#
# Poissons Ratio (x) = 0.44685 0.01888
# Poissons Ratio (y) = 0.38222 0.28280
# Poissons Ratio (z) = 0.04500 0.78796
#
# Static dielectric constant tensor:
#      x y z
#    x 2.095850 -0.005410 -0.030080 
#    y -0.005410 2.030150 -0.053360 
#    z -0.030080 -0.053360 2.137150 
# 
# From -- ./inp_files/124818.got.cif
#   From: 2010.05.17/outbox.cif.g08.bks.cpg/sg2_63_cif.got.tgz:124818.got - 2010.06.03 11:33:40.
