data_PCOD9084235
_publ_section_title
;
Structure prediction by ZEFSAII (Michael W. Deem and Ramdas Pophale) SiO2 
 PCOD9084235
Probable space group: P -1
;
_chemical_formula_sum "Si O2"
_cell_formula_units_Z 16
_cell_length_a 23.173505
_cell_length_b 24.795131
_cell_length_c 12.236173
_cell_angle_alpha 146.610826
_cell_angle_beta 156.440437
_cell_angle_gamma 17.051852
_cell_volume 770.949129
_symmetry_space_group_name_H-M "P -1"
_symmetry_group_IT_number 2
_symmetry_cell_setting 'triclinic'
loop_
_space_group_symop_operation_xyz
x,y,z
-x,-y,-z
loop_
_atom_site_type_symbol
_atom_site_label
_atom_site_fract_x
_atom_site_fract_y
_atom_site_fract_z
Si Si1 0.818850 0.388595 0.406365
Si Si2 0.745828 0.825226 0.013100
Si Si3 0.771288 0.837073 0.455456
Si Si4 0.701300 0.697586 0.254646
Si Si5 0.904803 0.494808 0.062205
Si Si6 0.533314 0.178325 0.712483
Si Si7 0.439996 0.264344 0.345302
Si Si8 0.093577 0.881898 0.856364
O O1 0.631878 0.589262 0.470757
O O2 0.933843 0.339861 0.401138
O O3 0.751530 0.311954 0.171233
O O4 0.100908 0.225449 0.700125
O O5 0.635974 0.781024 0.783161
O O6 0.987037 0.672792 0.078906
O O7 0.482540 0.035368 0.856787
O O8 0.733839 0.783212 0.397309
O O9 0.706341 0.983838 0.634768
O O10 0.685146 0.632066 0.013824
O O11 0.475856 0.824578 0.176880
O O12 0.000000 0.500000 0.500000
O O13 0.205454 0.364156 0.409058
O O14 0.762780 0.623078 0.923399
O O15 0.691784 0.181515 0.951748
O O16 0.776387 0.058104 0.548994
O O17 0.000000 0.000000 0.000000
#
# Coordination Sequence:
#
# PCOD9084235 Si02
#       8
#     2   2   2   2   2   2   2   2
#     4  11  22  37  65  94 126 169 196 251 323 365
#     4  10  19  34  61  96 123 150 211 261 302 364
#     4  11  19  35  62  88 119 160 209 256 309 355
#     4  10  21  37  62  89 114 160 215 262 303 350
#     4   9  19  38  63  84 119 156 209 262 291 349
#     4  10  22  41  57  91 127 163 203 262 302 368
#     4  11  22  39  63  96 128 161 207 256 303 374
#     4  12  24  42  58  91 142 161 199 248 314 386
#
# _framework density 20.753639
#
# number of rings (size 3 to 8) (size 9 to 14) (size 15 to 20)
#    0.000    1.500    2.500    4.500    1.750    1.500 
#    4.500    0.625    0.000    1.500    0.000    0.000 
#    0.000    0.000    0.000    0.000    0.000    0.000 
#
# Total GULP energy -89266.140541 kJ/mol
# GULP energy per Si atom -5579.133784 kJ/mol
# Density = 2.070640 g / cm^3
# Si number density = 20.753639 Si / 1000 Ang^3
#
#
#
# Elastic Constant Matrix: (Units=GPa)
#
#
# Indices 1 2 3 4 5 6 
#
# 1 155.2722 43.4157 33.1614 12.7927 -4.4672 -5.6898
# 2 43.4157 132.8066 21.1940 10.0386 2.1869 2.1455
# 3 33.1614 21.1940 43.8586 1.8922 -0.0567 4.6744
# 4 12.7927 10.0386 1.8922 37.9866 2.2280 -6.4347
# 5 -4.4672 2.1869 -0.0567 2.2280 24.3524 4.3632
# 6 -5.6898 2.1455 4.6744 -6.4347 4.3632 44.5296
#
#
#
# Elastic Compliance Matrix: (Units=1/GPa)
#
#
# Indices 1 2 3 4 5 6 
#
# 1 0.008367 -0.001752 -0.005530 -0.001956 0.001627 0.001292
# 2 -0.001752 0.008685 -0.002751 -0.001602 -0.000872 -0.000500
# 3 -0.005530 -0.002751 0.028658 0.000579 -0.000129 -0.003486
# 4 -0.001956 -0.001602 0.000579 0.028299 -0.003556 0.004204
# 5 0.001627 -0.000872 -0.000129 -0.003556 0.042557 -0.004420
# 6 0.001292 -0.000500 -0.003486 0.004204 -0.004420 0.024053
#
#
# Mechanical properties :
#
#
# Convention : Reuss Voigt Hill
#
# Bulk Modulus (GPa) = 38.99794 58.60882 48.80338
# Shear Modulus (GPa) = 29.54504 36.98481 33.26493
#
# Velocity S-wave (km/s) = 3.77717 4.22606 4.00790
# Velocity P-wave (km/s) = 6.15259 7.21903 6.70704
#
# Compressibility (1/GPa) = 0.02564238
#
# Stress axis : x y z
#
# Youngs Moduli (GPa) = 119.52149 115.14000 34.89454
#
# Poissons Ratio (x) = 0.20177 0.19298
# Poissons Ratio (y) = 0.20945 0.09599
# Poissons Ratio (z) = 0.66101 0.31672
#
# Static dielectric constant tensor:
#      x y z
#    x 1.747550 -0.054720 -0.007690 
#    y -0.054720 1.850910 -0.005920 
#    z -0.007690 -0.005920 1.834220 
# 
# From -- ./inp_files/472754.got.cif
#   From: 2010.05.17/outbox.cif.g08.bks.cpg/sg2_237_cif.got.tgz:472754.got - 2010.06.03 11:33:40.
