data_PCOD9084180
_publ_section_title
;
Structure prediction by ZEFSAII (Michael W. Deem and Ramdas Pophale) SiO2 
 PCOD9084180
Probable space group: P -1
;
_chemical_formula_sum "Si O2"
_cell_formula_units_Z 16
_cell_length_a 17.966936
_cell_length_b 12.538788
_cell_length_c 11.602115
_cell_angle_alpha 143.550917
_cell_angle_beta 37.112949
_cell_angle_gamma 150.877160
_cell_volume 714.018422
_symmetry_space_group_name_H-M "P -1"
_symmetry_group_IT_number 2
_symmetry_cell_setting 'triclinic'
loop_
_space_group_symop_operation_xyz
x,y,z
-x,-y,-z
loop_
_atom_site_type_symbol
_atom_site_label
_atom_site_fract_x
_atom_site_fract_y
_atom_site_fract_z
Si Si1 0.150124 0.060736 0.789907
Si Si2 0.054310 0.598183 0.373361
Si Si3 0.674396 0.743147 0.030406
Si Si4 0.429357 0.005369 0.711696
Si Si5 0.593771 0.194604 0.211563
Si Si6 0.224556 0.537416 0.292418
Si Si7 0.724146 0.043986 0.754570
Si Si8 0.305595 0.355758 0.625207
O O1 0.295042 0.176221 0.803898
O O2 0.223152 0.251709 0.761973
O O3 0.106429 0.828771 0.581969
O O4 0.000000 0.000000 0.000000
O O5 0.132325 0.502949 0.258513
O O6 0.862110 0.415005 0.466492
O O7 0.123256 0.697131 0.249540
O O8 0.694103 0.946008 0.112212
O O9 0.500000 0.500000 0.000000
O O10 0.783499 0.667564 0.819607
O O11 0.591335 0.246966 0.775817
O O12 0.500000 0.000000 0.500000
O O13 0.386602 0.805479 0.676730
O O14 0.411812 0.056957 0.267357
O O15 0.704033 0.454694 0.247899
O O16 0.645846 0.053177 0.971520
O O17 0.765963 0.874842 0.561822
O O18 0.500000 0.500000 0.500000
#
# Coordination Sequence:
#
# PCOD9084180 Si02
#       8
#     2   2   2   2   2   2   2   2
#     4  11  21  38  63  95 127 160 207 272 319 369
#     4  10  19  34  61  88 124 149 201 262 330 361
#     4  10  23  36  57  91 125 166 205 255 310 383
#     4  11  23  40  59  84 129 166 213 249 309 387
#     4  10  20  37  58  87 120 163 209 253 320 368
#     4  10  20  35  55  91 117 156 202 258 312 371
#     4   9  19  35  58  88 119 152 201 270 313 376
#     4   9  21  34  59  93 122 157 206 266 324 372
#
# _framework density 22.408384999999999
#
# number of rings (size 3 to 8) (size 9 to 14) (size 15 to 20)
#    0.000    2.000    2.500    0.750    5.250    3.000 
#    2.250    0.000    0.000    3.750    0.000    0.000 
#    0.000    0.000    0.000    0.000    0.000    0.000 
#
# Total GULP energy -89093.973246 kJ/mol
# GULP energy per Si atom -5568.373328 kJ/mol
# Density = 2.235738 g / cm^3
# Si number density = 22.408385 Si / 1000 Ang^3
#
#
#
# Elastic Constant Matrix: (Units=GPa)
#
#
# Indices 1 2 3 4 5 6 
#
# 1 76.6878 28.7090 28.6586 5.8110 -8.3327 -20.6092
# 2 28.7090 100.7482 21.4081 -7.9253 -1.9464 -32.7128
# 3 28.6586 21.4081 92.9471 -3.3390 -10.1081 -8.3901
# 4 5.8110 -7.9253 -3.3390 31.1690 -6.3132 -1.2188
# 5 -8.3327 -1.9464 -10.1081 -6.3132 29.8929 -0.3135
# 6 -20.6092 -32.7128 -8.3901 -1.2188 -0.3135 35.1969
#
#
#
# Elastic Compliance Matrix: (Units=1/GPa)
#
#
# Indices 1 2 3 4 5 6 
#
# 1 0.017957 -0.001977 -0.004216 -0.003438 0.002805 0.007578
# 2 -0.001977 0.015432 -0.001473 0.004870 0.001121 0.013013
# 3 -0.004216 -0.001473 0.012817 0.002483 0.003580 -0.000665
# 4 -0.003438 0.004870 0.002483 0.035991 0.007846 0.004422
# 5 0.002805 0.001121 0.003580 0.007846 0.037219 0.004141
# 6 0.007578 0.013013 -0.000665 0.004422 0.004141 0.044975
#
#
# Mechanical properties :
#
#
# Convention : Reuss Voigt Hill
#
# Bulk Modulus (GPa) = 32.38983 47.54827 39.96905
# Shear Modulus (GPa) = 26.31385 32.02558 29.16972
#
# Velocity S-wave (km/s) = 3.43050 3.78455 3.61187
# Velocity P-wave (km/s) = 5.49335 6.35312 5.93881
#
# Compressibility (1/GPa) = 0.03087388
#
# Stress axis : x y z
#
# Youngs Moduli (GPa) = 55.68773 64.79963 78.02363
#
# Poissons Ratio (x) = 0.12809 0.32894
# Poissons Ratio (y) = 0.11008 0.11496
# Poissons Ratio (z) = 0.23477 0.09548
#
# Static dielectric constant tensor:
#      x y z
#    x 1.868830 0.047060 -0.003350 
#    y 0.047060 1.950740 0.022050 
#    z -0.003350 0.022050 1.889790 
# 
# From -- ./inp_files/464886.got.cif
#   From: 2010.05.17/outbox.cif.g08.bks.cpg/sg2_233_cif.got.tgz:464886.got - 2010.06.03 11:33:40.
