data_PCOD9084676
_publ_section_title
;
Structure prediction by ZEFSAII (Michael W. Deem and Ramdas Pophale) SiO2 
 PCOD9084676
Probable space group: P -1
;
_chemical_formula_sum "Si O2"
_cell_formula_units_Z 16
_cell_length_a 8.295411
_cell_length_b 9.709462
_cell_length_c 21.058573
_cell_angle_alpha 48.707488
_cell_angle_beta 137.116572
_cell_angle_gamma 137.443950
_cell_volume 753.551884
_symmetry_space_group_name_H-M "P -1"
_symmetry_group_IT_number 2
_symmetry_cell_setting 'triclinic'
loop_
_space_group_symop_operation_xyz
x,y,z
-x,-y,-z
loop_
_atom_site_type_symbol
_atom_site_label
_atom_site_fract_x
_atom_site_fract_y
_atom_site_fract_z
Si Si1 0.340369 0.845338 0.806632
Si Si2 0.068574 0.556440 0.123532
Si Si3 0.725634 0.687134 0.466726
Si Si4 0.055157 0.869989 0.125891
Si Si5 0.655849 0.721021 0.292501
Si Si6 0.888655 0.067070 0.739680
Si Si7 0.726607 0.123427 0.363875
Si Si8 0.813318 0.102376 0.042595
O O1 0.657163 0.919655 0.867574
O O2 0.222806 0.773663 0.723207
O O3 0.174587 0.675102 0.863526
O O4 0.334787 0.057342 0.757869
O O5 0.364618 0.581032 0.216642
O O6 0.080670 0.670457 0.026571
O O7 0.018246 0.694936 0.119692
O O8 0.500000 0.500000 0.500000
O O9 0.674573 0.637214 0.392465
O O10 0.025644 0.741019 0.559136
O O11 0.711285 0.898698 0.414430
O O12 0.079305 0.803611 0.225229
O O13 0.836309 0.947300 0.044296
O O14 0.915316 0.782848 0.303900
O O15 0.567320 0.932131 0.676207
O O16 0.007704 0.915554 0.843654
O O17 0.500000 0.000000 0.000000
#
# Coordination Sequence:
#
# PCOD9084676 Si02
#       8
#     2   2   2   2   2   2   2   2
#     4   9  19  34  56  82 107 142 186 228 272 318
#     4  11  18  34  60  79 107 150 192 225 266 318
#     4  10  20  36  62  83 102 142 186 223 280 334
#     4   8  19  34  52  77 107 143 186 232 260 312
#     4  10  20  36  56  81 116 141 176 233 275 330
#     4   9  19  37  55  78 118 150 176 220 287 319
#     4   9  19  38  55  80 115 136 176 239 269 323
#     4  10  19  35  56  80 114 156 184 222 275 317
#
# _framework density 21.232776000000001
#
# number of rings (size 3 to 8) (size 9 to 14) (size 15 to 20)
#    0.750    1.750    1.250    1.875    0.000    1.000 
#    0.000    7.500    0.000    0.000    0.000    0.000 
#    0.000    0.000    0.000    0.000    0.000    0.000 
#
# Total GULP energy -89277.417185 kJ/mol
# GULP energy per Si atom -5579.838574 kJ/mol
# Density = 2.118445 g / cm^3
# Si number density = 21.232776 Si / 1000 Ang^3
#
#
#
# Elastic Constant Matrix: (Units=GPa)
#
#
# Indices 1 2 3 4 5 6 
#
# 1 103.7522 34.6564 37.5831 7.5363 -3.0819 38.9101
# 2 34.6564 56.3058 23.8052 -4.4167 -2.2675 23.0407
# 3 37.5831 23.8052 82.7560 10.5311 -7.0987 19.6774
# 4 7.5363 -4.4167 10.5311 26.9834 17.2913 -6.7813
# 5 -3.0819 -2.2675 -7.0987 17.2913 38.3619 0.8702
# 6 38.9101 23.0407 19.6774 -6.7813 0.8702 34.0618
#
#
#
# Elastic Compliance Matrix: (Units=1/GPa)
#
#
# Indices 1 2 3 4 5 6 
#
# 1 0.024524 -0.004468 0.002184 -0.025618 0.014377 -0.031722
# 2 -0.004468 0.026449 -0.004579 0.006769 -0.002496 -0.008731
# 3 0.002184 -0.004579 0.020206 -0.022209 0.014014 -0.015850
# 4 -0.025618 0.006769 -0.022209 0.103344 -0.053698 0.059462
# 5 0.014377 -0.002496 0.014014 -0.053698 0.054664 -0.034918
# 6 -0.031722 -0.008731 -0.015850 0.059462 -0.034918 0.093388
#
#
# Mechanical properties :
#
#
# Convention : Reuss Voigt Hill
#
# Bulk Modulus (GPa) = 17.40526 48.32260 32.86393
# Shear Modulus (GPa) = 14.06656 29.66605 21.86630
#
# Velocity S-wave (km/s) = 2.57669 3.74194 3.21259
# Velocity P-wave (km/s) = 4.13129 6.44030 5.41041
#
# Compressibility (1/GPa) = 0.05745389
#
# Stress axis : x y z
#
# Youngs Moduli (GPa) = 40.77612 37.80842 49.48996
#
# Poissons Ratio (x) = 0.16891 -0.10807
# Poissons Ratio (y) = 0.18217 0.22660
# Poissons Ratio (z) = -0.08904 0.17311
#
# Static dielectric constant tensor:
#      x y z
#    x 1.797380 -0.025460 -0.015020 
#    y -0.025460 1.734340 0.011850 
#    z -0.015020 0.011850 1.817770 
# 
# From -- ./inp_files/607548.got.cif
#   From: 2010.05.17/outbox.cif.g08.bks.cpg/sg2_304_cif.got.tgz:607548.got - 2010.06.03 11:33:40.
