data_PCOD9084747
_publ_section_title
;
Structure prediction by ZEFSAII (Michael W. Deem and Ramdas Pophale) SiO2 
 PCOD9084747
Probable space group: P -1
;
_chemical_formula_sum "Si O2"
_cell_formula_units_Z 16
_cell_length_a 13.453214
_cell_length_b 14.100602
_cell_length_c 5.488963
_cell_angle_alpha 122.238226
_cell_angle_beta 54.606322
_cell_angle_gamma 118.376459
_cell_volume 696.766740
_symmetry_space_group_name_H-M "P -1"
_symmetry_group_IT_number 2
_symmetry_cell_setting 'triclinic'
loop_
_space_group_symop_operation_xyz
x,y,z
-x,-y,-z
loop_
_atom_site_type_symbol
_atom_site_label
_atom_site_fract_x
_atom_site_fract_y
_atom_site_fract_z
Si Si1 0.547178 0.204616 0.354938
Si Si2 0.201967 0.412125 0.105090
Si Si3 0.218431 0.895903 0.978553
Si Si4 0.880096 0.553159 0.227845
Si Si5 0.035323 0.166166 0.515793
Si Si6 0.523205 0.571405 0.314718
Si Si7 0.973912 0.835793 0.973425
Si Si8 0.563160 0.903865 0.158081
O O1 0.557890 0.335326 0.445651
O O2 0.459968 0.183992 0.699033
O O3 0.676401 0.173992 0.210171
O O4 0.495423 0.137081 0.082123
O O5 0.200423 0.475664 0.451052
O O6 0.186607 0.484143 0.986125
O O7 0.327815 0.369015 0.826300
O O8 0.084223 0.301806 0.134926
O O9 0.115700 0.867938 0.300154
O O10 0.122836 0.856196 0.833885
O O11 0.295429 0.026478 0.002461
O O12 0.917542 0.694385 0.357918
O O13 0.000000 0.500000 0.000000
O O14 0.076163 0.120565 0.648050
O O15 0.070676 0.118935 0.148735
O O16 0.500000 0.500000 0.500000
O O17 0.500000 0.500000 0.000000
O O18 0.500000 0.000000 0.500000
#
# Coordination Sequence:
#
# PCOD9084747 Si02
#       8
#     2   2   2   2   2   2   2   2
#     4  11  24  39  60  90 125 165 214 254 311 381
#     4  10  21  40  59  82 121 159 204 259 314 367
#     4   9  19  32  61  89 130 146 195 251 327 377
#     4  10  19  35  56  90 117 152 200 262 330 376
#     4   8  17  27  47  80 114 148 177 224 309 367
#     4  12  27  48  65  86 121 183 228 262 298 366
#     4   8  17  31  53  84 111 155 178 241 317 359
#     4  10  21  36  61  94 127 161 195 261 329 380
#
# _framework density 22.963208999999999
#
# number of rings (size 3 to 8) (size 9 to 14) (size 15 to 20)
#    0.750    1.500    0.000    3.375    5.250    2.000 
#    4.500    0.000    0.000    1.500    0.000    0.000 
#    0.000    0.000    0.000    0.000    0.000    0.000 
#
# Total GULP energy -89098.253480 kJ/mol
# GULP energy per Si atom -5568.640842 kJ/mol
# Density = 2.291094 g / cm^3
# Si number density = 22.963209 Si / 1000 Ang^3
#
#
#
# Elastic Constant Matrix: (Units=GPa)
#
#
# Indices 1 2 3 4 5 6 
#
# 1 106.6397 37.6690 52.3893 -19.7385 23.3453 -11.0709
# 2 37.6690 43.4890 19.7274 -1.2324 12.5911 -9.5831
# 3 52.3893 19.7274 107.8016 -22.6745 39.5017 -19.1343
# 4 -19.7385 -1.2324 -22.6745 31.4000 -15.7580 6.0676
# 5 23.3453 12.5911 39.5017 -15.7580 54.9014 -11.1397
# 6 -11.0709 -9.5831 -19.1343 6.0676 -11.1397 42.2425
#
#
#
# Elastic Compliance Matrix: (Units=1/GPa)
#
#
# Indices 1 2 3 4 5 6 
#
# 1 0.017698 -0.013433 -0.005246 0.007731 0.001230 -0.001572
# 2 -0.013433 0.036716 0.000359 -0.010169 -0.004839 0.005156
# 3 -0.005246 0.000359 0.015915 0.003775 -0.007532 0.003387
# 4 0.007731 -0.010169 0.003775 0.043733 0.008343 -0.002653
# 5 0.001230 -0.004839 -0.007532 0.008343 0.026965 0.001725
# 6 -0.001572 0.005156 0.003387 -0.002653 0.001725 0.026801
#
#
# Mechanical properties :
#
#
# Convention : Reuss Voigt Hill
#
# Bulk Modulus (GPa) = 29.68417 53.05576 41.36996
# Shear Modulus (GPa) = 23.18031 35.58508 29.38269
#
# Velocity S-wave (km/s) = 3.18064 3.94084 3.58097
# Velocity P-wave (km/s) = 5.14233 6.62282 5.92897
#
# Compressibility (1/GPa) = 0.03368799
#
# Stress axis : x y z
#
# Youngs Moduli (GPa) = 56.50216 27.23594 62.83275
#
# Poissons Ratio (x) = 0.36587 0.32964
# Poissons Ratio (y) = 0.75901 -0.02254
# Poissons Ratio (z) = 0.29643 -0.00977
#
# Static dielectric constant tensor:
#      x y z
#    x 1.869790 -0.000410 0.056540 
#    y -0.000410 1.955520 -0.026080 
#    z 0.056540 -0.026080 1.903740 
# 
# From -- ./inp_files/99465.got.cif
#   From: 2010.05.17/outbox.cif.g08.bks.cpg/sg2_50_cif.got.tgz:99465.got - 2010.06.03 11:33:40.
