data_PCOD9084542
_publ_section_title
;
Structure prediction by ZEFSAII (Michael W. Deem and Ramdas Pophale) SiO2 
 PCOD9084542
Probable space group: P -1
;
_chemical_formula_sum "Si O2"
_cell_formula_units_Z 16
_cell_length_a 8.521455
_cell_length_b 14.201982
_cell_length_c 19.292758
_cell_angle_alpha 18.687075
_cell_angle_beta 79.520160
_cell_angle_gamma 84.145704
_cell_volume 717.054779
_symmetry_space_group_name_H-M "P -1"
_symmetry_group_IT_number 2
_symmetry_cell_setting 'triclinic'
loop_
_space_group_symop_operation_xyz
x,y,z
-x,-y,-z
loop_
_atom_site_type_symbol
_atom_site_label
_atom_site_fract_x
_atom_site_fract_y
_atom_site_fract_z
Si Si1 0.200513 0.475126 0.583996
Si Si2 0.063454 0.310385 0.068869
Si Si3 0.638889 0.668522 0.725819
Si Si4 0.005890 0.329641 0.296172
Si Si5 0.610469 0.907544 0.807345
Si Si6 0.827208 0.655879 0.168357
Si Si7 0.049091 0.152795 0.703599
Si Si8 0.533968 0.134909 0.514281
O O1 0.184433 0.291975 0.784994
O O2 0.205351 0.281030 0.649674
O O3 0.035428 0.593750 0.498611
O O4 0.337029 0.782356 0.369947
O O5 0.218848 0.179701 0.168021
O O6 0.931525 0.047571 0.224781
O O7 0.000000 0.500000 0.000000
O O8 0.103163 0.539083 0.841736
O O9 0.800612 0.542216 0.809617
O O10 0.622640 0.821521 0.546306
O O11 0.619010 0.918763 0.610003
O O12 0.488943 0.383766 0.943246
O O13 0.938545 0.408561 0.319858
O O14 0.000000 0.000000 0.500000
O O15 0.511315 0.970493 0.704237
O O16 0.651571 0.463018 0.291544
O O17 0.916477 0.939169 0.916260
#
# Coordination Sequence:
#
# PCOD9084542 Si02
#       8
#     2   2   2   2   2   2   2   2
#     4   9  18  33  57  80 109 141 190 237 270 327
#     4  10  21  35  57  84 117 145 179 232 281 334
#     4  11  21  35  52  77 117 149 187 229 275 340
#     4  11  22  35  53  81 117 152 180 227 290 338
#     4  10  21  37  55  82 111 150 190 227 280 331
#     4  10  19  35  54  81 110 144 188 236 278 326
#     4   9  18  32  53  87 109 141 185 231 284 319
#     4  10  20  33  53  77 108 151 189 227 276 337
#
# _framework density 22.313497000000002
#
# number of rings (size 3 to 8) (size 9 to 14) (size 15 to 20)
#    0.000    2.000    1.250    3.750    5.250    0.000 
#    0.000    0.000    0.000    3.000    0.000   47.250 
#    0.000    0.000    0.000    0.000    0.000    0.000 
#
# Total GULP energy -89186.006354 kJ/mol
# GULP energy per Si atom -5574.125397 kJ/mol
# Density = 2.226271 g / cm^3
# Si number density = 22.313497 Si / 1000 Ang^3
#
#
#
# Elastic Constant Matrix: (Units=GPa)
#
#
# Indices 1 2 3 4 5 6 
#
# 1 35.6321 12.6192 10.3199 9.9027 2.4925 11.6073
# 2 12.6192 112.8662 17.9635 -13.5181 -5.1310 28.0450
# 3 10.3199 17.9635 65.3463 -3.7122 6.6233 10.2921
# 4 9.9027 -13.5181 -3.7122 33.8995 10.6299 7.3744
# 5 2.4925 -5.1310 6.6233 10.6299 23.0995 5.3372
# 6 11.6073 28.0450 10.2921 7.3744 5.3372 27.3667
#
#
#
# Elastic Compliance Matrix: (Units=1/GPa)
#
#
# Indices 1 2 3 4 5 6 
#
# 1 0.035987 -0.002178 -0.004732 -0.011269 0.004266 -0.009047
# 2 -0.002178 0.014671 -0.000879 0.008958 0.003524 -0.016882
# 3 -0.004732 -0.000879 0.017960 0.005982 -0.006624 -0.004167
# 4 -0.011269 0.008958 0.005982 0.045395 -0.015746 -0.015812
# 5 0.004266 0.003524 -0.006624 -0.015746 0.054931 -0.009399
# 6 -0.009047 -0.016882 -0.004167 -0.015812 -0.009399 0.065339
#
#
# Mechanical properties :
#
#
# Convention : Reuss Voigt Hill
#
# Bulk Modulus (GPa) = 18.85366 32.84997 25.85182
# Shear Modulus (GPa) = 18.68873 28.40260 23.54566
#
# Velocity S-wave (km/s) = 2.89719 3.57163 3.25194
# Velocity P-wave (km/s) = 4.43389 5.63584 5.07061
#
# Compressibility (1/GPa) = 0.05304009
#
# Stress axis : x y z
#
# Youngs Moduli (GPa) = 27.78776 68.16014 55.68084
#
# Poissons Ratio (x) = 0.14847 0.26349
# Poissons Ratio (y) = 0.06053 0.04892
# Poissons Ratio (z) = 0.13150 0.05988
#
# Static dielectric constant tensor:
#      x y z
#    x 1.852340 -0.011700 -0.025410 
#    y -0.011700 1.946720 -0.033560 
#    z -0.025410 -0.033560 1.898070 
# 
# From -- ./inp_files/255308.got.cif
#   From: 2010.05.17/outbox.cif.g08.bks.cpg/sg2_128_cif.got.tgz:255308.got - 2010.06.03 11:33:40.
