data_PCOD9084605
_publ_section_title
;
Structure prediction by ZEFSAII (Michael W. Deem and Ramdas Pophale) SiO2 
 PCOD9084605
Probable space group: P -1
;
_chemical_formula_sum "Si O2"
_cell_formula_units_Z 14
_cell_length_a 5.288364
_cell_length_b 12.451560
_cell_length_c 22.165459
_cell_angle_alpha 37.983065
_cell_angle_beta 123.543049
_cell_angle_gamma 143.989558
_cell_volume 513.329533
_symmetry_space_group_name_H-M "P -1"
_symmetry_group_IT_number 2
_symmetry_cell_setting 'triclinic'
loop_
_space_group_symop_operation_xyz
x,y,z
-x,-y,-z
loop_
_atom_site_type_symbol
_atom_site_label
_atom_site_fract_x
_atom_site_fract_y
_atom_site_fract_z
Si Si1 0.844504 0.678402 0.599170
Si Si2 0.646524 0.382452 0.814201
Si Si3 0.300323 0.351522 0.102899
Si Si4 0.969150 0.430454 0.446161
Si Si5 0.302985 0.091629 0.596511
Si Si6 0.752035 0.240266 0.176489
Si Si7 0.967604 0.779903 0.104212
O O1 0.925702 0.620712 0.699433
O O2 0.334298 0.524053 0.608151
O O3 0.033442 0.936079 0.476878
O O4 0.938068 0.577191 0.605949
O O5 0.204353 0.294096 0.816853
O O6 0.902152 0.483629 0.867447
O O7 0.621727 0.178319 0.873402
O O8 0.301657 0.143936 0.182173
O O9 0.616486 0.547235 0.113407
O O10 0.844338 0.242328 0.117531
O O11 0.500000 0.500000 0.000000
O O12 0.661085 0.169777 0.560251
O O13 0.420166 0.651296 0.442814
O O14 0.157720 0.898466 0.713433
O O15 0.000000 0.000000 0.000000
#
# Coordination Sequence:
#
# PCOD9084605 Si02
#       7
#     2   2   2   2   2   2   2
#     4  10  19  35  55  81 118 148 188 232 272 337
#     4  10  21  38  58  86 116 147 189 235 290 332
#     4  10  22  42  60  84 117 144 195 243 293 340
#     4   9  20  34  54  76 122 152 185 239 269 321
#     4   9  21  35  57  80 119 153 192 220 293 322
#     4  10  22  37  62  82 114 155 183 237 286 348
#     4  10  21  41  62  82 116 151 187 243 297 342
#
# _framework density 27.272932000000001
#
# number of rings (size 3 to 8) (size 9 to 14) (size 15 to 20)
#    0.857    1.429    0.000    2.143    2.000    0.571 
#    7.714    0.714    0.000    0.000    0.000    0.000 
#    0.000    0.000    0.000    0.000    0.000    0.000 
#
# Total GULP energy -77996.833224 kJ/mol
# GULP energy per Si atom -5571.202373 kJ/mol
# Density = 2.721086 g / cm^3
# Si number density = 27.272932 Si / 1000 Ang^3
#
#
#
# Elastic Constant Matrix: (Units=GPa)
#
#
# Indices 1 2 3 4 5 6 
#
# 1 219.3769 56.6231 51.9190 9.6869 -13.7547 -68.9820
# 2 56.6231 64.2380 29.0441 11.0857 -15.0845 -14.5071
# 3 51.9190 29.0441 162.9223 10.6911 -10.5591 -31.5116
# 4 9.6869 11.0857 10.6911 35.6510 -12.8829 -8.3214
# 5 -13.7547 -15.0845 -10.5591 -12.8829 45.7272 16.2518
# 6 -68.9820 -14.5071 -31.5116 -8.3214 16.2518 44.5755
#
#
#
# Elastic Compliance Matrix: (Units=1/GPa)
#
#
# Indices 1 2 3 4 5 6 
#
# 1 0.011871 -0.008113 0.000798 0.001538 -0.005034 0.018417
# 2 -0.008113 0.024184 -0.002954 -0.004173 0.007311 -0.010218
# 3 0.000798 -0.002954 0.007517 -0.000631 -0.001287 0.005939
# 4 0.001538 -0.004173 -0.000631 0.032488 0.006587 0.004239
# 5 -0.005034 0.007311 -0.001287 0.006587 0.030025 -0.016038
# 6 0.018417 -0.010218 0.005939 0.004239 -0.016038 0.058447
#
#
# Mechanical properties :
#
#
# Convention : Reuss Voigt Hill
#
# Bulk Modulus (GPa) = 43.41516 80.18995 61.80256
# Shear Modulus (GPa) = 25.94065 45.78748 35.86406
#
# Velocity S-wave (km/s) = 3.08742 4.10184 3.63023
# Velocity P-wave (km/s) = 5.35377 7.20417 6.34677
#
# Compressibility (1/GPa) = 0.02303343
#
# Stress axis : x y z
#
# Youngs Moduli (GPa) = 84.23750 41.35045 133.03314
#
# Poissons Ratio (x) = 0.33548 -0.10620
# Poissons Ratio (y) = 0.68342 0.39303
# Poissons Ratio (z) = -0.06725 0.12217
#
# Static dielectric constant tensor:
#      x y z
#    x 2.362040 0.115100 0.036410 
#    y 0.115100 2.188660 -0.065300 
#    z 0.036410 -0.065300 2.244800 
# 
# From -- ./inp_files/583030.got.cif
#   From: 2010.05.17/outbox.cif.g08.bks.cpg/sg2_292_cif.got.tgz:583030.got - 2010.06.03 11:33:40.
