data_PCOD9084900
_publ_section_title
;
Structure prediction by ZEFSAII (Michael W. Deem and Ramdas Pophale) SiO2 
 PCOD9084900
Probable space group: P -1
;
_chemical_formula_sum "Si O2"
_cell_formula_units_Z 16
_cell_length_a 11.991785
_cell_length_b 7.014770
_cell_length_c 11.730503
_cell_angle_alpha 49.522883
_cell_angle_beta 63.240639
_cell_angle_gamma 61.716702
_cell_volume 645.824364
_symmetry_space_group_name_H-M "P -1"
_symmetry_group_IT_number 2
_symmetry_cell_setting 'triclinic'
loop_
_space_group_symop_operation_xyz
x,y,z
-x,-y,-z
loop_
_atom_site_type_symbol
_atom_site_label
_atom_site_fract_x
_atom_site_fract_y
_atom_site_fract_z
Si Si1 0.319836 0.102377 0.964244
Si Si2 0.056115 0.382001 0.901659
Si Si3 0.505729 0.763517 0.830201
Si Si4 0.649720 0.133791 0.707869
Si Si5 0.578507 0.407381 0.301257
Si Si6 0.989129 0.772684 0.248225
Si Si7 0.902250 0.295980 0.549333
Si Si8 0.848738 0.126515 0.350042
O O1 0.173026 0.143503 0.978683
O O2 0.348065 0.382538 0.862156
O O3 0.399315 0.978491 0.865362
O O4 0.355293 0.941857 0.125954
O O5 0.978245 0.290466 0.872876
O O6 0.111132 0.614148 0.736397
O O7 0.000000 0.500000 0.000000
O O8 0.476258 0.724502 0.727260
O O9 0.626808 0.885107 0.748385
O O10 0.500000 0.500000 0.000000
O O11 0.539244 0.409014 0.643202
O O12 0.788101 0.183827 0.600671
O O13 0.693307 0.197196 0.394664
O O14 0.901467 0.579825 0.399605
O O15 0.108564 0.698840 0.309266
O O16 0.898466 0.048711 0.225916
O O17 0.951153 0.890621 0.458689
#
# Coordination Sequence:
#
# PCOD9084900 Si02
#       8
#     2   2   2   2   2   2   2   2
#     4  10  20  34  55  88 133 156 200 258 309 377
#     4  11  22  37  62  97 125 160 205 263 319 373
#     4  11  18  34  59  85 123 177 198 242 326 373
#     4  11  20  36  57  95 129 153 216 265 289 379
#     4  10  19  35  57  88 125 169 198 250 323 372
#     4   9  21  45  64  83 126 174 206 256 319 376
#     4   9  21  44  64  88 123 169 214 261 307 364
#     4   9  20  40  62  88 124 167 208 252 318 380
#
# _framework density 24.774538
#
# number of rings (size 3 to 8) (size 9 to 14) (size 15 to 20)
#    0.750    1.250    2.500    2.250    0.000    1.000 
#    9.000    0.625    0.000   10.500    0.000    0.000 
#    0.000    0.000    0.000    0.000    0.000    0.000 
#
# Total GULP energy -89320.337899 kJ/mol
# GULP energy per Si atom -5582.521119 kJ/mol
# Density = 2.471815 g / cm^3
# Si number density = 24.774538 Si / 1000 Ang^3
#
#
#
# Elastic Constant Matrix: (Units=GPa)
#
#
# Indices 1 2 3 4 5 6 
#
# 1 117.2457 65.4537 16.4341 -0.0689 4.4482 27.5832
# 2 65.4537 128.2454 35.5657 0.1050 10.6677 31.5018
# 3 16.4341 35.5657 62.9527 -5.1074 -3.1128 13.1597
# 4 -0.0689 0.1050 -5.1074 33.3979 12.5691 2.8940
# 5 4.4482 10.6677 -3.1128 12.5691 33.8517 3.3175
# 6 27.5832 31.5018 13.1597 2.8940 3.3175 54.2767
#
#
#
# Elastic Compliance Matrix: (Units=1/GPa)
#
#
# Indices 1 2 3 4 5 6 
#
# 1 0.012382 -0.005791 0.000743 0.000249 0.000483 -0.003154
# 2 -0.005791 0.013425 -0.005504 0.000890 -0.003981 -0.003319
# 3 0.000743 -0.005504 0.019578 0.002127 0.002865 -0.002219
# 4 0.000249 0.000890 0.002127 0.035363 -0.013027 -0.002248
# 5 0.000483 -0.003981 0.002865 -0.013027 0.035845 -0.000126
# 6 -0.003154 -0.003319 -0.002219 -0.002248 -0.000126 0.022619
#
#
# Mechanical properties :
#
#
# Convention : Reuss Voigt Hill
#
# Bulk Modulus (GPa) = 41.18395 60.37230 50.77812
# Shear Modulus (GPa) = 29.68972 37.03795 33.36383
#
# Velocity S-wave (km/s) = 3.46554 3.87072 3.67372
# Velocity P-wave (km/s) = 5.71602 6.66320 6.20770
#
# Compressibility (1/GPa) = 0.02428131
#
# Stress axis : x y z
#
# Youngs Moduli (GPa) = 80.76431 74.48768 51.07662
#
# Poissons Ratio (x) = 0.43135 -0.03794
# Poissons Ratio (y) = 0.46770 0.28111
# Poissons Ratio (z) = -0.05999 0.40996
#
# Static dielectric constant tensor:
#      x y z
#    x 2.008100 0.005790 -0.000560 
#    y 0.005790 1.947880 0.024460 
#    z -0.000560 0.024460 2.044260 
# 
# From -- ./inp_files/410012.got.cif
#   From: 2010.05.17/outbox.cif.g08.bks.cpg/sg2_206_cif.got.tgz:410012.got - 2010.06.03 11:33:40.
