data_PCOD9084466
_publ_section_title
;
Structure prediction by ZEFSAII (Michael W. Deem and Ramdas Pophale) SiO2 
 PCOD9084466
Probable space group: P -1
;
_chemical_formula_sum "Si O2"
_cell_formula_units_Z 16
_cell_length_a 7.418815
_cell_length_b 23.238324
_cell_length_c 9.112261
_cell_angle_alpha 142.047108
_cell_angle_beta 116.372697
_cell_angle_gamma 53.202596
_cell_volume 772.401917
_symmetry_space_group_name_H-M "P -1"
_symmetry_group_IT_number 2
_symmetry_cell_setting 'triclinic'
loop_
_space_group_symop_operation_xyz
x,y,z
-x,-y,-z
loop_
_atom_site_type_symbol
_atom_site_label
_atom_site_fract_x
_atom_site_fract_y
_atom_site_fract_z
Si Si1 0.867450 0.949647 0.759160
Si Si2 0.687430 0.847986 0.734504
Si Si3 0.827118 0.901879 0.172002
Si Si4 0.713079 0.092917 0.733522
Si Si5 0.062664 0.757654 0.215088
Si Si6 0.508524 0.752876 0.265143
Si Si7 0.068144 0.382068 0.683141
Si Si8 0.231951 0.544929 0.020447
O O1 0.776297 0.896623 0.738371
O O2 0.003924 0.853979 0.502177
O O3 0.696754 0.044301 0.784152
O O4 0.000000 0.000000 0.000000
O O5 0.488593 0.833116 0.553072
O O6 0.873307 0.727686 0.594099
O O7 0.658637 0.908093 0.995158
O O8 0.059079 0.891790 0.159327
O O9 0.886807 0.807306 0.118330
O O10 0.746220 0.004701 0.448082
O O11 0.512604 0.195513 0.797316
O O12 0.302621 0.728127 0.166752
O O13 0.098999 0.653516 0.103110
O O14 0.747247 0.658389 0.198036
O O15 0.832785 0.430295 0.780186
O O16 0.137182 0.460858 0.779980
O O17 0.500000 0.500000 0.000000
#
# Coordination Sequence:
#
# PCOD9084466 Si02
#       8
#     2   2   2   2   2   2   2   2
#     4  11  20  33  55  82 113 154 191 231 275 346
#     4  10  19  35  51  80 115 143 180 244 283 318
#     4   9  18  32  53  77 113 152 187 232 277 342
#     4   9  18  32  51  79 110 154 195 219 280 349
#     4  10  19  36  58  82 110 150 197 225 287 350
#     4   9  19  34  53  80 115 141 189 241 278 335
#     4   9  21  34  56  89 113 137 199 244 281 341
#     4  11  18  36  62  86 108 152 191 239 293 341
#
# _framework density 20.714604999999999
#
# number of rings (size 3 to 8) (size 9 to 14) (size 15 to 20)
#    0.750    1.500    3.750    0.750    0.000    1.000 
#    0.000    0.625    0.000    0.750    3.250    0.000 
#    0.000    0.000    0.000    0.000    0.000    0.000 
#
# Total GULP energy -89150.037780 kJ/mol
# GULP energy per Si atom -5571.877361 kJ/mol
# Density = 2.066746 g / cm^3
# Si number density = 20.714605 Si / 1000 Ang^3
#
#
#
# Elastic Constant Matrix: (Units=GPa)
#
#
# Indices 1 2 3 4 5 6 
#
# 1 89.1462 30.8970 15.9067 6.7089 -3.3802 20.6145
# 2 30.8970 111.9205 23.8792 3.9166 5.6085 26.4695
# 3 15.9067 23.8792 54.9030 -3.9299 -1.0886 13.4975
# 4 6.7089 3.9166 -3.9299 34.3180 4.0717 2.8499
# 5 -3.3802 5.6085 -1.0886 4.0717 23.1904 7.6912
# 6 20.6145 26.4695 13.4975 2.8499 7.6912 35.8639
#
#
#
# Elastic Compliance Matrix: (Units=1/GPa)
#
#
# Indices 1 2 3 4 5 6 
#
# 1 0.014253 -0.002121 -0.001593 -0.002780 0.005307 -0.006945
# 2 -0.002121 0.011658 -0.003069 -0.000633 -0.001197 -0.005923
# 3 -0.001593 -0.003069 0.021752 0.003297 0.002906 -0.005891
# 4 -0.002780 -0.000633 0.003297 0.030807 -0.005348 -0.000477
# 5 0.005307 -0.001197 0.002906 -0.005348 0.049738 -0.013502
# 6 -0.006945 -0.005923 -0.005891 -0.000477 -0.013502 0.041397
#
#
# Mechanical properties :
#
#
# Convention : Reuss Voigt Hill
#
# Bulk Modulus (GPa) = 29.32806 44.14838 36.73822
# Shear Modulus (GPa) = 25.70191 31.02692 28.36442
#
# Velocity S-wave (km/s) = 3.52627 3.87438 3.70441
# Velocity P-wave (km/s) = 5.54692 6.43221 6.00590
#
# Compressibility (1/GPa) = 0.03409704
#
# Stress axis : x y z
#
# Youngs Moduli (GPa) = 70.15874 85.77626 45.97231
#
# Poissons Ratio (x) = 0.18193 0.07325
# Poissons Ratio (y) = 0.14881 0.14109
# Poissons Ratio (z) = 0.11179 0.26324
#
# Static dielectric constant tensor:
#      x y z
#    x 1.790840 -0.012580 -0.002990 
#    y -0.012580 1.786350 0.045070 
#    z -0.002990 0.045070 1.757640 
# 
# From -- ./inp_files/227182.got.cif
#   From: 2010.05.17/outbox.cif.g08.bks.cpg/sg2_114_cif.got.tgz:227182.got - 2010.06.03 11:33:40.
