data_PCOD9084880
_publ_section_title
;
Structure prediction by ZEFSAII (Michael W. Deem and Ramdas Pophale) SiO2 
 PCOD9084880
Probable space group: P -1
;
_chemical_formula_sum "Si O2"
_cell_formula_units_Z 16
_cell_length_a 15.659235
_cell_length_b 6.048465
_cell_length_c 14.098922
_cell_angle_alpha 81.836691
_cell_angle_beta 31.727247
_cell_angle_gamma 73.451757
_cell_volume 659.703126
_symmetry_space_group_name_H-M "P -1"
_symmetry_group_IT_number 2
_symmetry_cell_setting 'triclinic'
loop_
_space_group_symop_operation_xyz
x,y,z
-x,-y,-z
loop_
_atom_site_type_symbol
_atom_site_label
_atom_site_fract_x
_atom_site_fract_y
_atom_site_fract_z
Si Si1 0.706004 0.014111 0.715079
Si Si2 0.566837 0.571367 0.155250
Si Si3 0.924866 0.638277 0.197940
Si Si4 0.655242 0.365545 0.467965
Si Si5 0.325465 0.948419 0.697913
Si Si6 0.803818 0.816895 0.004309
Si Si7 0.073318 0.046723 0.658984
Si Si8 0.431975 0.740926 0.990230
O O1 0.878950 0.924558 0.496412
O O2 0.590570 0.842292 0.820712
O O3 0.599597 0.262041 0.752138
O O4 0.704231 0.074129 0.824559
O O5 0.510671 0.530845 0.316696
O O6 0.631052 0.340101 0.043582
O O7 0.687978 0.731269 0.045728
O O8 0.767922 0.536315 0.361208
O O9 0.850510 0.867662 0.189641
O O10 0.973103 0.717108 0.250157
O O11 0.087640 0.421925 0.027562
O O12 0.652214 0.291262 0.366349
O O13 0.754202 0.118299 0.441716
O O14 0.500000 0.000000 0.500000
O O15 0.299329 0.997636 0.831223
O O16 0.938073 0.912438 0.816588
O O17 0.500000 0.500000 0.000000
#
# Coordination Sequence:
#
# PCOD9084880 Si02
#       8
#     2   2   2   2   2   2   2   2
#     4   9  18  36  61  86 116 151 190 231 291 344
#     4  10  19  35  57  87 116 147 195 243 282 344
#     4  10  22  38  58  82 113 160 198 238 295 342
#     4   9  19  37  58  81 110 152 201 242 281 339
#     4  11  22  39  57  84 117 155 200 250 288 333
#     4  11  23  38  56  85 121 153 197 242 293 345
#     4   9  20  37  57  80 117 157 188 234 290 347
#     4   9  18  33  61  93 115 144 191 239 281 343
#
# _framework density 24.253333000000001
#
# number of rings (size 3 to 8) (size 9 to 14) (size 15 to 20)
#    0.000    2.250    1.250    1.125    0.000    8.000 
#    2.250    0.625    0.000    7.500    0.000    0.000 
#    0.000    0.000    0.000    0.000    0.000    0.000 
#
# Total GULP energy -89393.592112 kJ/mol
# GULP energy per Si atom -5587.099507 kJ/mol
# Density = 2.419813 g / cm^3
# Si number density = 24.253333 Si / 1000 Ang^3
#
#
#
# Elastic Constant Matrix: (Units=GPa)
#
#
# Indices 1 2 3 4 5 6 
#
# 1 85.5830 38.0651 62.1952 11.9371 28.3539 22.8180
# 2 38.0651 90.0153 49.9742 21.5622 23.4877 36.1470
# 3 62.1952 49.9742 152.1096 12.2758 43.1622 40.7596
# 4 11.9371 21.5622 12.2758 38.4016 4.3470 -1.7085
# 5 28.3539 23.4877 43.1622 4.3470 39.5070 15.8055
# 6 22.8180 36.1470 40.7596 -1.7085 15.8055 67.5955
#
#
#
# Elastic Compliance Matrix: (Units=1/GPa)
#
#
# Indices 1 2 3 4 5 6 
#
# 1 0.018925 -0.003123 -0.004652 -0.001960 -0.006225 -0.000508
# 2 -0.003123 0.019621 -0.001116 -0.009607 -0.003910 -0.008094
# 3 -0.004652 -0.001116 0.011982 -0.001038 -0.007657 -0.003294
# 4 -0.001960 -0.009607 -0.001038 0.032455 0.001967 0.006785
# 5 -0.006225 -0.003910 -0.007657 0.001967 0.040497 -0.000611
# 6 -0.000508 -0.008094 -0.003294 0.006785 -0.000611 0.021594
#
#
# Mechanical properties :
#
#
# Convention : Reuss Voigt Hill
#
# Bulk Modulus (GPa) = 30.53659 69.79742 50.16700
# Shear Modulus (GPa) = 28.77367 40.93237 34.85302
#
# Velocity S-wave (km/s) = 3.44812 4.11262 3.79494
# Velocity P-wave (km/s) = 5.33580 7.16886 6.31915
#
# Compressibility (1/GPa) = 0.03274760
#
# Stress axis : x y z
#
# Youngs Moduli (GPa) = 52.84006 50.96598 83.46032
#
# Poissons Ratio (x) = 0.15915 0.38822
# Poissons Ratio (y) = 0.16500 0.09313
# Poissons Ratio (z) = 0.24579 0.05687
#
# Static dielectric constant tensor:
#      x y z
#    x 2.008130 -0.036530 0.015320 
#    y -0.036530 1.932090 0.042980 
#    z 0.015320 0.042980 1.943280 
# 
# From -- ./inp_files/48565.got.cif
#   From: 2010.05.17/outbox.cif.g08.bks.cpg/sg2_25_cif.got.tgz:48565.got - 2010.06.03 11:33:40.
