data_PCOD9084411
_publ_section_title
;
Structure prediction by ZEFSAII (Michael W. Deem and Ramdas Pophale) SiO2 
 PCOD9084411
Probable space group: P -1
;
_chemical_formula_sum "Si O2"
_cell_formula_units_Z 14
_cell_length_a 10.242730
_cell_length_b 8.359272
_cell_length_c 13.127242
_cell_angle_alpha 82.387132
_cell_angle_beta 110.494167
_cell_angle_gamma 44.529170
_cell_volume 600.589298
_symmetry_space_group_name_H-M "P -1"
_symmetry_group_IT_number 2
_symmetry_cell_setting 'triclinic'
loop_
_space_group_symop_operation_xyz
x,y,z
-x,-y,-z
loop_
_atom_site_type_symbol
_atom_site_label
_atom_site_fract_x
_atom_site_fract_y
_atom_site_fract_z
Si Si1 0.983013 0.886881 0.594453
Si Si2 0.897360 0.053032 0.184451
Si Si3 0.596468 0.733607 0.160711
Si Si4 0.698560 0.805104 0.820832
Si Si5 0.617869 0.573626 0.953784
Si Si6 0.998007 0.409361 0.765594
Si Si7 0.232247 0.233849 0.517008
O O1 0.792520 0.929207 0.508770
O O2 0.938639 0.013703 0.680793
O O3 0.233884 0.549623 0.706957
O O4 0.000000 0.000000 0.500000
O O5 0.642693 0.257079 0.156885
O O6 0.819415 0.246025 0.056206
O O7 0.992805 0.789459 0.198109
O O8 0.750975 0.753783 0.193387
O O9 0.346598 0.013278 0.123878
O O10 0.573982 0.689366 0.044811
O O11 0.686790 0.644713 0.887435
O O12 0.930256 0.579961 0.830996
O O13 0.470233 0.037942 0.663327
O O14 0.800499 0.631609 0.605453
O O15 0.000000 0.500000 0.500000
#
# Coordination Sequence:
#
# PCOD9084411 Si02
#       7
#     2   2   2   2   2   2   2
#     4  10  19  34  65  86 114 159 194 242 303 349
#     4  10  21  38  61  87 122 159 198 245 295 359
#     4  10  22  40  61  89 119 157 203 247 290 355
#     4  12  22  37  65  89 120 158 199 249 298 349
#     4  10  21  40  63  85 122 164 201 240 300 351
#     4  11  23  38  63  90 122 153 202 249 297 351
#     4  11  20  40  64  88 120 153 197 252 294 355
#
# _framework density 23.31044
#
# number of rings (size 3 to 8) (size 9 to 14) (size 15 to 20)
#    0.000    1.429    4.286    2.571    0.000    1.143 
#    0.000    0.714   25.143    0.000    0.000    0.000 
#    0.000    0.000    0.000    0.000    0.000    0.000 
#
# Total GULP energy -78343.100350 kJ/mol
# GULP energy per Si atom -5595.935739 kJ/mol
# Density = 2.325738 g / cm^3
# Si number density = 23.310440 Si / 1000 Ang^3
#
#
#
# Elastic Constant Matrix: (Units=GPa)
#
#
# Indices 1 2 3 4 5 6 
#
# 1 24.0124 21.9730 18.4824 -4.1741 -0.4701 12.1325
# 2 21.9730 119.8555 24.5544 4.1668 -12.7678 11.1752
# 3 18.4824 24.5544 91.0662 -18.6813 -10.0791 4.2347
# 4 -4.1741 4.1668 -18.6813 35.9464 16.1612 -6.9838
# 5 -0.4701 -12.7678 -10.0791 16.1612 46.1826 3.0965
# 6 12.1325 11.1752 4.2347 -6.9838 3.0965 39.5343
#
#
#
# Elastic Compliance Matrix: (Units=1/GPa)
#
#
# Indices 1 2 3 4 5 6 
#
# 1 0.066123 -0.008979 -0.010266 0.001906 -0.003642 -0.016033
# 2 -0.008979 0.011201 -0.001769 -0.005692 0.004718 -0.001596
# 3 -0.010266 -0.001769 0.014902 0.007505 -0.000195 0.003395
# 4 0.001906 -0.005692 0.007505 0.040936 -0.014819 0.008612
# 5 -0.003642 0.004718 -0.000195 -0.014819 0.028401 -0.005037
# 6 -0.016033 -0.001596 0.003395 0.008612 -0.005037 0.032218
#
#
# Mechanical properties :
#
#
# Convention : Reuss Voigt Hill
#
# Bulk Modulus (GPa) = 19.92058 40.55041 30.23550
# Shear Modulus (GPa) = 19.79872 35.66095 27.72983
#
# Velocity S-wave (km/s) = 2.91752 3.91554 3.45278
# Velocity P-wave (km/s) = 4.46246 6.15431 5.37537
#
# Compressibility (1/GPa) = 0.05019933
#
# Stress axis : x y z
#
# Youngs Moduli (GPa) = 15.12325 89.27642 67.10717
#
# Poissons Ratio (x) = 0.80158 0.68890
# Poissons Ratio (y) = 0.13579 0.11872
# Poissons Ratio (z) = 0.15525 0.15794
#
# Static dielectric constant tensor:
#      x y z
#    x 1.874350 0.001360 0.031310 
#    y 0.001360 1.900740 -0.007490 
#    z 0.031310 -0.007490 1.891580 
# 
# From -- ./inp_files/179179.got.cif
#   From: 2010.05.17/outbox.cif.g08.bks.cpg/sg2_90_cif.got.tgz:179179.got - 2010.06.03 11:33:40.
