data_PCOD9084661
_publ_section_title
;
Structure prediction by ZEFSAII (Michael W. Deem and Ramdas Pophale) SiO2 
 PCOD9084661
Probable space group: P -1
;
_chemical_formula_sum "Si O2"
_cell_formula_units_Z 14
_cell_length_a 12.293639
_cell_length_b 11.608011
_cell_length_c 14.861305
_cell_angle_alpha 140.634420
_cell_angle_beta 36.886985
_cell_angle_gamma 151.008695
_cell_volume 596.955752
_symmetry_space_group_name_H-M "P -1"
_symmetry_group_IT_number 2
_symmetry_cell_setting 'triclinic'
loop_
_space_group_symop_operation_xyz
x,y,z
-x,-y,-z
loop_
_atom_site_type_symbol
_atom_site_label
_atom_site_fract_x
_atom_site_fract_y
_atom_site_fract_z
Si Si1 0.980439 0.392049 0.351111
Si Si2 0.506349 0.263745 0.880532
Si Si3 0.723722 0.727351 0.317448
Si Si4 0.772833 0.974423 0.919864
Si Si5 0.794931 0.854799 0.159435
Si Si6 0.749872 0.353173 0.131369
Si Si7 0.373006 0.747364 0.650158
O O1 0.795556 0.376741 0.400643
O O2 0.000000 0.500000 0.500000
O O3 0.227432 0.546032 0.223223
O O4 0.892390 0.126472 0.263357
O O5 0.332331 0.247143 0.913445
O O6 0.453098 0.011165 0.761939
O O7 0.437518 0.272195 0.033890
O O8 0.632569 0.726235 0.278484
O O9 0.640576 0.463373 0.229303
O O10 0.607421 0.778022 0.498865
O O11 0.024146 0.948106 0.242502
O O12 0.979490 0.129338 0.958249
O O13 0.652493 0.080556 0.030573
O O14 0.767508 0.400890 0.255286
O O15 0.000000 0.500000 0.000000
#
# Coordination Sequence:
#
# PCOD9084661 Si02
#       7
#     2   2   2   2   2   2   2
#     4  11  22  34  54  84 115 146 179 219 275 324
#     4  10  19  35  56  78 115 143 179 224 271 323
#     4   9  17  31  56  81 108 138 181 223 268 322
#     4   8  18  32  55  80 106 141 181 223 271 316
#     4   9  19  33  54  82 108 144 182 220 268 326
#     4   9  17  34  59  84 102 143 187 222 274 322
#     4  10  20  35  58  84 109 143 182 223 270 326
#
# _framework density 23.452324000000001
#
# number of rings (size 3 to 8) (size 9 to 14) (size 15 to 20)
#    0.857    1.714    0.000    2.571    0.000    2.857 
#    0.000    0.000    0.000   24.857    0.000    0.000 
#    0.000    0.000    0.000    0.000    0.000    0.000 
#
# Total GULP energy -78001.202548 kJ/mol
# GULP energy per Si atom -5571.514468 kJ/mol
# Density = 2.339895 g / cm^3
# Si number density = 23.452324 Si / 1000 Ang^3
#
#
#
# Elastic Constant Matrix: (Units=GPa)
#
#
# Indices 1 2 3 4 5 6 
#
# 1 95.0790 49.4399 38.2397 -14.5276 7.4363 -30.3063
# 2 49.4399 91.9854 46.8171 -16.9327 9.5264 -37.0034
# 3 38.2397 46.8171 159.1188 -26.7735 0.9060 -10.5571
# 4 -14.5276 -16.9327 -26.7735 20.1956 -7.3926 7.4134
# 5 7.4363 9.5264 0.9060 -7.3926 35.2402 -0.1071
# 6 -30.3063 -37.0034 -10.5571 7.4134 -0.1071 41.6475
#
#
#
# Elastic Compliance Matrix: (Units=1/GPa)
#
#
# Indices 1 2 3 4 5 6 
#
# 1 0.016249 -0.004400 -0.001704 0.002564 -0.001636 0.007022
# 2 -0.004400 0.022345 -0.003949 0.003237 -0.004286 0.015064
# 3 -0.001704 -0.003949 0.009349 0.010675 0.003413 -0.004270
# 4 0.002564 0.003237 0.010675 0.075598 0.014150 -0.005973
# 5 -0.001636 -0.004286 0.003413 0.014150 0.032741 -0.006568
# 6 0.007022 0.015064 -0.004270 -0.005973 -0.006568 0.042469
#
#
# Mechanical properties :
#
#
# Convention : Reuss Voigt Hill
#
# Bulk Modulus (GPa) = 35.92108 68.35294 52.13701
# Shear Modulus (GPa) = 21.91678 33.52909 27.72293
#
# Velocity S-wave (km/s) = 3.06032 3.78520 3.44189
# Velocity P-wave (km/s) = 5.27610 6.95071 6.17048
#
# Compressibility (1/GPa) = 0.02783881
#
# Stress axis : x y z
#
# Youngs Moduli (GPa) = 61.54319 44.75208 106.95970
#
# Poissons Ratio (x) = 0.19690 0.18223
# Poissons Ratio (y) = 0.27078 0.42236
# Poissons Ratio (z) = 0.10485 0.17672
#
# Static dielectric constant tensor:
#      x y z
#    x 1.905520 0.012200 0.006320 
#    y 0.012200 1.958420 0.005110 
#    z 0.006320 0.005110 1.925480 
# 
# From -- ./inp_files/456232.got.cif
#   From: 2010.05.17/outbox.cif.g08.bks.cpg/sg2_229_cif.got.tgz:456232.got - 2010.06.03 11:33:40.
