data_PCOD9084350
_publ_section_title
;
Structure prediction by ZEFSAII (Michael W. Deem and Ramdas Pophale) SiO2 
 PCOD9084350
Probable space group: P -1
;
_chemical_formula_sum "Si O2"
_cell_formula_units_Z 16
_cell_length_a 23.645351
_cell_length_b 9.805614
_cell_length_c 10.506139
_cell_angle_alpha 110.220911
_cell_angle_beta 41.467260
_cell_angle_gamma 141.663192
_cell_volume 808.235911
_symmetry_space_group_name_H-M "P -1"
_symmetry_group_IT_number 2
_symmetry_cell_setting 'triclinic'
loop_
_space_group_symop_operation_xyz
x,y,z
-x,-y,-z
loop_
_atom_site_type_symbol
_atom_site_label
_atom_site_fract_x
_atom_site_fract_y
_atom_site_fract_z
Si Si1 0.360729 0.423303 0.707005
Si Si2 0.110737 0.709234 0.063817
Si Si3 0.519556 0.079227 0.346823
Si Si4 0.702929 0.836573 0.503044
Si Si5 0.854481 0.071552 0.588789
Si Si6 0.783925 0.262486 0.375808
Si Si7 0.675829 0.729646 0.019506
Si Si8 0.176797 0.648851 0.181584
O O1 0.500000 0.500000 0.500000
O O2 0.435359 0.686452 0.642420
O O3 0.256530 0.214637 0.698114
O O4 0.286546 0.320016 0.940020
O O5 0.094350 0.571687 0.160733
O O6 0.941500 0.545417 0.274025
O O7 0.255685 0.019789 0.961580
O O8 0.157593 0.702763 0.851299
O O9 0.500000 0.000000 0.500000
O O10 0.363171 0.845722 0.445347
O O11 0.660912 0.196642 0.077165
O O12 0.805309 0.954031 0.493310
O O13 0.728237 0.036766 0.471692
O O14 0.515472 0.547416 0.762842
O O15 0.798271 0.160184 0.729938
O O16 0.045133 0.360476 0.380120
O O17 0.767501 0.849275 0.770289
#
# Coordination Sequence:
#
# PCOD9084350 Si02
#       8
#     2   2   2   2   2   2   2   2
#     4  10  20  37  65  92 123 165 210 264 319 381
#     4  10  19  34  63  91 123 167 211 255 312 393
#     4  12  23  39  66 101 132 164 214 281 323 366
#     4  11  19  36  67  95 121 162 223 261 309 390
#     4  10  22  39  62  93 127 180 210 261 315 404
#     4  11  19  34  63  96 122 161 214 263 316 376
#     4  10  19  35  62  90 118 167 219 252 312 375
#     4  10  22  39  62  90 134 166 219 264 321 372
#
# _framework density 19.796201
#
# number of rings (size 3 to 8) (size 9 to 14) (size 15 to 20)
#    0.000    1.500    6.250    1.125    3.500    0.000 
#    0.000    1.875    0.000    0.000    0.000    0.000 
#    0.000    0.000    0.000    0.000    0.000    0.000 
#
# Total GULP energy -89189.693820 kJ/mol
# GULP energy per Si atom -5574.355864 kJ/mol
# Density = 1.975114 g / cm^3
# Si number density = 19.796201 Si / 1000 Ang^3
#
#
#
# Elastic Constant Matrix: (Units=GPa)
#
#
# Indices 1 2 3 4 5 6 
#
# 1 91.5201 11.9939 17.0294 0.9258 17.6279 6.1736
# 2 11.9939 43.0106 12.5271 -8.9269 4.5152 4.0491
# 3 17.0294 12.5271 68.5650 -1.0697 -14.5731 -3.3579
# 4 0.9258 -8.9269 -1.0697 24.9029 -6.6778 5.5546
# 5 17.6279 4.5152 -14.5731 -6.6778 36.1603 -8.4898
# 6 6.1736 4.0491 -3.3579 5.5546 -8.4898 33.0929
#
#
#
# Elastic Compliance Matrix: (Units=1/GPa)
#
#
# Indices 1 2 3 4 5 6 
#
# 1 0.014888 -0.001222 -0.006253 -0.003080 -0.011533 -0.005704
# 2 -0.001222 0.028745 -0.006250 0.010229 -0.005265 -0.006991
# 3 -0.006253 -0.006250 0.020656 0.000990 0.014092 0.007476
# 4 -0.003080 0.010229 0.000990 0.047548 0.007869 -0.006538
# 5 -0.011533 -0.005265 0.014092 0.007869 0.044425 0.014302
# 6 -0.005704 -0.006991 0.007476 -0.006538 0.014302 0.037663
#
#
# Mechanical properties :
#
#
# Convention : Reuss Voigt Hill
#
# Bulk Modulus (GPa) = 27.14535 31.79961 29.47248
# Shear Modulus (GPa) = 21.39911 29.60092 25.50001
#
# Velocity S-wave (km/s) = 3.29138 3.87108 3.59294
# Velocity P-wave (km/s) = 5.30909 6.00656 5.66856
#
# Compressibility (1/GPa) = 0.03683873
#
# Stress axis : x y z
#
# Youngs Moduli (GPa) = 67.17010 34.78857 48.41106
#
# Poissons Ratio (x) = 0.04251 0.30272
# Poissons Ratio (y) = 0.08207 0.30258
# Poissons Ratio (z) = 0.42002 0.21744
#
# Static dielectric constant tensor:
#      x y z
#    x 1.743200 0.012080 0.032340 
#    y 0.012080 1.712550 -0.039490 
#    z 0.032340 -0.039490 1.760390 
# 
# From -- ./inp_files/470021.got.cif
#   From: 2010.05.17/outbox.cif.g08.bks.cpg/sg2_236_cif.got.tgz:470021.got - 2010.06.03 11:33:40.
