data_PCOD9084886
_publ_section_title
;
Structure prediction by ZEFSAII (Michael W. Deem and Ramdas Pophale) SiO2 
 PCOD9084886
Probable space group: P -1
;
_chemical_formula_sum "Si O2"
_cell_formula_units_Z 16
_cell_length_a 7.918290
_cell_length_b 8.682968
_cell_length_c 12.017112
_cell_angle_alpha 115.246348
_cell_angle_beta 69.549310
_cell_angle_gamma 87.094246
_cell_volume 680.486798
_symmetry_space_group_name_H-M "P -1"
_symmetry_group_IT_number 2
_symmetry_cell_setting 'triclinic'
loop_
_space_group_symop_operation_xyz
x,y,z
-x,-y,-z
loop_
_atom_site_type_symbol
_atom_site_label
_atom_site_fract_x
_atom_site_fract_y
_atom_site_fract_z
Si Si1 0.495563 0.131403 0.197576
Si Si2 0.569855 0.039381 0.377015
Si Si3 0.257595 0.643904 0.511357
Si Si4 0.764893 0.369891 0.902850
Si Si5 0.165136 0.303625 0.783448
Si Si6 0.405792 0.261838 0.034575
Si Si7 0.044302 0.793884 0.399893
Si Si8 0.672445 0.428190 0.286108
O O1 0.661503 0.231740 0.199181
O O2 0.429066 0.125132 0.338216
O O3 0.564466 0.933763 0.078691
O O4 0.361923 0.240306 0.168408
O O5 0.681773 0.852211 0.249880
O O6 0.500000 0.000000 0.500000
O O7 0.703908 0.166985 0.410211
O O8 0.103535 0.680488 0.462462
O O9 0.456808 0.531345 0.386249
O O10 0.227544 0.569377 0.616718
O O11 0.601596 0.317592 0.991199
O O12 0.785519 0.266525 0.746876
O O13 0.969168 0.319178 0.891843
O O14 0.729417 0.575572 0.944089
O O15 0.240276 0.474384 0.798427
O O16 0.119643 0.246754 0.650331
O O17 0.000000 0.000000 0.500000
#
# Coordination Sequence:
#
# PCOD9084886 Si02
#       8
#     2   2   2   2   2   2   2   2
#     4  10  24  39  66  92 124 173 222 266 318 383
#     4  11  21  37  62  94 129 172 210 262 329 392
#     4  10  19  35  57  87 128 175 206 245 322 393
#     4   9  22  40  68  92 124 165 222 270 314 371
#     4  10  22  38  60  96 132 161 212 262 327 379
#     4  10  21  47  66  93 122 174 231 263 310 386
#     4  10  20  36  62  93 128 161 209 262 321 383
#     4  10  21  38  57  91 132 163 210 260 322 389
#
# _framework density 23.512578999999999
#
# number of rings (size 3 to 8) (size 9 to 14) (size 15 to 20)
#    0.750    1.250    2.500    0.750    1.750    2.500 
#    0.000   11.250    0.000    0.000    0.000    0.000 
#    0.000    0.000    0.000    0.000    0.000    0.000 
#
# Total GULP energy -89269.049083 kJ/mol
# GULP energy per Si atom -5579.315568 kJ/mol
# Density = 2.345906 g / cm^3
# Si number density = 23.512579 Si / 1000 Ang^3
#
#
#
# Elastic Constant Matrix: (Units=GPa)
#
#
# Indices 1 2 3 4 5 6 
#
# 1 39.9918 22.9342 3.8095 -1.9745 10.9286 -12.7541
# 2 22.9342 123.6661 26.6861 4.8957 4.7184 -1.9727
# 3 3.8095 26.6861 58.8843 -1.6546 12.2659 -9.4863
# 4 -1.9745 4.8957 -1.6546 39.9805 -4.3938 16.5779
# 5 10.9286 4.7184 12.2659 -4.3938 36.6217 0.3491
# 6 -12.7541 -1.9727 -9.4863 16.5779 0.3491 37.4576
#
#
#
# Elastic Compliance Matrix: (Units=1/GPa)
#
#
# Indices 1 2 3 4 5 6 
#
# 1 0.036976 -0.007201 0.006011 -0.005149 -0.012891 0.016132
# 2 -0.007201 0.010430 -0.005315 -0.000259 0.002585 -0.003158
# 3 0.006011 -0.005315 0.022187 -0.002712 -0.008948 0.008669
# 4 -0.005149 -0.000259 -0.002712 0.032379 0.006524 -0.016845
# 5 -0.012891 0.002585 -0.008948 0.006524 0.034693 -0.009730
# 6 0.016132 -0.003158 0.008669 -0.016845 -0.009730 0.041765
#
#
# Mechanical properties :
#
#
# Convention : Reuss Voigt Hill
#
# Bulk Modulus (GPa) = 17.67368 36.60019 27.13693
# Shear Modulus (GPa) = 23.77540 34.08612 28.93076
#
# Velocity S-wave (km/s) = 3.18335 3.81162 3.51157
# Velocity P-wave (km/s) = 4.58744 5.91365 5.29225
#
# Compressibility (1/GPa) = 0.05658133
#
# Stress axis : x y z
#
# Youngs Moduli (GPa) = 27.04475 95.87647 45.07164
#
# Poissons Ratio (x) = 0.69044 -0.27093
# Poissons Ratio (y) = 0.19476 0.23958
# Poissons Ratio (z) = -0.16257 0.50962
#
# Static dielectric constant tensor:
#      x y z
#    x 1.897440 -0.003470 0.018130 
#    y -0.003470 1.868460 0.000810 
#    z 0.018130 0.000810 1.989510 
# 
# From -- ./inp_files/379868.got.cif
#   From: 2010.05.17/outbox.cif.g08.bks.cpg/sg2_190_cif.got.tgz:379868.got - 2010.06.03 11:33:40.
