data_PCOD9084250
_publ_section_title
;
Structure prediction by ZEFSAII (Michael W. Deem and Ramdas Pophale) SiO2 
 PCOD9084250
Probable space group: P -1
;
_chemical_formula_sum "Si O2"
_cell_formula_units_Z 15
_cell_length_a 21.996301
_cell_length_b 7.142523
_cell_length_c 5.210776
_cell_angle_alpha 73.023454
_cell_angle_beta 121.392370
_cell_angle_gamma 121.558646
_cell_volume 595.261205
_symmetry_space_group_name_H-M "P -1"
_symmetry_group_IT_number 2
_symmetry_cell_setting 'triclinic'
loop_
_space_group_symop_operation_xyz
x,y,z
-x,-y,-z
loop_
_atom_site_type_symbol
_atom_site_label
_atom_site_fract_x
_atom_site_fract_y
_atom_site_fract_z
Si Si1 0.963931 0.669641 0.414057
Si Si2 0.195635 0.120815 0.352531
Si Si3 0.481717 0.692911 0.102625
Si Si4 0.635395 0.680941 0.307702
Si Si5 0.360251 0.701060 0.213523
Si Si6 0.500000 0.000000 0.500000
Si Si7 0.971909 0.243052 0.978106
Si Si8 0.201116 0.392926 0.754458
O O1 0.874179 0.564385 0.363166
O O2 0.000000 0.500000 0.500000
O O3 0.969605 0.770321 0.104522
O O4 0.019060 0.833394 0.688365
O O5 0.278724 0.112130 0.599249
O O6 0.192004 0.280952 0.503503
O O7 0.116860 0.889965 0.270862
O O8 0.197837 0.220247 0.034686
O O9 0.412634 0.445397 0.000300
O O10 0.485540 0.832422 0.803721
O O11 0.567402 0.702678 0.311326
O O12 0.450394 0.762374 0.262566
O O13 0.657183 0.499157 0.557748
O O14 0.398540 0.939337 0.322945
O O15 0.286737 0.608769 0.894983
O O16 0.000000 0.500000 0.000000
#
# Coordination Sequence:
#
# PCOD9084250 Si02
#       8
#     2   2   2   2   2   1   2   2
#     4  10  22  41  61  85 119 159 192 247 312 363
#     4  11  22  38  62  94 117 156 209 247 301 361
#     4   9  18  36  55  85 117 157 195 241 291 352
#     4  10  19  34  62  81 119 157 199 246 293 352
#     4   9  19  36  55  84 119 153 194 246 294 348
#     4   8  18  34  52  82 120 150 198 236 292 360
#     4  10  22  41  60  85 122 154 192 252 307 362
#     4  11  22  38  64  89 120 157 203 257 295 360
#
# _framework density 25.199020999999998
#
# number of rings (size 3 to 8) (size 9 to 14) (size 15 to 20)
#    0.800    1.333    1.333    2.000    0.000    3.733 
#    4.800    0.000   11.733    0.000    0.000    0.000 
#    0.000    0.000    0.000    0.000    0.000    0.000 
#
# Total GULP energy -83547.554462 kJ/mol
# GULP energy per Si atom -5569.836964 kJ/mol
# Density = 2.514167 g / cm^3
# Si number density = 25.199021 Si / 1000 Ang^3
#
#
#
# Elastic Constant Matrix: (Units=GPa)
#
#
# Indices 1 2 3 4 5 6 
#
# 1 133.5234 26.4419 74.0932 26.7594 1.5301 17.4054
# 2 26.4419 108.9836 55.2388 40.2159 8.1297 14.3795
# 3 74.0932 55.2388 148.6930 44.8732 -14.4724 13.4387
# 4 26.7594 40.2159 44.8732 69.1322 21.8649 11.9123
# 5 1.5301 8.1297 -14.4724 21.8649 57.1566 10.6834
# 6 17.4054 14.3795 13.4387 11.9123 10.6834 32.7037
#
#
#
# Elastic Compliance Matrix: (Units=1/GPa)
#
#
# Indices 1 2 3 4 5 6 
#
# 1 0.010845 0.000706 -0.005403 -0.000175 -0.001046 -0.003457
# 2 0.000706 0.012988 -0.003441 -0.005027 -0.000302 -0.002743
# 3 -0.005403 -0.003441 0.013422 -0.006586 0.006725 -0.000924
# 4 -0.000175 -0.005027 -0.006586 0.025161 -0.010434 -0.000746
# 5 -0.001046 -0.000302 0.006725 -0.010434 0.024430 -0.006254
# 6 -0.003457 -0.002743 -0.000924 -0.000746 -0.006254 0.036318
#
#
# Mechanical properties :
#
#
# Convention : Reuss Voigt Hill
#
# Bulk Modulus (GPa) = 47.66742 78.08308 62.87525
# Shear Modulus (GPa) = 34.14526 47.49357 40.81941
#
# Velocity S-wave (km/s) = 3.68506 4.34607 4.02914
# Velocity P-wave (km/s) = 6.08799 7.49921 6.83015
#
# Compressibility (1/GPa) = 0.02097869
#
# Stress axis : x y z
#
# Youngs Moduli (GPa) = 92.20524 76.99426 74.50634
#
# Poissons Ratio (x) = -0.05435 0.40255
# Poissons Ratio (y) = -0.06509 0.25639
# Poissons Ratio (z) = 0.49818 0.26495
#
# Static dielectric constant tensor:
#      x y z
#    x 2.059280 -0.040030 0.026130 
#    y -0.040030 2.419130 -0.276000 
#    z 0.026130 -0.276000 2.354010 
# 
# From -- ./inp_files/88571.got.cif
#   From: 2010.05.17/outbox.cif.g08.bks.cpg/sg2_45_cif.got.tgz:88571.got - 2010.06.03 11:33:40.
