data_PCOD9084952
_publ_section_title
;
Structure prediction by ZEFSAII (Michael W. Deem and Ramdas Pophale) SiO2 
 PCOD9084952
Probable space group: P -1
;
_chemical_formula_sum "Si O2"
_cell_formula_units_Z 14
_cell_length_a 4.894372
_cell_length_b 22.597330
_cell_length_c 8.006881
_cell_angle_alpha 139.957485
_cell_angle_beta 118.291736
_cell_angle_gamma 68.180007
_cell_volume 501.611791
_symmetry_space_group_name_H-M "P -1"
_symmetry_group_IT_number 2
_symmetry_cell_setting 'triclinic'
loop_
_space_group_symop_operation_xyz
x,y,z
-x,-y,-z
loop_
_atom_site_type_symbol
_atom_site_label
_atom_site_fract_x
_atom_site_fract_y
_atom_site_fract_z
Si Si1 0.159119 0.685068 0.727665
Si Si2 0.498187 0.608513 0.349497
Si Si3 0.086908 0.152775 0.795361
Si Si4 0.205334 0.762732 0.408729
Si Si5 0.599647 0.991591 0.270707
Si Si6 0.661301 0.457407 0.293563
Si Si7 0.203681 0.118359 0.238903
O O1 0.413367 0.668364 0.622563
O O2 0.298327 0.647764 0.864785
O O3 0.858563 0.627274 0.456882
O O4 0.006334 0.782352 0.937192
O O5 0.269209 0.657504 0.255569
O O6 0.485741 0.502604 0.181241
O O7 0.394591 0.089743 0.768101
O O8 0.059494 0.214309 0.754500
O O9 0.828564 0.074927 0.548097
O O10 0.524342 0.805558 0.528138
O O11 0.098540 0.824507 0.670301
O O12 0.282098 0.042593 0.241483
O O13 0.743368 0.939733 0.038544
O O14 0.500000 0.500000 0.500000
O O15 0.000000 0.500000 0.500000
#
# Coordination Sequence:
#
# PCOD9084952 Si02
#       7
#     2   2   2   2   2   2   2
#     4  10  20  36  57  80 107 139 176 218 264 310
#     4  10  19  35  58  80 106 140 178 213 256 318
#     4  10  21  35  54  81 111 138 174 223 271 310
#     4  11  22  36  55  81 108 139 177 218 264 314
#     4   9  20  38  56  77 105 142 182 221 262 310
#     4   8  16  31  54  80 102 133 176 215 251 307
#     4  10  22  39  57  75 104 144 184 217 256 313
#
# _framework density 27.910029000000002
#
# number of rings (size 3 to 8) (size 9 to 14) (size 15 to 20)
#    0.000    2.286    0.000    2.571    0.000    8.000 
#    0.000    6.429    0.000    0.000    0.000   17.000 
#    0.000    0.000    0.000    0.000    0.000    0.000 
#
# Total GULP energy -78347.328127 kJ/mol
# GULP energy per Si atom -5596.237723 kJ/mol
# Density = 2.784650 g / cm^3
# Si number density = 27.910029 Si / 1000 Ang^3
#
#
#
# Elastic Constant Matrix: (Units=GPa)
#
#
# Indices 1 2 3 4 5 6 
#
# 1 126.7189 12.0670 5.8373 3.4578 -15.5246 -1.3149
# 2 12.0670 244.3227 11.0549 35.3579 -14.3756 -6.9730
# 3 5.8373 11.0549 75.6299 29.6774 -5.9967 -7.1577
# 4 3.4578 35.3579 29.6774 55.0694 -9.0615 -15.1132
# 5 -15.5246 -14.3756 -5.9967 -9.0615 30.2489 -0.3062
# 6 -1.3149 -6.9730 -7.1577 -15.1132 -0.3062 28.1275
#
#
#
# Elastic Compliance Matrix: (Units=1/GPa)
#
#
# Indices 1 2 3 4 5 6 
#
# 1 0.008459 -0.000234 -0.000525 0.000811 0.004376 0.000687
# 2 -0.000234 0.004599 0.000662 -0.003205 0.001232 -0.000411
# 3 -0.000525 0.000662 0.016913 -0.009621 0.000509 -0.000720
# 4 0.000811 -0.003205 -0.009621 0.029897 0.006072 0.012925
# 5 0.004376 0.001232 0.000509 0.006072 0.037854 0.004314
# 6 0.000687 -0.000411 -0.000720 0.012925 0.004314 0.042291
#
#
# Mechanical properties :
#
#
# Convention : Reuss Voigt Hill
#
# Bulk Modulus (GPa) = 33.58139 56.06553 44.82346
# Shear Modulus (GPa) = 33.30362 50.53664 41.92013
#
# Velocity S-wave (km/s) = 3.45809 4.25985 3.87974
# Velocity P-wave (km/s) = 5.29175 6.65782 6.01370
#
# Compressibility (1/GPa) = 0.02977839
#
# Stress axis : x y z
#
# Youngs Moduli (GPa) = 118.21626 217.42979 59.12443
#
# Poissons Ratio (x) = 0.05094 0.03103
# Poissons Ratio (y) = 0.02770 -0.03916
# Poissons Ratio (z) = 0.06203 -0.14402
#
# Static dielectric constant tensor:
#      x y z
#    x 2.028210 0.017370 0.028570 
#    y 0.017370 2.348540 -0.102890 
#    z 0.028570 -0.102890 2.224940 
# 
# From -- ./inp_files/51138.got.cif
#   From: 2010.05.17/outbox.cif.g08.bks.cpg/sg2_26_cif.got.tgz:51138.got - 2010.06.03 11:33:40.
