data_PCOD9084638
_publ_section_title
;
Structure prediction by ZEFSAII (Michael W. Deem and Ramdas Pophale) SiO2 
 PCOD9084638
Probable space group: P -1
;
_chemical_formula_sum "Si O2"
_cell_formula_units_Z 14
_cell_length_a 24.838514
_cell_length_b 18.393579
_cell_length_c 15.386569
_cell_angle_alpha 29.158779
_cell_angle_beta 17.995308
_cell_angle_gamma 19.627012
_cell_volume 712.043598
_symmetry_space_group_name_H-M "P -1"
_symmetry_group_IT_number 2
_symmetry_cell_setting 'triclinic'
loop_
_space_group_symop_operation_xyz
x,y,z
-x,-y,-z
loop_
_atom_site_type_symbol
_atom_site_label
_atom_site_fract_x
_atom_site_fract_y
_atom_site_fract_z
Si Si1 0.393533 0.701498 0.251827
Si Si2 0.872397 0.823897 0.388463
Si Si3 0.153652 0.991746 0.152013
Si Si4 0.771749 0.761874 0.293853
Si Si5 0.562076 0.298272 0.149806
Si Si6 0.646584 0.260146 0.262973
Si Si7 0.918465 0.493143 0.749533
O O1 0.426493 0.504821 0.385382
O O2 0.127086 0.892698 0.512897
O O3 0.357159 0.801381 0.108995
O O4 0.638911 0.613144 0.019268
O O5 0.925241 0.668418 0.544165
O O6 0.867570 0.719632 0.420472
O O7 0.650888 0.086579 0.470629
O O8 0.106036 0.790435 0.044780
O O9 0.153888 0.171029 0.965591
O O10 0.235908 0.894212 0.030057
O O11 0.691237 0.645431 0.517378
O O12 0.997495 0.612327 0.174755
O O13 0.500000 0.000000 0.500000
O O14 0.652734 0.245923 0.164144
O O15 0.500000 0.500000 0.000000
#
# Coordination Sequence:
#
# PCOD9084638 Si02
#       7
#     2   2   2   2   2   2   2
#     4  10  22  39  61  82 118 157 191 237 284 350
#     4   9  19  31  57  84 118 140 197 238 283 338
#     4  10  22  40  57  88 115 155 197 229 291 345
#     4  10  22  35  58  87 114 150 192 238 283 343
#     4  11  20  34  60  85 117 146 188 246 286 334
#     4  10  19  35  55  88 111 153 186 241 289 329
#     4  10  20  35  58  86 113 155 189 240 286 339
#
# _framework density 19.661718
#
# number of rings (size 3 to 8) (size 9 to 14) (size 15 to 20)
#    0.000    2.000    1.429    2.571   12.000    0.571 
#    0.000    2.143    0.000    2.571    0.000    0.000 
#    0.000    0.000    0.000    0.000    0.000    0.000 
#
# Total GULP energy -77958.493717 kJ/mol
# GULP energy per Si atom -5568.463837 kJ/mol
# Density = 1.961697 g / cm^3
# Si number density = 19.661718 Si / 1000 Ang^3
#
#
#
# Elastic Constant Matrix: (Units=GPa)
#
#
# Indices 1 2 3 4 5 6 
#
# 1 34.1023 30.1671 -3.4537 -1.0569 -6.9490 0.0035
# 2 30.1671 126.7449 30.2250 -33.8717 -12.8652 -8.0349
# 3 -3.4537 30.2250 45.0015 -12.0068 -9.6584 5.5429
# 4 -1.0569 -33.8717 -12.0068 37.5618 3.8950 0.8490
# 5 -6.9490 -12.8652 -9.6584 3.8950 16.5649 2.8287
# 6 0.0035 -8.0349 5.5429 0.8490 2.8287 24.6717
#
#
#
# Elastic Compliance Matrix: (Units=1/GPa)
#
#
# Indices 1 2 3 4 5 6 
#
# 1 0.052570 -0.018723 0.020484 -0.011080 0.024300 -0.013112
# 2 -0.018723 0.018887 -0.013024 0.012686 -0.005343 0.009256
# 3 0.020484 -0.013024 0.039556 -0.000697 0.024422 -0.015908
# 4 -0.011080 0.012686 -0.000697 0.037938 -0.004725 0.003526
# 5 0.024300 -0.005343 0.024422 -0.004725 0.084627 -0.016771
# 6 -0.013112 0.009256 -0.015908 0.003526 -0.016771 0.048924
#
#
# Mechanical properties :
#
#
# Convention : Reuss Voigt Hill
#
# Bulk Modulus (GPa) = 11.30122 35.52505 23.41314
# Shear Modulus (GPa) = 14.94662 25.68704 20.31683
#
# Velocity S-wave (km/s) = 2.76014 3.61841 3.21802
# Velocity P-wave (km/s) = 3.98976 5.96360 5.07359
#
# Compressibility (1/GPa) = 0.08848603
#
# Stress axis : x y z
#
# Youngs Moduli (GPa) = 19.02228 52.94707 25.28053
#
# Poissons Ratio (x) = 0.99133 -0.51784
# Poissons Ratio (y) = 0.35615 0.32926
# Poissons Ratio (z) = -0.38965 0.68959
#
# Static dielectric constant tensor:
#      x y z
#    x 1.716120 0.001310 -0.027590 
#    y 0.001310 1.814770 0.003570 
#    z -0.027590 0.003570 1.724310 
# 
# From -- ./inp_files/175051.got.cif
#   From: 2010.05.17/outbox.cif.g08.bks.cpg/sg2_88_cif.got.tgz:175051.got - 2010.06.03 11:33:40.
