data_PCOD9084805
_publ_section_title
;
Structure prediction by ZEFSAII (Michael W. Deem and Ramdas Pophale) SiO2 
 PCOD9084805
Probable space group: P -1
;
_chemical_formula_sum "Si O2"
_cell_formula_units_Z 12
_cell_length_a 10.831610
_cell_length_b 7.923552
_cell_length_c 8.238107
_cell_angle_alpha 101.268798
_cell_angle_beta 52.065945
_cell_angle_gamma 106.354652
_cell_volume 534.854427
_symmetry_space_group_name_H-M "P -1"
_symmetry_group_IT_number 2
_symmetry_cell_setting 'triclinic'
loop_
_space_group_symop_operation_xyz
x,y,z
-x,-y,-z
loop_
_atom_site_type_symbol
_atom_site_label
_atom_site_fract_x
_atom_site_fract_y
_atom_site_fract_z
Si Si1 0.365883 0.354780 0.168386
Si Si2 0.239359 0.410371 0.766773
Si Si3 0.799087 0.339948 0.588603
Si Si4 0.531538 0.925943 0.139539
Si Si5 0.041248 0.536985 0.211292
Si Si6 0.496277 0.258239 0.395841
O O1 0.229973 0.460180 0.337291
O O2 0.431918 0.304744 0.279104
O O3 0.500000 0.500000 0.000000
O O4 0.340374 0.190851 0.034770
O O5 0.344690 0.261931 0.636320
O O6 0.361122 0.584635 0.633416
O O7 0.073203 0.379160 0.797861
O O8 0.187044 0.473856 0.993507
O O9 0.632427 0.202856 0.690300
O O10 0.882955 0.321829 0.688502
O O11 0.926796 0.362696 0.346588
O O12 0.561747 0.083387 0.273707
O O13 0.500000 0.000000 0.000000
#
# Coordination Sequence:
#
# PCOD9084805 Si02
#       6
#     2   2   2   2   2   2
#     4   9  16  30  56  82 103 132 183 228 261 302
#     4  10  20  35  58  79 110 149 179 213 274 332
#     4  10  19  35  59  81 106 141 187 223 265 317
#     4   9  18  32  56  84 110 133 182 234 268 303
#     4  10  20  35  58  78 109 148 181 216 266 335
#     4  10  19  35  57  82 106 142 184 224 266 320
#
# _framework density 22.436012000000002
#
# number of rings (size 3 to 8) (size 9 to 14) (size 15 to 20)
#    0.000    2.333    1.667    3.000    0.000    0.000 
#    0.000    2.500   14.667    0.000    0.000    0.000 
#    0.000    0.000    0.000    0.000    0.000    0.000 
#
# Total GULP energy -66896.177093 kJ/mol
# GULP energy per Si atom -5574.681424 kJ/mol
# Density = 2.238495 g / cm^3
# Si number density = 22.436012 Si / 1000 Ang^3
#
#
#
# Elastic Constant Matrix: (Units=GPa)
#
#
# Indices 1 2 3 4 5 6 
#
# 1 48.2151 -5.4232 -13.4667 10.3720 -9.5808 2.3489
# 2 -5.4232 59.0372 11.2304 28.4995 -12.0707 -1.7658
# 3 -13.4667 11.2304 121.0703 6.7653 -18.3422 -5.6997
# 4 10.3720 28.4995 6.7653 42.3150 -5.0928 1.5857
# 5 -9.5808 -12.0707 -18.3422 -5.0928 28.5953 1.4731
# 6 2.3489 -1.7658 -5.6997 1.5857 1.4731 19.1125
#
#
#
# Elastic Compliance Matrix: (Units=1/GPa)
#
#
# Indices 1 2 3 4 5 6 
#
# 1 0.029832 0.011776 0.005385 -0.014146 0.015954 -0.001028
# 2 0.011776 0.031759 0.001959 -0.022967 0.014370 0.002869
# 3 0.005385 0.001959 0.010255 -0.003338 0.008501 0.002199
# 4 -0.014146 -0.022967 -0.003338 0.042195 -0.008845 -0.004198
# 5 0.015954 0.014370 0.008501 -0.008845 0.050324 -0.001243
# 6 -0.001028 0.002869 0.002199 -0.004198 -0.001243 0.053813
#
#
# Mechanical properties :
#
#
# Convention : Reuss Voigt Hill
#
# Bulk Modulus (GPa) = 9.08378 23.66708 16.37543
# Shear Modulus (GPa) = 23.08055 33.73670 28.40862
#
# Velocity S-wave (km/s) = 3.21086 3.88194 3.56224
# Velocity P-wave (km/s) = 4.21944 5.53753 4.92280
#
# Compressibility (1/GPa) = 0.11008638
#
# Stress axis : x y z
#
# Youngs Moduli (GPa) = 33.52079 31.48749 97.51401
#
# Poissons Ratio (x) = -0.37079 -0.52511
# Poissons Ratio (y) = -0.39474 -0.19107
# Poissons Ratio (z) = -0.18051 -0.06170
#
# Static dielectric constant tensor:
#      x y z
#    x 1.878310 -0.063010 0.057030 
#    y -0.063010 1.839300 0.001850 
#    z 0.057030 0.001850 1.937980 
# 
# From -- ./inp_files/149585.got.cif
#   From: 2010.05.17/outbox.cif.g08.bks.cpg/sg2_75_cif.got.tgz:149585.got - 2010.06.03 11:33:40.
