data_PCOD9084745
_publ_section_title
;
Structure prediction by ZEFSAII (Michael W. Deem and Ramdas Pophale) SiO2 
 PCOD9084745
Probable space group: P -1
;
_chemical_formula_sum "Si O2"
_cell_formula_units_Z 16
_cell_length_a 13.000101
_cell_length_b 10.625125
_cell_length_c 19.365873
_cell_angle_alpha 150.829689
_cell_angle_beta 38.064666
_cell_angle_gamma 143.286442
_cell_volume 743.582660
_symmetry_space_group_name_H-M "P -1"
_symmetry_group_IT_number 2
_symmetry_cell_setting 'triclinic'
loop_
_space_group_symop_operation_xyz
x,y,z
-x,-y,-z
loop_
_atom_site_type_symbol
_atom_site_label
_atom_site_fract_x
_atom_site_fract_y
_atom_site_fract_z
Si Si1 0.730571 0.972588 0.836985
Si Si2 0.904932 0.960069 0.881171
Si Si3 0.282424 0.058236 0.741726
Si Si4 0.819371 0.746574 0.449443
Si Si5 0.477130 0.782926 0.590419
Si Si6 0.653367 0.803332 0.072754
Si Si7 0.059737 0.433781 0.825801
Si Si8 0.621688 0.458153 0.185059
O O1 0.781707 0.881861 0.840846
O O2 0.907746 0.132470 0.776262
O O3 0.576161 0.707004 0.759335
O O4 0.658468 0.220975 0.007140
O O5 0.075494 0.871422 0.743735
O O6 0.985177 0.300673 0.001112
O O7 0.789655 0.863650 0.965609
O O8 0.264300 0.181306 0.886522
O O9 0.360600 0.289447 0.753123
O O10 0.418833 0.906184 0.612541
O O11 0.686434 0.835229 0.512603
O O12 0.666729 0.534493 0.478348
O O13 0.893512 0.551649 0.271879
O O14 0.000000 0.000000 0.500000
O O15 0.435389 0.963966 0.761435
O O16 0.500000 0.500000 0.000000
O O17 0.230008 0.458781 0.794364
#
# Coordination Sequence:
#
# PCOD9084745 Si02
#       8
#     2   2   2   2   2   2   2   2
#     4  10  20  32  57  91 125 162 201 230 300 373
#     4  11  18  35  57  91 129 158 194 244 304 368
#     4  10  19  36  57  87 131 156 186 251 307 357
#     4  11  24  46  66  82 117 163 216 259 293 353
#     4   9  24  42  60  91 118 158 205 256 301 358
#     4  10  21  34  57  93 125 158 194 245 317 368
#     4  11  20  38  61  86 118 164 202 248 296 350
#     4  10  19  35  56  89 128 159 191 248 299 366
#
# _framework density 21.517447000000001
#
# number of rings (size 3 to 8) (size 9 to 14) (size 15 to 20)
#    0.750    1.000    3.750    1.875    0.000    4.000 
#    2.250    0.625    0.000    1.500    0.000    0.000 
#    0.000    0.000    0.000    0.000    0.000    0.000 
#
# Total GULP energy -89188.570027 kJ/mol
# GULP energy per Si atom -5574.285627 kJ/mol
# Density = 2.146847 g / cm^3
# Si number density = 21.517447 Si / 1000 Ang^3
#
#
#
# Elastic Constant Matrix: (Units=GPa)
#
#
# Indices 1 2 3 4 5 6 
#
# 1 68.7301 32.3165 8.9068 3.0850 -36.7663 4.1692
# 2 32.3165 133.6614 8.3635 15.2017 7.1153 25.5753
# 3 8.9068 8.3635 35.7885 -1.2262 -6.3719 6.5152
# 4 3.0850 15.2017 -1.2262 14.0800 -15.0501 -6.0842
# 5 -36.7663 7.1153 -6.3719 -15.0501 4.9984 -19.8190
# 6 4.1692 25.5753 6.5152 -6.0842 -19.8190 29.1345
#
#
#
# Elastic Compliance Matrix: (Units=1/GPa)
#
#
# Indices 1 2 3 4 5 6 
#
# 1 0.012021 0.001442 -0.003222 -0.016103 -0.006751 -0.010221
# 2 0.001442 0.006409 -0.000359 0.001938 0.008449 0.000401
# 3 -0.003222 -0.000359 0.029924 0.001995 0.000493 -0.005164
# 4 -0.016103 0.001938 0.001995 0.041951 -0.025340 -0.008320
# 5 -0.006751 0.008449 0.000493 -0.025340 -0.009258 -0.018151
# 6 -0.010221 0.000401 -0.005164 -0.008320 -0.018151 0.022504
#
#
# Mechanical properties :
#
#
# Convention : Reuss Voigt Hill
#
# Bulk Modulus (GPa) = 22.68806 37.48373 30.08589
# Shear Modulus (GPa) = 40.80964 22.21543 31.51253
#
# Velocity S-wave (km/s) = 4.35970 3.21664 3.83104
# Velocity P-wave (km/s) = 5.99246 5.59050 5.79497
#
# Compressibility (1/GPa) = 0.04407605
#
# Stress axis : x y z
#
# Youngs Moduli (GPa) = 83.18883 156.04082 33.41823
#
# Poissons Ratio (x) = -0.22496 0.10766
# Poissons Ratio (y) = -0.11993 0.01198
# Poissons Ratio (z) = 0.26800 0.05596
#
# Static dielectric constant tensor:
#      x y z
#    x 1.790610 0.014830 -0.027770 
#    y 0.014830 1.812900 -0.051790 
#    z -0.027770 -0.051790 1.892730 
# 
# From -- ./inp_files/611892.got.cif
#   From: 2010.05.17/outbox.cif.g08.bks.cpg/sg2_306_cif.got.tgz:611892.got - 2010.06.03 11:33:40.
