data_PCOD9084945
_publ_section_title
;
Structure prediction by ZEFSAII (Michael W. Deem and Ramdas Pophale) SiO2 
 PCOD9084945
Probable space group: P -1
;
_chemical_formula_sum "Si O2"
_cell_formula_units_Z 16
_cell_length_a 9.010473
_cell_length_b 9.509160
_cell_length_c 12.516778
_cell_angle_alpha 100.205445
_cell_angle_beta 133.894647
_cell_angle_gamma 81.348456
_cell_volume 760.031276
_symmetry_space_group_name_H-M "P -1"
_symmetry_group_IT_number 2
_symmetry_cell_setting 'triclinic'
loop_
_space_group_symop_operation_xyz
x,y,z
-x,-y,-z
loop_
_atom_site_type_symbol
_atom_site_label
_atom_site_fract_x
_atom_site_fract_y
_atom_site_fract_z
Si Si1 0.125287 0.242903 0.947828
Si Si2 0.729755 0.368314 0.633646
Si Si3 0.909796 0.908220 0.536518
Si Si4 0.976014 0.367920 0.547467
Si Si5 0.940665 0.972287 0.805366
Si Si6 0.717012 0.568299 0.104504
Si Si7 0.083284 0.354627 0.176876
Si Si8 0.468444 0.876159 0.380815
O O1 0.306418 0.304290 0.976483
O O2 0.928376 0.292642 0.782893
O O3 0.125903 0.072976 0.944272
O O4 0.099569 0.328054 0.055884
O O5 0.554942 0.272981 0.586635
O O6 0.784474 0.358890 0.533770
O O7 0.736073 0.537283 0.686244
O O8 0.027102 0.759060 0.555437
O O9 0.940973 0.976483 0.676870
O O10 0.666645 0.877839 0.405297
O O11 0.000000 0.000000 0.500000
O O12 0.174336 0.371694 0.726677
O O13 0.000000 0.500000 0.500000
O O14 0.922398 0.805671 0.800359
O O15 0.745103 0.064559 0.768809
O O16 0.878096 0.444619 0.123125
O O17 0.500000 0.500000 0.000000
O O18 0.500000 0.000000 0.500000
#
# Coordination Sequence:
#
# PCOD9084945 Si02
#       8
#     2   2   2   2   2   2   2   2
#     4   9  18  35  56  75 104 149 185 225 280 337
#     4   9  18  35  55  79 107 141 188 228 269 340
#     4  11  20  35  56  77 108 151 183 221 287 348
#     4  10  20  36  57  82 112 149 185 231 285 330
#     4  10  20  36  54  81 109 138 190 242 277 326
#     4  10  21  37  55  83 115 146 188 232 278 349
#     4  10  19  35  58  79 104 143 183 234 284 325
#     4   9  19  35  53  76 106 143 184 227 271 335
#
# _framework density 21.051765
#
# number of rings (size 3 to 8) (size 9 to 14) (size 15 to 20)
#    0.000    2.500    0.000    6.375    0.000    3.000 
#    0.000   12.500    0.000    0.000    0.000    0.000 
#    0.000    0.000    0.000    0.000    0.000    0.000 
#
# Total GULP energy -89086.861799 kJ/mol
# GULP energy per Si atom -5567.928862 kJ/mol
# Density = 2.100385 g / cm^3
# Si number density = 21.051765 Si / 1000 Ang^3
#
#
#
# Elastic Constant Matrix: (Units=GPa)
#
#
# Indices 1 2 3 4 5 6 
#
# 1 112.9169 42.1619 25.9702 5.3477 -7.9178 33.5747
# 2 42.1619 156.0295 2.8440 14.4205 3.1486 27.0422
# 3 25.9702 2.8440 36.9607 8.3240 -17.3817 0.5284
# 4 5.3477 14.4205 8.3240 31.8752 5.7929 -6.3608
# 5 -7.9178 3.1486 -17.3817 5.7929 27.7053 12.7002
# 6 33.5747 27.0422 0.5284 -6.3608 12.7002 39.0298
#
#
#
# Elastic Compliance Matrix: (Units=1/GPa)
#
#
# Indices 1 2 3 4 5 6 
#
# 1 0.017246 -0.000602 -0.003375 -0.008306 0.013898 -0.020249
# 2 -0.000602 0.008965 0.006665 -0.009586 0.009828 -0.010544
# 3 -0.003375 0.006665 0.065441 -0.035931 0.059616 -0.027855
# 4 -0.008306 -0.009586 -0.035931 0.065679 -0.057602 0.043721
# 5 0.013898 0.009828 0.059616 -0.057602 0.119494 -0.067843
# 6 -0.020249 -0.010544 -0.027855 0.043721 -0.067843 0.079925
#
#
# Mechanical properties :
#
#
# Convention : Reuss Voigt Hill
#
# Bulk Modulus (GPa) = 10.30639 49.76214 30.03426
# Shear Modulus (GPa) = 13.03043 35.38410 24.20727
#
# Velocity S-wave (km/s) = 2.49061 4.10422 3.39469
# Velocity P-wave (km/s) = 3.63004 6.79329 5.44638
#
# Compressibility (1/GPa) = 0.09702721
#
# Stress axis : x y z
#
# Youngs Moduli (GPa) = 57.98493 111.54069 15.28099
#
# Poissons Ratio (x) = 0.06714 0.05158
# Poissons Ratio (y) = 0.03491 -0.10184
# Poissons Ratio (z) = 0.19571 -0.74339
#
# Static dielectric constant tensor:
#      x y z
#    x 1.837240 0.015980 0.076190 
#    y 0.015980 1.781340 -0.007170 
#    z 0.076190 -0.007170 1.829330 
# 
# From -- ./inp_files/357420.got.cif
#   From: 2010.05.17/outbox.cif.g08.bks.cpg/sg2_179_cif.got.tgz:357420.got - 2010.06.03 11:33:40.
