data_PCOD9084303
_publ_section_title
;
Structure prediction by ZEFSAII (Michael W. Deem and Ramdas Pophale) SiO2 
 PCOD9084303
Probable space group: P -1
;
_chemical_formula_sum "Si O2"
_cell_formula_units_Z 16
_cell_length_a 14.397878
_cell_length_b 11.149501
_cell_length_c 9.922634
_cell_angle_alpha 74.661934
_cell_angle_beta 39.459700
_cell_angle_gamma 55.361362
_cell_volume 785.241380
_symmetry_space_group_name_H-M "P -1"
_symmetry_group_IT_number 2
_symmetry_cell_setting 'triclinic'
loop_
_space_group_symop_operation_xyz
x,y,z
-x,-y,-z
loop_
_atom_site_type_symbol
_atom_site_label
_atom_site_fract_x
_atom_site_fract_y
_atom_site_fract_z
Si Si1 0.145645 0.526274 0.883891
Si Si2 0.055308 0.360020 0.662177
Si Si3 0.981236 0.686748 0.583360
Si Si4 0.398458 0.039012 0.959632
Si Si5 0.648499 0.356564 0.470630
Si Si6 0.520231 0.181778 0.568299
Si Si7 0.386042 0.535664 0.250148
Si Si8 0.462127 0.212026 0.324021
O O1 0.184618 0.629969 0.721621
O O2 0.330325 0.354238 0.735493
O O3 0.000000 0.500000 0.000000
O O4 0.080454 0.609498 0.076655
O O5 0.000149 0.530265 0.640342
O O6 0.258997 0.260400 0.520962
O O7 0.049257 0.288552 0.550818
O O8 0.174186 0.646858 0.416778
O O9 0.810789 0.824225 0.816150
O O10 0.490157 0.087633 0.735923
O O11 0.500000 0.000000 0.000000
O O12 0.425689 0.893670 0.898124
O O13 0.500000 0.500000 0.500000
O O14 0.671341 0.206301 0.434887
O O15 0.575941 0.388124 0.694737
O O16 0.543270 0.132958 0.401088
O O17 0.437449 0.373037 0.297357
O O18 0.500000 0.500000 0.000000
#
# Coordination Sequence:
#
# PCOD9084303 Si02
#       8
#     2   2   2   2   2   2   2   2
#     4  11  18  34  66  96 126 155 212 272 322 370
#     4  10  19  34  62  94 121 152 215 277 308 369
#     4  10  22  37  59  94 125 164 216 263 323 376
#     4  12  25  41  65  91 132 176 216 268 321 396
#     4  10  22  38  62  98 130 160 211 269 332 379
#     4  11  23  39  63  93 132 171 209 273 329 381
#     4  11  24  39  67  96 128 168 215 275 328 378
#     4  11  22  41  63  98 127 167 220 260 327 391
#
# _framework density 20.375900000000001
#
# number of rings (size 3 to 8) (size 9 to 14) (size 15 to 20)
#    0.000    1.250    6.250    1.125    5.250    0.000 
#    0.000    0.625    0.000    1.500    0.000    0.000 
#    0.000    0.000    0.000    0.000    0.000    0.000 
#
# Total GULP energy -89341.066440 kJ/mol
# GULP energy per Si atom -5583.816653 kJ/mol
# Density = 2.032952 g / cm^3
# Si number density = 20.375900 Si / 1000 Ang^3
#
#
#
# Elastic Constant Matrix: (Units=GPa)
#
#
# Indices 1 2 3 4 5 6 
#
# 1 110.0717 19.9661 37.6725 -2.7000 27.0212 -0.1104
# 2 19.9661 34.6781 12.3363 6.8273 0.9355 -0.5707
# 3 37.6725 12.3363 102.0918 6.2091 23.6250 -7.1692
# 4 -2.7000 6.8273 6.2091 36.8188 0.3724 10.7512
# 5 27.0212 0.9355 23.6250 0.3724 46.5700 -2.4464
# 6 -0.1104 -0.5707 -7.1692 10.7512 -2.4464 18.9971
#
#
#
# Elastic Compliance Matrix: (Units=1/GPa)
#
#
# Indices 1 2 3 4 5 6 
#
# 1 0.013039 -0.007132 -0.003100 0.004163 -0.006117 -0.004452
# 2 -0.007132 0.035218 -0.001795 -0.008475 0.004711 0.005742
# 3 -0.003100 -0.001795 0.012841 -0.003891 -0.004311 0.006421
# 4 0.004163 -0.008475 -0.003891 0.036265 -0.001741 -0.022447
# 5 -0.006117 0.004711 -0.004311 -0.001741 0.027285 0.002978
# 6 -0.004452 0.005742 0.006421 -0.022447 0.002978 0.068297
#
#
# Mechanical properties :
#
#
# Convention : Reuss Voigt Hill
#
# Bulk Modulus (GPa) = 26.99586 42.97683 34.98634
# Shear Modulus (GPa) = 21.80098 32.26829 27.03463
#
# Velocity S-wave (km/s) = 3.27454 3.98383 3.64647
# Velocity P-wave (km/s) = 5.25114 6.50376 5.91073
#
# Compressibility (1/GPa) = 0.03704272
#
# Stress axis : x y z
#
# Youngs Moduli (GPa) = 76.69293 28.39478 77.87457
#
# Poissons Ratio (x) = 0.20252 0.24141
# Poissons Ratio (y) = 0.54701 0.13980
# Poissons Ratio (z) = 0.23775 0.05097
#
# Static dielectric constant tensor:
#      x y z
#    x 1.783770 0.022170 0.008900 
#    y 0.022170 1.735730 -0.009800 
#    z 0.008900 -0.009800 1.746050 
# 
# From -- ./inp_files/306890.got.cif
#   From: 2010.05.17/outbox.cif.g08.bks.cpg/sg2_154_cif.got.tgz:306890.got - 2010.06.03 11:33:40.
