data_PCOD9084149
_publ_section_title
;
Structure prediction by ZEFSAII (Michael W. Deem and Ramdas Pophale) SiO2 
 PCOD9084149
Probable space group: P -1
;
_chemical_formula_sum "Si O2"
_cell_formula_units_Z 16
_cell_length_a 18.515418
_cell_length_b 5.784396
_cell_length_c 16.223635
_cell_angle_alpha 76.500741
_cell_angle_beta 25.498601
_cell_angle_gamma 92.273315
_cell_volume 582.902600
_symmetry_space_group_name_H-M "P -1"
_symmetry_group_IT_number 2
_symmetry_cell_setting 'triclinic'
loop_
_space_group_symop_operation_xyz
x,y,z
-x,-y,-z
loop_
_atom_site_type_symbol
_atom_site_label
_atom_site_fract_x
_atom_site_fract_y
_atom_site_fract_z
Si Si1 0.840391 0.947957 0.596081
Si Si2 0.872254 0.841508 0.863984
Si Si3 0.507444 0.211620 0.300091
Si Si4 0.741321 0.179804 0.266494
Si Si5 0.264004 0.329287 0.719819
Si Si6 0.241289 0.652759 0.262247
Si Si7 0.429238 0.029265 0.887720
Si Si8 0.773711 0.639930 0.442860
O O1 0.970332 0.141060 0.365463
O O2 0.737405 0.601849 0.707043
O O3 0.714553 0.069406 0.752341
O O4 0.000000 0.000000 0.500000
O O5 0.002121 0.098831 0.776178
O O6 0.733817 0.894970 0.943941
O O7 0.703867 0.524719 0.107279
O O8 0.317746 0.946890 0.570187
O O9 0.382197 0.289961 0.366932
O O10 0.610582 0.092807 0.153280
O O11 0.828427 0.016459 0.146691
O O12 0.500000 0.000000 0.500000
O O13 0.835184 0.523240 0.145837
O O14 0.500000 0.500000 0.500000
O O15 0.266225 0.383700 0.613741
O O16 0.365055 0.778581 0.038855
O O17 0.000000 0.500000 0.500000
O O18 0.669200 0.315448 0.613526
#
# Coordination Sequence:
#
# PCOD9084149 Si02
#       8
#     2   2   2   2   2   2   2   2
#     4  10  19  37  58  84 116 167 204 250 313 370
#     4  11  23  38  63  89 126 161 208 266 308 365
#     4  10  21  38  62  88 123 166 206 249 316 373
#     4   9  17  33  61  89 114 160 206 241 298 372
#     4   9  17  35  61  86 118 163 199 241 305 369
#     4  10  19  34  61  82 115 161 212 247 307 374
#     4  11  21  38  64  86 120 167 206 259 312 374
#     4  10  23  39  58  97 123 158 211 258 309 370
#
# _framework density 27.448839
#
# number of rings (size 3 to 8) (size 9 to 14) (size 15 to 20)
#    0.000    2.000    3.750    1.500    1.750    1.000 
#    0.000    1.250    0.000   18.750    0.000    0.000 
#    0.000    0.000    0.000    0.000    0.000    0.000 
#
# Total GULP energy -89302.111884 kJ/mol
# GULP energy per Si atom -5581.381993 kJ/mol
# Density = 2.738636 g / cm^3
# Si number density = 27.448839 Si / 1000 Ang^3
#
#
#
# Elastic Constant Matrix: (Units=GPa)
#
#
# Indices 1 2 3 4 5 6 
#
# 1 83.3410 12.6348 34.2728 -7.4998 -5.0493 12.3963
# 2 12.6348 203.7997 45.1735 -8.8087 -3.7261 -14.8604
# 3 34.2728 45.1735 126.1063 -23.6659 1.5597 15.1765
# 4 -7.4998 -8.8087 -23.6659 54.9216 17.2871 -6.7835
# 5 -5.0493 -3.7261 1.5597 17.2871 36.2402 -2.6514
# 6 12.3963 -14.8604 15.1765 -6.7835 -2.6514 32.9096
#
#
#
# Elastic Compliance Matrix: (Units=1/GPa)
#
#
# Indices 1 2 3 4 5 6 
#
# 1 0.014095 -0.000403 -0.003384 -0.000756 0.002142 -0.003914
# 2 -0.000403 0.005781 -0.002448 0.000016 0.000926 0.003969
# 3 -0.003384 -0.002448 0.011153 0.004583 -0.003706 -0.004328
# 4 -0.000756 0.000016 0.004583 0.024001 -0.011589 0.002192
# 5 0.002142 0.000926 -0.003706 -0.011589 0.033796 0.001654
# 6 -0.003914 0.003969 -0.004328 0.002192 0.001654 0.036234
#
#
# Mechanical properties :
#
#
# Convention : Reuss Voigt Hill
#
# Bulk Modulus (GPa) = 53.87478 66.37880 60.12679
# Shear Modulus (GPa) = 34.79097 46.22534 40.50815
#
# Velocity S-wave (km/s) = 3.56404 4.10818 3.84574
# Velocity P-wave (km/s) = 6.05032 6.83652 6.45540
#
# Compressibility (1/GPa) = 0.01856156
#
# Stress axis : x y z
#
# Youngs Moduli (GPa) = 70.94490 172.97129 89.66187
#
# Poissons Ratio (x) = 0.06966 0.30340
# Poissons Ratio (y) = 0.02857 0.21945
# Poissons Ratio (z) = 0.24006 0.42336
#
# Static dielectric constant tensor:
#      x y z
#    x 2.074670 0.010550 -0.140370 
#    y 0.010550 2.252200 -0.057660 
#    z -0.140370 -0.057660 1.994030 
# 
# From -- ./inp_files/54422.got.cif
#   From: 2010.05.17/outbox.cif.g08.bks.cpg/sg2_28_cif.got.tgz:54422.got - 2010.06.03 11:33:40.
