data_PCOD9084665
_publ_section_title
;
Structure prediction by ZEFSAII (Michael W. Deem and Ramdas Pophale) SiO2 
 PCOD9084665
Probable space group: P -1
;
_chemical_formula_sum "Si O2"
_cell_formula_units_Z 16
_cell_length_a 14.234472
_cell_length_b 14.708148
_cell_length_c 5.945444
_cell_angle_alpha 107.266108
_cell_angle_beta 102.703916
_cell_angle_gamma 37.188649
_cell_volume 718.180968
_symmetry_space_group_name_H-M "P -1"
_symmetry_group_IT_number 2
_symmetry_cell_setting 'triclinic'
loop_
_space_group_symop_operation_xyz
x,y,z
-x,-y,-z
loop_
_atom_site_type_symbol
_atom_site_label
_atom_site_fract_x
_atom_site_fract_y
_atom_site_fract_z
Si Si1 0.669124 0.362405 0.372786
Si Si2 0.290567 0.492648 0.797794
Si Si3 0.456578 0.184455 0.544111
Si Si4 0.627747 0.906003 0.194521
Si Si5 0.911505 0.283129 0.760828
Si Si6 0.175077 0.323277 0.226542
Si Si7 0.998331 0.640816 0.469717
Si Si8 0.931756 0.018922 0.224573
O O1 0.500000 0.500000 0.500000
O O2 0.668920 0.431881 0.205566
O O3 0.793994 0.314254 0.568020
O O4 0.752149 0.195471 0.253639
O O5 0.435238 0.308784 0.706293
O O6 0.151576 0.557617 0.622304
O O7 0.208336 0.559659 0.044570
O O8 0.413637 0.146542 0.695485
O O9 0.324601 0.265801 0.348041
O O10 0.610398 0.020724 0.393737
O O11 0.784711 0.757673 0.042890
O O12 0.500000 0.000000 0.000000
O O13 0.019604 0.262672 0.647119
O O14 0.018398 0.130359 0.852212
O O15 0.039113 0.506009 0.289171
O O16 0.134321 0.276123 0.357467
O O17 0.000000 0.000000 0.500000
O O18 0.000000 0.000000 0.000000
#
# Coordination Sequence:
#
# PCOD9084665 Si02
#       8
#     2   2   2   2   2   2   2   2
#     4  10  22  40  61  89 116 151 198 251 308 374
#     4  10  19  35  56  79 109 142 191 239 300 351
#     4   9  18  31  53  75 105 146 191 231 282 352
#     4   9  17  31  49  71 105 152 186 228 286 343
#     4  10  20  36  62  85 117 155 196 245 307 371
#     4   9  17  32  51  77 112 146 193 235 288 337
#     4   9  19  32  52  83 111 146 192 246 283 354
#     4  10  20  40  66  92 122 163 202 251 320 382
#
# _framework density 22.278506
#
# number of rings (size 3 to 8) (size 9 to 14) (size 15 to 20)
#    0.000    2.500    1.250    0.750    0.000    2.500 
#    0.000    8.750    0.000    0.000    0.000    0.000 
#    0.000    0.000    0.000    0.000    0.000    0.000 
#
# Total GULP energy -89121.949755 kJ/mol
# GULP energy per Si atom -5570.121860 kJ/mol
# Density = 2.222780 g / cm^3
# Si number density = 22.278506 Si / 1000 Ang^3
#
#
#
# Elastic Constant Matrix: (Units=GPa)
#
#
# Indices 1 2 3 4 5 6 
#
# 1 45.3963 14.7671 10.8992 3.7406 -14.7200 1.5219
# 2 14.7671 102.9050 39.0841 14.4420 -11.5046 14.6827
# 3 10.8992 39.0841 98.2077 25.7613 -22.2393 8.3528
# 4 3.7406 14.4420 25.7613 38.4442 -8.9122 -1.1759
# 5 -14.7200 -11.5046 -22.2393 -8.9122 30.9193 -0.7136
# 6 1.5219 14.6827 8.3528 -1.1759 -0.7136 34.8605
#
#
#
# Elastic Compliance Matrix: (Units=1/GPa)
#
#
# Indices 1 2 3 4 5 6 
#
# 1 0.026746 -0.002875 0.000759 0.000862 0.012461 0.000146
# 2 -0.002875 0.012442 -0.003765 -0.002033 -0.000132 -0.004284
# 3 0.000759 -0.003765 0.015496 -0.007267 0.007960 -0.002243
# 4 0.000862 -0.002033 -0.007267 0.032580 0.003905 0.003739
# 5 0.012461 -0.000132 0.007960 0.003905 0.045046 -0.001342
# 6 0.000146 -0.004284 -0.002243 0.003739 -0.001342 0.031120
#
#
# Mechanical properties :
#
#
# Convention : Reuss Voigt Hill
#
# Bulk Modulus (GPa) = 23.29762 41.77887 32.53825
# Shear Modulus (GPa) = 26.38544 32.96204 29.67374
#
# Velocity S-wave (km/s) = 3.44516 3.85066 3.65354
# Velocity P-wave (km/s) = 5.12891 6.20998 5.69515
#
# Compressibility (1/GPa) = 0.04292284
#
# Stress axis : x y z
#
# Youngs Moduli (GPa) = 37.38888 80.37302 64.53300
#
# Poissons Ratio (x) = 0.23108 -0.04900
# Poissons Ratio (y) = 0.10750 0.24295
# Poissons Ratio (z) = -0.02839 0.30258
#
# Static dielectric constant tensor:
#      x y z
#    x 1.806930 -0.002510 0.014320 
#    y -0.002510 1.899360 0.026170 
#    z 0.014320 0.026170 1.910940 
# 
# From -- ./inp_files/97173.got.cif
#   From: 2010.05.17/outbox.cif.g08.bks.cpg/sg2_49_cif.got.tgz:97173.got - 2010.06.03 11:33:40.
