data_PCOD9084329
_publ_section_title
;
Structure prediction by ZEFSAII (Michael W. Deem and Ramdas Pophale) SiO2 
 PCOD9084329
Probable space group: P -1
;
_chemical_formula_sum "Si O2"
_cell_formula_units_Z 16
_cell_length_a 9.634864
_cell_length_b 8.869429
_cell_length_c 19.821809
_cell_angle_alpha 88.956767
_cell_angle_beta 137.153937
_cell_angle_gamma 118.876634
_cell_volume 832.915393
_symmetry_space_group_name_H-M "P -1"
_symmetry_group_IT_number 2
_symmetry_cell_setting 'triclinic'
loop_
_space_group_symop_operation_xyz
x,y,z
-x,-y,-z
loop_
_atom_site_type_symbol
_atom_site_label
_atom_site_fract_x
_atom_site_fract_y
_atom_site_fract_z
Si Si1 0.348526 0.793622 0.081788
Si Si2 0.796873 0.684997 0.568430
Si Si3 0.912269 0.783280 0.969493
Si Si4 0.398529 0.507417 0.891615
Si Si5 0.143893 0.163744 0.705028
Si Si6 0.141786 0.430941 0.176241
Si Si7 0.207351 0.755186 0.815712
Si Si8 0.230645 0.246844 0.589929
O O1 0.566027 0.786444 0.188644
O O2 0.904043 0.405148 0.051473
O O3 0.186791 0.817181 0.077062
O O4 0.525876 0.997108 0.095533
O O5 0.500000 0.500000 0.500000
O O6 0.783091 0.658984 0.482813
O O7 0.032395 0.698678 0.685823
O O8 0.901598 0.911693 0.618305
O O9 0.663333 0.632943 0.934310
O O10 0.818985 0.686579 0.861475
O O11 0.000000 0.000000 0.000000
O O12 0.159090 0.278899 0.774355
O O13 0.299968 0.630191 0.857867
O O14 0.500000 0.500000 0.000000
O O15 0.160253 0.266271 0.640407
O O16 0.449426 0.653547 0.296612
O O17 0.999497 0.310167 0.196038
O O18 0.000000 0.000000 0.500000
#
# Coordination Sequence:
#
# PCOD9084329 Si02
#       8
#     2   2   2   2   2   2   2   2
#     4   9  20  34  63  92 120 161 208 239 320 378
#     4  10  21  40  63  86 115 167 223 251 295 367
#     4  10  21  38  60  87 131 162 200 245 310 387
#     4  12  24  39  59  97 137 157 196 262 324 369
#     4  10  21  39  62  90 124 162 202 263 307 366
#     4  10  19  34  63  86 123 161 202 245 313 368
#     4  11  21  38  62  94 127 161 208 257 308 373
#     4  10  20  37  62  86 115 159 218 256 293 356
#
# _framework density 19.209634999999999
#
# number of rings (size 3 to 8) (size 9 to 14) (size 15 to 20)
#    0.750    1.000    3.750    1.125    0.000    6.000 
#    0.000    1.250    0.000    0.000    0.000    0.000 
#    0.000    0.000    0.000    0.000    0.000    0.000 
#
# Total GULP energy -89145.172236 kJ/mol
# GULP energy per Si atom -5571.573265 kJ/mol
# Density = 1.916591 g / cm^3
# Si number density = 19.209635 Si / 1000 Ang^3
#
#
#
# Elastic Constant Matrix: (Units=GPa)
#
#
# Indices 1 2 3 4 5 6 
#
# 1 85.6219 49.8324 32.2839 -1.5478 -12.5782 17.7623
# 2 49.8324 115.3334 47.4162 -1.7330 -7.1811 13.9730
# 3 32.2839 47.4162 106.2660 0.1978 -7.1484 14.5924
# 4 -1.5478 -1.7330 0.1978 40.1900 13.0019 1.5927
# 5 -12.5782 -7.1811 -7.1484 13.0019 35.0203 -0.1854
# 6 17.7623 13.9730 14.5924 1.5927 -0.1854 30.2269
#
#
#
# Elastic Compliance Matrix: (Units=1/GPa)
#
#
# Indices 1 2 3 4 5 6 
#
# 1 0.017908 -0.005982 -0.001461 -0.000978 0.005234 -0.006970
# 2 -0.005982 0.012906 -0.003893 0.000530 -0.000497 -0.000602
# 3 -0.001461 -0.003893 0.012116 -0.000597 0.001355 -0.003152
# 4 -0.000978 0.000530 -0.000597 0.028443 -0.010930 -0.000948
# 5 0.005234 -0.000497 0.001355 -0.010930 0.034653 -0.002712
# 6 -0.006970 -0.000602 -0.003152 -0.000948 -0.002712 0.039012
#
#
# Mechanical properties :
#
#
# Convention : Reuss Voigt Hill
#
# Bulk Modulus (GPa) = 49.35917 62.92069 56.13993
# Shear Modulus (GPa) = 28.65960 32.93337 30.79649
#
# Velocity S-wave (km/s) = 3.86675 4.14505 4.00832
# Velocity P-wave (km/s) = 6.75918 7.46555 7.12113
#
# Compressibility (1/GPa) = 0.02025966
#
# Stress axis : x y z
#
# Youngs Moduli (GPa) = 55.83989 77.48628 82.53439
#
# Poissons Ratio (x) = 0.46350 0.12055
# Poissons Ratio (y) = 0.33401 0.32130
# Poissons Ratio (z) = 0.08156 0.30165
#
# Static dielectric constant tensor:
#      x y z
#    x 1.667400 0.023590 -0.019940 
#    y 0.023590 1.692330 -0.001170 
#    z -0.019940 -0.001170 1.737340 
# 
# From -- ./inp_files/557280.got.cif
#   From: 2010.05.17/outbox.cif.g08.bks.cpg/sg2_279_cif.got.tgz:557280.got - 2010.06.03 11:33:40.
