data_PCOD9084362
_publ_section_title
;
Structure prediction by ZEFSAII (Michael W. Deem and Ramdas Pophale) SiO2 
 PCOD9084362
Probable space group: P -1
;
_chemical_formula_sum "Si O2"
_cell_formula_units_Z 16
_cell_length_a 8.612933
_cell_length_b 7.139173
_cell_length_c 11.781797
_cell_angle_alpha 99.159067
_cell_angle_beta 83.107637
_cell_angle_gamma 64.931659
_cell_volume 633.453395
_symmetry_space_group_name_H-M "P -1"
_symmetry_group_IT_number 2
_symmetry_cell_setting 'triclinic'
loop_
_space_group_symop_operation_xyz
x,y,z
-x,-y,-z
loop_
_atom_site_type_symbol
_atom_site_label
_atom_site_fract_x
_atom_site_fract_y
_atom_site_fract_z
Si Si1 0.001753 0.669646 0.206222
Si Si2 0.162417 0.596812 0.405930
Si Si3 0.461235 0.678959 0.659597
Si Si4 0.901102 0.824072 0.636024
Si Si5 0.634170 0.878635 0.198842
Si Si6 0.438649 0.843815 0.426119
Si Si7 0.120372 0.700605 0.804092
Si Si8 0.685654 0.493479 0.008473
O O1 0.031872 0.735659 0.333369
O O2 0.182911 0.569112 0.114577
O O3 0.832300 0.853155 0.182258
O O4 0.935326 0.489974 0.207590
O O5 0.361851 0.535026 0.352126
O O6 0.155502 0.368992 0.382988
O O7 0.081705 0.717517 0.539551
O O8 0.451461 0.715757 0.528940
O O9 0.289875 0.667180 0.715133
O O10 0.475347 0.869173 0.748014
O O11 0.951265 0.869848 0.762799
O O12 0.752451 0.018758 0.600130
O O13 0.571400 0.780277 0.300332
O O14 0.637375 0.732430 0.079698
O O15 0.500000 0.000000 0.500000
O O16 0.194615 0.681831 0.924183
O O17 0.500000 0.500000 0.000000
#
# Coordination Sequence:
#
# PCOD9084362 Si02
#       8
#     2   2   2   2   2   2   2   2
#     4  10  22  44  68  87 127 174 218 266 321 389
#     4  10  19  34  63  93 129 171 218 257 316 382
#     4  11  22  37  63 103 138 165 212 267 323 390
#     4  10  20  36  60  93 134 177 207 261 321 391
#     4  10  21  41  67  93 128 175 211 270 326 376
#     4  10  19  37  62  94 139 175 206 255 329 389
#     4  10  23  40  64  95 133 164 222 264 322 379
#     4  11  24  48  71  92 119 173 229 270 319 394
#
# _framework density 25.258372000000001
#
# number of rings (size 3 to 8) (size 9 to 14) (size 15 to 20)
#    0.000    1.750    2.500    3.750    5.250    1.000 
#    4.500    5.000    2.750    0.000    0.000    0.000 
#    0.000    0.000    0.000    0.000    0.000    0.000 
#
# Total GULP energy -89291.726272 kJ/mol
# GULP energy per Si atom -5580.732892 kJ/mol
# Density = 2.520088 g / cm^3
# Si number density = 25.258372 Si / 1000 Ang^3
#
#
#
# Elastic Constant Matrix: (Units=GPa)
#
#
# Indices 1 2 3 4 5 6 
#
# 1 125.9803 15.7530 23.1273 -1.5594 -10.1218 -18.7648
# 2 15.7530 107.4431 3.5890 2.2341 11.2191 -10.4208
# 3 23.1273 3.5890 67.3653 7.0520 1.6329 2.2058
# 4 -1.5594 2.2341 7.0520 37.1086 -7.7549 -2.6923
# 5 -10.1218 11.2191 1.6329 -7.7549 58.9813 -8.3681
# 6 -18.7648 -10.4208 2.2058 -2.6923 -8.3681 35.8649
#
#
#
# Elastic Compliance Matrix: (Units=1/GPa)
#
#
# Indices 1 2 3 4 5 6 
#
# 1 0.009980 -0.001129 -0.003886 0.002334 0.003201 0.006055
# 2 -0.001129 0.009867 -0.000053 -0.000909 -0.001939 0.001759
# 3 -0.003886 -0.000053 0.016792 -0.004097 -0.002215 -0.003906
# 4 0.002334 -0.000909 -0.004097 0.029300 0.005195 0.004621
# 5 0.003201 -0.001939 -0.002215 0.005195 0.019495 0.006186
# 6 0.006055 0.001759 -0.003906 0.004621 0.006186 0.033592
#
#
# Mechanical properties :
#
#
# Convention : Reuss Voigt Hill
#
# Bulk Modulus (GPa) = 37.73432 42.85859 40.29646
# Shear Modulus (GPa) = 36.23261 43.61225 39.92243
#
# Velocity S-wave (km/s) = 3.79156 4.15980 3.97994
# Velocity P-wave (km/s) = 5.84292 6.33063 6.09165
#
# Compressibility (1/GPa) = 0.02650107
#
# Stress axis : x y z
#
# Youngs Moduli (GPa) = 100.19691 101.35295 59.55198
#
# Poissons Ratio (x) = 0.11443 0.23144
# Poissons Ratio (y) = 0.11312 0.00319
# Poissons Ratio (z) = 0.38941 0.00542
#
# Static dielectric constant tensor:
#      x y z
#    x 2.054770 0.106080 0.056130 
#    y 0.106080 2.177530 -0.008710 
#    z 0.056130 -0.008710 1.938650 
# 
# From -- ./inp_files/379552.got.cif
#   From: 2010.05.17/outbox.cif.g08.bks.cpg/sg2_190_cif.got.tgz:379552.got - 2010.06.03 11:33:40.
