data_PCOD9084659
_publ_section_title
;
Structure prediction by ZEFSAII (Michael W. Deem and Ramdas Pophale) SiO2 
 PCOD9084659
Probable space group: P -1
;
_chemical_formula_sum "Si O2"
_cell_formula_units_Z 14
_cell_length_a 13.898195
_cell_length_b 25.275019
_cell_length_c 6.421597
_cell_angle_alpha 136.255735
_cell_angle_beta 50.277819
_cell_angle_gamma 156.814580
_cell_volume 611.476778
_symmetry_space_group_name_H-M "P -1"
_symmetry_group_IT_number 2
_symmetry_cell_setting 'triclinic'
loop_
_space_group_symop_operation_xyz
x,y,z
-x,-y,-z
loop_
_atom_site_type_symbol
_atom_site_label
_atom_site_fract_x
_atom_site_fract_y
_atom_site_fract_z
Si Si1 0.510385 0.163867 0.992710
Si Si2 0.301619 0.939854 0.963532
Si Si3 0.037628 0.440513 0.157640
Si Si4 0.856128 0.622417 0.810180
Si Si5 0.668868 0.687351 0.370704
Si Si6 0.160950 0.008044 0.646697
Si Si7 0.577451 0.744702 0.294236
O O1 0.414340 0.036329 0.875652
O O2 0.350258 0.097248 0.824449
O O3 0.471749 0.214481 0.349689
O O4 0.801554 0.308682 0.962701
O O5 0.066214 0.761117 0.758034
O O6 0.212710 0.965039 0.295477
O O7 0.500000 0.000000 0.000000
O O8 0.033912 0.374272 0.154957
O O9 0.314045 0.589258 0.111349
O O10 0.000000 0.500000 0.500000
O O11 0.613006 0.456430 0.576378
O O12 0.754108 0.644560 0.130795
O O13 0.660047 0.714171 0.221572
O O14 0.877764 0.848151 0.645824
O O15 0.220316 0.114828 0.737578
#
# Coordination Sequence:
#
# PCOD9084659 Si02
#       7
#     2   2   2   2   2   2   2
#     4  10  20  34  54  85 110 138 178 223 269 319
#     4  10  19  35  56  78 109 145 175 214 273 319
#     4   9  17  32  55  79 107 140 178 215 272 321
#     4   9  17  33  57  78 104 144 181 221 261 321
#     4   9  18  34  55  78 106 145 185 213 267 318
#     4  10  21  34  54  84 109 140 180 223 266 315
#     4   9  19  35  56  77 106 149 179 218 265 318
#
# _framework density 22.895389999999999
#
# number of rings (size 3 to 8) (size 9 to 14) (size 15 to 20)
#    0.000    2.571    1.429    0.429    0.000    1.714 
#    0.000    0.714    0.000    0.000    0.000    0.000 
#    0.000    0.000    0.000    0.000    0.000    0.000 
#
# Total GULP energy -78212.640862 kJ/mol
# GULP energy per Si atom -5586.617204 kJ/mol
# Density = 2.284328 g / cm^3
# Si number density = 22.895390 Si / 1000 Ang^3
#
#
#
# Elastic Constant Matrix: (Units=GPa)
#
#
# Indices 1 2 3 4 5 6 
#
# 1 128.2102 32.4880 21.9221 21.5526 -4.0515 -1.8855
# 2 32.4880 113.7712 50.4261 60.5037 10.4940 8.2062
# 3 21.9221 50.4261 55.0615 6.0604 11.2483 4.8231
# 4 21.5526 60.5037 6.0604 29.3743 17.2784 3.6469
# 5 -4.0515 10.4940 11.2483 17.2784 29.2908 16.7641
# 6 -1.8855 8.2062 4.8231 3.6469 16.7641 41.8218
#
#
#
# Elastic Compliance Matrix: (Units=1/GPa)
#
#
# Indices 1 2 3 4 5 6 
#
# 1 0.008216 -0.004965 0.000820 0.004178 -0.000482 0.001079
# 2 -0.004965 -0.006551 0.008790 0.027024 -0.021198 0.006189
# 3 0.000820 0.008790 0.010811 -0.027334 0.012007 -0.005364
# 4 0.004178 0.027024 -0.027334 -0.033601 0.026811 -0.009779
# 5 -0.000482 -0.021198 0.012007 0.026811 0.027258 -0.010511
# 6 0.001079 0.006189 -0.005364 -0.009779 -0.010511 0.028430
#
#
# Mechanical properties :
#
#
# Convention : Reuss Voigt Hill
#
# Bulk Modulus (GPa) = 45.94358 56.30171 51.12265
# Shear Modulus (GPa) = 153.72226 32.91115 93.31670
#
# Velocity S-wave (km/s) = 8.20286 3.79549 6.39111
# Velocity P-wave (km/s) = 10.47980 6.62208 8.76579
#
# Compressibility (1/GPa) = 0.02176582
#
# Stress axis : x y z
#
# Youngs Moduli (GPa) = 121.71570 -152.64347 92.50251
#
# Poissons Ratio (x) = -0.75782 -0.07582
# Poissons Ratio (y) = 0.60427 -0.81312
# Poissons Ratio (z) = -0.09977 1.34178
#
# Static dielectric constant tensor:
#      x y z
#    x 1.805270 0.031060 -0.023800 
#    y 0.031060 1.897710 0.049790 
#    z -0.023800 0.049790 1.837630 
# 
# From -- ./inp_files/66157.got.cif
#   From: 2010.05.17/outbox.cif.g08.bks.cpg/sg2_34_cif.got.tgz:66157.got - 2010.06.03 11:33:40.
