data_PCOD9084618
_publ_section_title
;
Structure prediction by ZEFSAII (Michael W. Deem and Ramdas Pophale) SiO2 
 PCOD9084618
Probable space group: P -1
;
_chemical_formula_sum "Si O2"
_cell_formula_units_Z 16
_cell_length_a 4.776173
_cell_length_b 13.618037
_cell_length_c 9.467312
_cell_angle_alpha 77.711962
_cell_angle_beta 95.648878
_cell_angle_gamma 101.884397
_cell_volume 587.808995
_symmetry_space_group_name_H-M "P -1"
_symmetry_group_IT_number 2
_symmetry_cell_setting 'triclinic'
loop_
_space_group_symop_operation_xyz
x,y,z
-x,-y,-z
loop_
_atom_site_type_symbol
_atom_site_label
_atom_site_fract_x
_atom_site_fract_y
_atom_site_fract_z
Si Si1 0.359706 0.355154 0.094158
Si Si2 0.849591 0.244339 0.473314
Si Si3 0.730996 0.837021 0.664275
Si Si4 0.251174 0.185193 0.728137
Si Si5 0.315833 0.652415 0.174054
Si Si6 0.509748 0.001879 0.757842
Si Si7 0.323208 0.861202 0.034330
Si Si8 0.941074 0.437382 0.238071
O O1 0.313146 0.237220 0.178097
O O2 0.085562 0.399320 0.115888
O O3 0.482946 0.369073 0.939065
O O4 0.608587 0.417231 0.189011
O O5 0.971930 0.170629 0.390392
O O6 0.970355 0.214075 0.637133
O O7 0.973661 0.358902 0.389978
O O8 0.513977 0.220924 0.435601
O O9 0.670707 0.947277 0.667867
O O10 0.315953 0.913835 0.869373
O O11 0.479809 0.293373 0.707275
O O12 0.329894 0.087128 0.679197
O O13 0.348553 0.150396 0.900316
O O14 0.164279 0.745111 0.081053
O O15 0.095294 0.552603 0.238185
O O16 0.732125 0.062287 0.867479
#
# Coordination Sequence:
#
# PCOD9084618 Si02
#       8
#     2   2   2   2   2   2   2   2
#     4  10  19  35  55  84 107 138 180 220 269 318
#     4  10  22  36  53  83 109 143 182 217 258 326
#     4  10  19  36  58  77 111 142 177 223 268 306
#     4   8  18  33  53  81 107 145 182 218 265 322
#     4   9  17  32  56  79 109 144 175 223 271 314
#     4   8  14  32  59  80 108 139 180 226 268 314
#     4   7  15  30  57  83 107 139 182 220 269 320
#     4  10  21  34  56  81 112 139 176 222 264 318
#
# _framework density 27.219726000000001
#
# number of rings (size 3 to 8) (size 9 to 14) (size 15 to 20)
#    1.500    1.250    1.250    0.750    0.000    1.500 
#    0.000    2.500    0.000   12.000    0.000    0.000 
#    0.000    0.000    0.000    0.000    0.000    0.000 
#
# Total GULP energy -89476.752866 kJ/mol
# GULP energy per Si atom -5592.297054 kJ/mol
# Density = 2.715777 g / cm^3
# Si number density = 27.219726 Si / 1000 Ang^3
#
#
#
# Elastic Constant Matrix: (Units=GPa)
#
#
# Indices 1 2 3 4 5 6 
#
# 1 85.4741 16.3125 22.2373 -6.1254 19.0448 5.0089
# 2 16.3125 141.2261 46.3147 -16.6856 12.9215 -10.3738
# 3 22.2373 46.3147 124.3682 -16.8258 8.1130 -6.1464
# 4 -6.1254 -16.6856 -16.8258 35.0643 4.1761 10.0418
# 5 19.0448 12.9215 8.1130 4.1761 28.6374 -4.1244
# 6 5.0089 -10.3738 -6.1464 10.0418 -4.1244 32.7879
#
#
#
# Elastic Compliance Matrix: (Units=1/GPa)
#
#
# Indices 1 2 3 4 5 6 
#
# 1 0.015286 -0.000056 -0.001609 0.004786 -0.011179 -0.005526
# 2 -0.000056 0.008662 -0.002532 0.003052 -0.003469 0.000904
# 3 -0.001609 -0.002532 0.009790 0.003293 -0.001021 0.000143
# 4 0.004786 0.003052 0.003293 0.037393 -0.012702 -0.012199
# 5 -0.011179 -0.003469 -0.001021 -0.012702 0.047542 0.010290
# 6 -0.005526 0.000904 0.000143 -0.012199 0.010290 0.036686
#
#
# Mechanical properties :
#
#
# Convention : Reuss Voigt Hill
#
# Bulk Modulus (GPa) = 39.45490 57.86638 48.66064
# Shear Modulus (GPa) = 29.03566 37.04486 33.04026
#
# Velocity S-wave (km/s) = 3.26960 3.69312 3.48779
# Velocity P-wave (km/s) = 5.36471 6.28416 5.84255
#
# Compressibility (1/GPa) = 0.02534539
#
# Stress axis : x y z
#
# Youngs Moduli (GPa) = 65.41816 115.44803 102.14163
#
# Poissons Ratio (x) = 0.00643 0.16433
# Poissons Ratio (y) = 0.00365 0.25862
# Poissons Ratio (z) = 0.10525 0.29231
#
# Static dielectric constant tensor:
#      x y z
#    x 2.152860 0.012370 -0.093400 
#    y 0.012370 2.148570 0.011110 
#    z -0.093400 0.011110 2.152050 
# 
# From -- ./inp_files/367729.got.cif
#   From: 2010.05.17/outbox.cif.g08.bks.cpg/sg2_184_cif.got.tgz:367729.got - 2010.06.03 11:33:40.
