data_PCOD9084254
_publ_section_title
;
Structure prediction by ZEFSAII (Michael W. Deem and Ramdas Pophale) SiO2 
 PCOD9084254
Probable space group: P -1
;
_chemical_formula_sum "Si O2"
_cell_formula_units_Z 16
_cell_length_a 8.393293
_cell_length_b 8.710869
_cell_length_c 16.298093
_cell_angle_alpha 68.274060
_cell_angle_beta 137.465084
_cell_angle_gamma 120.868563
_cell_volume 691.393195
_symmetry_space_group_name_H-M "P -1"
_symmetry_group_IT_number 2
_symmetry_cell_setting 'triclinic'
loop_
_space_group_symop_operation_xyz
x,y,z
-x,-y,-z
loop_
_atom_site_type_symbol
_atom_site_label
_atom_site_fract_x
_atom_site_fract_y
_atom_site_fract_z
Si Si1 0.576028 0.198107 0.957837
Si Si2 0.443487 0.062933 0.760271
Si Si3 0.756920 0.446646 0.342370
Si Si4 0.327841 0.444691 0.866093
Si Si5 0.414268 0.247291 0.401206
Si Si6 0.438368 0.935234 0.374516
Si Si7 0.011446 0.213569 0.543199
Si Si8 0.089142 0.684382 0.785547
O O1 0.594900 0.187373 0.868890
O O2 0.345800 0.260954 0.881943
O O3 0.816542 0.307456 0.085128
O O4 0.500000 0.000000 0.000000
O O5 0.232251 0.139223 0.633806
O O6 0.607154 0.071583 0.738678
O O7 0.293627 0.862641 0.781253
O O8 0.571117 0.428715 0.199929
O O9 0.592751 0.378964 0.375086
O O10 0.916704 0.655235 0.377181
O O11 0.943066 0.338860 0.426321
O O12 0.090057 0.498030 0.787008
O O13 0.500000 0.500000 0.000000
O O14 0.315824 0.055714 0.353218
O O15 0.180326 0.299496 0.324832
O O16 0.577326 0.234533 0.544569
O O17 0.742757 0.051394 0.477412
#
# Coordination Sequence:
#
# PCOD9084254 Si02
#       8
#     2   2   2   2   2   2   2   2
#     4   9  20  37  61  90 114 147 202 257 288 342
#     4  11  19  36  64  87 115 158 213 244 284 357
#     4  10  21  36  59  88 124 156 193 252 302 347
#     4  10  20  38  62  88 115 154 206 245 287 355
#     4  10  21  37  56  88 126 156 192 249 308 352
#     4  10  21  35  60  86 120 163 202 241 294 359
#     4  10  19  34  62  84 115 160 204 241 285 355
#     4  10  20  35  64  90 116 159 202 247 298 353
#
# _framework density 23.141680999999998
#
# number of rings (size 3 to 8) (size 9 to 14) (size 15 to 20)
#    0.000    2.000    2.500    1.875    1.750    0.000 
#    0.000    3.750   11.000    0.000    0.000    0.000 
#    0.000    0.000    0.000    0.000    0.000    0.000 
#
# Total GULP energy -89157.720384 kJ/mol
# GULP energy per Si atom -5572.357524 kJ/mol
# Density = 2.308901 g / cm^3
# Si number density = 23.141681 Si / 1000 Ang^3
#
#
#
# Elastic Constant Matrix: (Units=GPa)
#
#
# Indices 1 2 3 4 5 6 
#
# 1 81.6032 38.9427 47.7811 -10.7841 -14.7906 -30.4741
# 2 38.9427 67.4857 44.1749 -13.7895 -0.7180 -25.6703
# 3 47.7811 44.1749 135.5719 -16.8143 -31.5126 -11.0582
# 4 -10.7841 -13.7895 -16.8143 32.9251 -17.0904 8.8016
# 5 -14.7906 -0.7180 -31.5126 -17.0904 44.7977 -6.1171
# 6 -30.4741 -25.6703 -11.0582 8.8016 -6.1171 40.7277
#
#
#
# Elastic Compliance Matrix: (Units=1/GPa)
#
#
# Indices 1 2 3 4 5 6 
#
# 1 0.024448 -0.005779 -0.002356 0.006057 0.010584 0.014291
# 2 -0.005779 0.026306 -0.006751 0.000698 -0.004662 0.009572
# 3 -0.002356 -0.006751 0.014851 0.011761 0.013710 -0.002469
# 4 0.006057 0.000698 0.011761 0.054596 0.031258 0.001062
# 5 0.010584 -0.004662 0.013710 0.031258 0.048574 0.009244
# 6 0.014291 0.009572 -0.002469 0.001062 0.009244 0.041769
#
#
# Mechanical properties :
#
#
# Convention : Reuss Voigt Hill
#
# Bulk Modulus (GPa) = 27.90816 60.71757 44.31286
# Shear Modulus (GPa) = 19.82094 33.94091 26.88093
#
# Velocity S-wave (km/s) = 2.92978 3.83385 3.41189
# Velocity P-wave (km/s) = 4.85085 6.77438 5.89164
#
# Compressibility (1/GPa) = 0.03583182
#
# Stress axis : x y z
#
# Youngs Moduli (GPa) = 40.90382 38.01415 67.33753
#
# Poissons Ratio (x) = 0.21967 0.15867
# Poissons Ratio (y) = 0.23637 0.45461
# Poissons Ratio (z) = 0.09638 0.25664
#
# Static dielectric constant tensor:
#      x y z
#    x 1.913970 0.006820 -0.049180 
#    y 0.006820 1.985010 0.034530 
#    z -0.049180 0.034530 1.940560 
# 
# From -- ./inp_files/332223.got.cif
#   From: 2010.05.17/outbox.cif.g08.bks.cpg/sg2_167_cif.got.tgz:332223.got - 2010.06.03 11:33:40.
