data_PCOD9084606
_publ_section_title
;
Structure prediction by ZEFSAII (Michael W. Deem and Ramdas Pophale) SiO2 
 PCOD9084606
Probable space group: P -1
;
_chemical_formula_sum "Si O2"
_cell_formula_units_Z 16
_cell_length_a 14.501374
_cell_length_b 9.343323
_cell_length_c 17.227562
_cell_angle_alpha 130.043477
_cell_angle_beta 24.502735
_cell_angle_gamma 115.720818
_cell_volume 651.376357
_symmetry_space_group_name_H-M "P -1"
_symmetry_group_IT_number 2
_symmetry_cell_setting 'triclinic'
loop_
_space_group_symop_operation_xyz
x,y,z
-x,-y,-z
loop_
_atom_site_type_symbol
_atom_site_label
_atom_site_fract_x
_atom_site_fract_y
_atom_site_fract_z
Si Si1 0.574778 0.313709 0.472826
Si Si2 0.441205 0.281789 0.718744
Si Si3 0.496497 0.322973 0.132345
Si Si4 0.737545 0.525475 0.796513
Si Si5 0.579525 0.870827 0.154378
Si Si6 0.880450 0.480298 0.217164
Si Si7 0.415743 0.278991 0.343912
Si Si8 0.028194 0.948112 0.551350
O O1 0.613279 0.179072 0.474636
O O2 0.808102 0.296790 0.235926
O O3 0.344655 0.355160 0.607484
O O4 0.487199 0.549268 0.658508
O O5 0.414992 0.148636 0.764091
O O6 0.513520 0.449082 0.763683
O O7 0.155589 0.399727 0.946095
O O8 0.356858 0.345065 0.165839
O O9 0.385790 0.262080 0.270514
O O10 0.785059 0.138653 0.842578
O O11 0.943813 0.284988 0.538389
O O12 0.500000 0.500000 0.000000
O O13 0.772411 0.660773 0.885726
O O14 0.293867 0.926281 0.368946
O O15 0.606114 0.062750 0.163842
O O16 0.844913 0.612198 0.370083
O O17 0.000000 0.000000 0.500000
#
# Coordination Sequence:
#
# PCOD9084606 Si02
#       8
#     2   2   2   2   2   2   2   2
#     4   8  19  38  62  86 118 150 202 240 295 377
#     4  11  19  35  64  89 116 157 202 243 293 356
#     4  11  20  38  58  85 118 161 202 242 295 350
#     4  10  19  35  55  81 121 154 204 250 283 354
#     4  11  21  37  54  86 122 146 211 245 285 362
#     4   9  18  38  65  83 117 156 194 242 309 349
#     4   9  21  37  56  84 119 149 196 251 288 357
#     4  11  19  35  60  79 112 167 200 239 303 334
#
# _framework density 24.563372000000001
#
# number of rings (size 3 to 8) (size 9 to 14) (size 15 to 20)
#    0.750    1.250    5.000    1.125    0.000    0.500 
#    4.500    1.875    0.000    0.000    0.000    0.000 
#    0.000    0.000    0.000    0.000    0.000    0.000 
#
# Total GULP energy -89306.514285 kJ/mol
# GULP energy per Si atom -5581.657143 kJ/mol
# Density = 2.450747 g / cm^3
# Si number density = 24.563372 Si / 1000 Ang^3
#
#
#
# Elastic Constant Matrix: (Units=GPa)
#
#
# Indices 1 2 3 4 5 6 
#
# 1 92.7397 16.6732 18.4772 -7.9675 0.2371 -30.0939
# 2 16.6732 74.8438 6.9959 1.8083 5.3345 -23.8643
# 3 18.4772 6.9959 44.7743 -1.8821 -2.3037 2.0764
# 4 -7.9675 1.8083 -1.8821 35.3332 -4.6151 0.0260
# 5 0.2371 5.3345 -2.3037 -4.6151 24.5066 -9.7361
# 6 -30.0939 -23.8643 2.0764 0.0260 -9.7361 38.4346
#
#
#
# Elastic Compliance Matrix: (Units=1/GPa)
#
#
# Indices 1 2 3 4 5 6 
#
# 1 0.018000 0.001646 -0.007970 0.004368 0.006356 0.017154
# 2 0.001646 0.017287 -0.003949 -0.000647 0.000655 0.012402
# 3 -0.007970 -0.003949 0.026672 -0.000258 -0.000701 -0.010311
# 4 0.004368 -0.000647 -0.000258 0.030316 0.007761 0.004977
# 5 0.006356 0.000655 -0.000701 0.007761 0.049089 0.017851
# 6 0.017154 0.012402 -0.010311 0.004977 0.017851 0.052226
#
#
# Mechanical properties :
#
#
# Convention : Reuss Voigt Hill
#
# Bulk Modulus (GPa) = 24.14737 32.96116 28.55426
# Shear Modulus (GPa) = 21.93556 31.00230 26.46893
#
# Velocity S-wave (km/s) = 2.99158 3.55651 3.28621
# Velocity P-wave (km/s) = 4.66741 5.50572 5.10381
#
# Compressibility (1/GPa) = 0.04141238
#
# Stress axis : x y z
#
# Youngs Moduli (GPa) = 55.55479 57.84676 37.49308
#
# Poissons Ratio (x) = -0.09522 0.29883
# Poissons Ratio (y) = -0.09144 0.14806
# Poissons Ratio (z) = 0.44279 0.22844
#
# Static dielectric constant tensor:
#      x y z
#    x 1.990170 0.025600 0.023480 
#    y 0.025600 2.083070 -0.011700 
#    z 0.023480 -0.011700 1.971910 
# 
# From -- ./inp_files/503646.got.cif
#   From: 2010.05.17/outbox.cif.g08.bks.cpg/sg2_252_cif.got.tgz:503646.got - 2010.06.03 11:33:40.
