data_PCOD9084645
_publ_section_title
;
Structure prediction by ZEFSAII (Michael W. Deem and Ramdas Pophale) SiO2 
 PCOD9084645
Probable space group: P -1
;
_chemical_formula_sum "Si O2"
_cell_formula_units_Z 16
_cell_length_a 5.434289
_cell_length_b 12.033449
_cell_length_c 27.172874
_cell_angle_alpha 26.703303
_cell_angle_beta 100.593993
_cell_angle_gamma 108.973780
_cell_volume 730.963527
_symmetry_space_group_name_H-M "P -1"
_symmetry_group_IT_number 2
_symmetry_cell_setting 'triclinic'
loop_
_space_group_symop_operation_xyz
x,y,z
-x,-y,-z
loop_
_atom_site_type_symbol
_atom_site_label
_atom_site_fract_x
_atom_site_fract_y
_atom_site_fract_z
Si Si1 0.473470 0.626308 0.190187
Si Si2 0.606623 0.412566 0.371695
Si Si3 0.129717 0.812189 0.028359
Si Si4 0.305372 0.648540 0.765896
Si Si5 0.173778 0.863806 0.588289
Si Si6 0.556568 0.093630 0.229146
Si Si7 0.955554 0.897486 0.254899
Si Si8 0.922418 0.619629 0.998304
O O1 0.429776 0.533081 0.282339
O O2 0.291852 0.752989 0.103097
O O3 0.486127 0.385540 0.252181
O O4 0.760934 0.876710 0.101232
O O5 0.795513 0.354560 0.360811
O O6 0.768032 0.615513 0.338440
O O7 0.446359 0.122244 0.502428
O O8 0.825113 0.646875 0.098812
O O9 0.127782 0.665757 0.033794
O O10 0.102423 0.732034 0.690968
O O11 0.395989 0.856504 0.730762
O O12 0.000000 0.000000 0.500000
O O13 0.639089 0.397407 0.091591
O O14 0.769581 0.989733 0.249955
O O15 0.244224 0.921310 0.277607
O O16 0.048351 0.091712 0.133725
O O17 0.000000 0.500000 0.000000
#
# Coordination Sequence:
#
# PCOD9084645 Si02
#       8
#     2   2   2   2   2   2   2   2
#     4  10  20  35  58  88 126 157 207 256 326 375
#     4  10  22  40  63  93 120 163 214 269 317 378
#     4  10  19  35  55  91 123 163 202 259 315 387
#     4  10  22  38  59  87 122 164 207 262 321 383
#     4  10  22  42  66  89 120 161 217 267 329 373
#     4  10  24  39  65  90 132 169 214 256 319 378
#     4  11  22  43  62  95 126 171 216 263 310 380
#     4   9  19  36  57  90 129 174 211 253 306 383
#
# _framework density 21.888915999999998
#
# number of rings (size 3 to 8) (size 9 to 14) (size 15 to 20)
#    0.000    2.000    1.250    1.500    7.000    0.000 
#    2.250    1.250    0.000    0.000    0.000    0.000 
#    0.000    0.000    0.000    0.000    0.000    0.000 
#
# Total GULP energy -89074.177675 kJ/mol
# GULP energy per Si atom -5567.136105 kJ/mol
# Density = 2.183910 g / cm^3
# Si number density = 21.888916 Si / 1000 Ang^3
#
#
#
# Elastic Constant Matrix: (Units=GPa)
#
#
# Indices 1 2 3 4 5 6 
#
# 1 67.0936 33.2506 8.1458 -9.1019 -7.8756 -0.0802
# 2 33.2506 133.2331 24.0515 -19.5288 -10.9111 -9.6833
# 3 8.1458 24.0515 86.6298 -7.0149 -6.3062 -5.8943
# 4 -9.1019 -19.5288 -7.0149 32.7784 -0.5335 2.5566
# 5 -7.8756 -10.9111 -6.3062 -0.5335 21.1464 3.6504
# 6 -0.0802 -9.6833 -5.8943 2.5566 3.6504 19.0536
#
#
#
# Elastic Compliance Matrix: (Units=1/GPa)
#
#
# Indices 1 2 3 4 5 6 
#
# 1 0.017826 -0.003779 -0.000227 0.002995 0.005271 -0.003328
# 2 -0.003779 0.009828 -0.001602 0.004243 0.002707 0.003396
# 3 -0.000227 -0.001602 0.012470 0.001506 0.002436 0.002374
# 4 0.002995 0.004243 0.001506 0.034506 0.005139 -0.002980
# 5 0.005271 0.002707 0.002436 0.005139 0.053006 -0.008693
# 6 -0.003328 0.003396 0.002374 -0.002980 -0.008693 0.056995
#
#
# Mechanical properties :
#
#
# Convention : Reuss Voigt Hill
#
# Bulk Modulus (GPa) = 34.59137 46.42804 40.50971
# Shear Modulus (GPa) = 24.33295 29.36293 26.84794
#
# Velocity S-wave (km/s) = 3.33777 3.66656 3.50602
# Velocity P-wave (km/s) = 5.54001 6.25953 5.91073
#
# Compressibility (1/GPa) = 0.02890894
#
# Stress axis : x y z
#
# Youngs Moduli (GPa) = 56.09777 101.74789 80.19104
#
# Poissons Ratio (x) = 0.38450 0.01822
# Poissons Ratio (y) = 0.21199 0.12844
# Poissons Ratio (z) = 0.01274 0.16297
#
# Static dielectric constant tensor:
#      x y z
#    x 1.919960 0.060380 0.000710 
#    y 0.060380 1.828290 0.028340 
#    z 0.000710 0.028340 1.861400 
# 
# From -- ./inp_files/80173.got.cif
#   From: 2010.05.17/outbox.cif.g08.bks.cpg/sg2_41_cif.got.tgz:80173.got - 2010.06.03 11:33:40.
