data_PCOD9084687
_publ_section_title
;
Structure prediction by ZEFSAII (Michael W. Deem and Ramdas Pophale) SiO2 
 PCOD9084687
Probable space group: P -1
;
_chemical_formula_sum "Si O2"
_cell_formula_units_Z 16
_cell_length_a 8.581195
_cell_length_b 5.390746
_cell_length_c 19.092903
_cell_angle_alpha 121.046221
_cell_angle_beta 109.535587
_cell_angle_gamma 79.678174
_cell_volume 713.114698
_symmetry_space_group_name_H-M "P -1"
_symmetry_group_IT_number 2
_symmetry_cell_setting 'triclinic'
loop_
_space_group_symop_operation_xyz
x,y,z
-x,-y,-z
loop_
_atom_site_type_symbol
_atom_site_label
_atom_site_fract_x
_atom_site_fract_y
_atom_site_fract_z
Si Si1 0.968838 0.233005 0.859800
Si Si2 0.616452 0.780043 0.943792
Si Si3 0.565554 0.906997 0.604250
Si Si4 0.282508 0.463711 0.536036
Si Si5 0.015293 0.329561 0.574242
Si Si6 0.353427 0.532549 0.228679
Si Si7 0.133813 0.313752 0.285709
Si Si8 0.180248 0.697279 0.007536
O O1 0.786324 0.306670 0.815109
O O2 0.947821 0.215520 0.937557
O O3 0.003683 0.930499 0.783557
O O4 0.092293 0.497662 0.907111
O O5 0.545559 0.639606 0.840581
O O6 0.685895 0.523516 0.967512
O O7 0.752176 0.004253 0.968011
O O8 0.500000 0.000000 0.000000
O O9 0.405492 0.729348 0.579060
O O10 0.619193 0.815161 0.520235
O O11 0.722226 0.786362 0.654309
O O12 0.554888 0.240960 0.674042
O O13 0.121992 0.506860 0.469362
O O14 0.198252 0.431328 0.594384
O O15 0.956372 0.402793 0.654772
O O16 0.000000 0.000000 0.500000
O O17 0.237733 0.349212 0.235787
#
# Coordination Sequence:
#
# PCOD9084687 Si02
#       8
#     2   2   2   2   2   2   2   2
#     4   9  20  35  59  84 109 145 195 246 289 342
#     4  11  23  40  59  86 121 160 196 243 295 357
#     4   9  19  36  58  81 105 155 187 236 284 351
#     4   9  19  37  56  79 114 142 194 231 288 347
#     4  10  20  34  56  82 112 147 182 239 290 343
#     4  10  20  35  59  79 114 144 193 240 290 347
#     4  10  19  35  56  81 112 148 190 238 290 344
#     4  10  21  38  64  86 114 154 201 244 296 350
#
# _framework density 22.436782000000001
#
# number of rings (size 3 to 8) (size 9 to 14) (size 15 to 20)
#    0.000    2.250    1.250    1.125    1.750    3.500 
#    2.250    5.000    0.000    0.000    0.000    0.000 
#    0.000    0.000    0.000    0.000    0.000    0.000 
#
# Total GULP energy -89158.213395 kJ/mol
# GULP energy per Si atom -5572.388337 kJ/mol
# Density = 2.238571 g / cm^3
# Si number density = 22.436782 Si / 1000 Ang^3
#
#
#
# Elastic Constant Matrix: (Units=GPa)
#
#
# Indices 1 2 3 4 5 6 
#
# 1 32.2250 13.2258 16.7072 2.5853 -0.7417 -7.4862
# 2 13.2258 52.1982 -6.0732 2.9939 -2.0461 -13.1510
# 3 16.7072 -6.0732 82.3372 16.9487 -6.6671 -8.9194
# 4 2.5853 2.9939 16.9487 23.3799 4.4475 0.8631
# 5 -0.7417 -2.0461 -6.6671 4.4475 37.8614 10.8696
# 6 -7.4862 -13.1510 -8.9194 0.8631 10.8696 23.7602
#
#
#
# Elastic Compliance Matrix: (Units=1/GPa)
#
#
# Indices 1 2 3 4 5 6 
#
# 1 0.041219 -0.010787 -0.009833 0.004420 -0.003378 0.004710
# 2 -0.010787 0.026941 0.007377 -0.008003 -0.000806 0.014941
# 3 -0.009833 0.007377 0.018630 -0.014219 0.003129 0.007063
# 4 0.004420 -0.008003 -0.014219 0.055268 -0.007323 -0.007032
# 5 -0.003378 -0.000806 0.003129 -0.007323 0.031927 -0.014675
# 6 0.004710 0.014941 0.007063 -0.007032 -0.014675 0.061462
#
#
# Mechanical properties :
#
#
# Convention : Reuss Voigt Hill
#
# Bulk Modulus (GPa) = 16.58281 23.83112 20.20697
# Shear Modulus (GPa) = 17.72843 26.52701 22.12772
#
# Velocity S-wave (km/s) = 2.81401 3.44219 3.14383
# Velocity P-wave (km/s) = 4.23853 5.14225 4.71211
#
# Compressibility (1/GPa) = 0.06030342
#
# Stress axis : x y z
#
# Youngs Moduli (GPa) = 24.26082 37.11818 53.67748
#
# Poissons Ratio (x) = 0.40040 0.52779
# Poissons Ratio (y) = 0.26170 -0.39596
# Poissons Ratio (z) = 0.23855 -0.27381
#
# Static dielectric constant tensor:
#      x y z
#    x 1.851080 0.006160 -0.033800 
#    y 0.006160 1.920600 -0.000420 
#    z -0.033800 -0.000420 1.919960 
# 
# From -- ./inp_files/42002.got.cif
#   From: 2010.05.17/outbox.cif.g08.bks.cpg/sg2_22_cif.got.tgz:42002.got - 2010.06.03 11:33:40.
