data_PCOD9084961
_publ_section_title
;
Structure prediction by ZEFSAII (Michael W. Deem and Ramdas Pophale) SiO2 
 PCOD9084961
Probable space group: P -1
;
_chemical_formula_sum "Si O2"
_cell_formula_units_Z 14
_cell_length_a 10.639412
_cell_length_b 11.790795
_cell_length_c 8.942373
_cell_angle_alpha 40.881399
_cell_angle_beta 66.966129
_cell_angle_gamma 51.122039
_cell_volume 563.884278
_symmetry_space_group_name_H-M "P -1"
_symmetry_group_IT_number 2
_symmetry_cell_setting 'triclinic'
loop_
_space_group_symop_operation_xyz
x,y,z
-x,-y,-z
loop_
_atom_site_type_symbol
_atom_site_label
_atom_site_fract_x
_atom_site_fract_y
_atom_site_fract_z
Si Si1 0.124668 0.893084 0.681503
Si Si2 0.949784 0.411456 0.795664
Si Si3 0.563317 0.498967 0.136928
Si Si4 0.725109 0.848674 0.928326
Si Si5 0.669216 0.802116 0.681218
Si Si6 0.592909 0.172551 0.901228
Si Si7 0.910052 0.893053 0.216699
O O1 0.297928 0.738999 0.675834
O O2 0.103297 0.056569 0.652687
O O3 0.098973 0.732178 0.949397
O O4 0.000000 0.000000 0.500000
O O5 0.804542 0.650416 0.648152
O O6 0.116551 0.344177 0.872409
O O7 0.986482 0.329826 0.689713
O O8 0.451779 0.606819 0.229194
O O9 0.500000 0.500000 0.000000
O O10 0.626041 0.649045 0.930783
O O11 0.570213 0.828712 0.041800
O O12 0.742525 0.853671 0.737335
O O13 0.689918 0.055963 0.821135
O O14 0.500000 0.000000 0.500000
O O15 0.724530 0.013559 0.120889
O O16 0.000000 0.000000 0.000000
#
# Coordination Sequence:
#
# PCOD9084961 Si02
#       7
#     2   2   2   2   2   2   2
#     4  10  20  34  55  87 117 148 190 239 290 343
#     4   9  19  36  59  81 113 156 194 235 288 346
#     4  10  19  35  58  81 114 155 186 232 294 342
#     4   9  18  34  57  79 110 153 193 230 284 343
#     4  10  21  36  56  85 116 152 194 239 287 346
#     4   9  17  33  58  80 109 151 191 232 286 343
#     4   9  17  33  58  82 114 150 189 235 295 346
#
# _framework density 24.827788999999999
#
# number of rings (size 3 to 8) (size 9 to 14) (size 15 to 20)
#    0.000    2.571    1.429    0.429    0.000    1.143 
#    2.571    0.000    0.000   11.143    0.000    0.000 
#    0.000    0.000    0.000    0.000    0.000    0.000 
#
# Total GULP energy -78122.735888 kJ/mol
# GULP energy per Si atom -5580.195421 kJ/mol
# Density = 2.477128 g / cm^3
# Si number density = 24.827789 Si / 1000 Ang^3
#
#
#
# Elastic Constant Matrix: (Units=GPa)
#
#
# Indices 1 2 3 4 5 6 
#
# 1 82.4545 55.1903 35.1089 -11.2521 29.1647 20.0665
# 2 55.1903 281.7360 83.0633 -20.3612 49.9996 41.3646
# 3 35.1089 83.0633 98.3814 -8.6978 23.6476 12.6477
# 4 -11.2521 -20.3612 -8.6978 45.7034 -1.1974 5.2873
# 5 29.1647 49.9996 23.6476 -1.1974 53.0246 3.4873
# 6 20.0665 41.3646 12.6477 5.2873 3.4873 54.8973
#
#
#
# Elastic Compliance Matrix: (Units=1/GPa)
#
#
# Indices 1 2 3 4 5 6 
#
# 1 0.018525 0.000046 -0.003543 0.004375 -0.008166 -0.005893
# 2 0.000046 0.005936 -0.003437 0.002328 -0.003795 -0.003681
# 3 -0.003543 -0.003437 0.014606 0.000274 -0.001357 0.000579
# 4 0.004375 0.002328 0.000274 0.024588 -0.003804 -0.005543
# 5 -0.008166 -0.003795 -0.001357 -0.003804 0.027133 0.004800
# 6 -0.005893 -0.003681 0.000579 -0.005543 0.004800 0.023239
#
#
# Mechanical properties :
#
#
# Convention : Reuss Voigt Hill
#
# Bulk Modulus (GPa) = 39.68158 89.92187 64.80173
# Shear Modulus (GPa) = 36.68535 50.00569 43.34552
#
# Velocity S-wave (km/s) = 3.84812 4.49274 4.18287
# Velocity P-wave (km/s) = 5.98009 7.95046 7.03460
#
# Compressibility (1/GPa) = 0.02520061
#
# Stress axis : x y z
#
# Youngs Moduli (GPa) = 53.98086 168.46728 68.46345
#
# Poissons Ratio (x) = -0.00778 0.24254
# Poissons Ratio (y) = -0.00249 0.23530
# Poissons Ratio (z) = 0.19124 0.57900
#
# Static dielectric constant tensor:
#      x y z
#    x 2.089930 0.001260 -0.071330 
#    y 0.001260 2.073080 0.057250 
#    z -0.071330 0.057250 1.927140 
# 
# From -- ./inp_files/185029.got.cif
#   From: 2010.05.17/outbox.cif.g08.bks.cpg/sg2_93_cif.got.tgz:185029.got - 2010.06.03 11:33:40.
