data_PCOD9084978
_publ_section_title
;
Structure prediction by ZEFSAII (Michael W. Deem and Ramdas Pophale) SiO2 
 PCOD9084978
Probable space group: P -1
;
_chemical_formula_sum "Si O2"
_cell_formula_units_Z 16
_cell_length_a 22.848921
_cell_length_b 5.241201
_cell_length_c 4.940326
_cell_angle_alpha 82.911756
_cell_angle_beta 107.435314
_cell_angle_gamma 101.557869
_cell_volume 551.732946
_symmetry_space_group_name_H-M "P -1"
_symmetry_group_IT_number 2
_symmetry_cell_setting 'triclinic'
loop_
_space_group_symop_operation_xyz
x,y,z
-x,-y,-z
loop_
_atom_site_type_symbol
_atom_site_label
_atom_site_fract_x
_atom_site_fract_y
_atom_site_fract_z
Si Si1 0.516338 0.326947 0.296251
Si Si2 0.013954 0.780845 0.334879
Si Si3 0.634688 0.632196 0.538827
Si Si4 0.764767 0.556490 0.525850
Si Si5 0.606035 0.926097 0.965424
Si Si6 0.139386 0.895594 0.697187
Si Si7 0.888173 0.672871 0.978503
Si Si8 0.261716 0.762988 0.970451
O O1 0.500000 0.500000 0.500000
O O2 0.591116 0.362581 0.417480
O O3 0.500000 0.500000 0.000000
O O4 0.465108 0.063074 0.219846
O O5 0.962901 0.746104 0.026885
O O6 0.000000 0.500000 0.500000
O O7 0.088684 0.842077 0.390472
O O8 0.000000 0.000000 0.500000
O O9 0.706747 0.668053 0.555580
O O10 0.608514 0.843011 0.289265
O O11 0.624039 0.698192 0.825571
O O12 0.754638 0.490536 0.207978
O O13 0.836147 0.675484 0.675969
O O14 0.754048 0.290043 0.730728
O O15 0.665087 0.147428 0.971028
O O16 0.125228 0.617460 0.874330
O O17 0.213989 0.937610 0.757624
O O18 0.124614 0.121260 0.841123
#
# Coordination Sequence:
#
# PCOD9084978 Si02
#       8
#     2   2   2   2   2   2   2   2
#     4   8  16  30  52  80 108 142 194 246 299 356
#     4   8  14  28  53  82 114 152 196 244 298 356
#     4  10  19  35  58  82 110 152 199 250 302 362
#     4  11  23  38  55  84 119 156 199 251 304 362
#     4  10  19  35  58  82 110 152 199 250 302 362
#     4   9  18  34  57  86 119 157 200 249 302 360
#     4   9  18  34  57  86 119 157 200 249 302 360
#     4  11  23  38  55  84 119 156 199 251 304 362
#
# _framework density 28.999535999999999
#
# number of rings (size 3 to 8) (size 9 to 14) (size 15 to 20)
#    0.000    2.500    0.000    2.250    0.000    2.000 
#    0.000    1.875    0.000    0.000    0.000   27.125 
#    0.000    0.000    0.000    0.000    0.000    0.000 
#
# Total GULP energy -89582.005083 kJ/mol
# GULP energy per Si atom -5598.875318 kJ/mol
# Density = 2.893353 g / cm^3
# Si number density = 28.999536 Si / 1000 Ang^3
#
#
#
# Elastic Constant Matrix: (Units=GPa)
#
#
# Indices 1 2 3 4 5 6 
#
# 1 144.2114 52.3483 61.9585 14.7294 34.3470 28.9605
# 2 52.3483 135.0446 31.3137 32.1893 14.9607 13.1652
# 3 61.9585 31.3137 160.5420 11.3109 35.9691 2.4442
# 4 14.7294 32.1893 11.3109 34.8597 7.9014 11.8283
# 5 34.3470 14.9607 35.9691 7.9014 81.8866 16.5881
# 6 28.9605 13.1652 2.4442 11.8283 16.5881 63.0418
#
#
#
# Elastic Compliance Matrix: (Units=1/GPa)
#
#
# Indices 1 2 3 4 5 6 
#
# 1 0.010416 -0.003017 -0.003040 0.001059 -0.001824 -0.003756
# 2 -0.003017 0.010645 -0.000343 -0.008742 0.000158 0.000775
# 3 -0.003040 -0.000343 0.008082 -0.001140 -0.002513 0.002030
# 4 0.001059 -0.008742 -0.001140 0.038813 -0.000947 -0.005650
# 5 -0.001824 0.000158 -0.002513 -0.000947 0.014709 -0.002790
# 6 -0.003756 0.000775 0.002030 -0.005650 -0.002790 0.019142
#
#
# Mechanical properties :
#
#
# Convention : Reuss Voigt Hill
#
# Bulk Modulus (GPa) = 61.19340 81.22656 71.20998
# Shear Modulus (GPa) = 41.64809 55.56945 48.60877
#
# Velocity S-wave (km/s) = 3.79379 4.38221 4.09857
# Velocity P-wave (km/s) = 6.35120 7.32635 6.85614
#
# Compressibility (1/GPa) = 0.01634163
#
# Stress axis : x y z
#
# Youngs Moduli (GPa) = 96.00564 93.94357 123.73653
#
# Poissons Ratio (x) = 0.28342 0.37620
# Poissons Ratio (y) = 0.28964 0.04247
# Poissons Ratio (z) = 0.29189 0.03224
#
# Static dielectric constant tensor:
#      x y z
#    x 2.302020 0.086260 0.110840 
#    y 0.086260 2.373250 -0.120060 
#    z 0.110840 -0.120060 2.180930 
# 
# From -- ./inp_files/125584.got.cif
#   From: 2010.05.17/outbox.cif.g08.bks.cpg/sg2_63_cif.got.tgz:125584.got - 2010.06.03 11:33:40.
