data_PCOD9084188
_publ_section_title
;
Structure prediction by ZEFSAII (Michael W. Deem and Ramdas Pophale) SiO2 
 PCOD9084188
Probable space group: P -1
;
_chemical_formula_sum "Si O2"
_cell_formula_units_Z 16
_cell_length_a 10.056107
_cell_length_b 8.795725
_cell_length_c 10.980125
_cell_angle_alpha 87.445870
_cell_angle_beta 75.283261
_cell_angle_gamma 55.807241
_cell_volume 771.099701
_symmetry_space_group_name_H-M "P -1"
_symmetry_group_IT_number 2
_symmetry_cell_setting 'triclinic'
loop_
_space_group_symop_operation_xyz
x,y,z
-x,-y,-z
loop_
_atom_site_type_symbol
_atom_site_label
_atom_site_fract_x
_atom_site_fract_y
_atom_site_fract_z
Si Si1 0.792078 0.304815 0.541603
Si Si2 0.317087 0.073598 0.688368
Si Si3 0.859358 0.118177 0.926674
Si Si4 0.437347 0.911932 0.922876
Si Si5 0.760187 0.709353 0.718983
Si Si6 0.393185 0.289617 0.487861
Si Si7 0.067206 0.661375 0.241186
Si Si8 0.864705 0.971001 0.669274
O O1 0.656433 0.501279 0.503563
O O2 0.831538 0.355216 0.661456
O O3 0.963567 0.190011 0.429093
O O4 0.764577 0.147250 0.595245
O O5 0.343675 0.051725 0.827082
O O6 0.373081 0.200031 0.615212
O O7 0.123416 0.170941 0.704696
O O8 0.429684 0.870628 0.607002
O O9 0.854772 0.301730 0.893884
O O10 0.908169 0.022827 0.785214
O O11 0.687600 0.139660 0.998229
O O12 0.000000 0.000000 0.000000
O O13 0.602705 0.739646 0.826615
O O14 0.500000 0.000000 0.000000
O O15 0.739253 0.695986 0.580439
O O16 0.918943 0.529678 0.749796
O O17 0.759326 0.889339 0.727605
#
# Coordination Sequence:
#
# PCOD9084188 Si02
#       8
#     2   2   2   2   2   2   2   2
#     4   9  19  35  59  92 123 156 200 248 308 370
#     4  10  19  34  61  89 121 160 200 248 305 353
#     4  11  22  40  61  86 121 165 208 251 299 354
#     4  11  22  40  61  86 121 165 208 251 299 354
#     4  10  20  36  63  92 120 159 204 248 304 369
#     4   9  19  35  59  92 123 156 200 248 308 370
#     4  10  20  36  63  92 120 159 204 248 304 369
#     4  10  19  34  61  89 121 160 200 248 305 353
#
# _framework density 20.749586999999998
#
# number of rings (size 3 to 8) (size 9 to 14) (size 15 to 20)
#    0.000    2.000    2.500    1.500    0.000    2.500 
#    0.000    3.750    0.000   33.000    0.000    0.000 
#    0.000    0.000    0.000    0.000    0.000    0.000 
#
# Total GULP energy -89185.118808 kJ/mol
# GULP energy per Si atom -5574.069925 kJ/mol
# Density = 2.070236 g / cm^3
# Si number density = 20.749587 Si / 1000 Ang^3
#
#
#
# Elastic Constant Matrix: (Units=GPa)
#
#
# Indices 1 2 3 4 5 6 
#
# 1 49.2329 19.4785 10.6821 -7.4445 -20.4348 1.4317
# 2 19.4785 141.9693 32.9459 -26.7321 -21.1728 -5.7344
# 3 10.6821 32.9459 94.4168 -15.4190 -17.7318 -1.0464
# 4 -7.4445 -26.7321 -15.4190 22.6977 1.6916 0.2267
# 5 -20.4348 -21.1728 -17.7318 1.6916 35.0962 1.0531
# 6 1.4317 -5.7344 -1.0464 0.2267 1.0531 19.1901
#
#
#
# Elastic Compliance Matrix: (Units=1/GPa)
#
#
# Indices 1 2 3 4 5 6 
#
# 1 0.028514 -0.000179 0.001422 0.008880 0.016878 -0.003135
# 2 -0.000179 0.010174 -0.000756 0.011008 0.005042 0.002606
# 3 0.001422 -0.000756 0.013272 0.008093 0.006689 -0.000071
# 4 0.008880 0.011008 0.008093 0.064466 0.012745 0.001607
# 5 0.016878 0.005042 0.006689 0.012745 0.044187 -0.001963
# 6 -0.003135 0.002606 -0.000071 0.001607 -0.001963 0.053208
#
#
# Mechanical properties :
#
#
# Convention : Reuss Voigt Hill
#
# Bulk Modulus (GPa) = 18.89250 45.75911 32.32580
# Shear Modulus (GPa) = 21.69284 30.23096 25.96190
#
# Velocity S-wave (km/s) = 3.23686 3.82113 3.54107
# Velocity P-wave (km/s) = 4.80567 6.44740 5.68610
#
# Compressibility (1/GPa) = 0.05293107
#
# Stress axis : x y z
#
# Youngs Moduli (GPa) = 35.07110 98.29106 75.34943
#
# Poissons Ratio (x) = 0.01764 -0.10714
# Poissons Ratio (y) = 0.00630 0.05698
# Poissons Ratio (z) = -0.04987 0.07433
#
# Static dielectric constant tensor:
#      x y z
#    x 1.791410 0.035500 -0.012090 
#    y 0.035500 1.842500 -0.010200 
#    z -0.012090 -0.010200 1.741500 
# 
# From -- ./inp_files/243425.got.cif
#   From: 2010.05.17/outbox.cif.g08.bks.cpg/sg2_122_cif.got.tgz:243425.got - 2010.06.03 11:33:40.
