data_PCOD9084583
_publ_section_title
;
Structure prediction by ZEFSAII (Michael W. Deem and Ramdas Pophale) SiO2 
 PCOD9084583
Probable space group: P -1
;
_chemical_formula_sum "Si O2"
_cell_formula_units_Z 16
_cell_length_a 6.881327
_cell_length_b 21.558359
_cell_length_c 5.325360
_cell_angle_alpha 95.476625
_cell_angle_beta 62.332330
_cell_angle_gamma 109.359785
_cell_volume 658.501362
_symmetry_space_group_name_H-M "P -1"
_symmetry_group_IT_number 2
_symmetry_cell_setting 'triclinic'
loop_
_space_group_symop_operation_xyz
x,y,z
-x,-y,-z
loop_
_atom_site_type_symbol
_atom_site_label
_atom_site_fract_x
_atom_site_fract_y
_atom_site_fract_z
Si Si1 0.882447 0.632091 0.397617
Si Si2 0.841988 0.991739 0.841368
Si Si3 0.842246 0.258339 0.105856
Si Si4 0.845755 0.491081 0.336393
Si Si5 0.692188 0.714199 0.867111
Si Si6 0.332998 0.652707 0.471872
Si Si7 0.789224 0.853399 0.871824
Si Si8 0.905426 0.131635 0.807731
O O1 0.034623 0.675035 0.100238
O O2 0.758749 0.554487 0.403156
O O3 0.078158 0.637251 0.492152
O O4 0.716806 0.673014 0.596294
O O5 0.305823 0.085557 0.087611
O O6 0.752495 0.054538 0.907919
O O7 0.000000 0.000000 0.500000
O O8 0.000000 0.000000 0.000000
O O9 0.044594 0.257420 0.178356
O O10 0.804583 0.190925 0.948569
O O11 0.642901 0.278529 0.375212
O O12 0.686015 0.415420 0.407285
O O13 0.000000 0.500000 0.500000
O O14 0.000000 0.500000 0.000000
O O15 0.525213 0.666265 0.146736
O O16 0.619571 0.779186 0.915999
O O17 0.979352 0.860805 0.535763
O O18 0.897619 0.859672 0.089645
#
# Coordination Sequence:
#
# PCOD9084583 Si02
#       8
#     2   2   2   2   2   2   2   2
#     4  10  20  37  58  75 110 144 180 225 273 322
#     4   8  14  24  43  71 100 134 176 214 258 315
#     4  10  19  35  55  78 110 142 179 227 272 318
#     4  10  20  38  59  79 109 146 182 225 273 325
#     4  10  21  35  54  83 110 140 183 227 271 325
#     4  10  22  37  56  80 108 145 182 222 276 328
#     4   9  16  29  47  74 107 137 173 224 265 311
#     4   9  16  28  49  74 103 139 179 217 264 319
#
# _framework density 24.297599000000002
#
# number of rings (size 3 to 8) (size 9 to 14) (size 15 to 20)
#    0.000    2.500    2.500    0.000    0.000    1.500 
#    0.000    0.625    0.000    0.750    0.000    0.875 
#    0.000    0.000    0.000    0.000    0.000    0.000 
#
# Total GULP energy -89234.492512 kJ/mol
# GULP energy per Si atom -5577.155782 kJ/mol
# Density = 2.424230 g / cm^3
# Si number density = 24.297599 Si / 1000 Ang^3
#
#
#
# Elastic Constant Matrix: (Units=GPa)
#
#
# Indices 1 2 3 4 5 6 
#
# 1 72.9196 22.3061 13.7335 12.4122 5.7203 -9.8022
# 2 22.3061 170.2733 0.3738 4.2600 2.5234 -26.0752
# 3 13.7335 0.3738 84.6180 1.4853 16.4235 -11.2223
# 4 12.4122 4.2600 1.4853 45.3727 -11.6222 -0.0268
# 5 5.7203 2.5234 16.4235 -11.6222 31.2117 9.5411
# 6 -9.8022 -26.0752 -11.2223 -0.0268 9.5411 41.5532
#
#
#
# Elastic Compliance Matrix: (Units=1/GPa)
#
#
# Indices 1 2 3 4 5 6 
#
# 1 0.016266 -0.001259 -0.000840 -0.005806 -0.005872 0.004164
# 2 -0.001259 0.006896 0.001478 -0.001143 -0.003102 0.005141
# 3 -0.000840 0.001478 0.015235 -0.003354 -0.011520 0.007487
# 4 -0.005806 -0.001143 -0.003354 0.027742 0.015230 -0.006472
# 5 -0.005872 -0.003102 -0.011520 0.015230 0.050618 -0.018055
# 6 0.004164 0.005141 0.007487 -0.006472 -0.018055 0.034437
#
#
# Mechanical properties :
#
#
# Convention : Reuss Voigt Hill
#
# Bulk Modulus (GPa) = 26.91491 44.51531 35.71511
# Shear Modulus (GPa) = 30.33548 43.05403 36.69475
#
# Velocity S-wave (km/s) = 3.53724 4.21402 3.89037
# Velocity P-wave (km/s) = 5.27105 6.48366 5.90855
#
# Compressibility (1/GPa) = 0.03715413
#
# Stress axis : x y z
#
# Youngs Moduli (GPa) = 61.47865 145.00189 65.63696
#
# Poissons Ratio (x) = 0.18256 0.05517
# Poissons Ratio (y) = 0.07740 -0.09700
# Poissons Ratio (z) = 0.05167 -0.21428
#
# Static dielectric constant tensor:
#      x y z
#    x 1.996920 -0.008420 0.020210 
#    y -0.008420 2.002880 0.053470 
#    z 0.020210 0.053470 1.858400 
# 
# From -- ./inp_files/54955.got.cif
#   From: 2010.05.17/outbox.cif.g08.bks.cpg/sg2_28_cif.got.tgz:54955.got - 2010.06.03 11:33:40.
