data_PCOD9084069
_publ_section_title
;
Structure prediction by ZEFSAII (Michael W. Deem and Ramdas Pophale) SiO2 
 PCOD9084069
Probable space group: P -1
;
_chemical_formula_sum "Si O2"
_cell_formula_units_Z 16
_cell_length_a 7.977736
_cell_length_b 24.573923
_cell_length_c 12.564187
_cell_angle_alpha 152.937542
_cell_angle_beta 69.589737
_cell_angle_gamma 127.680592
_cell_volume 744.642302
_symmetry_space_group_name_H-M "P -1"
_symmetry_group_IT_number 2
_symmetry_cell_setting 'triclinic'
loop_
_space_group_symop_operation_xyz
x,y,z
-x,-y,-z
loop_
_atom_site_type_symbol
_atom_site_label
_atom_site_fract_x
_atom_site_fract_y
_atom_site_fract_z
Si Si1 0.973715 0.563033 0.856440
Si Si2 0.596268 0.143737 0.878575
Si Si3 0.796373 0.054336 0.978034
Si Si4 0.912882 0.974039 0.252553
Si Si5 0.646447 0.903730 0.524324
Si Si6 0.809870 0.478647 0.085407
Si Si7 0.790503 0.656678 0.238260
Si Si8 0.591213 0.207967 0.237817
O O1 0.713956 0.389188 0.564448
O O2 0.152622 0.699536 0.964327
O O3 0.109016 0.517347 0.807936
O O4 0.933231 0.643135 0.095383
O O5 0.354012 0.090632 0.785232
O O6 0.584298 0.993816 0.629200
O O7 0.596850 0.193874 0.086005
O O8 0.615389 0.925044 0.693760
O O9 0.683956 0.945524 0.919769
O O10 0.065505 0.128915 0.011842
O O11 0.758650 0.177832 0.196955
O O12 0.060581 0.997507 0.365138
O O13 0.096150 0.159459 0.481528
O O14 0.463714 0.709214 0.199041
O O15 0.824004 0.619740 0.284937
O O16 0.000000 0.500000 0.000000
O O17 0.500000 0.500000 0.000000
#
# Coordination Sequence:
#
# PCOD9084069 Si02
#       8
#     2   2   2   2   2   2   2   2
#     4  11  24  38  58  92 124 161 206 240 306 374
#     4  11  23  40  61  86 121 178 201 240 300 358
#     4   8  18  36  65  90 114 152 203 252 307 341
#     4  10  21  39  64  91 124 148 210 253 296 373
#     4   9  19  39  59  87 126 151 198 256 297 362
#     4  10  19  34  60  85 118 152 192 251 310 353
#     4  11  20  38  64  92 122 150 193 261 318 357
#     4  10  19  39  64  84 125 162 202 255 299 347
#
# _framework density 21.486827999999999
#
# number of rings (size 3 to 8) (size 9 to 14) (size 15 to 20)
#    0.750    1.250    1.250    4.125    0.000    4.500 
#    2.250    3.125    0.000    0.000    0.000    0.000 
#    0.000    0.000    0.000    0.000    0.000    0.000 
#
# Total GULP energy -89245.421575 kJ/mol
# GULP energy per Si atom -5577.838848 kJ/mol
# Density = 2.143792 g / cm^3
# Si number density = 21.486828 Si / 1000 Ang^3
#
#
#
# Elastic Constant Matrix: (Units=GPa)
#
#
# Indices 1 2 3 4 5 6 
#
# 1 85.5462 4.4169 -5.4533 1.1996 -3.7406 13.6366
# 2 4.4169 85.9814 0.6515 -13.7230 6.4286 4.9624
# 3 -5.4533 0.6515 45.0484 0.0517 -5.7489 2.3586
# 4 1.1996 -13.7230 0.0517 5.0618 9.6998 20.9270
# 5 -3.7406 6.4286 -5.7489 9.6998 20.2686 -8.1169
# 6 13.6366 4.9624 2.3586 20.9270 -8.1169 -7.6976
#
#
#
# Elastic Compliance Matrix: (Units=1/GPa)
#
#
# Indices 1 2 3 4 5 6 
#
# 1 0.012802 -0.002053 0.002494 -0.007011 0.005837 -0.003096
# 2 -0.002053 0.011567 -0.001049 0.001102 -0.001597 0.008179
# 3 0.002494 -0.001049 0.023636 -0.002561 0.007266 -0.003638
# 4 -0.007011 0.001102 -0.002561 0.021554 0.004063 0.041820
# 5 0.005837 -0.001597 0.007266 0.004063 0.042243 -0.021962
# 6 -0.003096 0.008179 -0.003638 0.041820 -0.021962 0.005614
#
#
# Mechanical properties :
#
#
# Convention : Reuss Voigt Hill
#
# Bulk Modulus (GPa) = 21.37262 23.97846 22.67554
# Shear Modulus (GPa) = 37.24989 17.99061 27.62025
#
# Velocity S-wave (km/s) = 4.16819 2.89673 3.58921
# Velocity P-wave (km/s) = 5.75617 4.72989 5.26808
#
# Compressibility (1/GPa) = 0.04678883
#
# Stress axis : x y z
#
# Youngs Moduli (GPa) = 78.11490 86.45166 42.30815
#
# Poissons Ratio (x) = 0.17751 -0.10553
# Poissons Ratio (y) = 0.16039 0.04439
# Poissons Ratio (z) = -0.19485 0.09070
#
# Static dielectric constant tensor:
#      x y z
#    x 1.860240 -0.013280 0.003190 
#    y -0.013280 1.777380 -0.024360 
#    z 0.003190 -0.024360 1.773390 
# 
# From -- ./inp_files/406774.got.cif
#   From: 2010.05.17/outbox.cif.g08.bks.cpg/sg2_204_cif.got.tgz:406774.got - 2010.06.03 11:33:40.
