data_PCOD9084795
_publ_section_title
;
Structure prediction by ZEFSAII (Michael W. Deem and Ramdas Pophale) SiO2 
 PCOD9084795
Probable space group: P -1
;
_chemical_formula_sum "Si O2"
_cell_formula_units_Z 16
_cell_length_a 30.359337
_cell_length_b 12.100343
_cell_length_c 19.763467
_cell_angle_alpha 29.737385
_cell_angle_beta 21.249994
_cell_angle_gamma 19.303700
_cell_volume 865.996891
_symmetry_space_group_name_H-M "P -1"
_symmetry_group_IT_number 2
_symmetry_cell_setting 'triclinic'
loop_
_space_group_symop_operation_xyz
x,y,z
-x,-y,-z
loop_
_atom_site_type_symbol
_atom_site_label
_atom_site_fract_x
_atom_site_fract_y
_atom_site_fract_z
Si Si1 0.665817 0.592494 0.556305
Si Si2 0.775991 0.905770 0.414485
Si Si3 0.400704 0.236310 0.836149
Si Si4 0.375911 0.771188 0.092254
Si Si5 0.024860 0.705781 0.633982
Si Si6 0.400923 0.363129 0.524386
Si Si7 0.867332 0.218184 0.187438
Si Si8 0.720664 0.236833 0.176416
O O1 0.643025 0.395319 0.735640
O O2 0.834723 0.497587 0.397198
O O3 0.689713 0.511620 0.486182
O O4 0.492887 0.993873 0.599173
O O5 0.891648 0.534113 0.422873
O O6 0.586868 0.097218 0.618184
O O7 0.881024 0.942476 0.289687
O O8 0.729043 0.091756 0.312470
O O9 0.242975 0.509808 0.860794
O O10 0.342274 0.430811 0.886617
O O11 0.438408 0.921812 0.951975
O O12 0.500000 0.500000 0.000000
O O13 0.178944 0.097116 0.167977
O O14 0.000000 0.000000 0.500000
O O15 0.259465 0.598191 0.662515
O O16 0.565791 0.319017 0.312691
O O17 0.070693 0.036938 0.002888
#
# Coordination Sequence:
#
# PCOD9084795 Si02
#       8
#     2   2   2   2   2   2   2   2
#     4  10  23  40  59  82 121 163 190 241 291 349
#     4  11  18  34  59  87 119 145 194 252 297 334
#     4  11  19  33  58  89 119 148 192 255 294 337
#     4  11  22  37  59  88 118 149 200 245 292 347
#     4  10  19  35  57  81 111 150 193 240 287 339
#     4  11  21  42  59  85 126 155 198 236 290 359
#     4  11  20  34  60  91 114 151 195 246 301 339
#     4  11  20  34  59  89 117 152 195 246 294 339
#
# _framework density 18.475816999999999
#
# number of rings (size 3 to 8) (size 9 to 14) (size 15 to 20)
#    0.000    1.250    3.750    6.000    0.000    0.000 
#    2.250    1.875    0.000    3.750    0.000    0.000 
#    0.000    0.000    0.000    0.000    0.000    0.000 
#
# Total GULP energy -89273.779469 kJ/mol
# GULP energy per Si atom -5579.611217 kJ/mol
# Density = 1.843376 g / cm^3
# Si number density = 18.475817 Si / 1000 Ang^3
#
#
#
# Elastic Constant Matrix: (Units=GPa)
#
#
# Indices 1 2 3 4 5 6 
#
# 1 87.6922 24.9309 29.1765 0.0425 3.5663 9.1634
# 2 24.9309 81.9609 25.0127 -2.0315 2.8232 21.8582
# 3 29.1765 25.0127 79.8500 7.4020 -20.6211 -4.0684
# 4 0.0425 -2.0315 7.4020 38.3384 3.8307 -7.1228
# 5 3.5663 2.8232 -20.6211 3.8307 19.6617 -3.1551
# 6 9.1634 21.8582 -4.0684 -7.1228 -3.1551 29.8349
#
#
#
# Elastic Compliance Matrix: (Units=1/GPa)
#
#
# Indices 1 2 3 4 5 6 
#
# 1 0.016518 0.001690 -0.011786 0.002390 -0.017542 -0.009203
# 2 0.001690 0.022786 -0.015074 0.002515 -0.023268 -0.021128
# 3 -0.011786 -0.015074 0.035529 -0.008135 0.046762 0.022511
# 4 0.002390 0.002515 -0.008135 0.029601 -0.014803 0.001816
# 5 -0.017542 -0.023268 0.046762 -0.014803 0.115325 0.037473
# 6 -0.009203 -0.021128 0.022511 0.001816 0.037473 0.059290
#
#
# Mechanical properties :
#
#
# Convention : Reuss Voigt Hill
#
# Bulk Modulus (GPa) = 40.82560 45.30479 43.06520
# Shear Modulus (GPa) = 14.81253 28.92585 21.86919
#
# Velocity S-wave (km/s) = 2.83455 3.96107 3.44418
# Velocity P-wave (km/s) = 5.73216 6.74496 6.25908
#
# Compressibility (1/GPa) = 0.02449443
#
# Stress axis : x y z
#
# Youngs Moduli (GPa) = 60.53914 43.88745 28.14603
#
# Poissons Ratio (x) = -0.07418 0.33172
# Poissons Ratio (y) = -0.10232 0.42426
# Poissons Ratio (z) = 0.71350 0.66154
#
# Static dielectric constant tensor:
#      x y z
#    x 1.644490 0.022660 -0.049690 
#    y 0.022660 1.679840 -0.009940 
#    z -0.049690 -0.009940 1.655350 
# 
# From -- ./inp_files/422739.got.cif
#   From: 2010.05.17/outbox.cif.g08.bks.cpg/sg2_212_cif.got.tgz:422739.got - 2010.06.03 11:33:40.
