data_PCOD9084341
_publ_section_title
;
Structure prediction by ZEFSAII (Michael W. Deem and Ramdas Pophale) SiO2 
 PCOD9084341
Probable space group: P -1
;
_chemical_formula_sum "Si O2"
_cell_formula_units_Z 16
_cell_length_a 6.132670
_cell_length_b 14.980138
_cell_length_c 15.225758
_cell_angle_alpha 151.204427
_cell_angle_beta 100.811982
_cell_angle_gamma 91.486728
_cell_volume 605.890858
_symmetry_space_group_name_H-M "P -1"
_symmetry_group_IT_number 2
_symmetry_cell_setting 'triclinic'
loop_
_space_group_symop_operation_xyz
x,y,z
-x,-y,-z
loop_
_atom_site_type_symbol
_atom_site_label
_atom_site_fract_x
_atom_site_fract_y
_atom_site_fract_z
Si Si1 0.390403 0.855364 0.101928
Si Si2 0.469613 0.606491 0.499151
Si Si3 0.919617 0.199306 0.804868
Si Si4 0.375514 0.451605 0.734078
Si Si5 0.977991 0.910486 0.805241
Si Si6 0.895761 0.123235 0.414754
Si Si7 0.022979 0.705450 0.794397
Si Si8 0.630743 0.394037 0.854199
O O1 0.486179 0.679363 0.973952
O O2 0.269966 0.777338 0.929585
O O3 0.168265 0.823828 0.121268
O O4 0.609431 0.057819 0.326910
O O5 0.500000 0.500000 0.500000
O O6 0.556635 0.550534 0.364421
O O7 0.683263 0.830136 0.720011
O O8 0.177701 0.518420 0.396682
O O9 0.698906 0.218837 0.750290
O O10 0.025944 0.028468 0.651330
O O11 0.127194 0.419036 0.995325
O O12 0.479189 0.324219 0.693101
O O13 0.087374 0.349055 0.644365
O O14 0.058686 0.764725 0.745941
O O15 0.045968 0.904370 0.705978
O O16 0.092234 0.137637 0.045634
O O17 0.500000 0.500000 0.000000
#
# Coordination Sequence:
#
# PCOD9084341 Si02
#       8
#     2   2   2   2   2   2   2   2
#     4  12  23  41  64  97 132 170 219 268 319 390
#     4   9  19  38  62  92 128 167 214 264 312 382
#     4  11  22  42  70  92 130 170 206 273 328 375
#     4  11  23  41  66  95 132 172 215 267 328 379
#     4   9  19  36  59  91 125 165 220 261 312 387
#     4  11  23  42  61  94 135 166 216 271 316 390
#     4  10  19  34  63  89 121 176 211 259 328 371
#     4  11  22  43  72  99 127 166 221 268 320 394
#
# _framework density 26.407398000000001
#
# number of rings (size 3 to 8) (size 9 to 14) (size 15 to 20)
#    0.000    1.500    3.750    1.500    0.000    2.000 
#    2.250    8.125    0.000    0.000    0.000    0.000 
#    0.000    0.000    0.000    0.000    0.000    0.000 
#
# Total GULP energy -89330.919493 kJ/mol
# GULP energy per Si atom -5583.182468 kJ/mol
# Density = 2.634729 g / cm^3
# Si number density = 26.407398 Si / 1000 Ang^3
#
#
#
# Elastic Constant Matrix: (Units=GPa)
#
#
# Indices 1 2 3 4 5 6 
#
# 1 84.9881 48.7364 30.1301 -4.3315 18.5252 -17.9937
# 2 48.7364 100.4568 16.9899 -9.4427 18.2120 -10.3639
# 3 30.1301 16.9899 94.9968 7.4359 16.4216 11.5059
# 4 -4.3315 -9.4427 7.4359 30.1262 -2.3913 13.0807
# 5 18.5252 18.2120 16.4216 -2.3913 35.5632 -8.0179
# 6 -17.9937 -10.3639 11.5059 13.0807 -8.0179 46.2396
#
#
#
# Elastic Compliance Matrix: (Units=1/GPa)
#
#
# Indices 1 2 3 4 5 6 
#
# 1 0.020188 -0.007828 -0.005352 -0.001673 -0.002462 0.007480
# 2 -0.007828 0.014533 0.000417 0.003722 -0.003663 -0.001581
# 3 -0.005352 0.000417 0.013924 -0.001971 -0.005299 -0.005815
# 4 -0.001673 0.003722 -0.001971 0.039120 0.000169 -0.010363
# 5 -0.002462 -0.003663 -0.005299 0.000169 0.034989 0.005558
# 6 0.007480 -0.001581 -0.005815 -0.010363 0.005558 0.029525
#
#
# Mechanical properties :
#
#
# Convention : Reuss Voigt Hill
#
# Bulk Modulus (GPa) = 43.25620 52.46163 47.85891
# Shear Modulus (GPa) = 26.95253 34.69149 30.82201
#
# Velocity S-wave (km/s) = 3.19822 3.62844 3.42010
# Velocity P-wave (km/s) = 5.48215 6.12074 5.81023
#
# Compressibility (1/GPa) = 0.02311808
#
# Stress axis : x y z
#
# Youngs Moduli (GPa) = 49.53465 68.81027 71.81695
#
# Poissons Ratio (x) = 0.53866 0.38439
# Poissons Ratio (y) = 0.38777 -0.02995
# Poissons Ratio (z) = 0.26513 -0.02870
#
# Static dielectric constant tensor:
#      x y z
#    x 2.187760 -0.123860 0.081440 
#    y -0.123860 2.181760 0.032950 
#    z 0.081440 0.032950 2.062840 
# 
# From -- ./inp_files/484514.got.cif
#   From: 2010.05.17/outbox.cif.g08.bks.cpg/sg2_243_cif.got.tgz:484514.got - 2010.06.03 11:33:40.
