data_PCOD9084494
_publ_section_title
;
Structure prediction by ZEFSAII (Michael W. Deem and Ramdas Pophale) SiO2 
 PCOD9084494
Probable space group: P -1
;
_chemical_formula_sum "Si O2"
_cell_formula_units_Z 14
_cell_length_a 11.437478
_cell_length_b 5.161804
_cell_length_c 11.637943
_cell_angle_alpha 112.033448
_cell_angle_beta 77.673142
_cell_angle_gamma 69.899049
_cell_volume 549.890055
_symmetry_space_group_name_H-M "P -1"
_symmetry_group_IT_number 2
_symmetry_cell_setting 'triclinic'
loop_
_space_group_symop_operation_xyz
x,y,z
-x,-y,-z
loop_
_atom_site_type_symbol
_atom_site_label
_atom_site_fract_x
_atom_site_fract_y
_atom_site_fract_z
Si Si1 0.566767 0.651105 0.375666
Si Si2 0.018877 0.778041 0.144868
Si Si3 0.664274 0.473760 0.571618
Si Si4 0.316889 0.416545 0.053357
Si Si5 0.063743 0.697313 0.578012
Si Si6 0.609068 0.031745 0.824943
Si Si7 0.848635 0.449809 0.214798
O O1 0.634846 0.429588 0.436978
O O2 0.447737 0.580217 0.345845
O O3 0.688508 0.588513 0.253797
O O4 0.500000 0.000000 0.500000
O O5 0.173840 0.560690 0.042089
O O6 0.936893 0.588947 0.158664
O O7 0.028407 0.963815 0.288542
O O8 0.924422 0.069460 0.131866
O O9 0.824529 0.269410 0.518089
O O10 0.637225 0.822954 0.670683
O O11 0.343436 0.702648 0.137629
O O12 0.312776 0.214201 0.129359
O O13 0.450236 0.191197 0.916114
O O14 0.140533 0.490596 0.640538
O O15 0.000000 0.500000 0.500000
#
# Coordination Sequence:
#
# PCOD9084494 Si02
#       7
#     2   2   2   2   2   2   2
#     4  10  21  37  57  80 114 155 192 238 277 336
#     4  10  19  35  53  79 107 151 173 230 279 339
#     4  10  21  36  56  84 115 150 191 234 283 331
#     4  10  21  38  60  81 121 146 192 226 287 336
#     4   9  19  32  49  83 110 142 174 224 280 346
#     4  10  22  38  57  88 110 156 187 235 274 342
#     4   9  21  34  52  78 107 146 186 221 281 329
#
# _framework density 25.459633
#
# number of rings (size 3 to 8) (size 9 to 14) (size 15 to 20)
#    0.857    1.429    0.000    2.571    6.000    0.571 
#    0.000    0.000    0.000    1.714    0.000    0.000 
#    0.000    0.000    0.000    0.000    0.000    0.000 
#
# Total GULP energy -78287.919233 kJ/mol
# GULP energy per Si atom -5591.994231 kJ/mol
# Density = 2.540169 g / cm^3
# Si number density = 25.459633 Si / 1000 Ang^3
#
#
#
# Elastic Constant Matrix: (Units=GPa)
#
#
# Indices 1 2 3 4 5 6 
#
# 1 112.4203 14.5674 30.3292 -6.2825 -33.5944 13.7426
# 2 14.5674 96.6866 4.4047 12.5578 -7.2218 6.0107
# 3 30.3292 4.4047 85.0611 4.2847 -18.5335 3.0132
# 4 -6.2825 12.5578 4.2847 29.0761 -3.5518 -2.5684
# 5 -33.5944 -7.2218 -18.5335 -3.5518 55.1425 -5.6183
# 6 13.7426 6.0107 3.0132 -2.5684 -5.6183 30.4189
#
#
#
# Elastic Compliance Matrix: (Units=1/GPa)
#
#
# Indices 1 2 3 4 5 6 
#
# 1 0.012481 -0.001613 -0.003093 0.004308 0.006275 -0.003491
# 2 -0.001613 0.011414 0.000348 -0.005499 0.000070 -0.002012
# 3 -0.003093 0.000348 0.013517 -0.002474 0.002571 0.000256
# 4 0.004308 -0.005499 -0.002474 0.038841 0.003920 0.003389
# 5 0.006275 0.000070 0.002571 0.003920 0.023238 0.001520
# 6 -0.003491 -0.002012 0.000256 0.003389 0.001520 0.035391
#
#
# Mechanical properties :
#
#
# Convention : Reuss Voigt Hill
#
# Bulk Modulus (GPa) = 34.84893 43.64117 39.24505
# Shear Modulus (GPa) = 32.64467 39.25194 35.94831
#
# Velocity S-wave (km/s) = 3.58468 3.93075 3.76170
# Velocity P-wave (km/s) = 5.55436 6.14651 5.85792
#
# Compressibility (1/GPa) = 0.02869528
#
# Stress axis : x y z
#
# Youngs Moduli (GPa) = 80.12028 87.60822 73.98218
#
# Poissons Ratio (x) = 0.14134 0.22882
# Poissons Ratio (y) = 0.12926 -0.02572
# Poissons Ratio (z) = 0.24780 -0.03046
#
# Static dielectric constant tensor:
#      x y z
#    x 2.010720 -0.055370 -0.023530 
#    y -0.055370 2.050480 -0.106730 
#    z -0.023530 -0.106730 2.031250 
# 
# From -- ./inp_files/511301.got.cif
#   From: 2010.05.17/outbox.cif.g08.bks.cpg/sg2_256_cif.got.tgz:511301.got - 2010.06.03 11:33:40.
