data_PCOD9084758
_publ_section_title
;
Structure prediction by ZEFSAII (Michael W. Deem and Ramdas Pophale) SiO2 
 PCOD9084758
Probable space group: P -1
;
_chemical_formula_sum "Si O2"
_cell_formula_units_Z 16
_cell_length_a 11.106346
_cell_length_b 11.317622
_cell_length_c 8.431259
_cell_angle_alpha 91.387856
_cell_angle_beta 42.766990
_cell_angle_gamma 91.111576
_cell_volume 719.402170
_symmetry_space_group_name_H-M "P -1"
_symmetry_group_IT_number 2
_symmetry_cell_setting 'triclinic'
loop_
_space_group_symop_operation_xyz
x,y,z
-x,-y,-z
loop_
_atom_site_type_symbol
_atom_site_label
_atom_site_fract_x
_atom_site_fract_y
_atom_site_fract_z
Si Si1 0.593693 0.758442 0.495964
Si Si2 0.276130 0.507999 0.596057
Si Si3 0.926906 0.474761 0.743733
Si Si4 0.961094 0.116641 0.147363
Si Si5 0.798496 0.298113 0.077011
Si Si6 0.397373 0.997279 0.427831
Si Si7 0.668990 0.832134 0.061824
Si Si8 0.439823 0.405658 0.922540
O O1 0.664569 0.627912 0.457059
O O2 0.388515 0.768044 0.748192
O O3 0.619428 0.780074 0.283922
O O4 0.678073 0.870163 0.509273
O O5 0.257640 0.580649 0.776648
O O6 0.414553 0.576886 0.353578
O O7 0.083094 0.511039 0.709086
O O8 0.000000 0.500000 0.500000
O O9 0.875505 0.340291 0.836081
O O10 0.754354 0.552540 0.936311
O O11 0.932474 0.225404 0.056189
O O12 0.769666 0.091237 0.410095
O O13 0.122112 0.140541 0.115070
O O14 0.000000 0.000000 0.000000
O O15 0.549031 0.948636 0.164154
O O16 0.500000 0.000000 0.500000
O O17 0.597222 0.731762 0.008201
O O18 0.500000 0.500000 0.000000
#
# Coordination Sequence:
#
# PCOD9084758 Si02
#       8
#     2   2   2   2   2   2   2   2
#     4  11  19  35  62  94 133 165 204 268 328 389
#     4  12  23  41  63  93 132 167 217 277 329 390
#     4  12  26  41  59  93 130 172 218 262 329 400
#     4  12  20  35  62  98 138 168 207 272 332 386
#     4  12  22  38  64  97 132 170 216 274 331 389
#     4  10  19  35  56  95 135 162 209 263 329 388
#     4  11  21  37  61  92 132 166 210 270 321 382
#     4  12  24  43  65  89 127 179 220 265 334 393
#
# _framework density 22.240690000000001
#
# number of rings (size 3 to 8) (size 9 to 14) (size 15 to 20)
#    0.000    0.500    8.750    3.000    0.000    0.000 
#    0.000    0.000    0.000    0.750    0.000    9.625 
#    0.000    0.000    0.000    0.000    0.000    0.000 
#
# Total GULP energy -89333.728606 kJ/mol
# GULP energy per Si atom -5583.358038 kJ/mol
# Density = 2.219007 g / cm^3
# Si number density = 22.240690 Si / 1000 Ang^3
#
#
#
# Elastic Constant Matrix: (Units=GPa)
#
#
# Indices 1 2 3 4 5 6 
#
# 1 37.5636 20.9782 27.6525 0.9090 -23.8694 12.8664
# 2 20.9782 128.8110 9.8196 13.8667 -4.9730 6.1089
# 3 27.6525 9.8196 78.6283 -18.3350 -22.6927 4.4082
# 4 0.9090 13.8667 -18.3350 40.4250 0.3759 -8.7147
# 5 -23.8694 -4.9730 -22.6927 0.3759 39.1532 -1.9513
# 6 12.8664 6.1089 4.4082 -8.7147 -1.9513 31.8863
#
#
#
# Elastic Compliance Matrix: (Units=1/GPa)
#
#
# Indices 1 2 3 4 5 6 
#
# 1 0.073725 -0.006662 -0.017188 -0.013459 0.032883 -0.027762
# 2 -0.006662 0.009101 -0.000427 -0.003147 -0.003125 -0.000048
# 3 -0.017188 -0.000427 0.021907 0.012048 0.002419 0.007429
# 4 -0.013459 -0.003147 0.012048 0.034557 -0.001269 0.013735
# 5 0.032883 -0.003125 0.002419 -0.001269 0.046080 -0.010531
# 6 -0.027762 -0.000048 0.007429 0.013735 -0.010531 0.044655
#
#
# Mechanical properties :
#
#
# Convention : Reuss Voigt Hill
#
# Bulk Modulus (GPa) = 17.79955 40.21148 29.00552
# Shear Modulus (GPa) = 16.81777 34.72976 25.77377
#
# Velocity S-wave (km/s) = 2.75284 3.95592 3.40789
# Velocity P-wave (km/s) = 4.25731 6.24381 5.34368
#
# Compressibility (1/GPa) = 0.05618119
#
# Stress axis : x y z
#
# Youngs Moduli (GPa) = 13.56392 109.87607 45.64712
#
# Poissons Ratio (x) = 0.73194 0.78457
# Poissons Ratio (y) = 0.09036 0.01948
# Poissons Ratio (z) = 0.23313 0.04689
#
# Static dielectric constant tensor:
#      x y z
#    x 1.875400 0.006090 -0.031300 
#    y 0.006090 1.935310 -0.046610 
#    z -0.031300 -0.046610 1.843570 
# 
# From -- ./inp_files/258821.got.cif
#   From: 2010.05.17/outbox.cif.g08.bks.cpg/sg2_130_cif.got.tgz:258821.got - 2010.06.03 11:33:40.
