data_PCOD9084236
_publ_section_title
;
Structure prediction by ZEFSAII (Michael W. Deem and Ramdas Pophale) SiO2 
 PCOD9084236
Probable space group: P -1
;
_chemical_formula_sum "Si O2"
_cell_formula_units_Z 16
_cell_length_a 14.131129
_cell_length_b 10.159605
_cell_length_c 13.710068
_cell_angle_alpha 101.502634
_cell_angle_beta 136.311402
_cell_angle_gamma 45.420547
_cell_volume 754.959153
_symmetry_space_group_name_H-M "P -1"
_symmetry_group_IT_number 2
_symmetry_cell_setting 'triclinic'
loop_
_space_group_symop_operation_xyz
x,y,z
-x,-y,-z
loop_
_atom_site_type_symbol
_atom_site_label
_atom_site_fract_x
_atom_site_fract_y
_atom_site_fract_z
Si Si1 0.286249 0.762614 0.200018
Si Si2 0.197684 0.318507 0.350527
Si Si3 0.817810 0.679765 0.977341
Si Si4 0.339455 0.925369 0.435432
Si Si5 0.540555 0.849897 0.138834
Si Si6 0.770466 0.947461 0.251738
Si Si7 0.456185 0.729833 0.700263
Si Si8 0.713949 0.566303 0.393678
O O1 0.325475 0.810257 0.337271
O O2 0.402856 0.520844 0.253528
O O3 0.459296 0.700178 0.243711
O O4 0.000000 0.000000 0.000000
O O5 0.406200 0.202044 0.414625
O O6 0.268702 0.315084 0.508285
O O7 0.161092 0.188548 0.308608
O O8 0.958718 0.578367 0.169164
O O9 0.657075 0.679006 0.862328
O O10 0.648094 0.946259 0.888216
O O11 0.000000 0.500000 0.000000
O O12 0.319068 0.892241 0.525326
O O13 0.721421 0.602920 0.291758
O O14 0.678671 0.874512 0.212505
O O15 0.382375 0.916764 0.942497
O O16 0.704087 0.123354 0.301055
O O17 0.061625 0.701688 0.437078
#
# Coordination Sequence:
#
# PCOD9084236 Si02
#       8
#     2   2   2   2   2   2   2   2
#     4  11  26  44  62  92 128 169 218 265 318 384
#     4  10  19  34  61  97 122 156 207 264 328 377
#     4  11  20  33  63  94 130 160 203 268 326 378
#     4  10  21  37  60  89 124 162 206 265 326 373
#     4  10  22  39  64 100 129 167 207 268 329 371
#     4  10  22  43  64  96 128 168 217 263 312 387
#     4  11  23  41  62  90 128 172 211 259 317 382
#     4  11  23  42  67  93 133 169 212 265 317 382
#
# _framework density 21.193199
#
# number of rings (size 3 to 8) (size 9 to 14) (size 15 to 20)
#    0.000    1.500    2.500    3.000    5.250    0.500 
#    4.500    0.625    0.000    0.000    0.000    0.000 
#    0.000    0.000    0.000    0.000    0.000    0.000 
#
# Total GULP energy -89241.114342 kJ/mol
# GULP energy per Si atom -5577.569646 kJ/mol
# Density = 2.114496 g / cm^3
# Si number density = 21.193199 Si / 1000 Ang^3
#
#
#
# Elastic Constant Matrix: (Units=GPa)
#
#
# Indices 1 2 3 4 5 6 
#
# 1 37.8721 15.5201 24.2258 7.6884 -6.6710 -9.4994
# 2 15.5201 100.8048 22.3340 2.7903 -3.7942 -4.7195
# 3 24.2258 22.3340 96.0206 -0.3969 -12.9030 2.9816
# 4 7.6884 2.7903 -0.3969 22.1011 -4.8938 -0.2382
# 5 -6.6710 -3.7942 -12.9030 -4.8938 34.1058 -2.5565
# 6 -9.4994 -4.7195 2.9816 -0.2382 -2.5565 25.2127
#
#
#
# Elastic Compliance Matrix: (Units=1/GPa)
#
#
# Indices 1 2 3 4 5 6 
#
# 1 0.041296 -0.002914 -0.009855 -0.013256 0.003352 0.016394
# 2 -0.002914 0.010836 -0.001825 -0.000380 -0.000024 0.001140
# 3 -0.009855 -0.001825 0.013969 0.004609 0.003417 -0.005317
# 4 -0.013256 -0.000380 0.004609 0.051298 0.006132 -0.004504
# 5 0.003352 -0.000024 0.003417 0.006132 0.032461 0.004204
# 6 0.016394 0.001140 -0.005317 -0.004504 0.004204 0.047065
#
#
# Mechanical properties :
#
#
# Convention : Reuss Voigt Hill
#
# Bulk Modulus (GPa) = 27.09092 39.87304 33.48198
# Shear Modulus (GPa) = 20.97162 27.79177 24.38169
#
# Velocity S-wave (km/s) = 3.14912 3.62519 3.39551
# Velocity P-wave (km/s) = 5.10227 6.03138 5.58618
#
# Compressibility (1/GPa) = 0.03691274
#
# Stress axis : x y z
#
# Youngs Moduli (GPa) = 24.21536 92.28264 71.58919
#
# Poissons Ratio (x) = 0.26892 0.70548
# Poissons Ratio (y) = 0.07057 0.13069
# Poissons Ratio (z) = 0.23863 0.16846
#
# Static dielectric constant tensor:
#      x y z
#    x 1.759830 -0.050950 0.044530 
#    y -0.050950 1.807550 -0.060040 
#    z 0.044530 -0.060040 1.771540 
# 
# From -- ./inp_files/529916.got.cif
#   From: 2010.05.17/outbox.cif.g08.bks.cpg/sg2_265_cif.got.tgz:529916.got - 2010.06.03 11:33:40.
