data_PCOD9084293
_publ_section_title
;
Structure prediction by ZEFSAII (Michael W. Deem and Ramdas Pophale) SiO2 
 PCOD9084293
Probable space group: P -1
;
_chemical_formula_sum "Si O2"
_cell_formula_units_Z 16
_cell_length_a 10.489533
_cell_length_b 14.824480
_cell_length_c 9.294019
_cell_angle_alpha 141.003733
_cell_angle_beta 89.744945
_cell_angle_gamma 62.713590
_cell_volume 617.612686
_symmetry_space_group_name_H-M "P -1"
_symmetry_group_IT_number 2
_symmetry_cell_setting 'triclinic'
loop_
_space_group_symop_operation_xyz
x,y,z
-x,-y,-z
loop_
_atom_site_type_symbol
_atom_site_label
_atom_site_fract_x
_atom_site_fract_y
_atom_site_fract_z
Si Si1 0.380391 0.681648 0.549505
Si Si2 0.951061 0.488858 0.728601
Si Si3 0.243346 0.351482 0.794138
Si Si4 0.788006 0.220987 0.043603
Si Si5 0.324761 0.956834 0.307959
Si Si6 0.442425 0.192017 0.155533
Si Si7 0.975295 0.335956 0.243490
Si Si8 0.421265 0.721504 0.306980
O O1 0.579365 0.431270 0.240234
O O2 0.241321 0.728875 0.723229
O O3 0.432022 0.789744 0.751324
O O4 0.297541 0.786321 0.526099
O O5 0.102327 0.441559 0.774408
O O6 0.884087 0.679672 0.868033
O O7 0.017973 0.320402 0.395896
O O8 0.821851 0.527097 0.901740
O O9 0.413523 0.306111 0.680549
O O10 0.277823 0.158125 0.596048
O O11 0.939442 0.218355 0.011684
O O12 0.817989 0.032043 0.763029
O O13 0.347743 0.855475 0.331082
O O14 0.498373 0.840318 0.052536
O O15 0.229906 0.418118 0.459215
O O16 0.500000 0.000000 0.000000
O O17 0.500000 0.500000 0.000000
#
# Coordination Sequence:
#
# PCOD9084293 Si02
#       8
#     2   2   2   2   2   2   2   2
#     4   9  18  31  51  87 120 158 185 235 318 364
#     4  10  23  40  63  83 118 178 211 245 295 359
#     4  11  24  42  59  88 131 160 209 251 304 378
#     4   9  18  35  58  83 123 152 202 249 296 372
#     4  11  22  38  61  97 128 158 193 264 330 365
#     4  10  19  34  62  92 126 152 196 262 319 359
#     4  10  20  38  63  88 114 165 219 247 295 368
#     4  12  23  35  62  96 126 158 197 256 331 373
#
# _framework density 25.906205
#
# number of rings (size 3 to 8) (size 9 to 14) (size 15 to 20)
#    0.000    1.750    1.250    4.875    1.750    1.000 
#    0.000    2.500    0.000    0.000    0.000    0.000 
#    0.000    0.000    0.000    0.000    0.000    0.000 
#
# Total GULP energy -89265.715844 kJ/mol
# GULP energy per Si atom -5579.107240 kJ/mol
# Density = 2.584724 g / cm^3
# Si number density = 25.906205 Si / 1000 Ang^3
#
#
#
# Elastic Constant Matrix: (Units=GPa)
#
#
# Indices 1 2 3 4 5 6 
#
# 1 65.7149 4.1989 4.6651 8.3944 27.1989 9.3541
# 2 4.1989 155.7850 39.7723 -22.8067 -14.4212 29.0662
# 3 4.6651 39.7723 50.5893 2.9491 6.1845 -7.5267
# 4 8.3944 -22.8067 2.9491 47.9303 15.4037 2.9145
# 5 27.1989 -14.4212 6.1845 15.4037 38.7192 -3.4741
# 6 9.3541 29.0662 -7.5267 2.9145 -3.4741 33.4457
#
#
#
# Elastic Compliance Matrix: (Units=1/GPa)
#
#
# Indices 1 2 3 4 5 6 
#
# 1 0.023896 0.000179 -0.001640 0.002437 -0.018263 -0.009318
# 2 0.000179 0.014789 -0.014963 0.007934 0.003123 -0.016637
# 3 -0.001640 -0.014963 0.036024 -0.008873 -0.004684 0.021856
# 4 0.002437 0.007934 -0.008873 0.028755 -0.009956 -0.013114
# 5 -0.018263 0.003123 -0.004684 -0.009956 0.045147 0.006897
# 6 -0.009318 -0.016637 0.021856 -0.013114 0.006897 0.053741
#
#
# Mechanical properties :
#
#
# Convention : Reuss Voigt Hill
#
# Bulk Modulus (GPa) = 23.88872 41.04022 32.46447
# Shear Modulus (GPa) = 20.06787 38.91590 29.49189
#
# Velocity S-wave (km/s) = 2.78625 3.88001 3.37769
# Velocity P-wave (km/s) = 4.42630 5.99574 5.26977
#
# Compressibility (1/GPa) = 0.04186077
#
# Stress axis : x y z
#
# Youngs Moduli (GPa) = 41.84775 67.61666 27.75958
#
# Poissons Ratio (x) = -0.01212 0.04553
# Poissons Ratio (y) = -0.00750 0.41537
# Poissons Ratio (z) = 0.06864 1.01176
#
# Static dielectric constant tensor:
#      x y z
#    x 2.068630 -0.024440 -0.115920 
#    y -0.024440 2.179320 0.003970 
#    z -0.115920 0.003970 2.254890 
# 
# From -- ./inp_files/205655.got.cif
#   From: 2010.05.17/outbox.cif.g08.bks.cpg/sg2_103_cif.got.tgz:205655.got - 2010.06.03 11:33:40.
