data_PCOD9084563
_publ_section_title
;
Structure prediction by ZEFSAII (Michael W. Deem and Ramdas Pophale) SiO2 
 PCOD9084563
Probable space group: P -1
;
_chemical_formula_sum "Si O2"
_cell_formula_units_Z 14
_cell_length_a 15.090691
_cell_length_b 7.909400
_cell_length_c 11.876454
_cell_angle_alpha 128.559223
_cell_angle_beta 148.640782
_cell_angle_gamma 44.643408
_cell_volume 517.892586
_symmetry_space_group_name_H-M "P -1"
_symmetry_group_IT_number 2
_symmetry_cell_setting 'triclinic'
loop_
_space_group_symop_operation_xyz
x,y,z
-x,-y,-z
loop_
_atom_site_type_symbol
_atom_site_label
_atom_site_fract_x
_atom_site_fract_y
_atom_site_fract_z
Si Si1 0.809939 0.271305 0.636029
Si Si2 0.778015 0.334156 0.875476
Si Si3 0.041898 0.773461 0.599542
Si Si4 0.706381 0.084079 0.237176
Si Si5 0.556966 0.182259 0.740269
Si Si6 0.185913 0.272519 0.252784
Si Si7 0.331280 0.416853 0.913466
O O1 0.720312 0.375895 0.700790
O O2 0.674286 0.256045 0.383863
O O3 0.893987 0.447834 0.754075
O O4 0.962079 0.990049 0.695278
O O5 0.661691 0.197647 0.743769
O O6 0.731603 0.532885 0.003921
O O7 0.006677 0.227707 0.072085
O O8 0.169177 0.844430 0.683546
O O9 0.167981 0.518635 0.685714
O O10 0.851663 0.830741 0.344851
O O11 0.507977 0.155252 0.989711
O O12 0.341274 0.240970 0.505071
O O13 0.690037 0.899943 0.787331
O O14 0.581743 0.382427 0.923879
#
# Coordination Sequence:
#
# PCOD9084563 Si02
#       7
#     2   2   2   2   2   2   2
#     4  10  19  35  54  85 117 148 191 238 287 346
#     4  10  22  34  57  87 121 151 186 237 302 353
#     4   9  19  34  59  82 110 156 200 237 283 338
#     4   9  19  35  54  88 108 151 206 235 277 348
#     4   9  21  33  53  87 119 154 190 227 296 361
#     4  11  19  34  53  83 126 152 187 235 289 355
#     4  10  19  36  57  85 114 148 194 237 286 350
#
# _framework density 27.032630000000001
#
# number of rings (size 3 to 8) (size 9 to 14) (size 15 to 20)
#    1.714    0.571    1.429    2.143    2.000    2.286 
#    0.000    0.000    0.000    1.714    0.000    0.000 
#    0.000    0.000    0.000    0.000    0.000    0.000 
#
# Total GULP energy -78082.366654 kJ/mol
# GULP energy per Si atom -5577.311904 kJ/mol
# Density = 2.697110 g / cm^3
# Si number density = 27.032630 Si / 1000 Ang^3
#
#
#
# Elastic Constant Matrix: (Units=GPa)
#
#
# Indices 1 2 3 4 5 6 
#
# 1 112.4111 19.4740 42.9828 -15.6758 -9.3699 3.2678
# 2 19.4740 107.5675 24.4243 -19.1329 -3.9700 12.9057
# 3 42.9828 24.4243 172.5590 -22.4178 16.5414 -2.3755
# 4 -15.6758 -19.1329 -22.4178 63.4285 -10.6171 -5.6577
# 5 -9.3699 -3.9700 16.5414 -10.6171 30.8621 -0.6002
# 6 3.2678 12.9057 -2.3755 -5.6577 -0.6002 31.4647
#
#
#
# Elastic Compliance Matrix: (Units=1/GPa)
#
#
# Indices 1 2 3 4 5 6 
#
# 1 0.010912 -0.000630 -0.002862 0.002378 0.005573 -0.000557
# 2 -0.000630 0.010771 -0.001332 0.002739 0.002774 -0.003908
# 3 -0.002862 -0.001332 0.007266 0.000814 -0.004626 0.001450
# 4 0.002378 0.002739 0.000814 0.018866 0.007171 0.002220
# 5 0.005573 0.002774 -0.004626 0.007171 0.039397 -0.000025
# 6 -0.000557 -0.003908 0.001450 0.002220 -0.000025 0.033951
#
#
# Mechanical properties :
#
#
# Convention : Reuss Voigt Hill
#
# Bulk Modulus (GPa) = 51.80889 62.92220 57.36555
# Shear Modulus (GPa) = 36.43183 45.52816 40.98000
#
# Velocity S-wave (km/s) = 3.67508 4.10834 3.89774
# Velocity P-wave (km/s) = 6.10043 6.76990 6.44387
#
# Compressibility (1/GPa) = 0.01930170
#
# Stress axis : x y z
#
# Youngs Moduli (GPa) = 91.64470 92.83987 137.63532
#
# Poissons Ratio (x) = 0.05850 0.39387
# Poissons Ratio (y) = 0.05775 0.18327
# Poissons Ratio (z) = 0.26226 0.12362
#
# Static dielectric constant tensor:
#      x y z
#    x 2.079070 0.062820 0.059250 
#    y 0.062820 2.304520 0.012430 
#    z 0.059250 0.012430 2.191790 
# 
# From -- ./inp_files/536746.got.cif
#   From: 2010.05.17/outbox.cif.g08.bks.cpg/sg2_269_cif.got.tgz:536746.got - 2010.06.03 11:33:40.
