data_PCOD9084697
_publ_section_title
;
Structure prediction by ZEFSAII (Michael W. Deem and Ramdas Pophale) SiO2 
 PCOD9084697
Probable space group: P -1
;
_chemical_formula_sum "Si O2"
_cell_formula_units_Z 16
_cell_length_a 9.940059
_cell_length_b 14.995481
_cell_length_c 8.052840
_cell_angle_alpha 63.361976
_cell_angle_beta 101.468335
_cell_angle_gamma 49.324222
_cell_volume 560.988468
_symmetry_space_group_name_H-M "P -1"
_symmetry_group_IT_number 2
_symmetry_cell_setting 'triclinic'
loop_
_space_group_symop_operation_xyz
x,y,z
-x,-y,-z
loop_
_atom_site_type_symbol
_atom_site_label
_atom_site_fract_x
_atom_site_fract_y
_atom_site_fract_z
Si Si1 0.358929 0.686609 0.377625
Si Si2 0.960653 0.823513 0.000744
Si Si3 0.706550 0.162108 0.233040
Si Si4 0.449371 0.248130 0.443110
Si Si5 0.667802 0.436794 0.238930
Si Si6 0.221062 0.223061 0.220424
Si Si7 0.958095 0.676541 0.432682
Si Si8 0.362457 0.249200 0.896648
O O1 0.500000 0.500000 0.500000
O O2 0.535006 0.673216 0.479507
O O3 0.277283 0.694381 0.529750
O O4 0.113867 0.832087 0.074835
O O5 0.993085 0.733365 0.243741
O O6 0.989346 0.734232 0.917594
O O7 0.677388 0.037182 0.731782
O O8 0.540960 0.237796 0.295939
O O9 0.546293 0.347743 0.943810
O O10 0.647704 0.107199 0.136825
O O11 0.000000 0.000000 0.500000
O O12 0.216430 0.314933 0.282214
O O13 0.939404 0.326378 0.380574
O O14 0.500000 0.500000 0.000000
O O15 0.500000 0.000000 0.500000
O O16 0.250511 0.261495 0.019586
O O17 0.169713 0.459879 0.648161
O O18 0.685200 0.793347 0.236172
#
# Coordination Sequence:
#
# PCOD9084697 Si02
#       8
#     2   2   2   2   2   2   2   2
#     4  11  23  36  54  82 114 150 188 234 280 332
#     4   9  18  33  53  81 110 143 182 228 285 338
#     4  10  20  32  55  84 110 144 184 232 282 337
#     4  10  19  35  56  83 111 149 186 228 283 338
#     4  10  19  36  54  77 109 146 191 232 277 333
#     4   8  15  29  53  81 107 141 184 227 275 335
#     4   8  15  28  52  79 103 144 186 226 274 334
#     4   8  14  28  49  79 110 140 185 223 275 337
#
# _framework density 28.521086
#
# number of rings (size 3 to 8) (size 9 to 14) (size 15 to 20)
#    0.000    2.750    1.250    0.375    1.750    0.000 
#    0.000    0.625    0.000    0.750    0.000    0.000 
#    0.000    0.000    0.000    0.000    0.000    0.000 
#
# Total GULP energy -89136.543781 kJ/mol
# GULP energy per Si atom -5571.033986 kJ/mol
# Density = 2.845617 g / cm^3
# Si number density = 28.521086 Si / 1000 Ang^3
#
#
#
# Elastic Constant Matrix: (Units=GPa)
#
#
# Indices 1 2 3 4 5 6 
#
# 1 113.3104 56.8075 43.3500 30.6152 27.9084 39.1436
# 2 56.8075 103.0719 49.4206 35.5741 32.9625 43.4994
# 3 43.3500 49.4206 163.4604 20.7655 27.7849 29.2369
# 4 30.6152 35.5741 20.7655 70.5203 38.4832 20.0238
# 5 27.9084 32.9625 27.7849 38.4832 84.3987 32.4995
# 6 39.1436 43.4994 29.2369 20.0238 32.4995 50.4693
#
#
#
# Elastic Compliance Matrix: (Units=1/GPa)
#
#
# Indices 1 2 3 4 5 6 
#
# 1 0.013826 -0.003810 -0.001223 -0.002383 0.000842 -0.006327
# 2 -0.003810 0.018651 -0.002314 -0.004558 0.000871 -0.010533
# 3 -0.001223 -0.002314 0.007420 0.000262 -0.000920 -0.000867
# 4 -0.002383 -0.004558 0.000262 0.021169 -0.008114 0.002452
# 5 0.000842 0.000871 -0.000920 -0.008114 0.019053 -0.009921
# 6 -0.006327 -0.010533 -0.000867 0.002452 -0.009921 0.039717
#
#
# Mechanical properties :
#
#
# Convention : Reuss Voigt Hill
#
# Bulk Modulus (GPa) = 39.67887 75.44432 57.56160
# Shear Modulus (GPa) = 34.98226 56.42863 45.70545
#
# Velocity S-wave (km/s) = 3.50600 4.45285 4.00748
# Velocity P-wave (km/s) = 5.50742 7.27645 6.45284
#
# Compressibility (1/GPa) = 0.02520233
#
# Stress axis : x y z
#
# Youngs Moduli (GPa) = 72.32907 53.61772 134.77419
#
# Poissons Ratio (x) = 0.20427 0.16488
# Poissons Ratio (y) = 0.27556 0.31182
# Poissons Ratio (z) = 0.08849 0.12405
#
# Static dielectric constant tensor:
#      x y z
#    x 2.199740 -0.400950 0.102640 
#    y -0.400950 1.474700 0.063420 
#    z 0.102640 0.063420 2.301590 
# 
# From -- ./inp_files/272681.got.cif
#   From: 2010.05.17/outbox.cif.g08.bks.cpg/sg2_137_cif.got.tgz:272681.got - 2010.06.03 11:33:40.
