data_PCOD9084860
_publ_section_title
;
Structure prediction by ZEFSAII (Michael W. Deem and Ramdas Pophale) SiO2 
 PCOD9084860
Probable space group: P -1
;
_chemical_formula_sum "Si O2"
_cell_formula_units_Z 16
_cell_length_a 21.772582
_cell_length_b 12.368334
_cell_length_c 24.228018
_cell_angle_alpha 132.997961
_cell_angle_beta 11.577159
_cell_angle_gamma 134.492841
_cell_volume 933.536216
_symmetry_space_group_name_H-M "P -1"
_symmetry_group_IT_number 2
_symmetry_cell_setting 'triclinic'
loop_
_space_group_symop_operation_xyz
x,y,z
-x,-y,-z
loop_
_atom_site_type_symbol
_atom_site_label
_atom_site_fract_x
_atom_site_fract_y
_atom_site_fract_z
Si Si1 0.691643 0.004866 0.391313
Si Si2 0.129079 0.059729 0.467985
Si Si3 0.687111 0.246599 0.981606
Si Si4 0.672373 0.432438 0.873170
Si Si5 0.084505 0.879187 0.928563
Si Si6 0.941637 0.353902 0.302760
Si Si7 0.270031 0.422128 0.919883
Si Si8 0.802690 0.742921 0.683079
O O1 0.453297 0.900956 0.605782
O O2 0.500000 0.000000 0.500000
O O3 0.795011 0.176641 0.379768
O O4 0.982594 0.934913 0.095510
O O5 0.490392 0.133892 0.161349
O O6 0.000000 0.000000 0.500000
O O7 0.021843 0.911753 0.548930
O O8 0.949271 0.180748 0.695162
O O9 0.800083 0.412007 0.966534
O O10 0.435714 0.266516 0.162256
O O11 0.420225 0.307143 0.085567
O O12 0.500000 0.500000 0.000000
O O13 0.824292 0.563439 0.828175
O O14 0.959752 0.366040 0.574131
O O15 0.898576 0.711600 0.018802
O O16 0.000000 0.000000 0.000000
O O17 0.642019 0.431136 0.590689
O O18 0.132015 0.367441 0.082666
#
# Coordination Sequence:
#
# PCOD9084860 Si02
#       8
#     2   2   2   2   2   2   2   2
#     4  10  16  26  43  60  90 117 165 177 219 289
#     4  10  20  32  49  70  92 117 159 204 244 297
#     4  11  19  31  47  74  94 121 160 196 237 304
#     4  12  24  36  49  69  94 129 178 210 231 270
#     4  10  16  27  38  65  89 122 158 175 213 287
#     4  12  19  31  44  64  91 133 161 194 232 270
#     4  12  19  27  47  65  97 126 157 185 231 280
#     4  11  20  36  52  64  90 128 158 210 254 274
#
# _framework density 17.139132
#
# number of rings (size 3 to 8) (size 9 to 14) (size 15 to 20)
#    0.000    1.000    7.500    4.875    0.000    0.000 
#    0.000    0.000    0.000    0.000    0.000    0.000 
#    0.000    0.000    0.000   22.500    0.000    2.500 
#
# Total GULP energy -89174.167307 kJ/mol
# GULP energy per Si atom -5573.385457 kJ/mol
# Density = 1.710012 g / cm^3
# Si number density = 17.139132 Si / 1000 Ang^3
#
#
#
# Elastic Constant Matrix: (Units=GPa)
#
#
# Indices 1 2 3 4 5 6 
#
# 1 14.8759 12.3018 18.0655 0.4074 6.7666 -0.0638
# 2 12.3018 85.3297 -6.5445 -5.3070 1.2408 17.1589
# 3 18.0655 -6.5445 76.2335 3.4396 29.3839 0.9397
# 4 0.4074 -5.3070 3.4396 32.5075 1.9984 12.4561
# 5 6.7666 1.2408 29.3839 1.9984 21.3066 3.4234
# 6 -0.0638 17.1589 0.9397 12.4561 3.4234 19.2882
#
#
#
# Elastic Compliance Matrix: (Units=1/GPa)
#
#
# Indices 1 2 3 4 5 6 
#
# 1 0.137684 -0.032761 -0.036209 -0.020253 0.002961 0.043917
# 2 -0.032761 0.024834 0.009963 0.016075 -0.001006 -0.032889
# 3 -0.036209 0.009963 0.038576 0.002509 -0.041700 -0.005082
# 4 -0.020253 0.016075 0.002509 0.051770 0.005022 -0.048813
# 5 0.002961 -0.001006 -0.041700 0.005022 0.106166 -0.019151
# 6 0.043917 -0.032889 -0.005082 -0.048813 -0.019151 0.116418
#
#
# Mechanical properties :
#
#
# Convention : Reuss Voigt Hill
#
# Bulk Modulus (GPa) = 12.03642 24.89830 18.46736
# Shear Modulus (GPa) = 8.04952 24.79489 16.42221
#
# Velocity S-wave (km/s) = 2.16951 3.80765 3.09879
# Velocity P-wave (km/s) = 3.64880 5.82148 4.85816
#
# Compressibility (1/GPa) = 0.08308119
#
# Stress axis : x y z
#
# Youngs Moduli (GPa) = 7.26303 40.26669 25.92285
#
# Poissons Ratio (x) = 1.31916 0.93864
# Poissons Ratio (y) = 0.23794 -0.25827
# Poissons Ratio (z) = 0.26299 -0.40118
#
# Static dielectric constant tensor:
#      x y z
#    x 1.602440 0.006940 0.107360 
#    y 0.006940 1.629330 -0.017330 
#    z 0.107360 -0.017330 1.679500 
# 
# From -- ./inp_files/569951.got.cif
#   From: 2010.05.17/outbox.cif.g08.bks.cpg/sg2_285_cif.got.tgz:569951.got - 2010.06.03 11:33:40.
