data_PCOD9084004
_publ_section_title
;
Structure prediction by ZEFSAII (Michael W. Deem and Ramdas Pophale) SiO2 
 PCOD9084004
Probable space group: P -1
;
_chemical_formula_sum "Si O2"
_cell_formula_units_Z 14
_cell_length_a 14.241586
_cell_length_b 11.547171
_cell_length_c 7.843883
_cell_angle_alpha 83.143247
_cell_angle_beta 135.834796
_cell_angle_gamma 120.933724
_cell_volume 700.587932
_symmetry_space_group_name_H-M "P -1"
_symmetry_group_IT_number 2
_symmetry_cell_setting 'triclinic'
loop_
_space_group_symop_operation_xyz
x,y,z
-x,-y,-z
loop_
_atom_site_type_symbol
_atom_site_label
_atom_site_fract_x
_atom_site_fract_y
_atom_site_fract_z
Si Si1 0.156915 0.077545 0.837784
Si Si2 0.721163 0.323241 0.631437
Si Si3 0.938535 0.167993 0.462727
Si Si4 0.027982 0.348232 0.203546
Si Si5 0.114085 0.147804 0.240422
Si Si6 0.594961 0.821766 0.536437
Si Si7 0.637665 0.075892 0.319867
O O1 0.111861 0.190283 0.740012
O O2 0.192307 0.002101 0.750804
O O3 0.289002 0.122036 0.151573
O O4 0.967214 0.929006 0.671692
O O5 0.593610 0.299666 0.616432
O O6 0.628402 0.187694 0.401161
O O7 0.814141 0.478105 0.627817
O O8 0.865575 0.324499 0.913895
O O9 0.981818 0.279228 0.345555
O O10 0.829412 0.167180 0.472434
O O11 0.073896 0.261999 0.158800
O O12 0.310755 0.221447 0.454255
O O13 0.000000 0.000000 0.000000
O O14 0.607616 0.950988 0.430927
O O15 0.500000 0.000000 0.000000
#
# Coordination Sequence:
#
# PCOD9084004 Si02
#       7
#     2   2   2   2   2   2   2
#     4   9  18  34  59  91 117 147 195 256 297 341
#     4  11  24  41  59  84 129 164 195 238 300 366
#     4  10  19  34  59  89 117 151 197 248 298 345
#     4  10  23  42  61  86 121 165 198 239 301 363
#     4   9  17  34  64  89 112 144 204 246 286 343
#     4  11  21  37  62  90 116 155 203 251 292 351
#     4  12  23  36  63  92 120 153 201 253 297 350
#
# _framework density 19.983215999999999
#
# number of rings (size 3 to 8) (size 9 to 14) (size 15 to 20)
#    0.000    1.714    1.429    4.714    2.000    1.143 
#    0.000    0.714    0.000    0.000    0.000    0.000 
#    0.000    0.000    0.000    0.000    0.000    0.000 
#
# Total GULP energy -77953.493821 kJ/mol
# GULP energy per Si atom -5568.106702 kJ/mol
# Density = 1.993773 g / cm^3
# Si number density = 19.983216 Si / 1000 Ang^3
#
#
#
# Elastic Constant Matrix: (Units=GPa)
#
#
# Indices 1 2 3 4 5 6 
#
# 1 78.4645 11.1723 5.5088 4.3800 28.8638 4.5761
# 2 11.1723 83.1493 40.8369 -21.9447 11.5617 19.3580
# 3 5.5088 40.8369 73.8421 -14.5857 5.3844 4.0919
# 4 4.3800 -21.9447 -14.5857 20.9039 6.2130 1.4532
# 5 28.8638 11.5617 5.3844 6.2130 28.6784 -4.0211
# 6 4.5761 19.3580 4.0919 1.4532 -4.0211 22.2556
#
#
#
# Elastic Compliance Matrix: (Units=1/GPa)
#
#
# Indices 1 2 3 4 5 6 
#
# 1 0.026383 0.016432 -0.001344 0.025409 -0.042470 -0.028803
# 2 0.016432 0.062827 -0.011241 0.079777 -0.067322 -0.073332
# 3 -0.001344 -0.011241 0.019357 0.000576 0.003109 0.007019
# 4 0.025409 0.079777 0.000576 0.166260 -0.108614 -0.105201
# 5 -0.042470 -0.067322 0.003109 -0.108614 0.141639 0.099401
# 6 -0.028803 -0.073332 0.007019 -0.105201 0.099401 0.138178
#
#
# Mechanical properties :
#
#
# Convention : Reuss Voigt Hill
#
# Bulk Modulus (GPa) = 8.60118 38.94353 23.77235
# Shear Modulus (GPa) = 8.53673 26.23011 17.38342
#
# Velocity S-wave (km/s) = 2.06911 3.62692 2.95261
# Velocity P-wave (km/s) = 3.16573 6.08850 4.85241
#
# Compressibility (1/GPa) = 0.11626311
#
# Stress axis : x y z
#
# Youngs Moduli (GPa) = 37.90249 15.91663 51.66054
#
# Poissons Ratio (x) = -0.26154 0.06941
# Poissons Ratio (y) = -0.62281 0.58070
# Poissons Ratio (z) = 0.05093 0.17891
#
# Static dielectric constant tensor:
#      x y z
#    x 2.110210 0.001130 -0.169330 
#    y 0.001130 1.711180 -0.036070 
#    z -0.169330 -0.036070 1.856480 
# 
# From -- ./inp_files/303146.got.cif
#   From: 2010.05.17/outbox.cif.g08.bks.cpg/sg2_152_cif.got.tgz:303146.got - 2010.06.03 11:33:40.
