data_PCOD9084887
_publ_section_title
;
Structure prediction by ZEFSAII (Michael W. Deem and Ramdas Pophale) SiO2 
 PCOD9084887
Probable space group: P -1
;
_chemical_formula_sum "Si O2"
_cell_formula_units_Z 16
_cell_length_a 9.039531
_cell_length_b 13.939358
_cell_length_c 10.449267
_cell_angle_alpha 46.190667
_cell_angle_beta 68.460877
_cell_angle_gamma 52.254825
_cell_volume 747.626376
_symmetry_space_group_name_H-M "P -1"
_symmetry_group_IT_number 2
_symmetry_cell_setting 'triclinic'
loop_
_space_group_symop_operation_xyz
x,y,z
-x,-y,-z
loop_
_atom_site_type_symbol
_atom_site_label
_atom_site_fract_x
_atom_site_fract_y
_atom_site_fract_z
Si Si1 0.337587 0.776100 0.836589
Si Si2 0.979092 0.359863 0.589449
Si Si3 0.180345 0.012063 0.455867
Si Si4 0.988891 0.353296 0.308060
Si Si5 0.688186 0.848773 0.921727
Si Si6 0.735416 0.989449 0.122026
Si Si7 0.745096 0.572295 0.970466
Si Si8 0.988202 0.214156 0.956126
O O1 0.329319 0.863359 0.628861
O O2 0.290313 0.894729 0.862486
O O3 0.541940 0.625048 0.934656
O O4 0.160750 0.756192 0.917001
O O5 0.901726 0.389075 0.443725
O O6 0.174689 0.187433 0.687404
O O7 0.876770 0.329173 0.766728
O O8 0.000000 0.500000 0.500000
O O9 0.112491 0.167110 0.419344
O O10 0.263366 0.038750 0.276151
O O11 0.000000 0.000000 0.500000
O O12 0.845298 0.424005 0.169350
O O13 0.118880 0.427098 0.181680
O O14 0.468795 0.942188 0.936918
O O15 0.717985 0.712717 0.941776
O O16 0.844015 0.770616 0.054720
O O17 0.885862 0.958004 0.991746
#
# Coordination Sequence:
#
# PCOD9084887 Si02
#       8
#     2   2   2   2   2   2   2   2
#     4  11  20  38  57  89 113 150 190 235 292 337
#     4  10  21  35  59  81 114 153 193 232 279 338
#     4  11  21  35  61  85 119 148 185 243 286 341
#     4  10  20  41  58  85 114 153 192 233 289 332
#     4  10  19  35  57  88 110 148 197 234 283 334
#     4   9  21  33  58  82 110 153 191 234 274 339
#     4   9  22  36  64  80 116 149 189 240 285 341
#     4  10  20  34  57  80 119 146 185 238 282 332
#
# _framework density 21.401064000000002
#
# number of rings (size 3 to 8) (size 9 to 14) (size 15 to 20)
#    0.750    1.250    2.500    1.500    1.750    1.500 
#    0.000    2.500    0.000    0.000    0.000    0.000 
#    0.000    0.000    0.000    0.000    0.000    0.000 
#
# Total GULP energy -89195.321098 kJ/mol
# GULP energy per Si atom -5574.707569 kJ/mol
# Density = 2.135235 g / cm^3
# Si number density = 21.401064 Si / 1000 Ang^3
#
#
#
# Elastic Constant Matrix: (Units=GPa)
#
#
# Indices 1 2 3 4 5 6 
#
# 1 80.0355 13.4980 11.5701 -0.2166 14.0114 -14.7525
# 2 13.4980 45.1814 10.5164 -2.0877 2.2812 -12.1133
# 3 11.5701 10.5164 91.2700 9.3756 18.9726 -10.4789
# 4 -0.2166 -2.0877 9.3756 24.3248 1.7112 6.0160
# 5 14.0114 2.2812 18.9726 1.7112 24.9772 -1.2524
# 6 -14.7525 -12.1133 -10.4789 6.0160 -1.2524 37.4673
#
#
#
# Elastic Compliance Matrix: (Units=1/GPa)
#
#
# Indices 1 2 3 4 5 6 
#
# 1 0.015352 -0.003016 0.000929 -0.001160 -0.008701 0.005225
# 2 -0.003016 0.025202 -0.002225 0.001379 0.001295 0.006160
# 3 0.000929 -0.002225 0.014423 -0.006056 -0.010643 0.004297
# 4 -0.001160 0.001379 -0.006056 0.045666 0.001546 -0.008985
# 5 -0.008701 0.001295 -0.010643 0.001546 0.052554 -0.004476
# 6 0.005225 0.006160 0.004297 -0.008985 -0.004476 0.033234
#
#
# Mechanical properties :
#
#
# Convention : Reuss Voigt Hill
#
# Bulk Modulus (GPa) = 21.57378 31.96176 26.76777
# Shear Modulus (GPa) = 23.75241 29.41401 26.58321
#
# Velocity S-wave (km/s) = 3.33509 3.71134 3.52823
# Velocity P-wave (km/s) = 4.99329 5.77342 5.39747
#
# Compressibility (1/GPa) = 0.04635256
#
# Stress axis : x y z
#
# Youngs Moduli (GPa) = 65.13812 39.67970 69.33386
#
# Poissons Ratio (x) = 0.11968 -0.06442
# Poissons Ratio (y) = 0.19647 0.15427
# Poissons Ratio (z) = -0.06052 0.08829
#
# Static dielectric constant tensor:
#      x y z
#    x 1.798750 0.034000 -0.005770 
#    y 0.034000 1.804290 0.010450 
#    z -0.005770 0.010450 1.802640 
# 
# From -- ./inp_files/401783.got.cif
#   From: 2010.05.17/outbox.cif.g08.bks.cpg/sg2_201_cif.got.tgz:401783.got - 2010.06.03 11:33:40.
