data_PCOD9084306
_publ_section_title
;
Structure prediction by ZEFSAII (Michael W. Deem and Ramdas Pophale) SiO2 
 PCOD9084306
Probable space group: P -1
;
_chemical_formula_sum "Si O2"
_cell_formula_units_Z 14
_cell_length_a 5.670357
_cell_length_b 7.833242
_cell_length_c 18.158220
_cell_angle_alpha 69.638122
_cell_angle_beta 131.495899
_cell_angle_gamma 121.782459
_cell_volume 513.516978
_symmetry_space_group_name_H-M "P -1"
_symmetry_group_IT_number 2
_symmetry_cell_setting 'triclinic'
loop_
_space_group_symop_operation_xyz
x,y,z
-x,-y,-z
loop_
_atom_site_type_symbol
_atom_site_label
_atom_site_fract_x
_atom_site_fract_y
_atom_site_fract_z
Si Si1 0.246836 0.195898 0.068023
Si Si2 0.319232 0.326558 0.411348
Si Si3 0.358202 0.993346 0.744248
Si Si4 0.368006 0.757974 0.001352
Si Si5 0.318646 0.303992 0.786279
Si Si6 0.759165 0.391640 0.368228
Si Si7 0.479672 0.913431 0.390359
O O1 0.382660 0.112913 0.178193
O O2 0.569068 0.294437 0.061702
O O3 0.018087 0.309139 0.033219
O O4 0.000000 0.000000 0.000000
O O5 0.656992 0.459448 0.414240
O O6 0.393672 0.174087 0.502571
O O7 0.020381 0.191289 0.311597
O O8 0.138403 0.441872 0.404174
O O9 0.477600 0.159577 0.807160
O O10 0.380365 0.113796 0.655891
O O11 0.617979 0.698458 0.114223
O O12 0.500000 0.000000 0.000000
O O13 0.427491 0.522023 0.742041
O O14 0.930384 0.187228 0.691209
O O15 0.620758 0.153325 0.387398
#
# Coordination Sequence:
#
# PCOD9084306 Si02
#       7
#     2   2   2   2   2   2   2
#     4  10  19  34  62  94 126 162 222 260 319 392
#     4  11  26  48  66  92 143 174 218 273 329 388
#     4  11  22  40  71  97 126 182 220 265 332 392
#     4  10  20  37  59  98 127 164 215 271 316 393
#     4  12  25  39  74  97 132 175 222 270 336 382
#     4  11  26  44  65 101 133 173 221 278 320 391
#     4  11  25  46  67  95 137 179 217 272 327 396
#
# _framework density 27.262974
#
# number of rings (size 3 to 8) (size 9 to 14) (size 15 to 20)
#    0.000    1.143    4.286    3.857    4.000    1.143 
#    0.000    0.000    0.000   18.000    0.000    0.000 
#    0.000    0.000    0.000    0.000    0.000    0.000 
#
# Total GULP energy -78294.662821 kJ/mol
# GULP energy per Si atom -5592.475916 kJ/mol
# Density = 2.720092 g / cm^3
# Si number density = 27.262974 Si / 1000 Ang^3
#
#
#
# Elastic Constant Matrix: (Units=GPa)
#
#
# Indices 1 2 3 4 5 6 
#
# 1 190.1550 20.2098 42.8112 -13.1977 -2.4091 -14.9417
# 2 20.2098 105.8138 30.8242 -11.5164 7.5324 -22.8924
# 3 42.8112 30.8242 182.6333 -33.9513 7.2824 5.1024
# 4 -13.1977 -11.5164 -33.9513 38.6052 0.3464 7.5507
# 5 -2.4091 7.5324 7.2824 0.3464 47.7828 -0.9254
# 6 -14.9417 -22.8924 5.1024 7.5507 -0.9254 24.2184
#
#
#
# Elastic Compliance Matrix: (Units=1/GPa)
#
#
# Indices 1 2 3 4 5 6 
#
# 1 0.005927 0.000191 -0.001592 -0.000152 0.000595 0.004243
# 2 0.000191 0.013092 -0.002771 -0.001067 -0.001365 0.013358
# 3 -0.001592 -0.002771 0.007874 0.007028 -0.001039 -0.007492
# 4 -0.000152 -0.001067 0.007028 0.034336 -0.001418 -0.013342
# 5 0.000595 -0.001365 -0.001039 -0.001418 0.021353 0.000553
# 6 0.004243 0.013358 -0.007492 -0.013342 0.000553 0.062294
#
#
# Mechanical properties :
#
#
# Convention : Reuss Voigt Hill
#
# Bulk Modulus (GPa) = 53.91496 74.03249 63.97373
# Shear Modulus (GPa) = 31.36662 47.77175 39.56918
#
# Velocity S-wave (km/s) = 3.39561 4.19054 3.81384
# Velocity P-wave (km/s) = 5.93232 7.11534 6.55059
#
# Compressibility (1/GPa) = 0.01854773
#
# Stress axis : x y z
#
# Youngs Moduli (GPa) = 168.70742 76.37996 127.00495
#
# Poissons Ratio (x) = -0.01457 0.20222
# Poissons Ratio (y) = -0.03218 0.35199
# Poissons Ratio (z) = 0.26861 0.21169
#
# Static dielectric constant tensor:
#      x y z
#    x 2.340580 0.030500 -0.016530 
#    y 0.030500 2.139510 0.013950 
#    z -0.016530 0.013950 2.150220 
# 
# From -- ./inp_files/137389.got.cif
#   From: 2010.05.17/outbox.cif.g08.bks.cpg/sg2_69_cif.got.tgz:137389.got - 2010.06.03 11:33:40.
