data_PCOD9084397
_publ_section_title
;
Structure prediction by ZEFSAII (Michael W. Deem and Ramdas Pophale) SiO2 
 PCOD9084397
Probable space group: P -1
;
_chemical_formula_sum "Si O2"
_cell_formula_units_Z 16
_cell_length_a 13.177312
_cell_length_b 11.063821
_cell_length_c 8.361917
_cell_angle_alpha 43.665418
_cell_angle_beta 115.807683
_cell_angle_gamma 98.001894
_cell_volume 726.856472
_symmetry_space_group_name_H-M "P -1"
_symmetry_group_IT_number 2
_symmetry_cell_setting 'triclinic'
loop_
_space_group_symop_operation_xyz
x,y,z
-x,-y,-z
loop_
_atom_site_type_symbol
_atom_site_label
_atom_site_fract_x
_atom_site_fract_y
_atom_site_fract_z
Si Si1 0.713382 0.654747 0.684444
Si Si2 0.344802 0.467438 0.582811
Si Si3 0.381168 0.993837 0.514785
Si Si4 0.105444 0.753883 0.156806
Si Si5 0.224478 0.242642 0.925216
Si Si6 0.938452 0.533049 0.130389
Si Si7 0.429931 0.579861 0.035881
Si Si8 0.976054 0.840034 0.327160
O O1 0.676129 0.616274 0.519939
O O2 0.671483 0.514094 0.905522
O O3 0.647467 0.856240 0.508292
O O4 0.852446 0.618510 0.844371
O O5 0.244993 0.661317 0.342219
O O6 0.318150 0.332261 0.828346
O O7 0.475387 0.473153 0.704863
O O8 0.500000 0.000000 0.500000
O O9 0.385619 0.796272 0.772596
O O10 0.280422 0.069863 0.240529
O O11 0.048023 0.611321 0.166960
O O12 0.058191 0.795541 0.266769
O O13 0.054202 0.949138 0.849961
O O14 0.139717 0.393279 0.835515
O O15 0.146348 0.191163 0.784488
O O16 0.970083 0.315483 0.359541
O O17 0.500000 0.500000 0.000000
#
# Coordination Sequence:
#
# PCOD9084397 Si02
#       8
#     2   2   2   2   2   2   2   2
#     4  11  27  42  63  94 133 170 201 266 319 378
#     4  12  23  43  62  96 137 162 204 262 333 370
#     4  11  22  43  67  94 116 168 224 259 307 372
#     4  10  21  35  63  95 119 166 209 264 307 369
#     4  10  19  38  64  93 125 162 208 266 309 367
#     4  10  19  41  61  88 125 164 219 250 302 367
#     4  12  25  44  71  91 124 168 216 263 307 381
#     4  10  19  34  64  92 120 162 217 260 300 364
#
# _framework density 22.012599000000002
#
# number of rings (size 3 to 8) (size 9 to 14) (size 15 to 20)
#    0.000    1.250    5.000    1.875    1.750    4.000 
#    2.250    0.625    0.000    0.000    0.000    0.000 
#    0.000    0.000    0.000    0.000    0.000    0.000 
#
# Total GULP energy -89481.083756 kJ/mol
# GULP energy per Si atom -5592.567735 kJ/mol
# Density = 2.196250 g / cm^3
# Si number density = 22.012599 Si / 1000 Ang^3
#
#
#
# Elastic Constant Matrix: (Units=GPa)
#
#
# Indices 1 2 3 4 5 6 
#
# 1 35.6022 3.1758 23.2100 -10.0366 -1.1110 1.4574
# 2 3.1758 78.4072 50.9300 -17.1614 -3.0426 -12.9697
# 3 23.2100 50.9300 124.1975 -37.9382 17.2192 -5.4048
# 4 -10.0366 -17.1614 -37.9382 51.4995 3.4256 -0.2215
# 5 -1.1110 -3.0426 17.2192 3.4256 29.7054 1.4029
# 6 1.4574 -12.9697 -5.4048 -0.2215 1.4029 23.8773
#
#
#
# Elastic Compliance Matrix: (Units=1/GPa)
#
#
# Indices 1 2 3 4 5 6 
#
# 1 0.034148 0.004640 -0.008995 0.001105 0.006933 -0.001997
# 2 0.004640 0.020811 -0.010168 -0.000136 0.007825 0.008258
# 3 -0.008995 -0.010168 0.018644 0.009477 -0.013283 0.000114
# 4 0.001105 -0.000136 0.009477 0.027162 -0.008729 0.002768
# 5 0.006933 0.007825 -0.013283 -0.008729 0.043517 -0.001817
# 6 -0.001997 0.008258 0.000114 0.002768 -0.001817 0.046647
#
#
# Mechanical properties :
#
#
# Convention : Reuss Voigt Hill
#
# Bulk Modulus (GPa) = 22.44337 43.64872 33.04605
# Shear Modulus (GPa) = 21.29235 31.74251 26.51743
#
# Velocity S-wave (km/s) = 3.11349 3.80151 3.47457
# Velocity P-wave (km/s) = 4.81071 6.25625 5.58048
#
# Compressibility (1/GPa) = 0.04455659
#
# Stress axis : x y z
#
# Youngs Moduli (GPa) = 29.28432 48.05237 53.63665
#
# Poissons Ratio (x) = -0.22297 0.48246
# Poissons Ratio (y) = -0.13589 0.54539
# Poissons Ratio (z) = 0.26341 0.48861
#
# Static dielectric constant tensor:
#      x y z
#    x 1.822840 -0.002850 -0.018810 
#    y -0.002850 1.778440 0.010050 
#    z -0.018810 0.010050 1.823130 
# 
# From -- ./inp_files/306318.got.cif
#   From: 2010.05.17/outbox.cif.g08.bks.cpg/sg2_154_cif.got.tgz:306318.got - 2010.06.03 11:33:40.
