data_PCOD9084861
_publ_section_title
;
Structure prediction by ZEFSAII (Michael W. Deem and Ramdas Pophale) SiO2 
 PCOD9084861
Probable space group: P -1
;
_chemical_formula_sum "Si O2"
_cell_formula_units_Z 10
_cell_length_a 14.523558
_cell_length_b 13.579774
_cell_length_c 7.718802
_cell_angle_alpha 122.151145
_cell_angle_beta 133.145634
_cell_angle_gamma 21.571559
_cell_volume 376.563005
_symmetry_space_group_name_H-M "P -1"
_symmetry_group_IT_number 2
_symmetry_cell_setting 'triclinic'
loop_
_space_group_symop_operation_xyz
x,y,z
-x,-y,-z
loop_
_atom_site_type_symbol
_atom_site_label
_atom_site_fract_x
_atom_site_fract_y
_atom_site_fract_z
Si Si1 0.631591 0.039157 0.884663
Si Si2 0.966023 0.493980 0.236856
Si Si3 0.784980 0.531208 0.699952
Si Si4 0.639944 0.303437 0.151698
Si Si5 0.756045 0.199992 0.713128
O O1 0.296124 0.272033 0.734264
O O2 0.595607 0.205727 0.964164
O O3 0.889795 0.810071 0.158002
O O4 0.810723 0.809391 0.756275
O O5 0.761259 0.639893 0.933489
O O6 0.166419 0.436136 0.380634
O O7 0.493800 0.690812 0.478327
O O8 0.436326 0.516780 0.254143
O O9 0.500000 0.500000 0.000000
O O10 0.011858 0.013877 0.349057
O O11 0.000000 0.000000 0.000000
#
# Coordination Sequence:
#
# PCOD9084861 Si02
#       5
#     2   2   2   2   2
#     4  10  19  35  57  86 112 140 186 229 275 329
#     4   9  20  34  56  90 110 141 179 233 281 322
#     4   9  21  34  60  83 116 140 185 224 280 328
#     4  10  22  38  55  77 116 151 184 225 273 329
#     4  10  22  37  56  78 112 154 184 222 273 328
#
# _framework density 26.555980999999999
#
# number of rings (size 3 to 8) (size 9 to 14) (size 15 to 20)
#    1.200    1.200    0.000    1.800    2.800    1.600 
#    0.000    0.000    0.000   28.800    0.000    0.000 
#    0.000    0.000    0.000    0.000    0.000    0.000 
#
# Total GULP energy -55960.714214 kJ/mol
# GULP energy per Si atom -5596.071421 kJ/mol
# Density = 2.649554 g / cm^3
# Si number density = 26.555981 Si / 1000 Ang^3
#
#
#
# Elastic Constant Matrix: (Units=GPa)
#
#
# Indices 1 2 3 4 5 6 
#
# 1 124.4354 85.4830 32.2502 3.2718 20.5312 -15.6084
# 2 85.4830 201.3832 55.6428 -4.6133 23.8588 -18.0783
# 3 32.2502 55.6428 128.1944 -8.2337 51.1559 -1.7849
# 4 3.2718 -4.6133 -8.2337 54.9982 -1.5852 11.3296
# 5 20.5312 23.8588 51.1559 -1.5852 63.4036 -3.1296
# 6 -15.6084 -18.0783 -1.7849 11.3296 -3.1296 62.3972
#
#
#
# Elastic Compliance Matrix: (Units=1/GPa)
#
#
# Indices 1 2 3 4 5 6 
#
# 1 0.011845 -0.004593 -0.000356 -0.001569 -0.001770 0.001818
# 2 -0.004593 0.007584 -0.002324 0.000384 0.000564 0.000940
# 3 -0.000356 -0.002324 0.012688 0.001700 -0.009263 -0.001173
# 4 -0.001569 0.000384 0.001700 0.019320 -0.000712 -0.003776
# 5 -0.001770 0.000564 -0.009263 -0.000712 0.023626 0.000770
# 6 0.001818 0.000940 -0.001173 -0.003776 0.000770 0.017444
#
#
# Mechanical properties :
#
#
# Convention : Reuss Voigt Hill
#
# Bulk Modulus (GPa) = 56.90716 88.97390 72.94053
# Shear Modulus (GPa) = 44.28381 54.86895 49.57638
#
# Velocity S-wave (km/s) = 4.08801 4.55044 4.32541
# Velocity P-wave (km/s) = 6.61499 7.82213 7.24375
#
# Compressibility (1/GPa) = 0.01757248
#
# Stress axis : x y z
#
# Youngs Moduli (GPa) = 84.42537 131.86440 78.81543
#
# Poissons Ratio (x) = 0.60561 0.02802
# Poissons Ratio (y) = 0.38774 0.18314
# Poissons Ratio (z) = 0.03001 0.30641
#
# Static dielectric constant tensor:
#      x y z
#    x 1.868600 0.001730 0.049620 
#    y 0.001730 2.037690 -0.029340 
#    z 0.049620 -0.029340 2.016740 
# 
# From -- ./inp_files/451678.got.cif
#   From: 2010.05.17/outbox.cif.g08.bks.cpg/sg2_226_cif.got.tgz:451678.got - 2010.06.03 11:33:40.
