data_PCOD9084342
_publ_section_title
;
Structure prediction by ZEFSAII (Michael W. Deem and Ramdas Pophale) SiO2 
 PCOD9084342
Probable space group: P -1
;
_chemical_formula_sum "Si O2"
_cell_formula_units_Z 14
_cell_length_a 9.599208
_cell_length_b 5.421262
_cell_length_c 11.927150
_cell_angle_alpha 104.878096
_cell_angle_beta 98.301205
_cell_angle_gamma 113.176775
_cell_volume 530.006627
_symmetry_space_group_name_H-M "P -1"
_symmetry_group_IT_number 2
_symmetry_cell_setting 'triclinic'
loop_
_space_group_symop_operation_xyz
x,y,z
-x,-y,-z
loop_
_atom_site_type_symbol
_atom_site_label
_atom_site_fract_x
_atom_site_fract_y
_atom_site_fract_z
Si Si1 0.084191 0.190080 0.761702
Si Si2 0.094051 0.853012 0.058051
Si Si3 0.677368 0.292771 0.251783
Si Si4 0.862254 0.184810 0.450065
Si Si5 0.446636 0.411884 0.353272
Si Si6 0.347517 0.865105 0.385066
Si Si7 0.358181 0.178466 0.952814
O O1 0.156721 0.515845 0.767635
O O2 0.219398 0.179505 0.856625
O O3 0.931636 0.096391 0.808768
O O4 0.074592 0.010742 0.628863
O O5 0.000000 0.500000 0.000000
O O6 0.265760 0.023006 0.038721
O O7 0.000000 0.000000 0.000000
O O8 0.721312 0.186189 0.358467
O O9 0.595720 0.494088 0.298552
O O10 0.587067 0.035384 0.127477
O O11 0.792795 0.124879 0.559238
O O12 0.000000 0.500000 0.500000
O O13 0.500000 0.500000 0.500000
O O14 0.336523 0.555924 0.322504
O O15 0.382252 0.072385 0.309244
O O16 0.500000 0.000000 0.500000
O O17 0.500000 0.500000 0.000000
#
# Coordination Sequence:
#
# PCOD9084342 Si02
#       7
#     2   2   2   2   2   2   2
#     4  10  22  41  68  92 129 181 218 267 349 405
#     4  10  20  43  69  96 134 180 218 275 346 412
#     4  11  21  39  68  95 129 179 222 277 342 400
#     4  11  24  40  62  94 135 173 228 274 327 402
#     4  10  19  34  63  89 122 168 216 260 324 386
#     4  10  19  38  60  85 125 173 212 264 323 380
#     4  10  23  42  69 101 132 168 227 289 338 404
#
# _framework density 26.414767000000001
#
# number of rings (size 3 to 8) (size 9 to 14) (size 15 to 20)
#    0.000    1.714    4.286    1.714    2.000    1.143 
#    2.571    0.000    0.000    0.000    0.000    0.000 
#    0.000    0.000    0.000    0.000    0.000    0.000 
#
# Total GULP energy -78301.943187 kJ/mol
# GULP energy per Si atom -5592.995942 kJ/mol
# Density = 2.635465 g / cm^3
# Si number density = 26.414767 Si / 1000 Ang^3
#
#
#
# Elastic Constant Matrix: (Units=GPa)
#
#
# Indices 1 2 3 4 5 6 
#
# 1 132.9726 45.9462 58.4948 2.4995 -21.9434 12.7342
# 2 45.9462 193.1209 65.5567 4.3728 -27.3660 13.7614
# 3 58.4948 65.5567 122.8402 0.1810 -31.4665 18.7861
# 4 2.4995 4.3728 0.1810 58.1969 3.8365 -10.1891
# 5 -21.9434 -27.3660 -31.4665 3.8365 48.0405 -6.9185
# 6 12.7342 13.7614 18.7861 -10.1891 -6.9185 55.0592
#
#
#
# Elastic Compliance Matrix: (Units=1/GPa)
#
#
# Indices 1 2 3 4 5 6 
#
# 1 0.009760 -0.000776 -0.003738 -0.000572 0.001512 -0.000704
# 2 -0.000776 0.006533 -0.002627 -0.000639 0.001630 -0.000471
# 3 -0.003738 -0.002627 0.012958 -0.000423 0.004979 -0.002353
# 4 -0.000572 -0.000639 -0.000423 0.017997 -0.001830 0.003537
# 5 0.001512 0.001630 0.004979 -0.001830 0.025909 0.000461
# 6 -0.000704 -0.000471 -0.002353 0.003537 0.000461 0.019958
#
#
# Mechanical properties :
#
#
# Convention : Reuss Voigt Hill
#
# Bulk Modulus (GPa) = 66.79517 87.65880 77.22699
# Shear Modulus (GPa) = 44.48917 50.85507 47.67212
#
# Velocity S-wave (km/s) = 4.10842 4.39253 4.25285
# Velocity P-wave (km/s) = 6.91718 7.68006 7.30858
#
# Compressibility (1/GPa) = 0.01497114
#
# Stress axis : x y z
#
# Youngs Moduli (GPa) = 102.45429 153.06019 77.17117
#
# Poissons Ratio (x) = 0.11876 0.28845
# Poissons Ratio (y) = 0.07949 0.20271
# Poissons Ratio (z) = 0.38295 0.40205
#
# Static dielectric constant tensor:
#      x y z
#    x -0.116200 0.523690 -0.047340 
#    y 0.523690 1.964230 0.029730 
#    z -0.047340 0.029730 2.113460 
# 
# From -- ./inp_files/53068.got.cif
#   From: 2010.05.17/outbox.cif.g08.bks.cpg/sg2_27_cif.got.tgz:53068.got - 2010.06.03 11:33:40.
