data_PCOD9084299
_publ_section_title
;
Structure prediction by ZEFSAII (Michael W. Deem and Ramdas Pophale) SiO2 
 PCOD9084299
Probable space group: P -1
;
_chemical_formula_sum "Si O2"
_cell_formula_units_Z 16
_cell_length_a 14.839711
_cell_length_b 8.430827
_cell_length_c 11.102418
_cell_angle_alpha 104.576347
_cell_angle_beta 60.472073
_cell_angle_gamma 142.185562
_cell_volume 715.909573
_symmetry_space_group_name_H-M "P -1"
_symmetry_group_IT_number 2
_symmetry_cell_setting 'triclinic'
loop_
_space_group_symop_operation_xyz
x,y,z
-x,-y,-z
loop_
_atom_site_type_symbol
_atom_site_label
_atom_site_fract_x
_atom_site_fract_y
_atom_site_fract_z
Si Si1 0.966791 0.166359 0.188831
Si Si2 0.767288 0.631343 0.094687
Si Si3 0.816005 0.215943 0.113142
Si Si4 0.571565 0.798793 0.616176
Si Si5 0.696696 0.776655 0.946576
Si Si6 0.354178 0.469209 0.464020
Si Si7 0.476823 0.927298 0.361183
Si Si8 0.005517 0.005162 0.352433
O O1 0.844362 0.150935 0.209449
O O2 0.004054 0.174650 0.306694
O O3 0.885962 0.889891 0.151171
O O4 0.132471 0.391003 0.037993
O O5 0.591287 0.388152 0.228098
O O6 0.736022 0.706082 0.016238
O O7 0.666122 0.156178 0.226714
O O8 0.000000 0.500000 0.000000
O O9 0.740595 0.007197 0.017363
O O10 0.503855 0.673245 0.502213
O O11 0.663962 0.748792 0.588786
O O12 0.636484 0.067409 0.618202
O O13 0.832591 0.895192 0.778587
O O14 0.500000 0.500000 0.000000
O O15 0.398777 0.646356 0.358930
O O16 0.178868 0.307381 0.608026
O O17 0.500000 0.000000 0.500000
O O18 0.000000 0.000000 0.500000
#
# Coordination Sequence:
#
# PCOD9084299 Si02
#       8
#     2   2   2   2   2   2   2   2
#     4   9  18  34  58  92 122 160 224 276 327 389
#     4   9  16  32  62  85 118 164 212 277 327 388
#     4  11  23  39  70  99 133 175 226 291 346 402
#     4  10  19  34  62  93 128 166 211 285 336 395
#     4  10  24  42  63  97 133 177 230 278 342 416
#     4  10  21  36  59  93 134 172 216 270 344 401
#     4  10  23  35  60 103 135 165 213 284 344 399
#     4  11  24  38  65  92 131 181 232 276 335 417
#
# _framework density 22.34919
#
# number of rings (size 3 to 8) (size 9 to 14) (size 15 to 20)
#    0.000    2.000    1.250    3.000   10.500    0.000 
#    0.000    0.000    2.750    3.750    0.000    0.000 
#    0.000    0.000    0.000    0.000    0.000    0.000 
#
# Total GULP energy -89077.250547 kJ/mol
# GULP energy per Si atom -5567.328159 kJ/mol
# Density = 2.229832 g / cm^3
# Si number density = 22.349190 Si / 1000 Ang^3
#
#
#
# Elastic Constant Matrix: (Units=GPa)
#
#
# Indices 1 2 3 4 5 6 
#
# 1 91.1972 37.4377 46.2648 7.1212 0.4598 -11.9773
# 2 37.4377 68.3350 35.3538 -11.8548 -11.0051 1.3214
# 3 46.2648 35.3538 146.9038 -17.7472 -4.5709 -4.7765
# 4 7.1212 -11.8548 -17.7472 31.5560 5.9743 -1.6405
# 5 0.4598 -11.0051 -4.5709 5.9743 37.9797 -2.5878
# 6 -11.9773 1.3214 -4.7765 -1.6405 -2.5878 32.4503
#
#
#
# Elastic Compliance Matrix: (Units=1/GPa)
#
#
# Indices 1 2 3 4 5 6 
#
# 1 0.019124 -0.010233 -0.004637 -0.010118 -0.001745 0.006142
# 2 -0.010233 0.023381 -0.001266 0.009220 0.005020 -0.004049
# 3 -0.004637 -0.001266 0.009270 0.005804 -0.000109 -0.000011
# 4 -0.010118 0.009220 0.005804 0.041212 -0.003087 -0.001418
# 5 -0.001745 0.005020 -0.000109 -0.003087 0.028363 0.001241
# 6 0.006142 -0.004049 -0.000011 -0.001418 0.001241 0.033274
#
#
# Mechanical properties :
#
#
# Convention : Reuss Voigt Hill
#
# Bulk Modulus (GPa) = 51.27423 60.50539 55.88981
# Shear Modulus (GPa) = 25.85358 32.88917 29.37137
#
# Velocity S-wave (km/s) = 3.40487 3.84031 3.62913
# Velocity P-wave (km/s) = 6.20078 6.84072 6.52860
#
# Compressibility (1/GPa) = 0.01950298
#
# Stress axis : x y z
#
# Youngs Moduli (GPa) = 52.28995 42.76916 107.87959
#
# Poissons Ratio (x) = 0.43767 0.50024
# Poissons Ratio (y) = 0.53510 0.13654
# Poissons Ratio (z) = 0.24247 0.05413
#
# Static dielectric constant tensor:
#      x y z
#    x 1.877930 -0.124900 -0.021720 
#    y -0.124900 1.809640 0.021770 
#    z -0.021720 0.021770 1.914750 
# 
# From -- ./inp_files/447639.got.cif
#   From: 2010.05.17/outbox.cif.g08.bks.cpg/sg2_224_cif.got.tgz:447639.got - 2010.06.03 11:33:40.
