data_PCOD9084269
_publ_section_title
;
Structure prediction by ZEFSAII (Michael W. Deem and Ramdas Pophale) SiO2 
 PCOD9084269
Probable space group: P -1
;
_chemical_formula_sum "Si O2"
_cell_formula_units_Z 12
_cell_length_a 18.697644
_cell_length_b 11.487251
_cell_length_c 21.027019
_cell_angle_alpha 159.105478
_cell_angle_beta 20.469522
_cell_angle_gamma 150.715316
_cell_volume 563.116701
_symmetry_space_group_name_H-M "P -1"
_symmetry_group_IT_number 2
_symmetry_cell_setting 'triclinic'
loop_
_space_group_symop_operation_xyz
x,y,z
-x,-y,-z
loop_
_atom_site_type_symbol
_atom_site_label
_atom_site_fract_x
_atom_site_fract_y
_atom_site_fract_z
Si Si1 0.518284 0.885811 0.672275
Si Si2 0.530525 0.148326 0.450877
Si Si3 0.657939 0.237737 0.021527
Si Si4 0.911700 0.878246 0.828925
Si Si5 0.957058 0.107372 0.409639
Si Si6 0.196884 0.111344 0.809261
O O1 0.500000 0.500000 0.500000
O O2 0.486862 0.963519 0.663275
O O3 0.743237 0.995108 0.558990
O O4 0.328206 0.067734 0.956961
O O5 0.462462 0.528778 0.708304
O O6 0.362462 0.979143 0.550383
O O7 0.745923 0.074971 0.269039
O O8 0.749519 0.508728 0.035781
O O9 0.500000 0.000000 0.000000
O O10 0.847773 0.044475 0.795172
O O11 0.960988 0.498457 0.605283
O O12 0.027799 0.001397 0.732479
O O13 0.984754 0.067890 0.927550
#
# Coordination Sequence:
#
# PCOD9084269 Si02
#       6
#     2   2   2   2   2   2
#     4  12  24  39  62  92 125 158 201 251 299 360
#     4   9  20  37  62  87 121 154 205 240 298 356
#     4  10  19  34  62  89 115 155 201 247 298 355
#     4  11  23  39  65  87 122 166 197 250 302 352
#     4  11  23  40  60  91 124 158 206 245 299 363
#     4   9  19  38  62  90 116 160 202 244 298 356
#
# _framework density 21.30997
#
# number of rings (size 3 to 8) (size 9 to 14) (size 15 to 20)
#    1.000    0.667    1.667    3.500    0.000    2.667 
#    0.000    1.667    0.000    7.000    0.000    0.000 
#    0.000    0.000    0.000    0.000    0.000    0.000 
#
# Total GULP energy -66970.421467 kJ/mol
# GULP energy per Si atom -5580.868456 kJ/mol
# Density = 2.126147 g / cm^3
# Si number density = 21.309970 Si / 1000 Ang^3
#
#
#
# Elastic Constant Matrix: (Units=GPa)
#
#
# Indices 1 2 3 4 5 6 
#
# 1 61.8961 18.6601 17.2743 -6.8703 -29.8424 12.0122
# 2 18.6601 82.6528 27.4026 -7.7521 -21.8206 19.1295
# 3 17.2743 27.4026 94.5506 -1.5932 -39.7029 3.2787
# 4 -6.8703 -7.7521 -1.5932 31.2450 0.3648 -6.4753
# 5 -29.8424 -21.8206 -39.7029 0.3648 45.1008 -5.8644
# 6 12.0122 19.1295 3.2787 -6.4753 -5.8644 33.0593
#
#
#
# Elastic Compliance Matrix: (Units=1/GPa)
#
#
# Indices 1 2 3 4 5 6 
#
# 1 0.026348 -0.000304 0.003948 0.004579 0.020031 -0.005339
# 2 -0.000304 0.016155 -0.002467 0.002150 0.004413 -0.007789
# 3 0.003948 -0.002467 0.017790 0.001281 0.017270 0.001543
# 4 0.004579 0.002150 0.001281 0.034522 0.005531 0.004708
# 5 0.020031 0.004413 0.017270 0.005531 0.052572 -0.001136
# 6 -0.005339 -0.007789 0.001543 0.004708 -0.001136 0.037263
#
#
# Mechanical properties :
#
#
# Convention : Reuss Voigt Hill
#
# Bulk Modulus (GPa) = 15.96257 40.64150 28.30204
# Shear Modulus (GPa) = 24.60894 33.59851 29.10373
#
# Velocity S-wave (km/s) = 3.40193 3.97502 3.69959
# Velocity P-wave (km/s) = 4.78934 6.33883 5.61776
#
# Compressibility (1/GPa) = 0.06264653
#
# Stress axis : x y z
#
# Youngs Moduli (GPa) = 37.95340 61.90171 56.21178
#
# Poissons Ratio (x) = 0.01881 -0.22192
# Poissons Ratio (y) = 0.01153 0.13868
# Poissons Ratio (z) = -0.14984 0.15272
#
# Static dielectric constant tensor:
#      x y z
#    x 1.785730 -0.004630 0.003200 
#    y -0.004630 1.777850 -0.044390 
#    z 0.003200 -0.044390 1.790440 
# 
# From -- ./inp_files/599970.got.cif
#   From: 2010.05.17/outbox.cif.g08.bks.cpg/sg2_300_cif.got.tgz:599970.got - 2010.06.03 11:33:40.
