data_PCOD9084608
_publ_section_title
;
Structure prediction by ZEFSAII (Michael W. Deem and Ramdas Pophale) SiO2 
 PCOD9084608
Probable space group: P -1
;
_chemical_formula_sum "Si O2"
_cell_formula_units_Z 16
_cell_length_a 15.022400
_cell_length_b 16.573863
_cell_length_c 5.493188
_cell_angle_alpha 115.520283
_cell_angle_beta 82.410462
_cell_angle_gamma 52.026811
_cell_volume 807.206982
_symmetry_space_group_name_H-M "P -1"
_symmetry_group_IT_number 2
_symmetry_cell_setting 'triclinic'
loop_
_space_group_symop_operation_xyz
x,y,z
-x,-y,-z
loop_
_atom_site_type_symbol
_atom_site_label
_atom_site_fract_x
_atom_site_fract_y
_atom_site_fract_z
Si Si1 0.282309 0.795459 0.378200
Si Si2 0.655123 0.912283 0.337541
Si Si3 0.898242 0.611959 0.880045
Si Si4 0.046065 0.611349 0.189339
Si Si5 0.233348 0.094994 0.199748
Si Si6 0.263977 0.864775 0.972760
Si Si7 0.025100 0.893892 0.099414
Si Si8 0.131383 0.735239 0.350637
O O1 0.340972 0.789960 0.100913
O O2 0.259837 0.705878 0.256236
O O3 0.345323 0.776353 0.586187
O O4 0.128019 0.953883 0.652497
O O5 0.692784 0.919668 0.605066
O O6 0.500000 0.000000 0.500000
O O7 0.750182 0.755056 0.049115
O O8 0.691224 0.949406 0.144158
O O9 0.889561 0.532158 0.954231
O O10 0.000000 0.500000 0.500000
O O11 0.973685 0.642597 0.001751
O O12 0.149383 0.615831 0.172822
O O13 0.912995 0.745578 0.561583
O O14 0.221376 0.999074 0.136150
O O15 0.134038 0.894017 0.067703
O O16 0.060781 0.813330 0.735982
O O17 0.048307 0.822085 0.246664
#
# Coordination Sequence:
#
# PCOD9084608 Si02
#       8
#     2   2   2   2   2   2   2   2
#     4  10  16  26  38  63 102 137 165 201 252 301
#     4  11  24  40  57  78 107 140 178 224 269 315
#     4  10  21  38  54  77 107 140 176 226 272 308
#     4  10  20  32  52  78 106 140 182 217 265 321
#     4  11  20  34  56  79 104 141 181 215 265 320
#     4  10  18  27  43  67  99 136 170 204 246 312
#     4  10  17  26  38  63 102 137 166 200 252 302
#     4  10  19  26  42  66  99 140 169 200 250 316
#
# _framework density 19.821434
#
# number of rings (size 3 to 8) (size 9 to 14) (size 15 to 20)
#    0.000    1.750    1.250    7.125    1.750    1.000 
#    0.000    0.000    0.000    0.000    0.000    0.000 
#    0.000   24.000    0.000    0.000    0.000    0.000 
#
# Total GULP energy -89161.881307 kJ/mol
# GULP energy per Si atom -5572.617582 kJ/mol
# Density = 1.977632 g / cm^3
# Si number density = 19.821434 Si / 1000 Ang^3
#
#
#
# Elastic Constant Matrix: (Units=GPa)
#
#
# Indices 1 2 3 4 5 6 
#
# 1 51.2916 35.5808 25.1261 13.7149 11.1631 12.7496
# 2 35.5808 77.9497 42.0689 -24.3488 8.0540 7.8589
# 3 25.1261 42.0689 70.6101 -18.2277 11.4100 1.7305
# 4 13.7149 -24.3488 -18.2277 40.8873 2.4924 5.4820
# 5 11.1631 8.0540 11.4100 2.4924 24.1287 6.2941
# 6 12.7496 7.8589 1.7305 5.4820 6.2941 21.9470
#
#
#
# Elastic Compliance Matrix: (Units=1/GPa)
#
#
# Indices 1 2 3 4 5 6 
#
# 1 0.072479 -0.040008 -0.014496 -0.052687 -0.004719 -0.012122
# 2 -0.040008 0.044865 -0.002499 0.039320 0.001397 -0.002849
# 3 -0.014496 -0.002499 0.025632 0.014479 -0.007604 0.005859
# 4 -0.052687 0.039320 0.014479 0.072421 -0.002564 -0.001969
# 5 -0.004719 0.001397 -0.007604 -0.002564 0.049843 -0.010813
# 6 -0.012122 -0.002849 0.005859 -0.001969 -0.010813 0.056757
#
#
# Mechanical properties :
#
#
# Convention : Reuss Voigt Hill
#
# Bulk Modulus (GPa) = 34.51847 45.04479 39.78163
# Shear Modulus (GPa) = 11.21931 23.86430 17.54181
#
# Velocity S-wave (km/s) = 2.38170 3.47358 2.97811
# Velocity P-wave (km/s) = 5.00158 6.23397 5.65147
#
# Compressibility (1/GPa) = 0.02896999
#
# Stress axis : x y z
#
# Youngs Moduli (GPa) = 13.79708 22.28916 39.01319
#
# Poissons Ratio (x) = 0.89175 0.56553
# Poissons Ratio (y) = 0.55200 0.09750
# Poissons Ratio (z) = 0.20000 0.05570
#
# Static dielectric constant tensor:
#      x y z
#    x 1.714690 0.016680 0.015860 
#    y 0.016680 1.817320 -0.073200 
#    z 0.015860 -0.073200 1.752940 
# 
# From -- ./inp_files/77556.got.cif
#   From: 2010.05.17/outbox.cif.g08.bks.cpg/sg2_39_cif.got.tgz:77556.got - 2010.06.03 11:33:40.
