data_PCOD9084982
_publ_section_title
;
Structure prediction by ZEFSAII (Michael W. Deem and Ramdas Pophale) SiO2 
 PCOD9084982
Probable space group: P -1
;
_chemical_formula_sum "Si O2"
_cell_formula_units_Z 14
_cell_length_a 11.747203
_cell_length_b 12.665801
_cell_length_c 14.627236
_cell_angle_alpha 95.624231
_cell_angle_beta 18.570798
_cell_angle_gamma 94.984576
_cell_volume 689.655981
_symmetry_space_group_name_H-M "P -1"
_symmetry_group_IT_number 2
_symmetry_cell_setting 'triclinic'
loop_
_space_group_symop_operation_xyz
x,y,z
-x,-y,-z
loop_
_atom_site_type_symbol
_atom_site_label
_atom_site_fract_x
_atom_site_fract_y
_atom_site_fract_z
Si Si1 0.273962 0.075280 0.246060
Si Si2 0.635270 0.643398 0.098569
Si Si3 0.577818 0.749016 0.972442
Si Si4 0.287920 0.368353 0.563311
Si Si5 0.756144 0.764765 0.571039
Si Si6 0.531519 0.400884 0.574939
Si Si7 0.461756 0.420412 0.151281
O O1 0.159053 0.170784 0.271748
O O2 0.431691 0.144628 0.216569
O O3 0.000000 0.000000 0.500000
O O4 0.500000 0.000000 0.000000
O O5 0.538393 0.652180 0.279137
O O6 0.411880 0.543768 0.220642
O O7 0.586271 0.739748 0.073576
O O8 0.055587 0.615406 0.768842
O O9 0.639444 0.631140 0.873045
O O10 0.178899 0.786766 0.249923
O O11 0.390045 0.263205 0.419727
O O12 0.309001 0.358675 0.655293
O O13 0.522183 0.470958 0.367361
O O14 0.883040 0.395851 0.843921
O O15 0.727699 0.653664 0.637343
#
# Coordination Sequence:
#
# PCOD9084982 Si02
#       7
#     2   2   2   2   2   2   2
#     4  11  22  39  58  83 107 135 181 234 292 328
#     4  11  22  35  50  82 116 157 182 211 271 321
#     4  10  22  35  56  82 115 143 180 224 274 346
#     4   9  19  35  51  80 112 152 196 226 255 301
#     4  10  19  35  58  82 113 143 181 228 275 324
#     4  10  22  33  54  76 116 158 190 221 251 310
#     4   9  19  32  52  80 115 152 183 223 259 322
#
# _framework density 20.299976000000001
#
# number of rings (size 3 to 8) (size 9 to 14) (size 15 to 20)
#    0.000    2.000    2.857    0.429    6.000    2.286 
#    0.000    0.000    0.000    0.000    0.000    6.000 
#    0.000    0.000    0.000    0.000    0.000    0.000 
#
# Total GULP energy -78066.695430 kJ/mol
# GULP energy per Si atom -5576.192531 kJ/mol
# Density = 2.025377 g / cm^3
# Si number density = 20.299976 Si / 1000 Ang^3
#
#
#
# Elastic Constant Matrix: (Units=GPa)
#
#
# Indices 1 2 3 4 5 6 
#
# 1 142.2179 52.1573 29.4380 -6.9658 32.8782 8.9280
# 2 52.1573 72.4943 19.6761 -12.7334 12.6298 12.2335
# 3 29.4380 19.6761 78.4471 -5.6575 28.1675 5.2896
# 4 -6.9658 -12.7334 -5.6575 32.3696 -7.5196 20.0166
# 5 32.8782 12.6298 28.1675 -7.5196 27.6288 0.6528
# 6 8.9280 12.2335 5.2896 20.0166 0.6528 28.1468
#
#
#
# Elastic Compliance Matrix: (Units=1/GPa)
#
#
# Indices 1 2 3 4 5 6 
#
# 1 0.012864 -0.009258 0.002148 -0.007127 -0.015323 0.004964
# 2 -0.009258 0.030898 -0.003212 0.032346 0.009754 -0.033118
# 3 0.002148 -0.003212 0.020939 -0.001366 -0.022766 -0.001721
# 4 -0.007127 0.032346 -0.001366 0.097840 0.023646 -0.081669
# 5 -0.015323 0.009754 -0.022766 0.023646 0.079941 -0.013771
# 6 0.004964 -0.033118 -0.001721 -0.081669 -0.013771 0.107069
#
#
# Mechanical properties :
#
#
# Convention : Reuss Voigt Hill
#
# Bulk Modulus (GPa) = 22.69799 55.07803 38.88801
# Shear Modulus (GPa) = 12.99104 30.42157 21.70630
#
# Velocity S-wave (km/s) = 2.53247 3.87538 3.27353
# Velocity P-wave (km/s) = 4.44486 6.87137 5.78673
#
# Compressibility (1/GPa) = 0.04405676
#
# Stress axis : x y z
#
# Youngs Moduli (GPa) = 77.73727 32.36467 47.75745
#
# Poissons Ratio (x) = 0.29964 -0.10258
# Poissons Ratio (y) = 0.71971 0.15339
# Poissons Ratio (z) = -0.16698 0.10395
#
# Static dielectric constant tensor:
#      x y z
#    x 1.760450 0.020340 0.028300 
#    y 0.020340 1.779260 0.018440 
#    z 0.028300 0.018440 1.828960 
# 
# From -- ./inp_files/34331.got.cif
#   From: 2010.05.17/outbox.cif.g08.bks.cpg/sg2_18_cif.got.tgz:34331.got - 2010.06.03 11:33:40.
