data_PCOD9084209
_publ_section_title
;
Structure prediction by ZEFSAII (Michael W. Deem and Ramdas Pophale) SiO2 
 PCOD9084209
Probable space group: P -1
;
_chemical_formula_sum "Si O2"
_cell_formula_units_Z 16
_cell_length_a 7.554107
_cell_length_b 13.534215
_cell_length_c 11.375728
_cell_angle_alpha 46.144637
_cell_angle_beta 117.972504
_cell_angle_gamma 91.631091
_cell_volume 655.502457
_symmetry_space_group_name_H-M "P -1"
_symmetry_group_IT_number 2
_symmetry_cell_setting 'triclinic'
loop_
_space_group_symop_operation_xyz
x,y,z
-x,-y,-z
loop_
_atom_site_type_symbol
_atom_site_label
_atom_site_fract_x
_atom_site_fract_y
_atom_site_fract_z
Si Si1 0.308285 0.138316 0.748369
Si Si2 0.661876 0.639650 0.964014
Si Si3 0.933787 0.502363 0.612257
Si Si4 0.646255 0.455892 0.904117
Si Si5 0.347893 0.967055 0.672906
Si Si6 0.003466 0.135313 0.228059
Si Si7 0.353988 0.612740 0.464139
Si Si8 0.913660 0.078948 0.783966
O O1 0.261763 0.317344 0.585647
O O2 0.073061 0.144604 0.717068
O O3 0.373645 0.072929 0.691951
O O4 0.500000 0.000000 0.000000
O O5 0.454125 0.614632 0.971275
O O6 0.883318 0.536089 0.196795
O O7 0.684054 0.584988 0.880700
O O8 0.571009 0.819824 0.816463
O O9 0.877939 0.359031 0.696394
O O10 0.000000 0.500000 0.500000
O O11 0.459903 0.510805 0.697954
O O12 0.876243 0.321074 0.032998
O O13 0.184952 0.909023 0.738484
O O14 0.208528 0.069446 0.436487
O O15 0.083254 0.043475 0.207617
O O16 0.500000 0.500000 0.500000
O O17 0.317385 0.774100 0.370958
O O18 0.000000 0.000000 0.000000
#
# Coordination Sequence:
#
# PCOD9084209 Si02
#       8
#     2   2   2   2   2   2   2   2
#     4  11  23  36  62  91 122 157 199 250 305 359
#     4  10  19  34  61  91 121 158 202 257 299 361
#     4  12  22  40  62  92 125 158 210 256 307 357
#     4  10  19  35  60  89 122 159 205 246 306 362
#     4   9  18  32  55  88 120 151 199 248 303 349
#     4   9  18  33  56  85 120 156 197 249 294 362
#     4  12  26  41  62  90 125 168 206 254 308 369
#     4  11  23  39  60  88 124 159 200 248 303 365
#
# _framework density 24.408757000000001
#
# number of rings (size 3 to 8) (size 9 to 14) (size 15 to 20)
#    0.000    1.500    2.500    3.000    5.250    4.000 
#    0.000    0.625    0.000    0.750    0.000    0.000 
#    0.000    0.000    0.000    0.000    0.000    0.000 
#
# Total GULP energy -89176.425460 kJ/mol
# GULP energy per Si atom -5573.526591 kJ/mol
# Density = 2.435320 g / cm^3
# Si number density = 24.408757 Si / 1000 Ang^3
#
#
#
# Elastic Constant Matrix: (Units=GPa)
#
#
# Indices 1 2 3 4 5 6 
#
# 1 45.4922 49.8051 12.0483 -9.1097 0.1952 -6.1015
# 2 49.8051 256.9906 83.8678 -7.9167 11.8038 -45.6072
# 3 12.0483 83.8678 92.8000 -23.4443 19.6080 -13.2969
# 4 -9.1097 -7.9167 -23.4443 44.0744 -8.5544 8.4703
# 5 0.1952 11.8038 19.6080 -8.5544 25.8457 -3.2479
# 6 -6.1015 -45.6072 -13.2969 8.4703 -3.2479 41.7728
#
#
#
# Elastic Compliance Matrix: (Units=1/GPa)
#
#
# Indices 1 2 3 4 5 6 
#
# 1 0.030658 -0.007935 0.004177 0.008454 0.002471 -0.004377
# 2 -0.007935 0.009015 -0.007579 -0.005309 0.000867 0.007415
# 3 0.004177 -0.007579 0.021036 0.009483 -0.009850 -0.003657
# 4 0.008454 -0.005309 0.009483 0.030818 0.004431 -0.007447
# 5 0.002471 0.000867 -0.009850 0.004431 0.047336 0.000954
# 6 -0.004377 0.007415 -0.003657 -0.007447 0.000954 0.031815
#
#
# Mechanical properties :
#
#
# Convention : Reuss Voigt Hill
#
# Bulk Modulus (GPa) = 26.29155 76.30281 51.29718
# Shear Modulus (GPa) = 24.26846 38.97601 31.62224
#
# Velocity S-wave (km/s) = 3.15660 4.00034 3.60325
# Velocity P-wave (km/s) = 4.90716 7.25708 6.19457
#
# Compressibility (1/GPa) = 0.03803503
#
# Stress axis : x y z
#
# Youngs Moduli (GPa) = 32.61842 110.92921 47.53775
#
# Poissons Ratio (x) = 0.88017 -0.19856
# Poissons Ratio (y) = 0.25881 0.36029
# Poissons Ratio (z) = -0.13624 0.84073
#
# Static dielectric constant tensor:
#      x y z
#    x 2.201330 0.047680 0.050920 
#    y 0.047680 1.875840 -0.039700 
#    z 0.050920 -0.039700 1.848400 
# 
# From -- ./inp_files/218627.got.cif
#   From: 2010.05.17/outbox.cif.g08.bks.cpg/sg2_110_cif.got.tgz:218627.got - 2010.06.03 11:33:40.
