data_PCOD9084890
_publ_section_title
;
Structure prediction by ZEFSAII (Michael W. Deem and Ramdas Pophale) SiO2 
 PCOD9084890
Probable space group: P -1
;
_chemical_formula_sum "Si O2"
_cell_formula_units_Z 14
_cell_length_a 10.532868
_cell_length_b 16.210844
_cell_length_c 12.908991
_cell_angle_alpha 47.550058
_cell_angle_beta 145.836379
_cell_angle_gamma 146.260495
_cell_volume 686.869395
_symmetry_space_group_name_H-M "P -1"
_symmetry_group_IT_number 2
_symmetry_cell_setting 'triclinic'
loop_
_space_group_symop_operation_xyz
x,y,z
-x,-y,-z
loop_
_atom_site_type_symbol
_atom_site_label
_atom_site_fract_x
_atom_site_fract_y
_atom_site_fract_z
Si Si1 0.218291 0.421880 0.133437
Si Si2 0.284633 0.019235 0.140498
Si Si3 0.202215 0.676351 0.889321
Si Si4 0.795453 0.527562 0.551593
Si Si5 0.924758 0.374341 0.635249
Si Si6 0.201322 0.289885 0.015895
Si Si7 0.385603 0.793919 0.615500
O O1 0.475840 0.457775 0.351655
O O2 0.208833 0.347456 0.085165
O O3 0.906128 0.322287 0.071445
O O4 0.294702 0.576676 0.034078
O O5 0.530868 0.164094 0.114786
O O6 0.446305 0.058627 0.327965
O O7 0.000000 0.000000 0.000000
O O8 0.126369 0.871624 0.091993
O O9 0.905129 0.583747 0.694054
O O10 0.831920 0.408760 0.647067
O O11 0.048088 0.677770 0.530210
O O12 0.662055 0.223188 0.525455
O O13 0.000000 0.500000 0.500000
O O14 0.199567 0.383582 0.844610
O O15 0.445976 0.270076 0.190541
#
# Coordination Sequence:
#
# PCOD9084890 Si02
#       7
#     2   2   2   2   2   2   2
#     4  11  22  36  65  86 115 159 191 244 291 338
#     4   9  21  40  59  84 120 153 191 241 289 352
#     4  10  22  41  59  88 118 151 201 239 286 346
#     4  10  19  35  57  88 115 146 197 242 286 338
#     4  10  20  32  54  87 115 147 193 240 285 337
#     4  11  21  37  58  86 119 157 193 235 297 347
#     4   9  20  36  56  85 118 152 189 239 290 344
#
# _framework density 20.382332000000002
#
# number of rings (size 3 to 8) (size 9 to 14) (size 15 to 20)
#    0.000    2.000    2.857    0.429    0.000   10.286 
#    0.000    4.286    0.000    0.857    0.000    0.000 
#    0.000    0.000    0.000    0.000    0.000    0.000 
#
# Total GULP energy -77997.179777 kJ/mol
# GULP energy per Si atom -5571.227127 kJ/mol
# Density = 2.033594 g / cm^3
# Si number density = 20.382332 Si / 1000 Ang^3
#
#
#
# Elastic Constant Matrix: (Units=GPa)
#
#
# Indices 1 2 3 4 5 6 
#
# 1 102.9428 44.4877 11.3288 5.0260 -1.6924 -9.8414
# 2 44.4877 80.8942 12.2505 9.1221 5.5458 -10.3564
# 3 11.3288 12.2505 89.7987 -7.3619 9.5271 3.1255
# 4 5.0260 9.1221 -7.3619 22.4963 1.5253 -5.2494
# 5 -1.6924 5.5458 9.5271 1.5253 19.9080 -0.0185
# 6 -9.8414 -10.3564 3.1255 -5.2494 -0.0185 24.8793
#
#
#
# Elastic Compliance Matrix: (Units=1/GPa)
#
#
# Indices 1 2 3 4 5 6 
#
# 1 0.013161 -0.006977 -0.001195 -0.000186 0.003651 0.002415
# 2 -0.006977 0.017796 -0.001625 -0.005007 -0.004386 0.003792
# 3 -0.001195 -0.001625 0.012629 0.005082 -0.006083 -0.001668
# 4 -0.000186 -0.005007 0.005082 0.050344 -0.004903 0.007823
# 5 0.003651 -0.004386 -0.006083 -0.004903 0.055049 -0.000611
# 6 0.002415 0.003792 -0.001668 0.007823 -0.000611 0.044588
#
#
# Mechanical properties :
#
#
# Convention : Reuss Voigt Hill
#
# Bulk Modulus (GPa) = 41.68157 45.52997 43.60577
# Shear Modulus (GPa) = 22.60840 27.16131 24.88485
#
# Velocity S-wave (km/s) = 3.33410 3.65443 3.49793
# Velocity P-wave (km/s) = 5.94272 6.33979 6.14446
#
# Compressibility (1/GPa) = 0.02399142
#
# Stress axis : x y z
#
# Youngs Moduli (GPa) = 75.98329 56.19392 79.18586
#
# Poissons Ratio (x) = 0.39206 0.09464
# Poissons Ratio (y) = 0.53012 0.12865
# Poissons Ratio (z) = 0.09082 0.09130
#
# Static dielectric constant tensor:
#      x y z
#    x 1.768320 -0.044360 -0.033590 
#    y -0.044360 1.799400 -0.020210 
#    z -0.033590 -0.020210 1.787520 
# 
# From -- ./inp_files/516893.got.cif
#   From: 2010.05.17/outbox.cif.g08.bks.cpg/sg2_259_cif.got.tgz:516893.got - 2010.06.03 11:33:40.
