data_PCOD9084058
_publ_section_title
;
Structure prediction by ZEFSAII (Michael W. Deem and Ramdas Pophale) SiO2 
 PCOD9084058
Probable space group: P -1
;
_chemical_formula_sum "Si O2"
_cell_formula_units_Z 16
_cell_length_a 13.433227
_cell_length_b 10.356505
_cell_length_c 11.279859
_cell_angle_alpha 55.007834
_cell_angle_beta 33.260553
_cell_angle_gamma 44.841464
_cell_volume 606.125616
_symmetry_space_group_name_H-M "P -1"
_symmetry_group_IT_number 2
_symmetry_cell_setting 'triclinic'
loop_
_space_group_symop_operation_xyz
x,y,z
-x,-y,-z
loop_
_atom_site_type_symbol
_atom_site_label
_atom_site_fract_x
_atom_site_fract_y
_atom_site_fract_z
Si Si1 0.100629 0.465978 0.599620
Si Si2 0.350995 0.883107 0.387836
Si Si3 0.857594 0.393985 0.061192
Si Si4 0.004277 0.237823 0.652405
Si Si5 0.764476 0.172410 0.113786
Si Si6 0.314572 0.050326 0.855287
Si Si7 0.167704 0.047731 0.250915
Si Si8 0.234098 0.582614 0.607162
O O1 0.896824 0.498607 0.861756
O O2 0.142418 0.294030 0.567701
O O3 0.276037 0.448396 0.526761
O O4 0.055757 0.630343 0.469764
O O5 0.523875 0.887788 0.296328
O O6 0.350301 0.698650 0.450387
O O7 0.134811 0.027062 0.594625
O O8 0.332574 0.983012 0.228171
O O9 0.092255 0.225282 0.945133
O O10 0.719841 0.307453 0.197422
O O11 0.774081 0.492889 0.216612
O O12 0.806987 0.270308 0.909148
O O13 0.632265 0.087982 0.235218
O O14 0.000000 0.000000 0.000000
O O15 0.276981 0.966488 0.058763
O O16 0.007850 0.259284 0.266955
O O17 0.000000 0.000000 0.500000
#
# Coordination Sequence:
#
# PCOD9084058 Si02
#       8
#     2   2   2   2   2   2   2   2
#     4  10  20  35  58  82 108 151 197 234 264 331
#     4  11  20  33  54  89 115 139 183 235 291 332
#     4   9  19  36  55  80 108 147 197 231 273 332
#     4  10  20  35  59  84 111 145 194 231 279 331
#     4   9  17  34  55  79 109 144 185 232 272 325
#     4  10  20  32  55  85 118 143 176 240 288 327
#     4   9  17  31  53  82 109 138 184 228 273 326
#     4  10  19  34  60  83 108 147 192 233 277 328
#
# _framework density 26.397169000000002
#
# number of rings (size 3 to 8) (size 9 to 14) (size 15 to 20)
#    0.000    2.250    1.250    3.750    1.750    0.000 
#    0.000   10.625    0.000   14.250    0.000    0.000 
#    0.000    0.000    0.000    0.000    0.000    0.000 
#
# Total GULP energy -89366.779594 kJ/mol
# GULP energy per Si atom -5585.423725 kJ/mol
# Density = 2.633709 g / cm^3
# Si number density = 26.397169 Si / 1000 Ang^3
#
#
#
# Elastic Constant Matrix: (Units=GPa)
#
#
# Indices 1 2 3 4 5 6 
#
# 1 211.1966 48.3443 47.6976 -8.1070 -19.7992 41.7159
# 2 48.3443 68.4653 8.5486 -12.5899 -5.3197 26.9525
# 3 47.6976 8.5486 63.2585 -28.5639 -2.4253 -3.5634
# 4 -8.1070 -12.5899 -28.5639 23.8710 -1.6297 -1.3710
# 5 -19.7992 -5.3197 -2.4253 -1.6297 65.5769 -17.0550
# 6 41.7159 26.9525 -3.5634 -1.3710 -17.0550 50.2489
#
#
#
# Elastic Compliance Matrix: (Units=1/GPa)
#
#
# Indices 1 2 3 4 5 6 
#
# 1 0.010500 -0.006190 -0.016443 -0.019810 -0.000307 -0.007207
# 2 -0.006190 0.024684 0.012339 0.025259 -0.000529 -0.006716
# 3 -0.016443 0.012339 0.061920 0.076152 0.004091 0.014890
# 4 -0.019810 0.025259 0.076152 0.140840 0.006078 0.014203
# 5 -0.000307 -0.000529 0.004091 0.006078 0.017192 0.006830
# 6 -0.007207 -0.006716 0.014890 0.014203 0.006830 0.033248
#
#
# Mechanical properties :
#
#
# Convention : Reuss Voigt Hill
#
# Bulk Modulus (GPa) = 13.06938 61.34461 37.20699
# Shear Modulus (GPa) = 14.94860 43.82802 29.38831
#
# Velocity S-wave (km/s) = 2.38228 4.07914 3.34025
# Velocity P-wave (km/s) = 3.53960 6.74354 5.38536
#
# Compressibility (1/GPa) = 0.07651474
#
# Stress axis : x y z
#
# Youngs Moduli (GPa) = 95.23848 40.51183 16.14977
#
# Poissons Ratio (x) = 0.25078 0.26555
# Poissons Ratio (y) = 0.58956 -0.19927
# Poissons Ratio (z) = 1.56603 -0.49987
#
# Static dielectric constant tensor:
#      x y z
#    x 2.126380 0.019480 -0.023670 
#    y 0.019480 2.091960 0.007290 
#    z -0.023670 0.007290 2.107510 
# 
# From -- ./inp_files/425409.got.cif
#   From: 2010.05.17/outbox.cif.g08.bks.cpg/sg2_213_cif.got.tgz:425409.got - 2010.06.03 11:33:40.
