data_PCOD9084667
_publ_section_title
;
Structure prediction by ZEFSAII (Michael W. Deem and Ramdas Pophale) SiO2 
 PCOD9084667
Probable space group: P -1
;
_chemical_formula_sum "Si O2"
_cell_formula_units_Z 16
_cell_length_a 7.780186
_cell_length_b 12.451728
_cell_length_c 9.545106
_cell_angle_alpha 92.722762
_cell_angle_beta 121.575254
_cell_angle_gamma 113.978608
_cell_volume 678.374475
_symmetry_space_group_name_H-M "P -1"
_symmetry_group_IT_number 2
_symmetry_cell_setting 'triclinic'
loop_
_space_group_symop_operation_xyz
x,y,z
-x,-y,-z
loop_
_atom_site_type_symbol
_atom_site_label
_atom_site_fract_x
_atom_site_fract_y
_atom_site_fract_z
Si Si1 0.095125 0.738651 0.695434
Si Si2 0.664135 0.494946 0.451612
Si Si3 0.408360 0.999999 0.801991
Si Si4 0.654152 0.914937 0.669544
Si Si5 0.219321 0.681590 0.344243
Si Si6 0.435233 0.269744 0.157924
Si Si7 0.209586 0.743209 0.059444
Si Si8 0.022883 0.182134 0.801577
O O1 0.150224 0.878956 0.697265
O O2 0.325938 0.734004 0.749450
O O3 0.864106 0.634407 0.517417
O O4 0.087690 0.706590 0.855418
O O5 0.500000 0.500000 0.500000
O O6 0.787962 0.423477 0.568766
O O7 0.509959 0.406355 0.254157
O O8 0.519112 0.963720 0.715692
O O9 0.520056 0.146932 0.835619
O O10 0.500000 0.000000 0.000000
O O11 0.468165 0.809035 0.481010
O O12 0.718727 0.836913 0.799494
O O13 0.866171 0.035438 0.694375
O O14 0.193940 0.647800 0.166162
O O15 0.037365 0.727822 0.306502
O O16 0.291351 0.233308 0.951480
O O17 0.076910 0.802715 0.089850
#
# Coordination Sequence:
#
# PCOD9084667 Si02
#       8
#     2   2   2   2   2   2   2   2
#     4  10  19  35  56  79 111 147 177 223 275 321
#     4  11  23  39  58  75 105 146 195 229 262 320
#     4   8  15  28  52  83 106 141 171 215 269 325
#     4   9  16  30  56  84 114 141 177 221 269 324
#     4   9  20  34  57  84 108 142 187 225 269 313
#     4  10  20  34  55  85 108 141 185 224 269 326
#     4   8  17  32  56  79 111 137 181 217 272 320
#     4   9  17  32  56  85 111 138 178 221 273 321
#
# _framework density 23.585792000000001
#
# number of rings (size 3 to 8) (size 9 to 14) (size 15 to 20)
#    0.750    2.000    0.000    1.875    0.000    0.500 
#    0.000    4.375    8.250    1.500    0.000    0.000 
#    0.000    0.000    0.000    0.000    0.000    0.000 
#
# Total GULP energy -89087.600094 kJ/mol
# GULP energy per Si atom -5567.975006 kJ/mol
# Density = 2.353211 g / cm^3
# Si number density = 23.585792 Si / 1000 Ang^3
#
#
#
# Elastic Constant Matrix: (Units=GPa)
#
#
# Indices 1 2 3 4 5 6 
#
# 1 52.9931 10.4843 11.3402 5.4063 -3.4079 -0.9676
# 2 10.4843 54.2464 28.4769 12.3019 7.8955 12.9881
# 3 11.3402 28.4769 52.3202 9.7425 7.0686 2.3922
# 4 5.4063 12.3019 9.7425 39.2519 3.2659 -2.4795
# 5 -3.4079 7.8955 7.0686 3.2659 35.5943 -4.0577
# 6 -0.9676 12.9881 2.3922 -2.4795 -4.0577 23.9960
#
#
#
# Elastic Compliance Matrix: (Units=1/GPa)
#
#
# Indices 1 2 3 4 5 6 
#
# 1 0.020652 -0.003608 -0.003006 -0.001061 0.003886 0.003633
# 2 -0.003608 0.033861 -0.014583 -0.007150 -0.006453 -0.018849
# 3 -0.003006 -0.014583 0.028048 -0.001530 -0.001972 0.004484
# 4 -0.001061 -0.007150 -0.001530 0.028686 -0.000053 0.006934
# 5 0.003886 -0.006453 -0.001972 -0.000053 0.031336 0.009140
# 6 0.003633 -0.018849 0.004484 0.006934 0.009140 0.053837
#
#
# Mechanical properties :
#
#
# Convention : Reuss Voigt Hill
#
# Bulk Modulus (GPa) = 24.89601 28.90692 26.90146
# Shear Modulus (GPa) = 19.82540 27.05232 23.43886
#
# Velocity S-wave (km/s) = 2.90240 3.39038 3.15583
# Velocity P-wave (km/s) = 4.67015 5.25442 4.97087
#
# Compressibility (1/GPa) = 0.04016708
#
# Stress axis : x y z
#
# Youngs Moduli (GPa) = 48.42147 29.53294 35.65343
#
# Poissons Ratio (x) = 0.10656 0.10717
# Poissons Ratio (y) = 0.17472 0.51992
# Poissons Ratio (z) = 0.14555 0.43067
#
# Static dielectric constant tensor:
#      x y z
#    x 1.972540 -0.012310 0.018750 
#    y -0.012310 1.944620 -0.023660 
#    z 0.018750 -0.023660 1.955150 
# 
# From -- ./inp_files/396031.got.cif
#   From: 2010.05.17/outbox.cif.g08.bks.cpg/sg2_199_cif.got.tgz:396031.got - 2010.06.03 11:33:40.
