data_PCOD9084335
_publ_section_title
;
Structure prediction by ZEFSAII (Michael W. Deem and Ramdas Pophale) SiO2 
 PCOD9084335
Probable space group: P -1
;
_chemical_formula_sum "Si O2"
_cell_formula_units_Z 16
_cell_length_a 11.775398
_cell_length_b 22.238717
_cell_length_c 8.563154
_cell_angle_alpha 139.244199
_cell_angle_beta 131.528248
_cell_angle_gamma 28.685285
_cell_volume 702.680391
_symmetry_space_group_name_H-M "P -1"
_symmetry_group_IT_number 2
_symmetry_cell_setting 'triclinic'
loop_
_space_group_symop_operation_xyz
x,y,z
-x,-y,-z
loop_
_atom_site_type_symbol
_atom_site_label
_atom_site_fract_x
_atom_site_fract_y
_atom_site_fract_z
Si Si1 0.799616 0.888532 0.845320
Si Si2 0.338054 0.361187 0.988267
Si Si3 0.747200 0.727464 0.660477
Si Si4 0.106405 0.440700 0.240621
Si Si5 0.301528 0.658568 0.701562
Si Si6 0.134008 0.859166 0.679153
Si Si7 0.665386 0.062059 0.777038
Si Si8 0.736684 0.106885 0.411532
O O1 0.719159 0.841134 0.785560
O O2 0.076975 0.740749 0.766508
O O3 0.673441 0.971697 0.725737
O O4 0.757454 0.999667 0.128371
O O5 0.555409 0.322358 0.057045
O O6 0.280963 0.406788 0.209026
O O7 0.109918 0.490597 0.932675
O O8 0.417666 0.216865 0.792374
O O9 0.981474 0.573771 0.497795
O O10 0.508611 0.784172 0.506805
O O11 0.778806 0.691568 0.805085
O O12 0.500000 0.500000 0.500000
O O13 0.184159 0.750536 0.618512
O O14 0.282672 0.798768 0.540540
O O15 0.217472 0.911153 0.954449
O O16 0.850854 0.980264 0.641522
O O17 0.000000 0.000000 0.500000
#
# Coordination Sequence:
#
# PCOD9084335 Si02
#       8
#     2   2   2   2   2   2   2   2
#     4  10  21  38  60  91 119 160 194 245 319 356
#     4  10  19  37  61  88 115 156 216 248 290 358
#     4  11  23  41  60  85 131 161 202 240 315 368
#     4  10  23  38  61  87 119 172 199 246 301 367
#     4  10  19  34  63  87 122 154 197 252 305 358
#     4   8  16  32  53  86 108 149 195 238 299 347
#     4   8  15  31  62  81 111 145 194 249 295 345
#     4  11  23  37  62  87 116 160 206 249 294 357
#
# _framework density 22.769953999999998
#
# number of rings (size 3 to 8) (size 9 to 14) (size 15 to 20)
#    0.000    2.250    0.000    5.625    3.500    1.000 
#    2.250    1.250    0.000    0.000    0.000    0.000 
#    0.000    0.000    0.000    0.000    0.000    0.000 
#
# Total GULP energy -89068.216860 kJ/mol
# GULP energy per Si atom -5566.763554 kJ/mol
# Density = 2.271813 g / cm^3
# Si number density = 22.769954 Si / 1000 Ang^3
#
#
#
# Elastic Constant Matrix: (Units=GPa)
#
#
# Indices 1 2 3 4 5 6 
#
# 1 122.9028 43.1651 4.5603 -4.3250 -0.8622 11.2362
# 2 43.1651 112.9774 6.8787 -5.3134 7.4887 3.8144
# 3 4.5603 6.8787 25.8518 8.1726 -1.5251 8.6837
# 4 -4.3250 -5.3134 8.1726 31.6187 -0.8480 -5.4592
# 5 -0.8622 7.4887 -1.5251 -0.8480 13.8481 6.7675
# 6 11.2362 3.8144 8.6837 -5.4592 6.7675 35.7261
#
#
#
# Elastic Compliance Matrix: (Units=1/GPa)
#
#
# Indices 1 2 3 4 5 6 
#
# 1 0.009896 -0.004028 0.000920 -0.000093 0.004757 -0.003821
# 2 -0.004028 0.011257 -0.004782 0.002914 -0.008269 0.003239
# 3 0.000920 -0.004782 0.052154 -0.016848 0.016200 -0.018099
# 4 -0.000093 0.002914 -0.016848 0.038162 -0.006407 0.010858
# 5 0.004757 -0.008269 0.016200 -0.006407 0.089345 -0.022454
# 6 -0.003821 0.003239 -0.018099 0.010858 -0.022454 0.039158
#
#
# Mechanical properties :
#
#
# Convention : Reuss Voigt Hill
#
# Bulk Modulus (GPa) = 17.38312 41.21558 29.29935
# Shear Modulus (GPa) = 18.18658 30.04713 24.11686
#
# Velocity S-wave (km/s) = 2.82921 3.63656 3.25799
# Velocity P-wave (km/s) = 4.28058 5.98105 5.20079
#
# Compressibility (1/GPa) = 0.05752707
#
# Stress axis : x y z
#
# Youngs Moduli (GPa) = 101.04604 88.83194 19.17416
#
# Poissons Ratio (x) = 0.35780 -0.01763
# Poissons Ratio (y) = 0.40700 0.09169
# Poissons Ratio (z) = -0.09293 0.42479
#
# Static dielectric constant tensor:
#      x y z
#    x 1.869340 -0.010870 -0.042130 
#    y -0.010870 1.973140 0.014170 
#    z -0.042130 0.014170 1.945480 
# 
# From -- ./inp_files/283260.got.cif
#   From: 2010.05.17/outbox.cif.g08.bks.cpg/sg2_142_cif.got.tgz:283260.got - 2010.06.03 11:33:40.
