data_PCOD9084272
_publ_section_title
;
Structure prediction by ZEFSAII (Michael W. Deem and Ramdas Pophale) SiO2 
 PCOD9084272
Probable space group: P -1
;
_chemical_formula_sum "Si O2"
_cell_formula_units_Z 16
_cell_length_a 13.565800
_cell_length_b 12.791834
_cell_length_c 8.475262
_cell_angle_alpha 114.200126
_cell_angle_beta 45.890392
_cell_angle_gamma 134.277294
_cell_volume 747.752208
_symmetry_space_group_name_H-M "P -1"
_symmetry_group_IT_number 2
_symmetry_cell_setting 'triclinic'
loop_
_space_group_symop_operation_xyz
x,y,z
-x,-y,-z
loop_
_atom_site_type_symbol
_atom_site_label
_atom_site_fract_x
_atom_site_fract_y
_atom_site_fract_z
Si Si1 0.458619 0.318389 0.554918
Si Si2 0.735562 0.581130 0.597049
Si Si3 0.784834 0.992593 0.868235
Si Si4 0.205246 0.575821 0.333266
Si Si5 0.233323 0.557692 0.938107
Si Si6 0.954109 0.325241 0.918727
Si Si7 0.817256 0.850193 0.489469
Si Si8 0.493625 0.861048 0.378363
O O1 0.538118 0.445100 0.675893
O O2 0.597266 0.404885 0.310977
O O3 0.273558 0.236526 0.624870
O O4 0.469034 0.198291 0.547615
O O5 0.764383 0.537564 0.706162
O O6 0.778320 0.732911 0.594031
O O7 0.883388 0.591110 0.334730
O O8 0.840149 0.153560 0.912143
O O9 0.974656 0.029827 0.704111
O O10 0.736758 0.922131 0.702987
O O11 0.638970 0.902839 0.109571
O O12 0.309460 0.718047 0.419999
O O13 0.000000 0.500000 0.500000
O O14 0.275825 0.616628 0.102616
O O15 0.058578 0.386207 0.006026
O O16 0.169693 0.633555 0.954696
O O17 0.500000 0.000000 0.500000
#
# Coordination Sequence:
#
# PCOD9084272 Si02
#       8
#     2   2   2   2   2   2   2   2
#     4  10  21  38  61  88 120 164 206 251 305 365
#     4   9  19  38  60  88 121 152 208 261 298 358
#     4  10  22  40  61  86 128 163 203 253 308 365
#     4  11  22  38  63  94 122 157 206 257 311 365
#     4  10  19  34  62  89 119 156 209 254 308 360
#     4   9  18  34  59  87 119 161 197 255 306 365
#     4  10  21  41  63  86 121 168 211 246 299 371
#     4  11  25  42  61  94 132 157 200 261 315 369
#
# _framework density 21.397463999999999
#
# number of rings (size 3 to 8) (size 9 to 14) (size 15 to 20)
#    0.000    2.000    1.250    1.875    3.500    1.500 
#    2.250   11.875    0.000    0.000    0.000    0.000 
#    0.000    0.000    0.000    0.000    0.000    0.000 
#
# Total GULP energy -89218.183219 kJ/mol
# GULP energy per Si atom -5576.136451 kJ/mol
# Density = 2.134876 g / cm^3
# Si number density = 21.397464 Si / 1000 Ang^3
#
#
#
# Elastic Constant Matrix: (Units=GPa)
#
#
# Indices 1 2 3 4 5 6 
#
# 1 90.4843 39.6500 8.3220 -4.4003 3.7623 13.1582
# 2 39.6500 109.9069 6.8614 2.9612 -6.8334 -4.4918
# 3 8.3220 6.8614 64.2016 -8.5502 -1.8142 5.9735
# 4 -4.4003 2.9612 -8.5502 29.0577 0.9795 -6.2412
# 5 3.7623 -6.8334 -1.8142 0.9795 18.8001 -3.2827
# 6 13.1582 -4.4918 5.9735 -6.2412 -3.2827 25.8454
#
#
#
# Elastic Compliance Matrix: (Units=1/GPa)
#
#
# Indices 1 2 3 4 5 6 
#
# 1 0.015720 -0.006519 -0.000504 0.001061 -0.007311 -0.009692
# 2 -0.006519 0.012231 -0.001038 -0.001436 0.006808 0.006202
# 3 -0.000504 -0.001038 0.016591 0.004324 0.000640 -0.002633
# 4 0.001061 -0.001436 0.004324 0.037564 -0.001026 0.007151
# 5 -0.007311 0.006808 0.000640 -0.001026 0.059348 0.012048
# 6 -0.009692 0.006202 -0.002633 0.007151 0.012048 0.048569
#
#
# Mechanical properties :
#
#
# Convention : Reuss Voigt Hill
#
# Bulk Modulus (GPa) = 35.18821 41.58440 38.38630
# Shear Modulus (GPa) = 23.18911 28.72459 25.95685
#
# Velocity S-wave (km/s) = 3.29558 3.66789 3.48671
# Velocity P-wave (km/s) = 5.56434 6.11673 5.84706
#
# Compressibility (1/GPa) = 0.02841861
#
# Stress axis : x y z
#
# Youngs Moduli (GPa) = 63.61515 81.76240 60.27292
#
# Poissons Ratio (x) = 0.53299 0.03041
# Poissons Ratio (y) = 0.41469 0.06257
# Poissons Ratio (z) = 0.03209 0.08488
#
# Static dielectric constant tensor:
#      x y z
#    x 1.798760 0.037240 -0.002050 
#    y 0.037240 1.842340 0.018870 
#    z -0.002050 0.018870 1.801670 
# 
# From -- ./inp_files/262773.got.cif
#   From: 2010.05.17/outbox.cif.g08.bks.cpg/sg2_132_cif.got.tgz:262773.got - 2010.06.03 11:33:40.
