data_PCOD9084615
_publ_section_title
;
Structure prediction by ZEFSAII (Michael W. Deem and Ramdas Pophale) SiO2 
 PCOD9084615
Probable space group: P -1
;
_chemical_formula_sum "Si O2"
_cell_formula_units_Z 16
_cell_length_a 9.036065
_cell_length_b 11.536932
_cell_length_c 11.330402
_cell_angle_alpha 130.629585
_cell_angle_beta 60.368297
_cell_angle_gamma 119.507955
_cell_volume 752.697508
_symmetry_space_group_name_H-M "P -1"
_symmetry_group_IT_number 2
_symmetry_cell_setting 'triclinic'
loop_
_space_group_symop_operation_xyz
x,y,z
-x,-y,-z
loop_
_atom_site_type_symbol
_atom_site_label
_atom_site_fract_x
_atom_site_fract_y
_atom_site_fract_z
Si Si1 0.065459 0.485637 0.833243
Si Si2 0.799057 0.430712 0.690629
Si Si3 0.587509 0.066322 0.192773
Si Si4 0.341800 0.582820 0.618465
Si Si5 0.776234 0.991497 0.850394
Si Si6 0.095189 0.324143 0.384420
Si Si7 0.066791 0.856026 0.334321
Si Si8 0.568307 0.129653 0.661689
O O1 0.252126 0.595851 0.790027
O O2 0.906938 0.486300 0.805754
O O3 0.078523 0.305587 0.696387
O O4 0.000000 0.500000 0.000000
O O5 0.828130 0.593322 0.713954
O O6 0.609752 0.310336 0.716328
O O7 0.895911 0.324388 0.498190
O O8 0.620689 0.246285 0.342369
O O9 0.410129 0.049388 0.173302
O O10 0.559069 0.936826 0.221452
O O11 0.739015 0.045805 0.030846
O O12 0.500000 0.500000 0.500000
O O13 0.194606 0.457173 0.524113
O O14 0.857220 0.840618 0.724958
O O15 0.893271 0.123371 0.806696
O O16 0.241295 0.863916 0.348489
O O17 0.000000 0.000000 0.500000
O O18 0.500000 0.000000 0.500000
#
# Coordination Sequence:
#
# PCOD9084615 Si02
#       8
#     2   2   2   2   2   2   2   2
#     4  10  21  37  59  83 117 151 191 241 296 342
#     4   9  20  37  59  84 111 156 194 237 285 351
#     4  10  21  33  55  82 118 145 188 237 292 336
#     4  11  20  34  56  87 112 148 196 237 284 346
#     4  10  19  35  55  83 112 151 184 239 288 339
#     4  10  19  37  61  80 113 150 195 235 287 344
#     4  10  20  36  61  85 111 148 199 239 282 350
#     4  10  20  36  57  82 118 152 190 236 294 341
#
# _framework density 21.256881
#
# number of rings (size 3 to 8) (size 9 to 14) (size 15 to 20)
#    0.000    2.000    1.250    3.750    1.750    1.000 
#    0.000    1.875    0.000   12.000    0.000    0.000 
#    0.000    0.000    0.000    0.000    0.000    0.000 
#
# Total GULP energy -89148.218229 kJ/mol
# GULP energy per Si atom -5571.763639 kJ/mol
# Density = 2.120850 g / cm^3
# Si number density = 21.256881 Si / 1000 Ang^3
#
#
#
# Elastic Constant Matrix: (Units=GPa)
#
#
# Indices 1 2 3 4 5 6 
#
# 1 19.8538 15.9175 10.3656 -13.1822 12.1687 -7.9072
# 2 15.9175 135.7570 18.1722 -20.9589 10.4938 -12.7496
# 3 10.3656 18.1722 57.4836 -18.3036 9.4556 -8.7933
# 4 -13.1822 -20.9589 -18.3036 38.9029 -8.1392 2.5433
# 5 12.1687 10.4938 9.4556 -8.1392 20.9856 -4.4831
# 6 -7.9072 -12.7496 -8.7933 2.5433 -4.4831 27.5029
#
#
#
# Elastic Compliance Matrix: (Units=1/GPa)
#
#
# Indices 1 2 3 4 5 6 
#
# 1 0.103304 -0.003375 -0.000094 0.022404 -0.045505 0.018616
# 2 -0.003375 0.008563 -0.000750 0.002885 -0.000348 0.002436
# 3 -0.000094 -0.000750 0.021966 0.008504 -0.005095 0.005031
# 4 0.022404 0.002885 0.008504 0.037975 -0.002119 0.006641
# 5 -0.045505 -0.000348 -0.005095 -0.002119 0.075168 -0.002424
# 6 0.018616 0.002436 0.005031 0.006641 -0.002424 0.043441
#
#
# Mechanical properties :
#
#
# Convention : Reuss Voigt Hill
#
# Bulk Modulus (GPa) = 7.97484 33.55609 20.76546
# Shear Modulus (GPa) = 14.67767 28.72089 21.69928
#
# Velocity S-wave (km/s) = 2.63057 3.67976 3.19848
# Velocity P-wave (km/s) = 3.60365 5.82018 4.84050
#
# Compressibility (1/GPa) = 0.12539444
#
# Stress axis : x y z
#
# Youngs Moduli (GPa) = 9.68017 116.77769 45.52532
#
# Poissons Ratio (x) = 0.39413 0.00429
# Poissons Ratio (y) = 0.03267 0.03415
# Poissons Ratio (z) = 0.00091 0.08759
#
# Static dielectric constant tensor:
#      x y z
#    x 1.858730 0.028490 -0.019760 
#    y 0.028490 1.915550 -0.116370 
#    z -0.019760 -0.116370 1.837960 
# 
# From -- ./inp_files/391301.got.cif
#   From: 2010.05.17/outbox.cif.g08.bks.cpg/sg2_196_cif.got.tgz:391301.got - 2010.06.03 11:33:40.
