data_PCOD9084472
_publ_section_title
;
Structure prediction by ZEFSAII (Michael W. Deem and Ramdas Pophale) SiO2 
 PCOD9084472
Probable space group: P -1
;
_chemical_formula_sum "Si O2"
_cell_formula_units_Z 16
_cell_length_a 17.642887
_cell_length_b 11.567279
_cell_length_c 8.341172
_cell_angle_alpha 76.710556
_cell_angle_beta 22.577709
_cell_angle_gamma 70.033856
_cell_volume 596.819698
_symmetry_space_group_name_H-M "P -1"
_symmetry_group_IT_number 2
_symmetry_cell_setting 'triclinic'
loop_
_space_group_symop_operation_xyz
x,y,z
-x,-y,-z
loop_
_atom_site_type_symbol
_atom_site_label
_atom_site_fract_x
_atom_site_fract_y
_atom_site_fract_z
Si Si1 0.538786 0.962671 0.753535
Si Si2 0.862060 0.285381 0.444813
Si Si3 0.904520 0.340064 0.702727
Si Si4 0.409407 0.403607 0.902437
Si Si5 0.627714 0.663322 0.648273
Si Si6 0.864105 0.422901 0.083188
Si Si7 0.648471 0.170889 0.319566
Si Si8 0.809332 0.057590 0.734124
O O1 0.609569 0.810712 0.644636
O O2 0.679342 0.038058 0.383590
O O3 0.314180 0.022076 0.081564
O O4 0.500000 0.000000 0.000000
O O5 0.965523 0.295135 0.412745
O O6 0.942678 0.337923 0.115623
O O7 0.878102 0.139947 0.443689
O O8 0.604695 0.347303 0.930199
O O9 0.713114 0.468772 0.992082
O O10 0.994054 0.386228 0.674091
O O11 0.839460 0.224506 0.935143
O O12 0.643635 0.403006 0.482042
O O13 0.454287 0.279283 0.744388
O O14 0.316514 0.392704 0.262285
O O15 0.787258 0.568308 0.243275
O O16 0.630891 0.150311 0.172271
O O17 0.000000 0.000000 0.500000
#
# Coordination Sequence:
#
# PCOD9084472 Si02
#       8
#     2   2   2   2   2   2   2   2
#     4  11  22  37  57  85 123 154 190 244 298 353
#     4   9  17  30  49  75 111 143 183 240 288 332
#     4  10  18  26  50  82 120 140 187 243 305 341
#     4  10  16  28  48  81 120 141 183 246 299 340
#     4  10  17  28  49  78 120 147 180 230 311 339
#     4  10  16  25  46  79 112 142 178 240 301 333
#     4  10  20  34  55  85 115 149 195 240 296 343
#     4  10  23  40  58  81 117 163 205 237 286 354
#
# _framework density 26.808768000000001
#
# number of rings (size 3 to 8) (size 9 to 14) (size 15 to 20)
#    0.000    2.000    3.750    2.625    5.250    0.000 
#    0.000    0.625    0.000    0.000    0.000   14.875 
#    0.000    0.000    0.000    0.000    0.000    0.000 
#
# Total GULP energy -89375.210192 kJ/mol
# GULP energy per Si atom -5585.950637 kJ/mol
# Density = 2.674775 g / cm^3
# Si number density = 26.808768 Si / 1000 Ang^3
#
#
#
# Elastic Constant Matrix: (Units=GPa)
#
#
# Indices 1 2 3 4 5 6 
#
# 1 173.2470 50.0626 33.4645 -8.5135 11.0543 11.9742
# 2 50.0626 160.6459 47.3008 -21.2481 11.6032 2.6635
# 3 33.4645 47.3008 85.0142 -13.5349 9.0458 -0.1882
# 4 -8.5135 -21.2481 -13.5349 36.1006 -6.7027 14.5744
# 5 11.0543 11.6032 9.0458 -6.7027 36.1788 6.4822
# 6 11.9742 2.6635 -0.1882 14.5744 6.4822 44.1387
#
#
#
# Elastic Compliance Matrix: (Units=1/GPa)
#
#
# Indices 1 2 3 4 5 6 
#
# 1 0.006717 -0.001422 -0.001662 0.000757 -0.000702 -0.001890
# 2 -0.001422 0.008198 -0.003375 0.003651 -0.000448 -0.001263
# 3 -0.001662 -0.003375 0.014931 0.002928 -0.001598 -0.000014
# 4 0.000757 0.003651 0.002928 0.038219 0.007478 -0.014131
# 5 -0.000702 -0.000448 -0.001598 0.007478 0.031004 -0.006812
# 6 -0.001890 -0.001263 -0.000014 -0.014131 -0.006812 0.028911
#
#
# Mechanical properties :
#
#
# Convention : Reuss Voigt Hill
#
# Bulk Modulus (GPa) = 59.07450 75.61809 67.34630
# Shear Modulus (GPa) = 34.12008 42.48888 38.30448
#
# Velocity S-wave (km/s) = 3.57139 3.98538 3.78405
# Velocity P-wave (km/s) = 6.25218 7.03174 6.65339
#
# Compressibility (1/GPa) = 0.01692778
#
# Stress axis : x y z
#
# Youngs Moduli (GPa) = 148.88607 121.98068 66.97382
#
# Poissons Ratio (x) = 0.17341 0.11130
# Poissons Ratio (y) = 0.21166 0.22607
# Poissons Ratio (z) = 0.24743 0.41175
#
# Static dielectric constant tensor:
#      x y z
#    x 2.087950 0.015230 -0.003230 
#    y 0.015230 2.146490 0.011690 
#    z -0.003230 0.011690 2.239710 
# 
# From -- ./inp_files/333187.got.cif
#   From: 2010.05.17/outbox.cif.g08.bks.cpg/sg2_167_cif.got.tgz:333187.got - 2010.06.03 11:33:40.
