data_PCOD9084395
_publ_section_title
;
Structure prediction by ZEFSAII (Michael W. Deem and Ramdas Pophale) SiO2 
 PCOD9084395
Probable space group: P -1
;
_chemical_formula_sum "Si O2"
_cell_formula_units_Z 14
_cell_length_a 10.527117
_cell_length_b 6.719386
_cell_length_c 15.658204
_cell_angle_alpha 90.972071
_cell_angle_beta 136.123519
_cell_angle_gamma 120.379586
_cell_volume 509.950785
_symmetry_space_group_name_H-M "P -1"
_symmetry_group_IT_number 2
_symmetry_cell_setting 'triclinic'
loop_
_space_group_symop_operation_xyz
x,y,z
-x,-y,-z
loop_
_atom_site_type_symbol
_atom_site_label
_atom_site_fract_x
_atom_site_fract_y
_atom_site_fract_z
Si Si1 0.217097 0.860188 0.229285
Si Si2 0.279498 0.502439 0.477306
Si Si3 0.484090 0.689594 0.322151
Si Si4 0.033202 0.263730 0.536754
Si Si5 0.413905 0.102298 0.140494
Si Si6 0.606710 0.386155 0.911854
Si Si7 0.733108 0.009649 0.111627
O O1 0.041103 0.314777 0.290840
O O2 0.241635 0.642523 0.228114
O O3 0.459593 0.143056 0.407327
O O4 0.274674 0.005491 0.164937
O O5 0.420893 0.402718 0.566879
O O6 0.105610 0.406439 0.479493
O O7 0.419815 0.544014 0.195793
O O8 0.740362 0.051540 0.437672
O O9 0.283771 0.554521 0.713584
O O10 0.000000 0.000000 0.500000
O O11 0.426515 0.874493 0.131608
O O12 0.263504 0.063955 0.984007
O O13 0.373306 0.228577 0.868440
O O14 0.905211 0.652855 0.099721
O O15 0.500000 0.000000 0.000000
#
# Coordination Sequence:
#
# PCOD9084395 Si02
#       7
#     2   2   2   2   2   2   2
#     4  10  22  38  68  92 122 168 217 256 313 374
#     4  10  21  38  63  91 123 169 213 261 307 373
#     4  10  19  34  64  91 123 155 226 261 300 369
#     4   9  18  33  58  92 115 156 210 263 298 355
#     4   9  19  35  61  90 124 161 205 260 312 369
#     4  10  20  37  62  95 127 164 206 260 319 378
#     4  10  21  37  63  90 132 164 204 262 324 371
#
# _framework density 27.453627999999998
#
# number of rings (size 3 to 8) (size 9 to 14) (size 15 to 20)
#    0.000    2.286    1.429    1.714    4.000    2.286 
#    0.000    7.143    3.143    7.714    0.000    3.000 
#    0.000    0.000    0.000    0.000    0.000    0.000 
#
# Total GULP energy -78352.426108 kJ/mol
# GULP energy per Si atom -5596.601865 kJ/mol
# Density = 2.739114 g / cm^3
# Si number density = 27.453628 Si / 1000 Ang^3
#
#
#
# Elastic Constant Matrix: (Units=GPa)
#
#
# Indices 1 2 3 4 5 6 
#
# 1 65.2803 31.1417 24.8607 -3.1745 16.8412 -13.2817
# 2 31.1417 118.0967 46.9287 -1.7128 7.5979 6.3136
# 3 24.8607 46.9287 227.1906 21.6697 5.2758 17.1579
# 4 -3.1745 -1.7128 21.6697 55.0214 11.6454 14.9616
# 5 16.8412 7.5979 5.2758 11.6454 31.7096 -11.7520
# 6 -13.2817 6.3136 17.1579 14.9616 -11.7520 43.1940
#
#
#
# Elastic Compliance Matrix: (Units=1/GPa)
#
#
# Indices 1 2 3 4 5 6 
#
# 1 0.021673 -0.004615 -0.001793 0.002521 -0.009311 0.004645
# 2 -0.004615 0.010658 -0.001578 0.002074 -0.001934 -0.003595
# 3 -0.001793 -0.001578 0.005210 -0.001898 0.000577 -0.001576
# 4 0.002521 0.002074 -0.001898 0.025572 -0.015280 -0.011789
# 5 -0.009311 -0.001934 0.000577 -0.015280 0.048246 0.015610
# 6 0.004645 -0.003595 -0.001576 -0.011789 0.015610 0.034062
#
#
# Mechanical properties :
#
#
# Convention : Reuss Voigt Hill
#
# Bulk Modulus (GPa) = 46.36342 68.49220 57.42781
# Shear Modulus (GPa) = 29.65887 46.49408 38.07647
#
# Velocity S-wave (km/s) = 3.29040 4.11974 3.72820
# Velocity P-wave (km/s) = 5.60002 6.90161 6.28460
#
# Compressibility (1/GPa) = 0.02156873
#
# Stress axis : x y z
#
# Youngs Moduli (GPa) = 46.14102 93.82288 191.92152
#
# Poissons Ratio (x) = 0.43301 0.34416
# Poissons Ratio (y) = 0.21295 0.30285
# Poissons Ratio (z) = 0.08274 0.14805
#
# Static dielectric constant tensor:
#      x y z
#    x 2.280060 -0.048750 0.010510 
#    y -0.048750 2.192750 -0.069120 
#    z 0.010510 -0.069120 2.190450 
# 
# From -- ./inp_files/575044.got.cif
#   From: 2010.05.17/outbox.cif.g08.bks.cpg/sg2_288_cif.got.tgz:575044.got - 2010.06.03 11:33:40.
