data_PCOD9084273
_publ_section_title
;
Structure prediction by ZEFSAII (Michael W. Deem and Ramdas Pophale) SiO2 
 PCOD9084273
Probable space group: P -1
;
_chemical_formula_sum "Si O2"
_cell_formula_units_Z 16
_cell_length_a 5.325071
_cell_length_b 22.823103
_cell_length_c 16.531462
_cell_angle_alpha 23.964180
_cell_angle_beta 90.876274
_cell_angle_gamma 80.305799
_cell_volume 729.059387
_symmetry_space_group_name_H-M "P -1"
_symmetry_group_IT_number 2
_symmetry_cell_setting 'triclinic'
loop_
_space_group_symop_operation_xyz
x,y,z
-x,-y,-z
loop_
_atom_site_type_symbol
_atom_site_label
_atom_site_fract_x
_atom_site_fract_y
_atom_site_fract_z
Si Si1 0.604223 0.480423 0.747253
Si Si2 0.311726 0.418062 0.067989
Si Si3 0.797992 0.441690 0.618805
Si Si4 0.338436 0.957665 0.422354
Si Si5 0.216338 0.053217 0.746343
Si Si6 0.951889 0.423203 0.294098
Si Si7 0.808517 0.939244 0.896759
Si Si8 0.277933 0.890434 0.775679
O O1 0.711046 0.504298 0.630218
O O2 0.267525 0.572738 0.642834
O O3 0.803339 0.525143 0.749818
O O4 0.668169 0.293142 0.991302
O O5 0.462139 0.228455 0.325876
O O6 0.500000 0.500000 0.000000
O O7 0.258680 0.457566 0.923547
O O8 0.000000 0.500000 0.000000
O O9 0.500000 0.500000 0.500000
O O10 0.000000 0.500000 0.500000
O O11 0.982274 0.248607 0.868298
O O12 0.284395 0.990036 0.284327
O O13 0.481546 0.069795 0.310404
O O14 0.029193 0.007488 0.392097
O O15 0.105430 0.241205 0.491010
O O16 0.513183 0.979990 0.884769
O O17 0.261978 0.951716 0.791393
O O18 0.974862 0.029208 0.821444
#
# Coordination Sequence:
#
# PCOD9084273 Si02
#       8
#     2   2   2   2   2   2   2   2
#     4  12  25  46  66 101 146 172 223 288 362 410
#     4  12  23  41  64 100 142 183 242 280 315 398
#     4  12  25  42  74 105 129 171 231 289 338 418
#     4  10  19  34  62  89 123 171 226 277 307 369
#     4  10  19  37  65  94 121 181 230 255 314 417
#     4  12  26  41  68 104 144 184 220 287 355 382
#     4  10  19  37  66  95 123 167 236 266 318 401
#     4  10  20  38  66  88 124 183 231 264 316 415
#
# _framework density 21.946086000000001
#
# number of rings (size 3 to 8) (size 9 to 14) (size 15 to 20)
#    0.000    1.000    2.500    7.500    3.500    0.000 
#    0.000    3.750    0.000   15.000    0.000    0.000 
#    0.000    0.000    0.000    0.000    0.000    0.000 
#
# Total GULP energy -89370.070526 kJ/mol
# GULP energy per Si atom -5585.629408 kJ/mol
# Density = 2.189614 g / cm^3
# Si number density = 21.946086 Si / 1000 Ang^3
#
#
#
# Elastic Constant Matrix: (Units=GPa)
#
#
# Indices 1 2 3 4 5 6 
#
# 1 180.9693 7.7433 7.9703 -3.9095 -3.7620 19.1169
# 2 7.7433 28.6028 14.4841 -8.0022 -11.4360 1.1566
# 3 7.9703 14.4841 89.9006 -9.4580 1.5793 0.3260
# 4 -3.9095 -8.0022 -9.4580 26.5788 3.9122 -5.0500
# 5 -3.7620 -11.4360 1.5793 3.9122 41.1386 -9.5230
# 6 19.1169 1.1566 0.3260 -5.0500 -9.5230 28.6568
#
#
#
# Elastic Compliance Matrix: (Units=1/GPa)
#
#
# Indices 1 2 3 4 5 6 
#
# 1 0.006044 -0.001814 -0.000258 -0.000440 -0.000903 -0.004334
# 2 -0.001814 0.046871 -0.006529 0.010634 0.013430 0.005730
# 3 -0.000258 -0.006529 0.012542 0.002829 -0.002606 -0.000074
# 4 -0.000440 0.010634 0.002829 0.043141 0.000461 0.007588
# 5 -0.000903 0.013430 -0.002606 0.000461 0.030393 0.010271
# 6 -0.004334 0.005730 -0.000074 0.007588 0.010271 0.042307
#
#
# Mechanical properties :
#
#
# Convention : Reuss Voigt Hill
#
# Bulk Modulus (GPa) = 20.72320 39.98534 30.35427
# Shear Modulus (GPa) = 23.30072 37.22650 30.26361
#
# Velocity S-wave (km/s) = 3.26195 4.12305 3.71752
# Velocity P-wave (km/s) = 4.86316 6.39730 5.68224
#
# Compressibility (1/GPa) = 0.04825509
#
# Stress axis : x y z
#
# Youngs Moduli (GPa) = 165.44465 21.33493 79.73337
#
# Poissons Ratio (x) = 0.03871 0.02059
# Poissons Ratio (y) = 0.30018 0.52055
# Poissons Ratio (z) = 0.04272 0.13929
#
# Static dielectric constant tensor:
#      x y z
#    x 1.751030 0.151650 0.122740 
#    y 0.151650 1.687220 -0.118950 
#    z 0.122740 -0.118950 1.682390 
# 
# From -- ./inp_files/551222.got.cif
#   From: 2010.05.17/outbox.cif.g08.bks.cpg/sg2_276_cif.got.tgz:551222.got - 2010.06.03 11:33:40.
