data_PCOD9084206
_publ_section_title
;
Structure prediction by ZEFSAII (Michael W. Deem and Ramdas Pophale) SiO2 
 PCOD9084206
Probable space group: P -1
;
_chemical_formula_sum "Si O2"
_cell_formula_units_Z 16
_cell_length_a 13.019274
_cell_length_b 9.127424
_cell_length_c 11.528599
_cell_angle_alpha 120.508653
_cell_angle_beta 111.725001
_cell_angle_gamma 118.473957
_cell_volume 610.799411
_symmetry_space_group_name_H-M "P -1"
_symmetry_group_IT_number 2
_symmetry_cell_setting 'triclinic'
loop_
_space_group_symop_operation_xyz
x,y,z
-x,-y,-z
loop_
_atom_site_type_symbol
_atom_site_label
_atom_site_fract_x
_atom_site_fract_y
_atom_site_fract_z
Si Si1 0.174229 0.848499 0.250804
Si Si2 0.723575 0.104181 0.125460
Si Si3 0.608234 0.995165 0.379764
Si Si4 0.052587 0.765003 0.528769
Si Si5 0.589897 0.433366 0.054706
Si Si6 0.878801 0.861398 0.560936
Si Si7 0.221556 0.428465 0.347334
Si Si8 0.771635 0.920797 0.874948
O O1 0.339341 0.974699 0.452659
O O2 0.080495 0.891707 0.295275
O O3 0.260435 0.036912 0.245509
O O4 0.000000 0.500000 0.000000
O O5 0.832583 0.418253 0.264100
O O6 0.899708 0.232275 0.319644
O O7 0.555210 0.886649 0.063928
O O8 0.668589 0.910791 0.920400
O O9 0.637051 0.229576 0.459468
O O10 0.791261 0.127317 0.445484
O O11 0.406540 0.663119 0.106133
O O12 0.056372 0.972969 0.628461
O O13 0.500000 0.500000 0.000000
O O14 0.720558 0.650116 0.307516
O O15 0.811450 0.685922 0.582163
O O16 0.286878 0.350824 0.265872
O O17 0.007685 0.217061 0.122368
#
# Coordination Sequence:
#
# PCOD9084206 Si02
#       8
#     2   2   2   2   2   2   2   2
#     4  11  21  35  60  88 122 159 196 248 302 351
#     4  10  19  37  62  87 123 155 203 249 301 347
#     4  11  21  39  63  91 127 158 196 248 309 352
#     4  10  19  34  61  95 114 149 208 262 287 339
#     4  11  24  41  59  85 128 167 185 246 316 374
#     4  11  22  38  59  93 121 153 209 241 306 368
#     4  10  19  34  61  91 119 149 206 249 291 350
#     4  10  19  35  59  92 118 152 202 254 290 343
#
# _framework density 26.195177999999999
#
# number of rings (size 3 to 8) (size 9 to 14) (size 15 to 20)
#    0.000    1.500    5.000    1.500    0.000    2.500 
#    0.000    2.500    0.000    2.250    0.000    0.000 
#    0.000    0.000    0.000    0.000    0.000    0.000 
#
# Total GULP energy -89436.609359 kJ/mol
# GULP energy per Si atom -5589.788085 kJ/mol
# Density = 2.613556 g / cm^3
# Si number density = 26.195178 Si / 1000 Ang^3
#
#
#
# Elastic Constant Matrix: (Units=GPa)
#
#
# Indices 1 2 3 4 5 6 
#
# 1 74.6608 18.2088 41.4572 -4.2948 -20.0380 -16.7290
# 2 18.2088 87.1605 35.2448 -18.9004 -15.7471 -12.2454
# 3 41.4572 35.2448 166.5491 -13.5431 -27.8998 -15.0902
# 4 -4.2948 -18.9004 -13.5431 43.7924 -6.3838 -13.6643
# 5 -20.0380 -15.7471 -27.8998 -6.3838 45.2501 8.0859
# 6 -16.7290 -12.2454 -15.0902 -13.6643 8.0859 33.5677
#
#
#
# Elastic Compliance Matrix: (Units=1/GPa)
#
#
# Indices 1 2 3 4 5 6 
#
# 1 0.018527 0.000528 -0.002530 0.004889 0.005937 0.008849
# 2 0.000528 0.016097 -0.001103 0.010051 0.005052 0.008514
# 3 -0.002530 -0.001103 0.007869 0.002899 0.003355 0.002246
# 4 0.004889 0.010051 0.002899 0.036077 0.008979 0.019930
# 5 0.005937 0.005052 0.003355 0.008979 0.029303 0.002907
# 6 0.008849 0.008514 0.002246 0.019930 0.002907 0.045729
#
#
# Mechanical properties :
#
#
# Convention : Reuss Voigt Hill
#
# Bulk Modulus (GPa) = 27.55964 57.57689 42.56826
# Shear Modulus (GPa) = 29.08590 40.08601 34.58596
#
# Velocity S-wave (km/s) = 3.33581 3.91613 3.63756
# Velocity P-wave (km/s) = 5.03791 6.51734 5.82479
#
# Compressibility (1/GPa) = 0.03628495
#
# Stress axis : x y z
#
# Youngs Moduli (GPa) = 53.97491 62.12229 127.08661
#
# Poissons Ratio (x) = -0.03283 0.32149
# Poissons Ratio (y) = -0.02853 0.14016
# Poissons Ratio (z) = 0.13654 0.06851
#
# Static dielectric constant tensor:
#      x y z
#    x 2.113790 0.026050 0.073700 
#    y 0.026050 2.101960 0.092070 
#    z 0.073700 0.092070 2.186430 
# 
# From -- ./inp_files/448084.got.cif
#   From: 2010.05.17/outbox.cif.g08.bks.cpg/sg2_225_cif.got.tgz:448084.got - 2010.06.03 11:33:40.
