data_PCOD9084454
_publ_section_title
;
Structure prediction by ZEFSAII (Michael W. Deem and Ramdas Pophale) SiO2 
 PCOD9084454
Probable space group: P -1
;
_chemical_formula_sum "Si O2"
_cell_formula_units_Z 14
_cell_length_a 8.952104
_cell_length_b 19.145354
_cell_length_c 14.210621
_cell_angle_alpha 148.386498
_cell_angle_beta 22.996118
_cell_angle_gamma 136.166144
_cell_volume 474.908422
_symmetry_space_group_name_H-M "P -1"
_symmetry_group_IT_number 2
_symmetry_cell_setting 'triclinic'
loop_
_space_group_symop_operation_xyz
x,y,z
-x,-y,-z
loop_
_atom_site_type_symbol
_atom_site_label
_atom_site_fract_x
_atom_site_fract_y
_atom_site_fract_z
Si Si1 0.726690 0.664446 0.681754
Si Si2 0.005289 0.863564 0.093493
Si Si3 0.927184 0.950397 0.588206
Si Si4 0.821461 0.690819 0.290513
Si Si5 0.844745 0.094220 0.291140
Si Si6 0.692132 0.706506 0.953083
Si Si7 0.847226 0.468583 0.894473
O O1 0.250405 0.688433 0.992560
O O2 0.896508 0.553539 0.373712
O O3 0.909488 0.794369 0.713647
O O4 0.837976 0.622489 0.676821
O O5 0.639628 0.847152 0.354527
O O6 0.020055 0.741971 0.869081
O O7 0.899392 0.997315 0.239796
O O8 0.259221 0.912638 0.083054
O O9 0.662381 0.847855 0.602282
O O10 0.000000 0.000000 0.500000
O O11 0.645012 0.621638 0.229896
O O12 0.892275 0.604492 0.248773
O O13 0.343153 0.848676 0.278930
O O14 0.000000 0.000000 0.000000
O O15 0.452271 0.621553 0.051916
#
# Coordination Sequence:
#
# PCOD9084454 Si02
#       7
#     2   2   2   2   2   2   2
#     4  10  16  25  46  75  93 119 154 202 248 274
#     4  11  18  31  46  73  98 123 160 202 237 283
#     4  10  18  31  49  68 101 134 154 191 243 289
#     4   9  19  30  44  71 101 124 162 191 242 289
#     4  11  16  25  47  71  96 123 150 201 243 278
#     4  10  18  31  49  78  94 121 164 197 240 286
#     4   9  16  30  48  69  99 123 154 208 239 273
#
# _framework density 29.479368000000001
#
# number of rings (size 3 to 8) (size 9 to 14) (size 15 to 20)
#    0.000    2.286    5.714    2.143    0.000    0.000 
#    0.000    0.000    0.000   42.857    0.000    1.000 
#    0.000    0.714    0.000    0.000    0.000    0.000 
#
# Total GULP energy -78317.351328 kJ/mol
# GULP energy per Si atom -5594.096523 kJ/mol
# Density = 2.941227 g / cm^3
# Si number density = 29.479368 Si / 1000 Ang^3
#
#
#
# Elastic Constant Matrix: (Units=GPa)
#
#
# Indices 1 2 3 4 5 6 
#
# 1 133.8175 38.1626 64.7819 6.1848 24.4655 17.7118
# 2 38.1626 101.3132 11.5163 1.8630 10.2867 -2.2590
# 3 64.7819 11.5163 201.5244 -14.4784 76.4384 -9.9672
# 4 6.1848 1.8630 -14.4784 38.6690 6.0424 18.2980
# 5 24.4655 10.2867 76.4384 6.0424 85.3503 2.1870
# 6 17.7118 -2.2590 -9.9672 18.2980 2.1870 61.0958
#
#
#
# Elastic Compliance Matrix: (Units=1/GPa)
#
#
# Indices 1 2 3 4 5 6 
#
# 1 0.010799 -0.003779 -0.003958 -0.001547 0.001104 -0.003492
# 2 -0.003779 0.011343 0.001160 -0.000145 -0.001359 0.001796
# 3 -0.003958 0.001160 0.009612 0.004641 -0.007985 0.001654
# 4 -0.001547 -0.000145 0.004641 0.032731 -0.005797 -0.008395
# 5 0.001104 -0.001359 -0.007985 -0.005797 0.019141 -0.000622
# 6 -0.003492 0.001796 0.001654 -0.008395 -0.000622 0.020253
#
#
# Mechanical properties :
#
#
# Convention : Reuss Voigt Hill
#
# Bulk Modulus (GPa) = 53.76288 73.95298 63.85793
# Shear Modulus (GPa) = 40.57413 58.50266 49.53839
#
# Velocity S-wave (km/s) = 3.71395 4.45964 4.10377
# Velocity P-wave (km/s) = 6.05544 7.18739 6.64556
#
# Compressibility (1/GPa) = 0.01860019
#
# Stress axis : x y z
#
# Youngs Moduli (GPa) = 92.60502 88.16243 104.03728
#
# Poissons Ratio (x) = 0.33318 0.41176
# Poissons Ratio (y) = 0.34997 -0.12073
# Poissons Ratio (z) = 0.36651 -0.10231
#
# Static dielectric constant tensor:
#      x y z
#    x 2.282320 0.058380 -0.146470 
#    y 0.058380 2.353750 0.004120 
#    z -0.146470 0.004120 2.560090 
# 
# From -- ./inp_files/523801.got.cif
#   From: 2010.05.17/outbox.cif.g08.bks.cpg/sg2_262_cif.got.tgz:523801.got - 2010.06.03 11:33:40.
