data_PCOD9084989
_publ_section_title
;
Structure prediction by ZEFSAII (Michael W. Deem and Ramdas Pophale) SiO2 
 PCOD9084989
Probable space group: P -1
;
_chemical_formula_sum "Si O2"
_cell_formula_units_Z 16
_cell_length_a 17.855764
_cell_length_b 6.832417
_cell_length_c 11.509938
_cell_angle_alpha 118.581334
_cell_angle_beta 40.002177
_cell_angle_gamma 133.509288
_cell_volume 651.026204
_symmetry_space_group_name_H-M "P -1"
_symmetry_group_IT_number 2
_symmetry_cell_setting 'triclinic'
loop_
_space_group_symop_operation_xyz
x,y,z
-x,-y,-z
loop_
_atom_site_type_symbol
_atom_site_label
_atom_site_fract_x
_atom_site_fract_y
_atom_site_fract_z
Si Si1 0.869708 0.377272 0.531075
Si Si2 0.568022 0.251418 0.904164
Si Si3 0.163686 0.380554 0.983128
Si Si4 0.524072 0.924889 0.650168
Si Si5 0.859370 0.903785 0.304373
Si Si6 0.733811 0.160371 0.168981
Si Si7 0.168204 0.576178 0.658545
Si Si8 0.580952 0.522773 0.173420
O O1 0.736511 0.385691 0.728116
O O2 0.914806 0.511143 0.387594
O O3 0.000000 0.500000 0.500000
O O4 0.810772 0.066464 0.481332
O O5 0.500606 0.101899 0.820262
O O6 0.533630 0.434229 0.071173
O O7 0.500000 0.000000 0.000000
O O8 0.194324 0.243673 0.799521
O O9 0.176274 0.643341 0.990256
O O10 0.284025 0.487642 0.966179
O O11 0.019014 0.148620 0.148815
O O12 0.397949 0.804925 0.672500
O O13 0.517233 0.684751 0.664185
O O14 0.673909 0.159089 0.485468
O O15 0.840539 0.676103 0.347609
O O16 0.851154 0.287811 0.168209
O O17 0.647840 0.838853 0.191413
#
# Coordination Sequence:
#
# PCOD9084989 Si02
#       8
#     2   2   2   2   2   2   2   2
#     4  11  23  40  62  88 119 160 205 247 300 362
#     4   9  20  39  58  84 121 157 202 249 290 353
#     4   9  20  38  58  88 118 151 202 250 295 359
#     4   9  20  36  55  85 120 152 200 250 293 358
#     4  10  21  39  61  82 120 160 193 249 305 349
#     4  10  20  35  61  88 115 157 200 243 304 360
#     4  10  22  38  57  89 121 151 199 248 298 364
#     4  10  19  35  58  82 116 155 195 250 299 342
#
# _framework density 24.576584
#
# number of rings (size 3 to 8) (size 9 to 14) (size 15 to 20)
#    0.000    2.250    0.000    1.875    0.000    5.500 
#    0.000   12.500    0.000    0.000    0.000    0.000 
#    0.000    0.000    0.000    0.000    0.000    0.000 
#
# Total GULP energy -89076.619700 kJ/mol
# GULP energy per Si atom -5567.288731 kJ/mol
# Density = 2.452065 g / cm^3
# Si number density = 24.576584 Si / 1000 Ang^3
#
#
#
# Elastic Constant Matrix: (Units=GPa)
#
#
# Indices 1 2 3 4 5 6 
#
# 1 117.7968 22.4620 15.5079 -15.6993 27.3334 5.2632
# 2 22.4620 160.5257 30.6366 -24.3123 11.1841 -25.1432
# 3 15.5079 30.6366 61.0996 -23.3882 5.6589 2.2293
# 4 -15.6993 -24.3123 -23.3882 47.1267 10.9459 0.5598
# 5 27.3334 11.1841 5.6589 10.9459 26.4585 -7.9434
# 6 5.2632 -25.1432 2.2293 0.5598 -7.9434 44.4537
#
#
#
# Elastic Compliance Matrix: (Units=1/GPa)
#
#
# Indices 1 2 3 4 5 6 
#
# 1 0.015520 -0.000342 0.003337 0.012217 -0.023630 -0.006574
# 2 -0.000342 0.008135 -0.002627 0.003338 -0.002625 0.004262
# 3 0.003337 -0.002627 0.024554 0.015718 -0.015940 -0.006158
# 4 0.012217 0.003338 0.015718 0.043672 -0.037755 -0.007643
# 5 -0.023630 -0.002625 -0.015940 -0.037755 0.087834 0.018283
# 6 -0.006574 0.004262 -0.006158 -0.007643 0.018283 0.029356
#
#
# Mechanical properties :
#
#
# Convention : Reuss Voigt Hill
#
# Bulk Modulus (GPa) = 20.43044 52.95948 36.69496
# Shear Modulus (GPa) = 22.25684 41.66215 31.95949
#
# Velocity S-wave (km/s) = 3.01260 4.12174 3.61002
# Velocity P-wave (km/s) = 4.52018 6.65186 5.68680
#
# Compressibility (1/GPa) = 0.04894657
#
# Stress axis : x y z
#
# Youngs Moduli (GPa) = 64.43252 122.92945 40.72574
#
# Poissons Ratio (x) = 0.04200 -0.13590
# Poissons Ratio (y) = 0.02202 0.10697
# Poissons Ratio (z) = -0.21501 0.32289
#
# Static dielectric constant tensor:
#      x y z
#    x 2.052560 0.000640 -0.058300 
#    y 0.000640 2.010310 0.080840 
#    z -0.058300 0.080840 2.129050 
# 
# From -- ./inp_files/101152.got.cif
#   From: 2010.05.17/outbox.cif.g08.bks.cpg/sg2_51_cif.got.tgz:101152.got - 2010.06.03 11:33:40.
