data_PCOD9084827
_publ_section_title
;
Structure prediction by ZEFSAII (Michael W. Deem and Ramdas Pophale) SiO2 
 PCOD9084827
Probable space group: P -1
;
_chemical_formula_sum "Si O2"
_cell_formula_units_Z 16
_cell_length_a 14.472626
_cell_length_b 14.362311
_cell_length_c 14.769909
_cell_angle_alpha 35.205069
_cell_angle_beta 28.808479
_cell_angle_gamma 29.205275
_cell_volume 703.820707
_symmetry_space_group_name_H-M "P -1"
_symmetry_group_IT_number 2
_symmetry_cell_setting 'triclinic'
loop_
_space_group_symop_operation_xyz
x,y,z
-x,-y,-z
loop_
_atom_site_type_symbol
_atom_site_label
_atom_site_fract_x
_atom_site_fract_y
_atom_site_fract_z
Si Si1 0.230795 0.298339 0.424620
Si Si2 0.775722 0.341579 0.305006
Si Si3 0.262293 0.539467 0.546957
Si Si4 0.322082 0.147949 0.768683
Si Si5 0.816901 0.803705 0.643331
Si Si6 0.297912 0.287341 0.989923
Si Si7 0.774818 0.980565 0.866257
Si Si8 0.765630 0.005550 0.215485
O O1 0.214083 0.308506 0.322297
O O2 0.206115 0.124189 0.618704
O O3 0.000000 0.500000 0.500000
O O4 0.504161 0.212515 0.282102
O O5 0.537930 0.414503 0.402039
O O6 0.767442 0.383822 0.385301
O O7 0.835076 0.486060 0.095198
O O8 0.962506 0.114086 0.310646
O O9 0.212401 0.372483 0.707232
O O10 0.090406 0.712148 0.488315
O O11 0.258232 0.107979 0.757852
O O12 0.602161 0.024977 0.634600
O O13 0.247881 0.050665 0.984454
O O14 0.769607 0.757269 0.821287
O O15 0.573715 0.190985 0.836021
O O16 0.274037 0.165415 0.029411
O O17 0.000000 0.000000 0.000000
#
# Coordination Sequence:
#
# PCOD9084827 Si02
#       8
#     2   2   2   2   2   2   2   2
#     4  10  22  44  71  96 130 168 209 273 338 386
#     4  11  22  34  53  86 124 161 208 251 288 358
#     4  11  22  36  55  85 126 166 199 249 307 356
#     4  10  21  40  63  86 119 161 201 249 315 372
#     4  10  21  39  61  85 121 161 202 248 311 371
#     4  10  19  35  59  81 117 161 206 249 297 362
#     4  10  19  35  57  83 113 160 204 245 299 358
#     4  10  23  46  72  98 128 164 217 275 328 392
#
# _framework density 22.733063000000001
#
# number of rings (size 3 to 8) (size 9 to 14) (size 15 to 20)
#    0.000    1.750    2.500    1.875    0.000    1.500 
#   15.750    2.500    0.000    0.000    0.000    0.000 
#    0.000    0.000    0.000    0.000    0.000    0.000 
#
# Total GULP energy -89194.325790 kJ/mol
# GULP energy per Si atom -5574.645362 kJ/mol
# Density = 2.268132 g / cm^3
# Si number density = 22.733063 Si / 1000 Ang^3
#
#
#
# Elastic Constant Matrix: (Units=GPa)
#
#
# Indices 1 2 3 4 5 6 
#
# 1 57.8368 11.4828 13.7461 3.3170 -9.3019 -19.8028
# 2 11.4828 141.9338 6.9781 27.8649 -21.8125 -21.9132
# 3 13.7461 6.9781 56.1740 18.5362 -20.4281 -6.8634
# 4 3.3170 27.8649 18.5362 38.9559 -11.8214 -7.3423
# 5 -9.3019 -21.8125 -20.4281 -11.8214 43.8937 18.1490
# 6 -19.8028 -21.9132 -6.8634 -7.3423 18.1490 36.2396
#
#
#
# Elastic Compliance Matrix: (Units=1/GPa)
#
#
# Indices 1 2 3 4 5 6 
#
# 1 0.022578 -0.000529 -0.005814 0.002814 -0.002744 0.012860
# 2 -0.000529 0.009059 0.002349 -0.006199 0.002526 0.003112
# 3 -0.005814 0.002349 0.026018 -0.011105 0.010937 -0.004557
# 4 0.002814 -0.006199 -0.011105 0.035917 0.001003 0.002461
# 5 -0.002744 0.002526 0.010937 0.001003 0.035141 -0.015296
# 6 0.012860 0.003112 -0.004557 0.002461 -0.015296 0.043799
#
#
# Mechanical properties :
#
#
# Convention : Reuss Voigt Hill
#
# Bulk Modulus (GPa) = 20.13530 35.59539 27.86534
# Shear Modulus (GPa) = 25.37358 38.73367 32.05363
#
# Velocity S-wave (km/s) = 3.34451 4.13225 3.75907
# Velocity P-wave (km/s) = 4.87759 6.20155 5.57898
#
# Compressibility (1/GPa) = 0.04966403
#
# Stress axis : x y z
#
# Youngs Moduli (GPa) = 44.29178 110.39274 38.43530
#
# Poissons Ratio (x) = 0.05844 0.22347
# Poissons Ratio (y) = 0.02345 -0.09027
# Poissons Ratio (z) = 0.25752 -0.25928
#
# Static dielectric constant tensor:
#      x y z
#    x 1.832130 -0.033510 -0.096360 
#    y -0.033510 1.861730 0.086670 
#    z -0.096360 0.086670 1.969380 
# 
# From -- ./inp_files/533664.got.cif
#   From: 2010.05.17/outbox.cif.g08.bks.cpg/sg2_267_cif.got.tgz:533664.got - 2010.06.03 11:33:40.
