data_PCOD9084953
_publ_section_title
;
Structure prediction by ZEFSAII (Michael W. Deem and Ramdas Pophale) SiO2 
 PCOD9084953
Probable space group: P -1
;
_chemical_formula_sum "Si O2"
_cell_formula_units_Z 16
_cell_length_a 7.478018
_cell_length_b 10.037917
_cell_length_c 13.937406
_cell_angle_alpha 73.675274
_cell_angle_beta 88.711325
_cell_angle_gamma 47.093257
_cell_volume 713.866600
_symmetry_space_group_name_H-M "P -1"
_symmetry_group_IT_number 2
_symmetry_cell_setting 'triclinic'
loop_
_space_group_symop_operation_xyz
x,y,z
-x,-y,-z
loop_
_atom_site_type_symbol
_atom_site_label
_atom_site_fract_x
_atom_site_fract_y
_atom_site_fract_z
Si Si1 0.873252 0.233676 0.701361
Si Si2 0.160293 0.354081 0.114047
Si Si3 0.039581 0.920667 0.623299
Si Si4 0.425205 0.954113 0.418497
Si Si5 0.096413 0.511024 0.720730
Si Si6 0.384721 0.075799 0.785624
Si Si7 0.228041 0.481839 0.516226
Si Si8 0.381769 0.407161 0.262099
O O1 0.819328 0.360664 0.582088
O O2 0.679423 0.401171 0.746999
O O3 0.898043 0.072564 0.683616
O O4 0.137481 0.116339 0.775220
O O5 0.370357 0.125961 0.130207
O O6 0.317539 0.391437 0.158859
O O7 0.969284 0.401085 0.189097
O O8 0.000000 0.500000 0.000000
O O9 0.331353 0.771131 0.675523
O O10 0.000000 0.000000 0.500000
O O11 0.873480 0.872592 0.625964
O O12 0.525461 0.741443 0.468108
O O13 0.500000 0.000000 0.500000
O O14 0.550063 0.944897 0.323849
O O15 0.219834 0.513890 0.624016
O O16 0.828883 0.575998 0.684982
O O17 0.292121 0.274993 0.782967
O O18 0.000000 0.500000 0.500000
#
# Coordination Sequence:
#
# PCOD9084953 Si02
#       8
#     2   2   2   2   2   2   2   2
#     4  11  20  38  57  83 123 157 190 236 278 348
#     4  10  20  35  61  89 111 143 193 252 297 334
#     4  12  25  35  53  85 122 163 190 231 284 343
#     4  11  25  36  55  82 116 160 198 230 277 347
#     4   8  19  33  52  85 116 148 191 237 276 340
#     4  10  19  35  58  80 112 147 191 239 281 340
#     4  11  18  33  58  80 117 164 189 227 279 335
#     4   9  20  37  54  83 120 148 195 236 288 339
#
# _framework density 22.413152
#
# number of rings (size 3 to 8) (size 9 to 14) (size 15 to 20)
#    0.750    1.000    5.000    1.500    3.500    2.500 
#    0.000    0.625    0.000    0.750    0.000    4.375 
#    0.000    0.000    0.000    0.000    0.000    0.000 
#
# Total GULP energy -89213.706381 kJ/mol
# GULP energy per Si atom -5575.856649 kJ/mol
# Density = 2.236214 g / cm^3
# Si number density = 22.413152 Si / 1000 Ang^3
#
#
#
# Elastic Constant Matrix: (Units=GPa)
#
#
# Indices 1 2 3 4 5 6 
#
# 1 27.9796 4.1178 17.8113 -0.4948 14.7077 -8.4097
# 2 4.1178 109.2384 32.1312 -18.3620 10.5926 -15.1893
# 3 17.8113 32.1312 123.1267 -30.9524 7.9209 -13.6239
# 4 -0.4948 -18.3620 -30.9524 31.5331 -2.9649 5.5051
# 5 14.7077 10.5926 7.9209 -2.9649 27.3565 -2.3551
# 6 -8.4097 -15.1893 -13.6239 5.5051 -2.3551 20.8733
#
#
#
# Elastic Compliance Matrix: (Units=1/GPa)
#
#
# Indices 1 2 3 4 5 6 
#
# 1 0.065198 0.004597 -0.009009 -0.012350 -0.033565 0.023203
# 2 0.004597 0.011638 -0.001648 0.003366 -0.005470 0.007741
# 3 -0.009009 -0.001648 0.012612 0.011445 0.003134 0.000738
# 4 -0.012350 0.003366 0.011445 0.046472 0.006493 -0.006580
# 5 -0.033565 -0.005470 0.003134 0.006493 0.055576 -0.010900
# 6 0.023203 0.007741 0.000738 -0.006580 -0.010900 0.063877
#
#
# Mechanical properties :
#
#
# Convention : Reuss Voigt Hill
#
# Bulk Modulus (GPa) = 12.93156 40.94058 26.93607
# Shear Modulus (GPa) = 17.04917 29.70487 23.37702
#
# Velocity S-wave (km/s) = 2.76103 3.64446 3.23306
# Velocity P-wave (km/s) = 3.99331 6.00129 5.09715
#
# Compressibility (1/GPa) = 0.07733020
#
# Stress axis : x y z
#
# Youngs Moduli (GPa) = 15.33781 85.92404 79.28907
#
# Poissons Ratio (x) = -0.39503 0.71433
# Poissons Ratio (y) = -0.07051 0.13063
# Poissons Ratio (z) = 0.13818 0.14156
#
# Static dielectric constant tensor:
#      x y z
#    x 2.082690 0.067380 -0.047730 
#    y 0.067380 2.009710 -0.039330 
#    z -0.047730 -0.039330 1.824000 
# 
# From -- ./inp_files/500415.got.cif
#   From: 2010.05.17/outbox.cif.g08.bks.cpg/sg2_251_cif.got.tgz:500415.got - 2010.06.03 11:33:40.
