data_PCOD9084112
_publ_section_title
;
Structure prediction by ZEFSAII (Michael W. Deem and Ramdas Pophale) SiO2 
 PCOD9084112
Probable space group: P -1
;
_chemical_formula_sum "Si O2"
_cell_formula_units_Z 16
_cell_length_a 12.769915
_cell_length_b 16.801037
_cell_length_c 15.586648
_cell_angle_alpha 26.845639
_cell_angle_beta 53.036998
_cell_angle_gamma 34.389632
_cell_volume 723.733627
_symmetry_space_group_name_H-M "P -1"
_symmetry_group_IT_number 2
_symmetry_cell_setting 'triclinic'
loop_
_space_group_symop_operation_xyz
x,y,z
-x,-y,-z
loop_
_atom_site_type_symbol
_atom_site_label
_atom_site_fract_x
_atom_site_fract_y
_atom_site_fract_z
Si Si1 0.224086 0.874125 0.006344
Si Si2 0.069892 0.016041 0.634755
Si Si3 0.675063 0.559661 0.864274
Si Si4 0.002707 0.291771 0.574023
Si Si5 0.557058 0.694985 0.499440
Si Si6 0.919920 0.772219 0.101302
Si Si7 0.318210 0.071053 0.416176
Si Si8 0.679131 0.186717 0.663637
O O1 0.216334 0.009519 0.961778
O O2 0.412791 0.529432 0.255839
O O3 0.210705 0.005616 0.801511
O O4 0.000000 0.000000 0.000000
O O5 0.128798 0.128274 0.445256
O O6 0.982227 0.183363 0.608533
O O7 0.875455 0.100842 0.616439
O O8 0.280185 0.663166 0.888267
O O9 0.734656 0.671534 0.781041
O O10 0.862479 0.345674 0.904609
O O11 0.455290 0.842802 0.649236
O O12 0.793683 0.506161 0.533181
O O13 0.005919 0.484928 0.352217
O O14 0.421833 0.810488 0.368320
O O15 0.454513 0.924993 0.401951
O O16 0.780578 0.948765 0.914388
O O17 0.500000 0.500000 0.500000
#
# Coordination Sequence:
#
# PCOD9084112 Si02
#       8
#     2   2   2   2   2   2   2   2
#     4  10  19  34  60  89 126 158 203 268 324 362
#     4  11  22  42  66  88 125 173 213 253 320 378
#     4  10  21  40  65  92 128 170 205 258 325 383
#     4  11  21  37  64  96 124 161 211 270 322 373
#     4  11  22  41  61  93 128 167 212 265 310 367
#     4  11  21  38  63  96 126 165 215 260 316 382
#     4  11  23  40  63  94 131 163 211 261 318 386
#     4  11  21  42  66  88 124 173 215 259 311 373
#
# _framework density 22.107582000000001
#
# number of rings (size 3 to 8) (size 9 to 14) (size 15 to 20)
#    0.000    1.250    3.750    5.250    0.000    1.000 
#    2.250    2.500    0.000    0.000    0.000    0.000 
#    0.000    0.000    0.000    0.000    0.000    0.000 
#
# Total GULP energy -89424.873698 kJ/mol
# GULP energy per Si atom -5589.054606 kJ/mol
# Density = 2.205726 g / cm^3
# Si number density = 22.107582 Si / 1000 Ang^3
#
#
#
# Elastic Constant Matrix: (Units=GPa)
#
#
# Indices 1 2 3 4 5 6 
#
# 1 47.2247 -0.9083 18.2339 8.6157 -1.2232 9.5457
# 2 -0.9083 66.0664 4.4884 -4.9877 -7.7888 14.1016
# 3 18.2339 4.4884 93.0708 15.4090 -9.3184 3.8849
# 4 8.6157 -4.9877 15.4090 29.3781 2.6651 -7.0210
# 5 -1.2232 -7.7888 -9.3184 2.6651 40.0368 -0.5769
# 6 9.5457 14.1016 3.8849 -7.0210 -0.5769 27.7433
#
#
#
# Elastic Compliance Matrix: (Units=1/GPa)
#
#
# Indices 1 2 3 4 5 6 
#
# 1 0.026558 0.002653 -0.003302 -0.008604 0.000956 -0.012181
# 2 0.002653 0.017675 -0.000628 -0.000074 0.003238 -0.009760
# 3 -0.003302 -0.000628 0.012932 -0.006685 0.003203 -0.001980
# 4 -0.008604 -0.000074 -0.006685 0.044051 -0.004550 0.014988
# 5 0.000956 0.003238 0.003203 -0.004550 0.026641 -0.003021
# 6 -0.012181 -0.009760 -0.001980 0.014988 -0.003021 0.049204
#
#
# Mechanical properties :
#
#
# Convention : Reuss Voigt Hill
#
# Bulk Modulus (GPa) = 18.31198 27.77667 23.04432
# Shear Modulus (GPa) = 25.27553 31.73483 28.50518
#
# Velocity S-wave (km/s) = 3.38494 3.79287 3.59470
# Velocity P-wave (km/s) = 4.85573 5.63673 5.26075
#
# Compressibility (1/GPa) = 0.05460907
#
# Stress axis : x y z
#
# Youngs Moduli (GPa) = 37.65313 56.57778 77.32799
#
# Poissons Ratio (x) = -0.15008 0.25536
# Poissons Ratio (y) = -0.09988 0.04858
# Poissons Ratio (z) = 0.12434 0.03555
#
# Static dielectric constant tensor:
#      x y z
#    x 1.807900 -0.031630 0.003130 
#    y -0.031630 1.855840 0.010870 
#    z 0.003130 0.010870 1.825140 
# 
# From -- ./inp_files/522143.got.cif
#   From: 2010.05.17/outbox.cif.g08.bks.cpg/sg2_262_cif.got.tgz:522143.got - 2010.06.03 11:33:40.
