data_PCOD9084152
_publ_section_title
;
Structure prediction by ZEFSAII (Michael W. Deem and Ramdas Pophale) SiO2 
 PCOD9084152
Probable space group: P -1
;
_chemical_formula_sum "Si O2"
_cell_formula_units_Z 16
_cell_length_a 22.147394
_cell_length_b 13.462688
_cell_length_c 6.870446
_cell_angle_alpha 70.351175
_cell_angle_beta 71.202788
_cell_angle_gamma 19.868019
_cell_volume 655.544503
_symmetry_space_group_name_H-M "P -1"
_symmetry_group_IT_number 2
_symmetry_cell_setting 'triclinic'
loop_
_space_group_symop_operation_xyz
x,y,z
-x,-y,-z
loop_
_atom_site_type_symbol
_atom_site_label
_atom_site_fract_x
_atom_site_fract_y
_atom_site_fract_z
Si Si1 0.013035 0.631479 0.086845
Si Si2 0.164221 0.737975 0.254244
Si Si3 0.210011 0.724633 0.782667
Si Si4 0.336180 0.723344 0.803854
Si Si5 0.713434 0.667145 0.505189
Si Si6 0.129423 0.365422 0.721128
Si Si7 0.690323 0.661687 0.084620
Si Si8 0.507624 0.320999 0.223967
O O1 0.988695 0.554251 0.267656
O O2 0.041965 0.548006 0.888278
O O3 0.169500 0.473135 0.068486
O O4 0.832560 0.973425 0.096349
O O5 0.230427 0.516762 0.299488
O O6 0.326708 0.541423 0.327804
O O7 0.151910 0.819590 0.009524
O O8 0.960603 0.038204 0.324763
O O9 0.281431 0.731822 0.679035
O O10 0.324617 0.441959 0.853940
O O11 0.432052 0.684851 0.680202
O O12 0.461581 0.457974 0.986190
O O13 0.822262 0.605934 0.474545
O O14 0.750399 0.579457 0.301291
O O15 0.500000 0.000000 0.500000
O O16 0.329141 0.008553 0.776942
O O17 0.500000 0.000000 0.000000
#
# Coordination Sequence:
#
# PCOD9084152 Si02
#       8
#     2   2   2   2   2   2   2   2
#     4   9  18  33  51  84 113 148 190 238 283 336
#     4  10  19  34  61  84 118 146 198 234 286 348
#     4  10  21  37  58  84 117 153 189 246 291 341
#     4   9  18  31  55  81 114 148 195 234 284 342
#     4  11  21  35  58  88 114 154 192 238 288 348
#     4   9  18  32  54  81 119 142 190 241 283 331
#     4  11  23  36  59  86 118 149 194 242 292 344
#     4   9  16  30  54  84 108 154 189 235 275 344
#
# _framework density 24.407191999999998
#
# number of rings (size 3 to 8) (size 9 to 14) (size 15 to 20)
#    0.000    2.250    1.250    3.000    5.250    0.500 
#    0.000    0.000    2.750    3.750    0.000    0.000 
#    0.000    0.000    0.000    0.000    0.000    0.000 
#
# Total GULP energy -89157.932960 kJ/mol
# GULP energy per Si atom -5572.370810 kJ/mol
# Density = 2.435164 g / cm^3
# Si number density = 24.407192 Si / 1000 Ang^3
#
#
#
# Elastic Constant Matrix: (Units=GPa)
#
#
# Indices 1 2 3 4 5 6 
#
# 1 209.4921 60.4243 27.6689 9.9220 -31.5433 -3.2599
# 2 60.4243 121.7341 8.0961 3.8948 -18.3711 -2.9010
# 3 27.6689 8.0961 62.1116 9.4932 -7.8063 2.3747
# 4 9.9220 3.8948 9.4932 24.7065 -3.7127 -12.6504
# 5 -31.5433 -18.3711 -7.8063 -3.7127 35.9058 1.1392
# 6 -3.2599 -2.9010 2.3747 -12.6504 1.1392 42.3130
#
#
#
# Elastic Compliance Matrix: (Units=1/GPa)
#
#
# Indices 1 2 3 4 5 6 
#
# 1 0.006338 -0.002413 -0.001906 -0.000814 0.003832 0.000083
# 2 -0.002413 0.009856 0.000143 0.000010 0.002942 0.000406
# 3 -0.001906 0.000143 0.018498 -0.007950 0.001713 -0.003598
# 4 -0.000814 0.000010 -0.007950 0.052413 0.002474 0.015987
# 5 0.003832 0.002942 0.001713 0.002474 0.033343 0.000243
# 6 0.000083 0.000406 -0.003598 0.015987 0.000243 0.028643
#
#
# Mechanical properties :
#
#
# Convention : Reuss Voigt Hill
#
# Bulk Modulus (GPa) = 37.96428 65.07961 51.52195
# Shear Modulus (GPa) = 30.07999 40.39498 35.23748
#
# Velocity S-wave (km/s) = 3.51440 4.07264 3.80377
# Velocity P-wave (km/s) = 5.66183 6.98836 6.35977
#
# Compressibility (1/GPa) = 0.02634055
#
# Stress axis : x y z
#
# Youngs Moduli (GPa) = 157.77862 101.45945 54.05887
#
# Poissons Ratio (x) = 0.24480 0.10304
# Poissons Ratio (y) = 0.38069 -0.00772
# Poissons Ratio (z) = 0.30073 -0.01449
#
# Static dielectric constant tensor:
#      x y z
#    x 2.009810 -0.049160 0.031060 
#    y -0.049160 1.926960 0.080280 
#    z 0.031060 0.080280 2.000600 
# 
# From -- ./inp_files/354321.got.cif
#   From: 2010.05.17/outbox.cif.g08.bks.cpg/sg2_178_cif.got.tgz:354321.got - 2010.06.03 11:33:40.
