data_PCOD9084629
_publ_section_title
;
Structure prediction by ZEFSAII (Michael W. Deem and Ramdas Pophale) SiO2 
 PCOD9084629
Probable space group: P -1
;
_chemical_formula_sum "Si O2"
_cell_formula_units_Z 16
_cell_length_a 22.743589
_cell_length_b 8.032013
_cell_length_c 11.168101
_cell_angle_alpha 119.064247
_cell_angle_beta 30.485190
_cell_angle_gamma 125.623973
_cell_volume 840.662619
_symmetry_space_group_name_H-M "P -1"
_symmetry_group_IT_number 2
_symmetry_cell_setting 'triclinic'
loop_
_space_group_symop_operation_xyz
x,y,z
-x,-y,-z
loop_
_atom_site_type_symbol
_atom_site_label
_atom_site_fract_x
_atom_site_fract_y
_atom_site_fract_z
Si Si1 0.235808 0.852582 0.679319
Si Si2 0.976869 0.259327 0.455319
Si Si3 0.180927 0.524699 0.837110
Si Si4 0.384321 0.439111 0.571880
Si Si5 0.509394 0.167037 0.334632
Si Si6 0.744032 0.094801 0.975564
Si Si7 0.221089 0.177383 0.985787
Si Si8 0.057524 0.838338 0.794278
O O1 0.193653 0.622747 0.718974
O O2 0.189697 0.873003 0.635461
O O3 0.382187 0.969865 0.491339
O O4 0.171221 0.973745 0.918940
O O5 0.866005 0.138767 0.697040
O O6 0.940909 0.172418 0.354469
O O7 0.000000 0.500000 0.500000
O O8 0.107563 0.237706 0.248230
O O9 0.280158 0.416589 0.648463
O O10 0.222024 0.713078 0.925191
O O11 0.042977 0.376915 0.058791
O O12 0.473626 0.311325 0.351652
O O13 0.461778 0.677599 0.547407
O O14 0.306034 0.345090 0.799612
O O15 0.628340 0.101801 0.101734
O O16 0.717287 0.893386 0.034260
O O17 0.000000 0.000000 0.000000
#
# Coordination Sequence:
#
# PCOD9084629 Si02
#       8
#     2   2   2   2   2   2   2   2
#     4  10  21  34  56  85 116 151 185 237 283 337
#     4  12  21  38  59  83 117 149 192 234 286 339
#     4  10  19  35  55  86 114 144 194 238 288 325
#     4   9  16  30  54  80 112 151 186 240 276 325
#     4   9  18  33  51  82 116 148 190 225 281 340
#     4  10  21  34  56  85 116 151 185 237 283 337
#     4  10  19  35  55  86 114 144 194 238 288 325
#     4  12  21  38  59  83 117 149 192 234 286 339
#
# _framework density 19.032603999999999
#
# number of rings (size 3 to 8) (size 9 to 14) (size 15 to 20)
#    0.000    1.750    3.750    2.250    0.000    9.000 
#    0.000    0.625    0.000    0.000    0.000    3.500 
#    0.000    0.000    0.000    0.000    0.000    0.000 
#
# Total GULP energy -89118.771092 kJ/mol
# GULP energy per Si atom -5569.923193 kJ/mol
# Density = 1.898928 g / cm^3
# Si number density = 19.032604 Si / 1000 Ang^3
#
#
#
# Elastic Constant Matrix: (Units=GPa)
#
#
# Indices 1 2 3 4 5 6 
#
# 1 82.2959 23.3236 37.8104 3.1664 -12.0296 -10.6603
# 2 23.3236 44.2739 21.5674 -5.2261 -4.8643 -11.4743
# 3 37.8104 21.5674 70.4418 4.6154 -22.4648 -12.0162
# 4 3.1664 -5.2261 4.6154 28.1630 -2.6981 -1.1666
# 5 -12.0296 -4.8643 -22.4648 -2.6981 34.6065 2.5843
# 6 -10.6603 -11.4743 -12.0162 -1.1666 2.5843 19.7075
#
#
#
# Elastic Compliance Matrix: (Units=1/GPa)
#
#
# Indices 1 2 3 4 5 6 
#
# 1 0.017277 -0.005337 -0.007111 -0.001659 0.000379 0.001755
# 2 -0.005337 0.032402 -0.005796 0.007969 -0.001420 0.013103
# 3 -0.007111 -0.005796 0.024931 -0.002935 0.012205 0.006206
# 4 -0.001659 0.007969 -0.002935 0.037945 0.001296 0.004029
# 5 0.000379 -0.001420 0.012205 0.001296 0.036697 0.002085
# 6 0.001755 0.013103 0.006206 0.004029 0.002085 0.063069
#
#
# Mechanical properties :
#
#
# Convention : Reuss Voigt Hill
#
# Bulk Modulus (GPa) = 26.23120 40.26827 33.24973
# Shear Modulus (GPa) = 19.11926 24.11606 21.61766
#
# Velocity S-wave (km/s) = 3.17291 3.56349 3.37385
# Velocity P-wave (km/s) = 5.21874 6.17533 5.71708
#
# Compressibility (1/GPa) = 0.03812255
#
# Stress axis : x y z
#
# Youngs Moduli (GPa) = 57.87882 30.86222 40.11118
#
# Poissons Ratio (x) = 0.16472 0.28522
# Poissons Ratio (y) = 0.30891 0.23248
# Poissons Ratio (z) = 0.41156 0.17887
#
# Static dielectric constant tensor:
#      x y z
#    x 1.700960 -0.034610 -0.033780 
#    y -0.034610 1.718400 -0.014020 
#    z -0.033780 -0.014020 1.667620 
# 
# From -- ./inp_files/473972.got.cif
#   From: 2010.05.17/outbox.cif.g08.bks.cpg/sg2_237_cif.got.tgz:473972.got - 2010.06.03 11:33:40.
