data_PCOD9084507
_publ_section_title
;
Structure prediction by ZEFSAII (Michael W. Deem and Ramdas Pophale) SiO2 
 PCOD9084507
Probable space group: P -1
;
_chemical_formula_sum "Si O2"
_cell_formula_units_Z 16
_cell_length_a 12.424570
_cell_length_b 10.861942
_cell_length_c 4.938505
_cell_angle_alpha 106.136316
_cell_angle_beta 72.813656
_cell_angle_gamma 109.225306
_cell_volume 589.031946
_symmetry_space_group_name_H-M "P -1"
_symmetry_group_IT_number 2
_symmetry_cell_setting 'triclinic'
loop_
_space_group_symop_operation_xyz
x,y,z
-x,-y,-z
loop_
_atom_site_type_symbol
_atom_site_label
_atom_site_fract_x
_atom_site_fract_y
_atom_site_fract_z
Si Si1 0.466214 0.801047 0.441956
Si Si2 0.129547 0.475938 0.702446
Si Si3 0.343616 0.314121 0.643433
Si Si4 0.882142 0.359250 0.681494
Si Si5 0.098964 0.141058 0.835589
Si Si6 0.338376 0.871207 0.101751
Si Si7 0.629256 0.515646 0.747525
Si Si8 0.145030 0.994123 0.208766
O O1 0.601720 0.807742 0.397421
O O2 0.433584 0.890404 0.282825
O O3 0.418088 0.643357 0.308551
O O4 0.397578 0.819246 0.773752
O O5 0.111348 0.600382 0.611814
O O6 0.243243 0.460371 0.462232
O O7 0.013117 0.359253 0.663794
O O8 0.139835 0.524761 0.033226
O O9 0.202862 0.261844 0.725067
O O10 0.409612 0.382420 0.366335
O O11 0.373492 0.427124 0.919304
O O12 0.775733 0.234205 0.751012
O O13 0.960665 0.125941 0.905255
O O14 0.114390 0.021942 0.555541
O O15 0.134285 0.114459 0.097069
O O16 0.275557 0.979063 0.102777
#
# Coordination Sequence:
#
# PCOD9084507 Si02
#       8
#     2   2   2   2   2   2   2   2
#     4  12  25  43  61  96 138 171 218 262 301 387
#     4  10  20  34  55  84 125 164 202 261 300 367
#     4  12  26  42  67  91 127 181 222 260 315 374
#     4  10  19  35  53  85 126 162 200 252 316 373
#     4  10  23  48  67  97 128 157 216 277 316 389
#     4  12  22  41  66  94 127 174 208 261 335 381
#     4  12  22  41  62  94 129 178 219 257 314 369
#     4  10  23  44  74  95 125 162 206 275 343 377
#
# _framework density 27.163209999999999
#
# number of rings (size 3 to 8) (size 9 to 14) (size 15 to 20)
#    0.000    1.000    2.500    4.500    1.750    0.000 
#    2.250    3.750    0.000    0.000    0.000    0.000 
#    0.000    0.000    0.000    0.000    0.000    0.000 
#
# Total GULP energy -89568.429252 kJ/mol
# GULP energy per Si atom -5598.026828 kJ/mol
# Density = 2.710139 g / cm^3
# Si number density = 27.163210 Si / 1000 Ang^3
#
#
#
# Elastic Constant Matrix: (Units=GPa)
#
#
# Indices 1 2 3 4 5 6 
#
# 1 122.2000 14.0052 22.9948 8.7165 -11.0451 -9.5659
# 2 14.0052 66.5883 14.0081 -18.4892 10.6528 12.9311
# 3 22.9948 14.0081 131.4825 -3.3245 1.5331 -0.9879
# 4 8.7165 -18.4892 -3.3245 35.4439 -2.5579 -6.6555
# 5 -11.0451 10.6528 1.5331 -2.5579 50.1106 -5.1262
# 6 -9.5659 12.9311 -0.9879 -6.6555 -5.1262 40.7266
#
#
#
# Elastic Compliance Matrix: (Units=1/GPa)
#
#
# Indices 1 2 3 4 5 6 
#
# 1 0.009702 -0.003925 -0.001385 -0.003719 0.003161 0.003281
# 2 -0.003925 0.021125 -0.001292 0.010214 -0.005478 -0.006681
# 3 -0.001385 -0.001292 0.008002 0.000463 -0.000218 0.000327
# 4 -0.003719 0.010214 0.000463 0.034689 -0.001089 0.001427
# 5 0.003161 -0.005478 -0.000218 -0.001089 0.022290 0.005104
# 6 0.003281 -0.006681 0.000327 0.001427 0.005104 0.028330
#
#
# Mechanical properties :
#
#
# Convention : Reuss Voigt Hill
#
# Bulk Modulus (GPa) = 39.02438 46.92077 42.97258
# Shear Modulus (GPa) = 34.27420 43.20709 38.74064
#
# Velocity S-wave (km/s) = 3.55602 3.99262 3.78063
# Velocity P-wave (km/s) = 5.59090 6.21014 5.90864
#
# Compressibility (1/GPa) = 0.02562501
#
# Stress axis : x y z
#
# Youngs Moduli (GPa) = 103.07679 47.33771 124.96650
#
# Poissons Ratio (x) = 0.18578 0.17305
# Poissons Ratio (y) = 0.40454 0.16150
# Poissons Ratio (z) = 0.14274 0.06118
#
# Static dielectric constant tensor:
#      x y z
#    x 2.300220 -0.055570 0.075790 
#    y -0.055570 2.220020 -0.056700 
#    z 0.075790 -0.056700 1.987590 
# 
# From -- ./inp_files/93760.got.cif
#   From: 2010.05.17/outbox.cif.g08.bks.cpg/sg2_47_cif.got.tgz:93760.got - 2010.06.03 11:33:40.
