data_PCOD9084003
_publ_section_title
;
Structure prediction by ZEFSAII (Michael W. Deem and Ramdas Pophale) SiO2 
 PCOD9084003
Probable space group: P -1
;
_chemical_formula_sum "Si O2"
_cell_formula_units_Z 14
_cell_length_a 21.201092
_cell_length_b 9.172526
_cell_length_c 11.961307
_cell_angle_alpha 125.554859
_cell_angle_beta 161.143763
_cell_angle_gamma 46.018132
_cell_volume 511.504557
_symmetry_space_group_name_H-M "P -1"
_symmetry_group_IT_number 2
_symmetry_cell_setting 'triclinic'
loop_
_space_group_symop_operation_xyz
x,y,z
-x,-y,-z
loop_
_atom_site_type_symbol
_atom_site_label
_atom_site_fract_x
_atom_site_fract_y
_atom_site_fract_z
Si Si1 0.026467 0.765100 0.344492
Si Si2 0.762265 0.986515 0.301710
Si Si3 0.683545 0.193613 0.479635
Si Si4 0.509190 0.122174 0.724588
Si Si5 0.799473 0.522025 0.802527
Si Si6 0.803339 0.390827 0.199800
Si Si7 0.616903 0.195733 0.627993
O O1 0.131473 0.872741 0.495644
O O2 0.189708 0.661123 0.680741
O O3 0.774824 0.959134 0.055396
O O4 0.989284 0.584520 0.150482
O O5 0.746596 0.004582 0.416462
O O6 0.919855 0.736090 0.418864
O O7 0.532376 0.103647 0.889529
O O8 0.345951 0.380979 0.281826
O O9 0.689949 0.168893 0.611324
O O10 0.413103 0.370352 0.074554
O O11 0.617257 0.659145 0.458314
O O12 0.366409 0.017770 0.402963
O O13 0.842348 0.289922 0.764092
O O14 0.747897 0.265121 0.959030
#
# Coordination Sequence:
#
# PCOD9084003 Si02
#       7
#     2   2   2   2   2   2   2
#     4  10  19  34  59  89 116 150 198 246 290 341
#     4  11  22  37  60  91 121 152 196 243 295 349
#     4  11  24  39  60  88 122 159 192 238 297 355
#     4  10  20  37  64  88 116 158 198 243 294 345
#     4  10  19  37  63  87 116 156 198 244 293 343
#     4  10  20  39  60  82 118 156 193 242 289 340
#     4  10  20  39  61  86 120 158 197 237 294 355
#
# _framework density 27.370238000000001
#
# number of rings (size 3 to 8) (size 9 to 14) (size 15 to 20)
#    0.000    1.714    0.000    9.429    0.000    4.000 
#    0.000   12.857    0.000    1.714    0.000    0.000 
#    0.000    0.000    0.000    0.000    0.000    0.000 
#
# Total GULP energy -78330.001633 kJ/mol
# GULP energy per Si atom -5595.000117 kJ/mol
# Density = 2.730794 g / cm^3
# Si number density = 27.370238 Si / 1000 Ang^3
#
#
#
# Elastic Constant Matrix: (Units=GPa)
#
#
# Indices 1 2 3 4 5 6 
#
# 1 89.3525 3.7715 27.3507 -11.7629 -19.1614 -22.3247
# 2 3.7715 49.9007 19.3569 -1.6006 6.4626 -9.9784
# 3 27.3507 19.3569 105.6569 13.2873 -12.7992 0.3795
# 4 -11.7629 -1.6006 13.2873 43.1641 4.2395 -1.6459
# 5 -19.1614 6.4626 -12.7992 4.2395 36.2786 9.7470
# 6 -22.3247 -9.9784 0.3795 -1.6459 9.7470 40.5402
#
#
#
# Elastic Compliance Matrix: (Units=1/GPa)
#
#
# Indices 1 2 3 4 5 6 
#
# 1 0.016456 0.002330 -0.005094 0.006163 0.003304 0.009139
# 2 0.002330 0.026056 -0.007181 0.005112 -0.009283 0.010203
# 3 -0.005094 -0.007181 0.013680 -0.006690 0.005915 -0.006394
# 4 0.006163 0.005112 -0.006690 0.027875 -0.005179 0.007092
# 5 0.003304 -0.009283 0.005915 -0.005179 0.036189 -0.009432
# 6 0.009139 0.010203 -0.006394 0.007092 -0.009432 0.034826
#
#
# Mechanical properties :
#
#
# Convention : Reuss Voigt Hill
#
# Bulk Modulus (GPa) = 27.54785 38.42978 32.98881
# Shear Modulus (GPa) = 26.72768 36.95864 31.84316
#
# Velocity S-wave (km/s) = 3.12833 3.67866 3.41460
# Velocity P-wave (km/s) = 4.80992 5.66697 5.25594
#
# Compressibility (1/GPa) = 0.03630048
#
# Stress axis : x y z
#
# Youngs Moduli (GPa) = 60.76889 38.37950 73.10114
#
# Poissons Ratio (x) = -0.08941 0.37240
# Poissons Ratio (y) = -0.14157 0.52492
# Poissons Ratio (z) = 0.30957 0.27559
#
# Static dielectric constant tensor:
#      x y z
#    x 2.166730 -0.011420 0.103950 
#    y -0.011420 2.141900 -0.003030 
#    z 0.103950 -0.003030 2.243350 
# 
# From -- ./inp_files/471222.got.cif
#   From: 2010.05.17/outbox.cif.g08.bks.cpg/sg2_236_cif.got.tgz:471222.got - 2010.06.03 11:33:40.
