data_PCOD9084313
_publ_section_title
;
Structure prediction by ZEFSAII (Michael W. Deem and Ramdas Pophale) SiO2 
 PCOD9084313
Probable space group: P -1
;
_chemical_formula_sum "Si O2"
_cell_formula_units_Z 12
_cell_length_a 8.644729
_cell_length_b 8.727572
_cell_length_c 8.971671
_cell_angle_alpha 56.415709
_cell_angle_beta 110.437457
_cell_angle_gamma 128.030796
_cell_volume 444.135370
_symmetry_space_group_name_H-M "P -1"
_symmetry_group_IT_number 2
_symmetry_cell_setting 'triclinic'
loop_
_space_group_symop_operation_xyz
x,y,z
-x,-y,-z
loop_
_atom_site_type_symbol
_atom_site_label
_atom_site_fract_x
_atom_site_fract_y
_atom_site_fract_z
Si Si1 0.848389 0.303969 0.444712
Si Si2 0.231931 0.133447 0.877479
Si Si3 0.794076 0.976432 0.380386
Si Si4 0.666942 0.516131 0.728110
Si Si5 0.720945 0.551174 0.058126
Si Si6 0.371876 0.869574 0.249674
O O1 0.745131 0.391517 0.257759
O O2 0.697972 0.130138 0.607717
O O3 0.000000 0.500000 0.500000
O O4 0.913229 0.180369 0.421593
O O5 0.112564 0.021957 0.747536
O O6 0.430146 0.355970 0.761251
O O7 0.154756 0.220837 0.933726
O O8 0.305683 0.991794 0.054426
O O9 0.713998 0.747489 0.560765
O O10 0.603969 0.981203 0.268822
O O11 0.711915 0.375126 0.707712
O O12 0.768584 0.540140 0.908813
O O13 0.500000 0.500000 0.000000
#
# Coordination Sequence:
#
# PCOD9084313 Si02
#       6
#     2   2   2   2   2   2
#     4  12  26  42  59  89 127 163 203 253 306 358
#     4  10  19  34  62  96 120 150 202 257 298 352
#     4  11  20  37  62  91 121 161 204 249 300 361
#     4  10  19  34  62  96 120 150 202 257 298 352
#     4  10  19  38  62  87 118 157 199 245 291 354
#     4  11  20  37  62  91 121 161 204 249 300 361
#
# _framework density 27.018788000000001
#
# number of rings (size 3 to 8) (size 9 to 14) (size 15 to 20)
#    0.000    1.333    0.000   11.500    0.000    0.000 
#    0.000   10.000    0.000    0.000    0.000    0.000 
#    0.000    0.000    0.000    0.000    0.000    0.000 
#
# Total GULP energy -67276.935070 kJ/mol
# GULP energy per Si atom -5606.411256 kJ/mol
# Density = 2.695729 g / cm^3
# Si number density = 27.018788 Si / 1000 Ang^3
#
#
#
# Elastic Constant Matrix: (Units=GPa)
#
#
# Indices 1 2 3 4 5 6 
#
# 1 49.7011 27.1711 37.1099 20.6338 6.6281 -9.5740
# 2 27.1711 210.5899 58.2086 16.5503 -4.0899 -30.7811
# 3 37.1099 58.2086 212.2579 21.4415 29.5581 -14.3627
# 4 20.6338 16.5503 21.4415 56.6861 -19.9369 -11.3347
# 5 6.6281 -4.0899 29.5581 -19.9369 48.8431 10.1656
# 6 -9.5740 -30.7811 -14.3627 -11.3347 10.1656 47.5818
#
#
#
# Elastic Compliance Matrix: (Units=1/GPa)
#
#
# Indices 1 2 3 4 5 6 
#
# 1 0.029228 -0.002026 -0.002035 -0.011588 -0.008250 0.002959
# 2 -0.002026 0.005746 -0.001235 0.000481 0.001114 0.002814
# 3 -0.002035 -0.001235 0.006511 -0.002964 -0.005220 0.001166
# 4 -0.011588 0.000481 -0.002964 0.028162 0.014769 0.000638
# 5 -0.008250 0.001114 -0.005220 0.014769 0.032092 -0.005853
# 6 0.002959 0.002814 0.001166 0.000638 -0.005853 0.025186
#
#
# Mechanical properties :
#
#
# Convention : Reuss Voigt Hill
#
# Bulk Modulus (GPa) = 32.36867 79.72535 56.04701
# Shear Modulus (GPa) = 33.82593 53.95946 43.89269
#
# Velocity S-wave (km/s) = 3.54212 4.47375 4.03491
# Velocity P-wave (km/s) = 5.36049 7.50049 6.51890
#
# Compressibility (1/GPa) = 0.03089407
#
# Stress axis : x y z
#
# Youngs Moduli (GPa) = 34.21358 174.02219 153.58582
#
# Poissons Ratio (x) = 0.35253 0.31252
# Poissons Ratio (y) = 0.06931 0.18970
# Poissons Ratio (z) = 0.06962 0.21494
#
# Static dielectric constant tensor:
#      x y z
#    x 2.153190 0.027590 -0.052300 
#    y 0.027590 2.220590 0.029720 
#    z -0.052300 0.029720 1.994410 
# 
# From -- ./inp_files/149070.got.cif
#   From: 2010.05.17/outbox.cif.g08.bks.cpg/sg2_75_cif.got.tgz:149070.got - 2010.06.03 11:33:40.
