data_PCOD9084151
_publ_section_title
;
Structure prediction by ZEFSAII (Michael W. Deem and Ramdas Pophale) SiO2 
 PCOD9084151
Probable space group: P -1
;
_chemical_formula_sum "Si O2"
_cell_formula_units_Z 16
_cell_length_a 10.894206
_cell_length_b 9.599853
_cell_length_c 9.475495
_cell_angle_alpha 117.637071
_cell_angle_beta 89.232832
_cell_angle_gamma 54.656064
_cell_volume 659.438616
_symmetry_space_group_name_H-M "P -1"
_symmetry_group_IT_number 2
_symmetry_cell_setting 'triclinic'
loop_
_space_group_symop_operation_xyz
x,y,z
-x,-y,-z
loop_
_atom_site_type_symbol
_atom_site_label
_atom_site_fract_x
_atom_site_fract_y
_atom_site_fract_z
Si Si1 0.425409 0.393242 0.413341
Si Si2 0.110365 0.778903 0.511016
Si Si3 0.575905 0.106069 0.016824
Si Si4 0.337941 0.876962 0.495764
Si Si5 0.908347 0.760070 0.992039
Si Si6 0.440582 0.364251 0.860584
Si Si7 0.864039 0.211871 0.811787
Si Si8 0.194395 0.309426 0.743962
O O1 0.500000 0.500000 0.500000
O O2 0.229345 0.565971 0.497956
O O3 0.524213 0.197810 0.425378
O O4 0.482214 0.302394 0.214674
O O5 0.205337 0.868003 0.554717
O O6 0.114921 0.731902 0.321510
O O7 0.936064 0.975434 0.671635
O O8 0.533625 0.196566 0.904649
O O9 0.500000 0.000000 0.000000
O O10 0.765210 0.943984 0.982203
O O11 0.429304 0.703969 0.292211
O O12 0.254953 0.109405 0.561165
O O13 0.831836 0.735773 0.117664
O O14 0.020861 0.798768 0.079884
O O15 0.025986 0.534535 0.808951
O O16 0.326826 0.332821 0.768822
O O17 0.315962 0.599801 0.034424
#
# Coordination Sequence:
#
# PCOD9084151 Si02
#       8
#     2   2   2   2   2   2   2   2
#     4  10  20  37  59  88 116 157 202 243 290 356
#     4  10  20  36  64  83 115 156 211 239 284 360
#     4  12  21  37  61  95 117 155 208 252 286 357
#     4  11  21  38  60  91 123 156 191 251 309 350
#     4  10  19  34  61  83 117 153 203 242 288 346
#     4  11  23  36  61  92 124 150 196 253 305 349
#     4  10  20  38  60  87 112 160 202 242 290 360
#     4  10  19  35  59  87 117 159 192 238 303 360
#
# _framework density 24.263059999999999
#
# number of rings (size 3 to 8) (size 9 to 14) (size 15 to 20)
#    0.000    1.500    5.000    1.125    0.000    0.500 
#    0.000    1.250   11.000    0.000    0.000    0.000 
#    0.000    0.000    0.000    0.000    0.000    0.000 
#
# Total GULP energy -89456.536790 kJ/mol
# GULP energy per Si atom -5591.033549 kJ/mol
# Density = 2.420784 g / cm^3
# Si number density = 24.263060 Si / 1000 Ang^3
#
#
#
# Elastic Constant Matrix: (Units=GPa)
#
#
# Indices 1 2 3 4 5 6 
#
# 1 41.9317 22.1669 26.6957 13.2370 7.6232 -9.5827
# 2 22.1669 120.3195 36.9597 31.1800 -14.3199 -41.3484
# 3 26.6957 36.9597 119.0431 36.7786 -6.8949 -10.6931
# 4 13.2370 31.1800 36.7786 41.8101 -3.3799 -3.0574
# 5 7.6232 -14.3199 -6.8949 -3.3799 37.5966 5.0225
# 6 -9.5827 -41.3484 -10.6931 -3.0574 5.0225 34.2704
#
#
#
# Elastic Compliance Matrix: (Units=1/GPa)
#
#
# Indices 1 2 3 4 5 6 
#
# 1 0.032997 -0.002670 -0.005380 -0.004119 -0.009785 0.005392
# 2 -0.002670 0.019768 0.000467 -0.012395 0.004165 0.021533
# 3 -0.005380 0.000467 0.012698 -0.009480 0.002504 0.001808
# 4 -0.004119 -0.012395 -0.009480 0.041695 0.000177 -0.015371
# 5 -0.009785 0.004165 0.002504 0.000177 0.030835 -0.001433
# 6 0.005392 0.021533 0.001808 -0.015371 -0.001433 0.056070
#
#
# Mechanical properties :
#
#
# Convention : Reuss Voigt Hill
#
# Bulk Modulus (GPa) = 19.88278 50.32653 35.10466
# Shear Modulus (GPa) = 22.12420 35.76690 28.94555
#
# Velocity S-wave (km/s) = 3.02296 3.84361 3.45771
# Velocity P-wave (km/s) = 4.51628 6.36277 5.51732
#
# Compressibility (1/GPa) = 0.05029477
#
# Stress axis : x y z
#
# Youngs Moduli (GPa) = 30.30579 50.58758 78.75067
#
# Poissons Ratio (x) = 0.13509 0.42370
# Poissons Ratio (y) = 0.08093 -0.03674
# Poissons Ratio (z) = 0.16305 -0.02360
#
# Static dielectric constant tensor:
#      x y z
#    x 1.949380 -0.038240 0.009050 
#    y -0.038240 1.971630 0.025030 
#    z 0.009050 0.025030 1.934010 
# 
# From -- ./inp_files/270149.got.cif
#   From: 2010.05.17/outbox.cif.g08.bks.cpg/sg2_136_cif.got.tgz:270149.got - 2010.06.03 11:33:40.
