data_PCOD9084526
_publ_section_title
;
Structure prediction by ZEFSAII (Michael W. Deem and Ramdas Pophale) SiO2 
 PCOD9084526
Probable space group: P -1
;
_chemical_formula_sum "Si O2"
_cell_formula_units_Z 14
_cell_length_a 12.610939
_cell_length_b 14.586790
_cell_length_c 12.260288
_cell_angle_alpha 77.346934
_cell_angle_beta 102.502126
_cell_angle_gamma 158.947880
_cell_volume 790.006471
_symmetry_space_group_name_H-M "P -1"
_symmetry_group_IT_number 2
_symmetry_cell_setting 'triclinic'
loop_
_space_group_symop_operation_xyz
x,y,z
-x,-y,-z
loop_
_atom_site_type_symbol
_atom_site_label
_atom_site_fract_x
_atom_site_fract_y
_atom_site_fract_z
Si Si1 0.173564 0.428254 0.474919
Si Si2 0.874700 0.999295 0.437673
Si Si3 0.822226 0.060412 0.199233
Si Si4 0.326468 0.896823 0.695162
Si Si5 0.747052 0.429864 0.921158
Si Si6 0.901883 0.449675 0.158931
Si Si7 0.083133 0.647560 0.394025
O O1 0.523389 0.718102 0.459396
O O2 0.996123 0.349209 0.366809
O O3 0.064450 0.379191 0.579780
O O4 0.047987 0.222971 0.479005
O O5 0.924628 0.061227 0.303893
O O6 0.000000 0.000000 0.500000
O O7 0.637989 0.979623 0.261927
O O8 0.073879 0.333440 0.139083
O O9 0.596799 0.841967 0.115532
O O10 0.354717 0.832456 0.799873
O O11 0.564675 0.072491 0.610406
O O12 0.869931 0.436173 0.882494
O O13 0.811387 0.458135 0.053913
O O14 0.986532 0.552364 0.271913
O O15 0.000000 0.500000 0.500000
#
# Coordination Sequence:
#
# PCOD9084526 Si02
#       7
#     2   2   2   2   2   2   2
#     4  11  23  35  56  84 115 149 184 225 285 339
#     4  11  23  41  61  83 107 139 188 248 297 333
#     4  10  19  35  54  77 107 143 183 231 280 317
#     4  10  20  32  51  78 121 153 182 212 264 332
#     4  10  21  34  50  78 113 153 189 223 251 320
#     4  10  21  31  50  75 116 157 192 211 255 318
#     4  12  21  33  52  82 122 162 185 213 271 334
#
# _framework density 17.721374000000001
#
# number of rings (size 3 to 8) (size 9 to 14) (size 15 to 20)
#    0.000    1.429    2.857    5.143    4.000    1.714 
#    0.000    0.000    0.000    0.000    0.000    6.000 
#    0.000    0.000    0.000    0.000    0.000    0.000 
#
# Total GULP energy -78001.953050 kJ/mol
# GULP energy per Si atom -5571.568075 kJ/mol
# Density = 1.768104 g / cm^3
# Si number density = 17.721374 Si / 1000 Ang^3
#
#
#
# Elastic Constant Matrix: (Units=GPa)
#
#
# Indices 1 2 3 4 5 6 
#
# 1 70.3511 36.8942 47.9053 -1.2771 20.7138 -14.5099
# 2 36.8942 90.1122 30.6092 3.2150 11.7617 -5.9747
# 3 47.9053 30.6092 133.9857 9.6554 16.0185 -7.6897
# 4 -1.2771 3.2150 9.6554 21.5147 -5.5105 -5.5025
# 5 20.7138 11.7617 16.0185 -5.5105 31.9493 -1.8806
# 6 -14.5099 -5.9747 -7.6897 -5.5025 -1.8806 20.2080
#
#
#
# Elastic Compliance Matrix: (Units=1/GPa)
#
#
# Indices 1 2 3 4 5 6 
#
# 1 0.030117 -0.007560 -0.007327 0.008034 -0.010636 0.017799
# 2 -0.007560 0.014403 -0.000376 -0.003248 -0.000907 -0.002282
# 3 -0.007327 -0.000376 0.010657 -0.006438 -0.001755 -0.003233
# 4 0.008034 -0.003248 -0.006438 0.057851 0.010316 0.019070
# 5 -0.010636 -0.000907 -0.001755 0.010316 0.041074 -0.001942
# 6 0.017799 -0.002282 -0.003233 0.019070 -0.001942 0.065372
#
#
# Mechanical properties :
#
#
# Convention : Reuss Voigt Hill
#
# Bulk Modulus (GPa) = 40.56483 58.36291 49.46387
# Shear Modulus (GPa) = 19.36358 26.67043 23.01701
#
# Velocity S-wave (km/s) = 3.30914 3.88362 3.60783
# Velocity P-wave (km/s) = 6.12704 7.28802 6.73260
#
# Compressibility (1/GPa) = 0.02465189
#
# Stress axis : x y z
#
# Youngs Moduli (GPa) = 33.20435 69.42901 93.83350
#
# Poissons Ratio (x) = 0.52489 0.68748
# Poissons Ratio (y) = 0.25103 0.03527
# Poissons Ratio (z) = 0.24328 0.02609
#
# Static dielectric constant tensor:
#      x y z
#    x 1.606920 -0.031440 -0.003940 
#    y -0.031440 1.682750 0.017740 
#    z -0.003940 0.017740 1.641810 
# 
# From -- ./inp_files/63567.got.cif
#   From: 2010.05.17/outbox.cif.g08.bks.cpg/sg2_32_cif.got.tgz:63567.got - 2010.06.03 11:33:40.
