data_PCOD9084944
_publ_section_title
;
Structure prediction by ZEFSAII (Michael W. Deem and Ramdas Pophale) SiO2 
 PCOD9084944
Probable space group: P -1
;
_chemical_formula_sum "Si O2"
_cell_formula_units_Z 16
_cell_length_a 8.077758
_cell_length_b 15.990486
_cell_length_c 10.208793
_cell_angle_alpha 107.489625
_cell_angle_beta 42.539717
_cell_angle_gamma 85.176530
_cell_volume 748.824807
_symmetry_space_group_name_H-M "P -1"
_symmetry_group_IT_number 2
_symmetry_cell_setting 'triclinic'
loop_
_space_group_symop_operation_xyz
x,y,z
-x,-y,-z
loop_
_atom_site_type_symbol
_atom_site_label
_atom_site_fract_x
_atom_site_fract_y
_atom_site_fract_z
Si Si1 0.317177 0.017965 0.953193
Si Si2 0.704552 0.325714 0.799720
Si Si3 0.406332 0.574201 0.710728
Si Si4 0.746701 0.504267 0.730226
Si Si5 0.459473 0.257690 0.364679
Si Si6 0.072514 0.255203 0.804513
Si Si7 0.042064 0.084315 0.880955
Si Si8 0.169793 0.161203 0.319196
O O1 0.224985 0.125177 0.121266
O O2 0.265195 0.022682 0.831638
O O3 0.105388 0.979124 0.117393
O O4 0.637831 0.943354 0.766270
O O5 0.799526 0.406753 0.734292
O O6 0.841020 0.279241 0.837742
O O7 0.846462 0.231087 0.575833
O O8 0.383106 0.399022 0.053450
O O9 0.500000 0.500000 0.500000
O O10 0.519595 0.518716 0.756842
O O11 0.552783 0.641670 0.627276
O O12 0.082794 0.656119 0.958334
O O13 0.000000 0.500000 0.500000
O O14 0.777808 0.174268 0.148534
O O15 0.318278 0.222724 0.317390
O O16 0.314301 0.262525 0.588892
O O17 0.149650 0.145169 0.757098
#
# Coordination Sequence:
#
# PCOD9084944 Si02
#       8
#     2   2   2   2   2   2   2   2
#     4   9  18  33  56  83 110 144 182 222 266 321
#     4   9  19  33  53  80 106 137 180 222 263 315
#     4  10  21  35  54  79 107 141 179 221 274 326
#     4  10  19  35  58  79 102 139 181 222 268 319
#     4   9  18  35  55  75 105 144 179 219 268 317
#     4   9  18  35  55  75 107 145 175 219 273 320
#     4   9  18  34  56  81 109 141 177 218 269 318
#     4   9  17  34  57  77 108 146 178 221 270 315
#
# _framework density 21.366811999999999
#
# number of rings (size 3 to 8) (size 9 to 14) (size 15 to 20)
#    0.000    2.750    0.000    1.500    0.000    3.500 
#    0.000   13.750    0.000   18.000    0.000    0.000 
#    0.000    0.000    0.000    0.000    0.000    0.000 
#
# Total GULP energy -89077.570724 kJ/mol
# GULP energy per Si atom -5567.348170 kJ/mol
# Density = 2.131818 g / cm^3
# Si number density = 21.366812 Si / 1000 Ang^3
#
#
#
# Elastic Constant Matrix: (Units=GPa)
#
#
# Indices 1 2 3 4 5 6 
#
# 1 31.7399 11.8947 16.9203 3.8605 10.7589 -3.9366
# 2 11.8947 77.1492 27.2460 -3.2742 13.0372 -3.0425
# 3 16.9203 27.2460 128.0965 12.9391 2.3576 26.0700
# 4 3.8605 -3.2742 12.9391 36.2593 7.3616 1.6565
# 5 10.7589 13.0372 2.3576 7.3616 27.1856 6.4484
# 6 -3.9366 -3.0425 26.0700 1.6565 6.4484 17.2268
#
#
#
# Elastic Compliance Matrix: (Units=1/GPa)
#
#
# Indices 1 2 3 4 5 6 
#
# 1 0.066219 0.010759 -0.026249 0.009923 -0.049399 0.074293
# 2 0.010759 0.022168 -0.013880 0.009181 -0.024644 0.035721
# 3 -0.026249 -0.013880 0.027140 -0.011932 0.032261 -0.060451
# 4 0.009923 0.009181 -0.011932 0.035087 -0.023268 0.027282
# 5 -0.049399 -0.024644 0.032261 -0.023268 0.094836 -0.097724
# 6 0.074293 0.035721 -0.060451 0.027282 -0.097724 0.206775
#
#
# Mechanical properties :
#
#
# Convention : Reuss Voigt Hill
#
# Bulk Modulus (GPa) = 17.60902 38.78973 28.19937
# Shear Modulus (GPa) = 9.43585 28.19597 18.81591
#
# Velocity S-wave (km/s) = 2.10374 3.63659 2.97073
# Velocity P-wave (km/s) = 3.76300 5.98554 4.99934
#
# Compressibility (1/GPa) = 0.05678909
#
# Stress axis : x y z
#
# Youngs Moduli (GPa) = 15.10135 45.11031 36.84540
#
# Poissons Ratio (x) = -0.48535 0.96714
# Poissons Ratio (y) = -0.16248 0.51141
# Poissons Ratio (z) = 0.39639 0.62613
#
# Static dielectric constant tensor:
#      x y z
#    x 1.798690 -0.027720 -0.031900 
#    y -0.027720 1.795650 0.021490 
#    z -0.031900 0.021490 1.878550 
# 
# From -- ./inp_files/217820.got.cif
#   From: 2010.05.17/outbox.cif.g08.bks.cpg/sg2_109_cif.got.tgz:217820.got - 2010.06.03 11:33:40.
