data_PCOD9084416
_publ_section_title
;
Structure prediction by ZEFSAII (Michael W. Deem and Ramdas Pophale) SiO2 
 PCOD9084416
Probable space group: P -1
;
_chemical_formula_sum "Si O2"
_cell_formula_units_Z 16
_cell_length_a 10.829603
_cell_length_b 5.221976
_cell_length_c 18.575027
_cell_angle_alpha 127.338295
_cell_angle_beta 102.352233
_cell_angle_gamma 72.533462
_cell_volume 795.970132
_symmetry_space_group_name_H-M "P -1"
_symmetry_group_IT_number 2
_symmetry_cell_setting 'triclinic'
loop_
_space_group_symop_operation_xyz
x,y,z
-x,-y,-z
loop_
_atom_site_type_symbol
_atom_site_label
_atom_site_fract_x
_atom_site_fract_y
_atom_site_fract_z
Si Si1 0.529603 0.214487 0.606338
Si Si2 0.491427 0.037710 0.287332
Si Si3 0.845973 0.396111 0.259212
Si Si4 0.006411 0.612018 0.438249
Si Si5 0.229932 0.033729 0.316350
Si Si6 0.887438 0.319803 0.022770
Si Si7 0.716213 0.794902 0.182157
Si Si8 0.068625 0.836407 0.150060
O O1 0.486876 0.594084 0.645690
O O2 0.500000 0.000000 0.500000
O O3 0.464671 0.139470 0.660874
O O4 0.682341 0.117221 0.630562
O O5 0.337635 0.064769 0.275419
O O6 0.566200 0.867615 0.198214
O O7 0.785818 0.694453 0.250292
O O8 0.890649 0.521329 0.361434
O O9 0.758622 0.122425 0.213030
O O10 0.978075 0.201806 0.203126
O O11 0.138421 0.382952 0.383946
O O12 0.000000 0.500000 0.500000
O O13 0.000000 0.000000 0.500000
O O14 0.144031 0.805554 0.229497
O O15 0.766100 0.469678 0.083998
O O16 0.967301 0.605646 0.089130
O O17 0.845067 0.252488 0.925295
O O18 0.000000 0.000000 0.000000
#
# Coordination Sequence:
#
# PCOD9084416 Si02
#       8
#     2   2   2   2   2   2   2   2
#     4  10  22  41  62  86 115 165 214 242 290 349
#     4  10  23  40  61  86 120 164 200 249 297 355
#     4  10  21  37  59  84 121 157 193 250 304 353
#     4  11  24  39  58  88 119 154 199 247 307 358
#     4   9  24  40  62  83 129 158 201 249 307 358
#     4  10  19  34  65  91 122 152 202 247 303 371
#     4  11  21  38  60  90 119 153 201 245 302 355
#     4   9  19  39  57  93 119 161 193 249 309 363
#
# _framework density 20.101255999999999
#
# number of rings (size 3 to 8) (size 9 to 14) (size 15 to 20)
#    0.750    1.250    1.250    1.875    1.750    4.000 
#    0.000    0.625    0.000    1.500    0.000    0.000 
#    0.000    0.000    0.000    0.000    0.000    0.000 
#
# Total GULP energy -89105.209244 kJ/mol
# GULP energy per Si atom -5569.075578 kJ/mol
# Density = 2.005550 g / cm^3
# Si number density = 20.101256 Si / 1000 Ang^3
#
#
#
# Elastic Constant Matrix: (Units=GPa)
#
#
# Indices 1 2 3 4 5 6 
#
# 1 54.8299 4.4187 33.2750 0.8034 -23.6661 -2.0502
# 2 4.4187 55.4103 9.0312 1.1692 6.6540 16.4741
# 3 33.2750 9.0312 106.8060 1.1953 -6.8851 -4.3080
# 4 0.8034 1.1692 1.1953 28.7853 -6.2067 2.3243
# 5 -23.6661 6.6540 -6.8851 -6.2067 35.8024 0.6081
# 6 -2.0502 16.4741 -4.3080 2.3243 0.6081 26.3807
#
#
#
# Elastic Compliance Matrix: (Units=1/GPa)
#
#
# Indices 1 2 3 4 5 6 
#
# 1 0.033338 -0.005050 -0.008446 0.004087 0.022000 0.003498
# 2 -0.005050 0.024344 -0.001623 -0.001277 -0.008132 -0.015560
# 3 -0.008446 -0.001623 0.012038 -0.001089 -0.003197 0.002492
# 4 0.004087 -0.001277 -0.001089 0.036904 0.009170 -0.002525
# 5 0.022000 -0.008132 -0.003197 0.009170 0.044885 0.004423
# 6 0.003498 -0.015560 0.002492 -0.002525 0.004423 0.048423
#
#
# Mechanical properties :
#
#
# Convention : Reuss Voigt Hill
#
# Bulk Modulus (GPa) = 25.32768 34.49954 29.91361
# Shear Modulus (GPa) = 20.54834 29.54843 25.04839
#
# Velocity S-wave (km/s) = 3.20072 3.83819 3.53386
# Velocity P-wave (km/s) = 5.12707 6.06979 5.61824
#
# Compressibility (1/GPa) = 0.03948250
#
# Stress axis : x y z
#
# Youngs Moduli (GPa) = 29.99619 41.07792 83.07204
#
# Poissons Ratio (x) = 0.20745 0.70159
# Poissons Ratio (y) = 0.15149 0.13479
# Poissons Ratio (z) = 0.25333 0.06665
#
# Static dielectric constant tensor:
#      x y z
#    x 1.772630 -0.017650 -0.056350 
#    y -0.017650 1.742260 -0.006960 
#    z -0.056350 -0.006960 1.734600 
# 
# From -- ./inp_files/564575.got.cif
#   From: 2010.05.17/outbox.cif.g08.bks.cpg/sg2_283_cif.got.tgz:564575.got - 2010.06.03 11:33:40.
