data_PCOD9084530
_publ_section_title
;
Structure prediction by ZEFSAII (Michael W. Deem and Ramdas Pophale) SiO2 
 PCOD9084530
Probable space group: P -1
;
_chemical_formula_sum "Si O2"
_cell_formula_units_Z 16
_cell_length_a 12.410193
_cell_length_b 6.590852
_cell_length_c 15.846044
_cell_angle_alpha 77.536037
_cell_angle_beta 139.509026
_cell_angle_gamma 74.375946
_cell_volume 599.719444
_symmetry_space_group_name_H-M "P -1"
_symmetry_group_IT_number 2
_symmetry_cell_setting 'triclinic'
loop_
_space_group_symop_operation_xyz
x,y,z
-x,-y,-z
loop_
_atom_site_type_symbol
_atom_site_label
_atom_site_fract_x
_atom_site_fract_y
_atom_site_fract_z
Si Si1 0.155214 0.182120 0.922921
Si Si2 0.766711 0.668183 0.771647
Si Si3 0.938102 0.918959 0.589300
Si Si4 0.698911 0.472604 0.471372
Si Si5 0.754071 0.708127 0.201536
Si Si6 0.205172 0.745718 0.084875
Si Si7 0.700420 0.104505 0.602448
Si Si8 0.643634 0.916233 0.300026
O O1 0.109531 0.285832 0.790464
O O2 0.961902 0.425945 0.847506
O O3 0.182616 0.908149 0.973706
O O4 0.384383 0.101570 0.099911
O O5 0.794563 0.506279 0.887265
O O6 0.752926 0.930517 0.733661
O O7 0.536042 0.780336 0.583120
O O8 0.869393 0.899812 0.644525
O O9 0.753382 0.025517 0.396612
O O10 0.105137 0.801683 0.444800
O O11 0.169403 0.598873 0.734576
O O12 0.453108 0.600391 0.279666
O O13 0.685192 0.723586 0.419964
O O14 0.707036 0.349769 0.578254
O O15 0.775214 0.744765 0.308509
O O16 0.500000 0.000000 0.000000
O O17 0.000000 0.000000 0.000000
#
# Coordination Sequence:
#
# PCOD9084530 Si02
#       8
#     2   2   2   2   2   2   2   2
#     4   9  16  30  50  77 105 138 173 210 258 310
#     4   9  13  27  50  79  98 139 173 206 258 309
#     4  10  19  35  54  79 104 138 172 220 257 308
#     4   8  17  32  50  78 103 138 171 209 254 314
#     4  10  20  34  54  78 101 143 176 212 267 310
#     4   8  14  24  50  77  99 135 173 207 247 308
#     4   8  16  27  52  78 102 133 174 208 256 311
#     4  10  20  33  55  77 107 136 176 217 259 302
#
# _framework density 26.679141000000001
#
# number of rings (size 3 to 8) (size 9 to 14) (size 15 to 20)
#    0.750    2.250    1.250    0.375    0.000    0.500 
#    0.000    0.625    0.000   38.250    0.000    0.000 
#    0.000    0.000    0.000    0.000    0.000    0.000 
#
# Total GULP energy -89298.797949 kJ/mol
# GULP energy per Si atom -5581.174872 kJ/mol
# Density = 2.661842 g / cm^3
# Si number density = 26.679141 Si / 1000 Ang^3
#
#
#
# Elastic Constant Matrix: (Units=GPa)
#
#
# Indices 1 2 3 4 5 6 
#
# 1 69.0121 1.0318 -3.4342 -6.6317 -0.7375 4.0645
# 2 1.0318 77.9865 8.7066 4.6634 4.1913 -18.2683
# 3 -3.4342 8.7066 122.8996 4.8414 1.5286 -5.2899
# 4 -6.6317 4.6634 4.8414 30.9336 -5.1748 -7.5167
# 5 -0.7375 4.1913 1.5286 -5.1748 43.6143 -18.2750
# 6 4.0645 -18.2683 -5.2899 -7.5167 -18.2750 32.1243
#
#
#
# Elastic Compliance Matrix: (Units=1/GPa)
#
#
# Indices 1 2 3 4 5 6 
#
# 1 0.014887 -0.000779 0.000289 0.002866 -0.000023 -0.001622
# 2 -0.000779 0.015167 -0.000710 0.000719 0.003041 0.010505
# 3 0.000289 -0.000710 0.008263 -0.000973 -0.000055 0.000662
# 4 0.002866 0.000719 -0.000973 0.038476 0.010902 0.015091
# 5 -0.000023 0.003041 -0.000055 0.010902 0.033772 0.023487
# 6 -0.001622 0.010505 0.000662 0.015091 0.023487 0.054309
#
#
# Mechanical properties :
#
#
# Convention : Reuss Voigt Hill
#
# Bulk Modulus (GPa) = 27.84363 31.38961 29.61662
# Shear Modulus (GPa) = 27.89442 38.90737 33.40089
#
# Velocity S-wave (km/s) = 3.23701 3.82297 3.54213
# Velocity P-wave (km/s) = 4.94268 5.59267 5.27769
#
# Compressibility (1/GPa) = 0.03591486
#
# Stress axis : x y z
#
# Youngs Moduli (GPa) = 67.17316 65.93412 121.02769
#
# Poissons Ratio (x) = 0.05138 -0.03495
# Poissons Ratio (y) = 0.05234 0.08596
# Poissons Ratio (z) = -0.01940 0.04683
#
# Static dielectric constant tensor:
#      x y z
#    x 2.166360 0.084700 0.065010 
#    y 0.084700 2.041210 -0.024880 
#    z 0.065010 -0.024880 2.150600 
# 
# From -- ./inp_files/509081.got.cif
#   From: 2010.05.17/outbox.cif.g08.bks.cpg/sg2_255_cif.got.tgz:509081.got - 2010.06.03 11:33:40.
