data_PCOD9084738
_publ_section_title
;
Structure prediction by ZEFSAII (Michael W. Deem and Ramdas Pophale) SiO2 
 PCOD9084738
Probable space group: P -1
;
_chemical_formula_sum "Si O2"
_cell_formula_units_Z 16
_cell_length_a 7.194779
_cell_length_b 23.070620
_cell_length_c 8.416674
_cell_angle_alpha 37.089868
_cell_angle_beta 57.292039
_cell_angle_gamma 63.800455
_cell_volume 708.779890
_symmetry_space_group_name_H-M "P -1"
_symmetry_group_IT_number 2
_symmetry_cell_setting 'triclinic'
loop_
_space_group_symop_operation_xyz
x,y,z
-x,-y,-z
loop_
_atom_site_type_symbol
_atom_site_label
_atom_site_fract_x
_atom_site_fract_y
_atom_site_fract_z
Si Si1 0.036973 0.202292 0.910990
Si Si2 0.770591 0.727523 0.770449
Si Si3 0.166682 0.532875 0.496106
Si Si4 0.835471 0.290022 0.118757
Si Si5 0.078367 0.405752 0.270305
Si Si6 0.963884 0.105261 0.854450
Si Si7 0.495413 0.364760 0.662844
Si Si8 0.451030 0.772992 0.345709
O O1 0.997877 0.299576 0.608474
O O2 0.297780 0.194587 0.842865
O O3 0.962588 0.116268 0.021437
O O4 0.916817 0.218247 0.098951
O O5 0.758616 0.642594 0.831448
O O6 0.985042 0.707864 0.827146
O O7 0.832777 0.828360 0.443285
O O8 0.562695 0.719527 0.001218
O O9 0.278366 0.433214 0.611621
O O10 0.316713 0.570088 0.492333
O O11 0.924190 0.542467 0.667929
O O12 0.187801 0.608946 0.180111
O O13 0.617506 0.256692 0.380939
O O14 0.000000 0.500000 0.000000
O O15 0.733400 0.151351 0.796023
O O16 0.000000 0.000000 0.000000
O O17 0.556419 0.319535 0.565387
#
# Coordination Sequence:
#
# PCOD9084738 Si02
#       8
#     2   2   2   2   2   2   2   2
#     4  10  22  40  67  94 125 168 210 257 316 380
#     4  10  20  37  61  84 126 161 204 260 310 365
#     4  10  22  33  56  87 128 171 218 251 294 370
#     4  10  21  38  58  91 125 166 209 256 303 364
#     4  10  19  35  56  88 126 172 210 252 301 361
#     4  10  24  47  69  94 123 158 209 269 330 391
#     4  11  21  36  56  90 125 170 213 251 308 370
#     4  11  23  41  67  89 131 166 207 271 319 373
#
# _framework density 22.574002
#
# number of rings (size 3 to 8) (size 9 to 14) (size 15 to 20)
#    0.000    1.750    2.500    3.000    3.500    2.500 
#    0.000    3.125    0.000    0.000    0.000    0.000 
#    0.000    0.000    0.000    0.000    0.000    0.000 
#
# Total GULP energy -89165.138551 kJ/mol
# GULP energy per Si atom -5572.821159 kJ/mol
# Density = 2.252262 g / cm^3
# Si number density = 22.574002 Si / 1000 Ang^3
#
#
#
# Elastic Constant Matrix: (Units=GPa)
#
#
# Indices 1 2 3 4 5 6 
#
# 1 95.7328 56.5873 13.9305 -6.1785 1.4331 10.4340
# 2 56.5873 200.9526 62.3321 8.4539 5.6289 5.3945
# 3 13.9305 62.3321 68.8182 19.5607 -4.2413 1.6776
# 4 -6.1785 8.4539 19.5607 46.1849 1.2846 4.1516
# 5 1.4331 5.6289 -4.2413 1.2846 16.3909 3.0195
# 6 10.4340 5.3945 1.6776 4.1516 3.0195 17.3274
#
#
#
# Elastic Compliance Matrix: (Units=1/GPa)
#
#
# Indices 1 2 3 4 5 6 
#
# 1 0.013789 -0.003863 0.000079 0.003210 0.001386 -0.008119
# 2 -0.003863 0.008459 -0.007531 0.001170 -0.004787 0.000976
# 3 0.000079 -0.007531 0.024565 -0.009325 0.009577 0.000484
# 4 0.003210 0.001170 -0.009325 0.026561 -0.003872 -0.007083
# 5 0.001386 -0.004787 0.009577 -0.003872 0.067355 -0.011081
# 6 -0.008119 0.000976 0.000484 -0.007083 -0.011081 0.065878
#
#
# Mechanical properties :
#
#
# Convention : Reuss Voigt Hill
#
# Bulk Modulus (GPa) = 41.35219 70.13372 55.74296
# Shear Modulus (GPa) = 21.07045 31.49089 26.28067
#
# Velocity S-wave (km/s) = 3.05846 3.73903 3.41574
# Velocity P-wave (km/s) = 5.55253 7.05523 6.34850
#
# Compressibility (1/GPa) = 0.02418251
#
# Stress axis : x y z
#
# Youngs Moduli (GPa) = 72.52089 118.21952 40.70814
#
# Poissons Ratio (x) = 0.45672 -0.00321
# Poissons Ratio (y) = 0.28017 0.30657
# Poissons Ratio (z) = -0.00573 0.89030
#
# Static dielectric constant tensor:
#      x y z
#    x 2.001810 -0.047520 -0.073950 
#    y -0.047520 1.888610 0.061040 
#    z -0.073950 0.061040 1.886770 
# 
# From -- ./inp_files/221651.got.cif
#   From: 2010.05.17/outbox.cif.g08.bks.cpg/sg2_111_cif.got.tgz:221651.got - 2010.06.03 11:33:40.
