data_PCOD9084060
_publ_section_title
;
Structure prediction by ZEFSAII (Michael W. Deem and Ramdas Pophale) SiO2 
 PCOD9084060
Probable space group: P -1
;
_chemical_formula_sum "Si O2"
_cell_formula_units_Z 12
_cell_length_a 14.059530
_cell_length_b 7.310535
_cell_length_c 11.553931
_cell_angle_alpha 102.052602
_cell_angle_beta 41.170011
_cell_angle_gamma 77.323186
_cell_volume 620.034936
_symmetry_space_group_name_H-M "P -1"
_symmetry_group_IT_number 2
_symmetry_cell_setting 'triclinic'
loop_
_space_group_symop_operation_xyz
x,y,z
-x,-y,-z
loop_
_atom_site_type_symbol
_atom_site_label
_atom_site_fract_x
_atom_site_fract_y
_atom_site_fract_z
Si Si1 0.494690 0.040340 0.373841
Si Si2 0.006979 0.126656 0.619704
Si Si3 0.752084 0.520287 0.055344
Si Si4 0.729150 0.216296 0.207522
Si Si5 0.877561 0.613032 0.356895
Si Si6 0.882014 0.175911 0.300945
O O1 0.500000 0.000000 0.500000
O O2 0.591858 0.165132 0.283576
O O3 0.295972 0.200105 0.530500
O O4 0.608754 0.781504 0.184131
O O5 0.114843 0.945827 0.601311
O O6 0.096286 0.263553 0.543752
O O7 0.000000 0.000000 0.500000
O O8 0.811360 0.325970 0.877186
O O9 0.941257 0.485053 0.895840
O O10 0.698887 0.441255 0.206137
O O11 0.743182 0.222171 0.334370
O O12 0.923476 0.004658 0.957333
O O13 0.864346 0.407712 0.373971
#
# Coordination Sequence:
#
# PCOD9084060 Si02
#       6
#     2   2   2   2   2   2
#     4  12  23  34  57  90 123 155 187 228 289 350
#     4   9  20  40  63  82 108 155 199 241 291 330
#     4   9  22  40  56  84 123 152 188 238 282 343
#     4  10  20  35  57  84 122 156 183 229 292 345
#     4  10  22  37  58  86 114 152 195 234 285 338
#     4  10  19  34  60  83 115 154 191 232 286 345
#
# _framework density 19.353746999999998
#
# number of rings (size 3 to 8) (size 9 to 14) (size 15 to 20)
#    1.000    1.000    1.667    2.000    2.333    6.000 
#    0.000    0.833    0.000    5.000    0.000    0.000 
#    0.000    0.000    0.000    0.000    0.000    0.000 
#
# Total GULP energy -66910.234487 kJ/mol
# GULP energy per Si atom -5575.852874 kJ/mol
# Density = 1.930970 g / cm^3
# Si number density = 19.353747 Si / 1000 Ang^3
#
#
#
# Elastic Constant Matrix: (Units=GPa)
#
#
# Indices 1 2 3 4 5 6 
#
# 1 53.6531 20.3084 11.4337 8.6883 14.7692 12.1658
# 2 20.3084 113.0072 19.7804 23.6445 0.3740 14.1977
# 3 11.4337 19.7804 42.6043 15.8219 -2.1765 -7.2061
# 4 8.6883 23.6445 15.8219 28.2708 3.5301 -1.0531
# 5 14.7692 0.3740 -2.1765 3.5301 37.2197 9.6220
# 6 12.1658 14.1977 -7.2061 -1.0531 9.6220 18.5476
#
#
#
# Elastic Compliance Matrix: (Units=1/GPa)
#
#
# Indices 1 2 3 4 5 6 
#
# 1 0.027058 -0.000389 -0.009503 -0.002541 -0.006404 -0.017964
# 2 -0.000389 0.013691 -0.004975 -0.009674 0.004537 -0.015060
# 3 -0.009503 -0.004975 0.037124 -0.012993 0.001259 0.023074
# 4 -0.002541 -0.009674 -0.012993 0.052857 -0.007488 0.010910
# 5 -0.006404 0.004537 0.001259 -0.007488 0.034580 -0.017148
# 6 -0.017964 -0.015060 0.023074 0.010910 -0.017148 0.095706
#
#
# Mechanical properties :
#
#
# Convention : Reuss Voigt Hill
#
# Bulk Modulus (GPa) = 20.77290 34.70106 27.73698
# Shear Modulus (GPa) = 16.29740 27.32375 21.81058
#
# Velocity S-wave (km/s) = 2.90501 3.76148 3.36064
# Velocity P-wave (km/s) = 4.69134 6.06908 5.42413
#
# Compressibility (1/GPa) = 0.04813965
#
# Stress axis : x y z
#
# Youngs Moduli (GPa) = 36.95702 73.04089 26.93678
#
# Poissons Ratio (x) = 0.02845 0.25597
# Poissons Ratio (y) = 0.01439 0.13400
# Poissons Ratio (z) = 0.35119 0.36336
#
# Static dielectric constant tensor:
#      x y z
#    x 1.657170 0.025380 -0.010230 
#    y 0.025380 1.702100 0.015630 
#    z -0.010230 0.015630 1.731460 
# 
# From -- ./inp_files/303711.got.cif
#   From: 2010.05.17/outbox.cif.g08.bks.cpg/sg2_152_cif.got.tgz:303711.got - 2010.06.03 11:33:40.
