data_PCOD9084716
_publ_section_title
;
Structure prediction by ZEFSAII (Michael W. Deem and Ramdas Pophale) SiO2 
 PCOD9084716
Probable space group: P -1
;
_chemical_formula_sum "Si O2"
_cell_formula_units_Z 12
_cell_length_a 9.685951
_cell_length_b 15.626833
_cell_length_c 8.234616
_cell_angle_alpha 147.218070
_cell_angle_beta 47.473298
_cell_angle_gamma 130.464339
_cell_volume 487.066165
_symmetry_space_group_name_H-M "P -1"
_symmetry_group_IT_number 2
_symmetry_cell_setting 'triclinic'
loop_
_space_group_symop_operation_xyz
x,y,z
-x,-y,-z
loop_
_atom_site_type_symbol
_atom_site_label
_atom_site_fract_x
_atom_site_fract_y
_atom_site_fract_z
Si Si1 0.207963 0.210306 0.643144
Si Si2 0.190239 0.032378 0.679012
Si Si3 0.526278 0.589408 0.450199
Si Si4 0.923598 0.231835 0.400688
Si Si5 0.910834 0.429417 0.285273
Si Si6 0.530880 0.281907 0.752537
O O1 0.176318 0.047427 0.518109
O O2 0.310824 0.247376 0.445687
O O3 0.382541 0.306268 0.770481
O O4 0.027899 0.294091 0.929836
O O5 0.400631 0.133576 0.716444
O O6 0.136872 0.859787 0.528803
O O7 0.047877 0.135303 0.038195
O O8 0.500000 0.500000 0.500000
O O9 0.317802 0.620518 0.615192
O O10 0.583480 0.444365 0.069887
O O11 0.725258 0.233127 0.468101
O O12 0.035801 0.413805 0.622871
O O13 0.000000 0.500000 0.500000
#
# Coordination Sequence:
#
# PCOD9084716 Si02
#       6
#     2   2   2   2   2   2
#     4  10  21  35  58  82 111 143 192 227 277 322
#     4   9  21  31  55  91 109 143 182 237 278 323
#     4  12  24  36  55  86 117 148 185 231 280 328
#     4  11  18  32  56  88 115 136 184 240 277 321
#     4  12  19  36  60  85 109 146 185 236 272 323
#     4  10  19  35  56  86 111 148 183 231 277 326
#
# _framework density 24.637309999999999
#
# number of rings (size 3 to 8) (size 9 to 14) (size 15 to 20)
#    1.000    0.333    6.667    2.000    0.000    0.667 
#    0.000    0.000    0.000    2.000    0.000    0.000 
#    0.000    0.000    0.000    0.000    0.000    0.000 
#
# Total GULP energy -66970.853663 kJ/mol
# GULP energy per Si atom -5580.904472 kJ/mol
# Density = 2.458123 g / cm^3
# Si number density = 24.637310 Si / 1000 Ang^3
#
#
#
# Elastic Constant Matrix: (Units=GPa)
#
#
# Indices 1 2 3 4 5 6 
#
# 1 62.8269 20.1866 28.0928 -8.4243 -23.3175 -0.1448
# 2 20.1866 209.1057 31.2078 11.4855 -12.3802 -25.1605
# 3 28.0928 31.2078 47.7853 -1.9127 -37.7473 13.8746
# 4 -8.4243 11.4855 -1.9127 38.4742 9.3374 -14.3141
# 5 -23.3175 -12.3802 -37.7473 9.3374 38.3582 -7.3750
# 6 -0.1448 -25.1605 13.8746 -14.3141 -7.3750 43.3553
#
#
#
# Elastic Compliance Matrix: (Units=1/GPa)
#
#
# Indices 1 2 3 4 5 6 
#
# 1 0.025405 0.002448 -0.033344 0.012260 -0.017001 0.013332
# 2 0.002448 0.008648 -0.029301 0.006989 -0.023823 0.012659
# 3 -0.033344 -0.029301 0.268376 -0.075055 0.235789 -0.087673
# 4 0.012260 0.006989 -0.075055 0.052400 -0.070479 0.033427
# 5 -0.017001 -0.023823 0.235789 -0.070479 0.243551 -0.071179
# 6 0.013332 0.012659 -0.087673 0.033427 -0.071179 0.057442
#
#
# Mechanical properties :
#
#
# Convention : Reuss Voigt Hill
#
# Bulk Modulus (GPa) = 5.49348 53.18803 29.34076
# Shear Modulus (GPa) = 5.97448 40.05292 23.01370
#
# Velocity S-wave (km/s) = 1.55892 4.03637 3.05962
# Velocity P-wave (km/s) = 2.33985 6.58471 4.94132
#
# Compressibility (1/GPa) = 0.18203388
#
# Stress axis : x y z
#
# Youngs Moduli (GPa) = 39.36243 115.63604 3.72612
#
# Poissons Ratio (x) = -0.28309 0.12424
# Poissons Ratio (y) = -0.09636 0.10918
# Poissons Ratio (z) = 1.31251 3.38828
#
# Static dielectric constant tensor:
#      x y z
#    x 2.010210 -0.069780 0.037100 
#    y -0.069780 2.226660 -0.026600 
#    z 0.037100 -0.026600 1.879510 
# 
# From -- ./inp_files/204639.got.cif
#   From: 2010.05.17/outbox.cif.g08.bks.cpg/sg2_103_cif.got.tgz:204639.got - 2010.06.03 11:33:40.
