data_PCOD9084061
_publ_section_title
;
Structure prediction by ZEFSAII (Michael W. Deem and Ramdas Pophale) SiO2 
 PCOD9084061
Probable space group: P -1
;
_chemical_formula_sum "Si O2"
_cell_formula_units_Z 14
_cell_length_a 9.947604
_cell_length_b 10.484341
_cell_length_c 16.060798
_cell_angle_alpha 142.740936
_cell_angle_beta 129.223079
_cell_angle_gamma 40.329336
_cell_volume 654.907903
_symmetry_space_group_name_H-M "P -1"
_symmetry_group_IT_number 2
_symmetry_cell_setting 'triclinic'
loop_
_space_group_symop_operation_xyz
x,y,z
-x,-y,-z
loop_
_atom_site_type_symbol
_atom_site_label
_atom_site_fract_x
_atom_site_fract_y
_atom_site_fract_z
Si Si1 0.260881 0.449800 0.874726
Si Si2 0.543747 0.476825 0.323808
Si Si3 0.613680 0.306697 0.070074
Si Si4 0.459264 0.084923 0.123600
Si Si5 0.899519 0.132702 0.411277
Si Si6 0.066319 0.323894 0.855685
Si Si7 0.289951 0.997423 0.576521
O O1 0.234221 0.644312 0.895955
O O2 0.060233 0.479785 0.855066
O O3 0.367282 0.172417 0.729334
O O4 0.401217 0.450528 0.005566
O O5 0.577305 0.411390 0.204638
O O6 0.756868 0.315643 0.377041
O O7 0.444271 0.766086 0.457869
O O8 0.411044 0.364476 0.249675
O O9 0.673604 0.019395 0.947534
O O10 0.689969 0.899677 0.155391
O O11 0.500000 0.000000 0.000000
O O12 0.069258 0.176891 0.537079
O O13 0.029798 0.841318 0.277682
O O14 0.765925 0.124378 0.431727
O O15 0.000000 0.500000 0.000000
#
# Coordination Sequence:
#
# PCOD9084061 Si02
#       7
#     2   2   2   2   2   2   2
#     4   9  19  35  53  83 115 143 188 226 278 341
#     4  10  19  34  60  84 108 145 191 230 278 332
#     4   9  18  34  57  78 113 148 183 236 272 324
#     4   8  16  29  49  82 100 129 180 227 263 313
#     4   9  20  34  51  86 115 136 183 243 274 327
#     4   9  17  29  53  79 104 139 180 226 274 319
#     4  10  20  35  57  83 113 148 180 229 293 324
#
# _framework density 21.377053
#
# number of rings (size 3 to 8) (size 9 to 14) (size 15 to 20)
#    0.000    2.857    0.000    1.286    6.000    0.571 
#    0.000    0.714    3.143    7.714    0.000    0.000 
#    0.000    0.000    0.000    0.000    0.000    0.000 
#
# Total GULP energy -77958.531750 kJ/mol
# GULP energy per Si atom -5568.466554 kJ/mol
# Density = 2.132840 g / cm^3
# Si number density = 21.377053 Si / 1000 Ang^3
#
#
#
# Elastic Constant Matrix: (Units=GPa)
#
#
# Indices 1 2 3 4 5 6 
#
# 1 61.2487 29.0099 24.3840 -0.8520 4.6687 26.2908
# 2 29.0099 94.8799 34.9567 -17.9640 -3.0179 13.2480
# 3 24.3840 34.9567 111.0056 -14.6364 -11.7842 5.1496
# 4 -0.8520 -17.9640 -14.6364 35.8888 5.8148 -1.0950
# 5 4.6687 -3.0179 -11.7842 5.8148 21.2347 0.9624
# 6 26.2908 13.2480 5.1496 -1.0950 0.9624 25.3680
#
#
#
# Elastic Compliance Matrix: (Units=1/GPa)
#
#
# Indices 1 2 3 4 5 6 
#
# 1 0.036337 -0.005113 -0.006339 -0.003733 -0.009693 -0.033495
# 2 -0.005113 0.014372 -0.002528 0.005965 0.000195 -0.001443
# 3 -0.006339 -0.002528 0.012004 0.002547 0.006758 0.005307
# 4 -0.003733 0.005965 0.002547 0.032828 -0.005993 0.001881
# 5 -0.009693 0.000195 0.006758 -0.005993 0.054360 0.006251
# 6 -0.033495 -0.001443 0.005307 0.001881 0.006251 0.073654
#
#
# Mechanical properties :
#
#
# Convention : Reuss Voigt Hill
#
# Bulk Modulus (GPa) = 28.77540 49.31505 39.04523
# Shear Modulus (GPa) = 19.00418 28.41720 23.71069
#
# Velocity S-wave (km/s) = 2.98484 3.64996 3.33403
# Velocity P-wave (km/s) = 5.03678 6.39391 5.75549
#
# Compressibility (1/GPa) = 0.03475190
#
# Stress axis : x y z
#
# Youngs Moduli (GPa) = 27.52017 69.58153 83.30335
#
# Poissons Ratio (x) = 0.35576 0.52808
# Poissons Ratio (y) = 0.14071 0.21062
# Poissons Ratio (z) = 0.17446 0.17593
#
# Static dielectric constant tensor:
#      x y z
#    x 1.827290 0.009260 0.017200 
#    y 0.009260 1.868760 -0.057860 
#    z 0.017200 -0.057860 1.869780 
# 
# From -- ./inp_files/568360.got.cif
#   From: 2010.05.17/outbox.cif.g08.bks.cpg/sg2_285_cif.got.tgz:568360.got - 2010.06.03 11:33:40.
