data_PCOD9084882
_publ_section_title
;
Structure prediction by ZEFSAII (Michael W. Deem and Ramdas Pophale) SiO2 
 PCOD9084882
Probable space group: P -1
;
_chemical_formula_sum "Si O2"
_cell_formula_units_Z 16
_cell_length_a 20.883530
_cell_length_b 11.848645
_cell_length_c 8.939866
_cell_angle_alpha 87.310814
_cell_angle_beta 65.715190
_cell_angle_gamma 31.281588
_cell_volume 801.407659
_symmetry_space_group_name_H-M "P -1"
_symmetry_group_IT_number 2
_symmetry_cell_setting 'triclinic'
loop_
_space_group_symop_operation_xyz
x,y,z
-x,-y,-z
loop_
_atom_site_type_symbol
_atom_site_label
_atom_site_fract_x
_atom_site_fract_y
_atom_site_fract_z
Si Si1 0.567640 0.969185 0.792319
Si Si2 0.853550 0.391794 0.387860
Si Si3 0.313208 0.010613 0.131725
Si Si4 0.820934 0.749298 0.064352
Si Si5 0.238797 0.877762 0.142035
Si Si6 0.673408 0.716149 0.255708
Si Si7 0.307254 0.584760 0.329837
Si Si8 0.541522 0.361994 0.328052
O O1 0.709212 0.685466 0.585480
O O2 0.668205 0.933368 0.751745
O O3 0.399525 0.234509 0.827834
O O4 0.500000 0.000000 0.000000
O O5 0.801339 0.458879 0.259345
O O6 0.830379 0.307380 0.500099
O O7 0.044062 0.164197 0.242666
O O8 0.281959 0.924787 0.197485
O O9 0.170892 0.247180 0.124024
O O10 0.503312 0.745751 0.882940
O O11 0.756536 0.716020 0.146156
O O12 0.679302 0.053680 0.237067
O O13 0.000000 0.500000 0.000000
O O14 0.255704 0.743079 0.235707
O O15 0.373467 0.690666 0.885980
O O16 0.500000 0.000000 0.500000
O O17 0.360743 0.576475 0.425072
O O18 0.500000 0.500000 0.500000
#
# Coordination Sequence:
#
# PCOD9084882 Si02
#       8
#     2   2   2   2   2   2   2   2
#     4  11  19  37  61  92 118 157 209 248 297 374
#     4  11  22  39  60  90 127 162 199 255 315 358
#     4  10  19  37  63  87 118 157 208 250 296 372
#     4  10  19  36  61  87 125 157 187 258 322 354
#     4  10  22  41  62  86 121 164 203 252 313 355
#     4  10  19  35  57  87 119 160 196 241 313 367
#     4  10  20  42  62  81 122 169 208 243 303 367
#     4  10  21  41  63  89 120 160 216 250 296 384
#
# _framework density 19.964872
#
# number of rings (size 3 to 8) (size 9 to 14) (size 15 to 20)
#    0.000    2.000    2.500    5.625    0.000    0.500 
#   15.750    0.625    0.000    0.000    0.000    0.000 
#    0.000    0.000    0.000    0.000    0.000    0.000 
#
# Total GULP energy -89241.121521 kJ/mol
# GULP energy per Si atom -5577.570095 kJ/mol
# Density = 1.991943 g / cm^3
# Si number density = 19.964872 Si / 1000 Ang^3
#
#
#
# Elastic Constant Matrix: (Units=GPa)
#
#
# Indices 1 2 3 4 5 6 
#
# 1 144.5766 51.6709 43.8702 -13.9661 -2.5463 -13.7294
# 2 51.6709 108.6013 21.6763 -14.4637 0.6029 -12.4858
# 3 43.8702 21.6763 28.8010 -8.0168 -0.7271 -2.0710
# 4 -13.9661 -14.4637 -8.0168 20.1544 -3.0007 -10.9374
# 5 -2.5463 0.6029 -0.7271 -3.0007 33.8702 -5.7304
# 6 -13.7294 -12.4858 -2.0710 -10.9374 -5.7304 37.6721
#
#
#
# Elastic Compliance Matrix: (Units=1/GPa)
#
#
# Indices 1 2 3 4 5 6 
#
# 1 0.014119 -0.001931 -0.018545 0.003976 0.001884 0.004927
# 2 -0.001931 0.012958 -0.003367 0.010499 0.001616 0.006700
# 3 -0.018545 -0.003367 0.068863 0.012072 0.001144 -0.000410
# 4 0.003976 0.010499 0.012072 0.084049 0.013233 0.032007
# 5 0.001884 0.001616 0.001144 0.013233 0.032539 0.010076
# 6 0.004927 0.006700 -0.000410 0.032007 0.010076 0.041364
#
#
# Mechanical properties :
#
#
# Convention : Reuss Voigt Hill
#
# Bulk Modulus (GPa) = 20.72318 57.37929 39.05123
# Shear Modulus (GPa) = 15.74001 29.32343 22.53172
#
# Velocity S-wave (km/s) = 2.81087 3.83659 3.36306
# Velocity P-wave (km/s) = 4.57569 6.95905 5.88920
#
# Compressibility (1/GPa) = 0.04825515
#
# Stress axis : x y z
#
# Youngs Moduli (GPa) = 70.82560 77.17156 14.52163
#
# Poissons Ratio (x) = 0.14899 0.26930
# Poissons Ratio (y) = 0.13674 0.04889
# Poissons Ratio (z) = 1.31345 0.25983
#
# Static dielectric constant tensor:
#      x y z
#    x 1.723850 -0.006790 0.015710 
#    y -0.006790 1.763140 -0.009310 
#    z 0.015710 -0.009310 1.688170 
# 
# From -- ./inp_files/314184.got.cif
#   From: 2010.05.17/outbox.cif.g08.bks.cpg/sg2_158_cif.got.tgz:314184.got - 2010.06.03 11:33:40.
