data_PCOD9084358
_publ_section_title
;
Structure prediction by ZEFSAII (Michael W. Deem and Ramdas Pophale) SiO2 
 PCOD9084358
Probable space group: P -1
;
_chemical_formula_sum "Si O2"
_cell_formula_units_Z 16
_cell_length_a 7.239160
_cell_length_b 12.525910
_cell_length_c 15.858312
_cell_angle_alpha 110.683831
_cell_angle_beta 103.132941
_cell_angle_gamma 131.846663
_cell_volume 749.218853
_symmetry_space_group_name_H-M "P -1"
_symmetry_group_IT_number 2
_symmetry_cell_setting 'triclinic'
loop_
_space_group_symop_operation_xyz
x,y,z
-x,-y,-z
loop_
_atom_site_type_symbol
_atom_site_label
_atom_site_fract_x
_atom_site_fract_y
_atom_site_fract_z
Si Si1 0.302746 0.366613 0.029432
Si Si2 0.775666 0.281509 0.934940
Si Si3 0.076330 0.040264 0.826845
Si Si4 0.309495 0.936756 0.673987
Si Si5 0.340743 0.815225 0.482766
Si Si6 0.276038 0.359473 0.354984
Si Si7 0.980058 0.011042 0.617836
Si Si8 0.683807 0.596525 0.301625
O O1 0.101302 0.152065 0.927770
O O2 0.023198 0.318470 0.015356
O O3 0.500000 0.500000 0.000000
O O4 0.543983 0.483301 0.166594
O O5 0.431201 0.150882 0.903597
O O6 0.654177 0.158123 0.803002
O O7 0.000000 0.500000 0.000000
O O8 0.063180 0.085633 0.744077
O O9 0.783257 0.803024 0.722862
O O10 0.352257 0.856048 0.592644
O O11 0.088117 0.788412 0.688939
O O12 0.118266 0.949708 0.613181
O O13 0.959230 0.637784 0.368170
O O14 0.500000 0.000000 0.500000
O O15 0.590404 0.832308 0.505666
O O16 0.500000 0.500000 0.500000
O O17 0.426073 0.482749 0.319853
O O18 0.161489 0.200486 0.638426
#
# Coordination Sequence:
#
# PCOD9084358 Si02
#       8
#     2   2   2   2   2   2   2   2
#     4  12  21  38  65  92 128 158 206 264 308 369
#     4  10  19  34  63  93 119 160 205 253 313 366
#     4  10  22  40  65  92 121 170 207 253 320 365
#     4  10  21  39  64  86 122 165 201 256 315 364
#     4  10  21  34  58  91 124 150 205 262 310 355
#     4  10  21  43  63  86 130 172 204 255 314 374
#     4   9  19  38  61  94 117 154 210 259 309 363
#     4  11  22  37  62  94 125 164 206 254 313 371
#
# _framework density 21.355573
#
# number of rings (size 3 to 8) (size 9 to 14) (size 15 to 20)
#    0.000    2.000    3.750    1.500    1.750    2.500 
#    0.000    6.250    0.000    0.000    0.000    0.000 
#    0.000    0.000    0.000    0.000    0.000    0.000 
#
# Total GULP energy -89138.357246 kJ/mol
# GULP energy per Si atom -5571.147328 kJ/mol
# Density = 2.130697 g / cm^3
# Si number density = 21.355573 Si / 1000 Ang^3
#
#
#
# Elastic Constant Matrix: (Units=GPa)
#
#
# Indices 1 2 3 4 5 6 
#
# 1 54.4185 11.4061 6.5205 9.4293 -4.1775 -2.3369
# 2 11.4061 108.5532 24.7352 0.8075 -11.6113 12.8144
# 3 6.5205 24.7352 99.0554 12.1224 -16.5804 8.2515
# 4 9.4293 0.8075 12.1224 28.7123 3.8299 -8.3819
# 5 -4.1775 -11.6113 -16.5804 3.8299 31.1176 0.3709
# 6 -2.3369 12.8144 8.2515 -8.3819 0.3709 16.5321
#
#
#
# Elastic Compliance Matrix: (Units=1/GPa)
#
#
# Indices 1 2 3 4 5 6 
#
# 1 0.020201 -0.001897 0.000504 -0.007094 0.003141 0.000407
# 2 -0.001897 0.011235 -0.000835 -0.002809 0.003958 -0.010073
# 3 0.000504 -0.000835 0.014025 -0.010696 0.008687 -0.011899
# 4 -0.007094 -0.002809 -0.010696 0.053654 -0.014709 0.034046
# 5 0.003141 0.003958 0.008687 -0.014709 0.040657 -0.015330
# 6 0.000407 -0.010073 -0.011899 0.034046 -0.015330 0.091898
#
#
# Mechanical properties :
#
#
# Convention : Reuss Voigt Hill
#
# Bulk Modulus (GPa) = 24.38746 38.59453 31.49099
# Shear Modulus (GPa) = 20.01646 29.89675 24.95661
#
# Velocity S-wave (km/s) = 3.06485 3.74565 3.42222
# Velocity P-wave (km/s) = 4.89580 6.06779 5.51303
#
# Compressibility (1/GPa) = 0.04100468
#
# Stress axis : x y z
#
# Youngs Moduli (GPa) = 49.50242 89.00728 71.30074
#
# Poissons Ratio (x) = 0.16883 -0.03592
# Poissons Ratio (y) = 0.09389 0.05956
# Poissons Ratio (z) = -0.02494 0.07434
#
# Static dielectric constant tensor:
#      x y z
#    x 1.855660 0.144020 -0.079960 
#    y 0.144020 2.238230 -0.272150 
#    z -0.079960 -0.272150 2.023210 
# 
# From -- ./inp_files/504135.got.cif
#   From: 2010.05.17/outbox.cif.g08.bks.cpg/sg2_253_cif.got.tgz:504135.got - 2010.06.03 11:33:40.
