data_PCOD9084571
_publ_section_title
;
Structure prediction by ZEFSAII (Michael W. Deem and Ramdas Pophale) SiO2 
 PCOD9084571
Probable space group: P -1
;
_chemical_formula_sum "Si O2"
_cell_formula_units_Z 14
_cell_length_a 15.172838
_cell_length_b 11.884230
_cell_length_c 15.125086
_cell_angle_alpha 107.061670
_cell_angle_beta 160.466942
_cell_angle_gamma 63.199763
_cell_volume 730.613301
_symmetry_space_group_name_H-M "P -1"
_symmetry_group_IT_number 2
_symmetry_cell_setting 'triclinic'
loop_
_space_group_symop_operation_xyz
x,y,z
-x,-y,-z
loop_
_atom_site_type_symbol
_atom_site_label
_atom_site_fract_x
_atom_site_fract_y
_atom_site_fract_z
Si Si1 0.411004 0.585930 0.135149
Si Si2 0.921894 0.367368 0.798070
Si Si3 0.798902 0.441579 0.892319
Si Si4 0.685272 0.842474 0.024770
Si Si5 0.537588 0.350316 0.985829
Si Si6 0.079390 0.108602 0.561607
Si Si7 0.853624 0.594697 0.218964
O O1 0.247702 0.636386 0.087868
O O2 0.782744 0.468654 0.472098
O O3 0.419320 0.678440 0.084689
O O4 0.223266 0.520681 0.903313
O O5 0.957313 0.349181 0.933216
O O6 0.557229 0.439202 0.445473
O O7 0.120093 0.226061 0.895582
O O8 0.025955 0.477805 0.900920
O O9 0.866504 0.832525 0.283970
O O10 0.611243 0.726800 0.958734
O O11 0.404278 0.003495 0.792153
O O12 0.826788 0.227318 0.285974
O O13 0.500000 0.500000 0.000000
O O14 0.236560 0.366335 0.754260
O O15 0.000000 0.000000 0.500000
#
# Coordination Sequence:
#
# PCOD9084571 Si02
#       7
#     2   2   2   2   2   2   2
#     4  11  20  34  57  82 119 142 189 233 290 332
#     4  10  21  33  59  81 119 144 190 238 292 330
#     4  10  19  35  54  92 109 147 189 240 287 339
#     4  11  21  36  58  78 119 154 187 239 287 336
#     4  10  22  37  56  82 114 154 193 234 283 345
#     4  11  24  38  54  83 117 154 199 227 285 348
#     4  11  20  34  56  83 112 155 179 231 284 339
#
# _framework density 19.161982999999999
#
# number of rings (size 3 to 8) (size 9 to 14) (size 15 to 20)
#    0.000    1.429    4.286    2.143    2.000    1.143 
#    0.000    0.000    0.000    0.857    0.000    1.000 
#    0.000    0.000    0.000    0.000    0.000    0.000 
#
# Total GULP energy -77976.202041 kJ/mol
# GULP energy per Si atom -5569.728717 kJ/mol
# Density = 1.911837 g / cm^3
# Si number density = 19.161983 Si / 1000 Ang^3
#
#
#
# Elastic Constant Matrix: (Units=GPa)
#
#
# Indices 1 2 3 4 5 6 
#
# 1 175.4655 29.5628 17.4580 -18.3533 7.0466 -21.6315
# 2 29.5628 45.7740 22.0852 -15.7840 -0.3582 -16.4082
# 3 17.4580 22.0852 73.2029 -15.7578 2.5275 -4.1661
# 4 -18.3533 -15.7840 -15.7578 25.3569 8.8206 1.4386
# 5 7.0466 -0.3582 2.5275 8.8206 28.8540 -3.7083
# 6 -21.6315 -16.4082 -4.1661 1.4386 -3.7083 36.9366
#
#
#
# Elastic Compliance Matrix: (Units=1/GPa)
#
#
# Indices 1 2 3 4 5 6 
#
# 1 0.006966 -0.002000 0.000224 0.004773 -0.002852 0.002744
# 2 -0.002000 0.037115 -0.006004 0.017927 -0.002242 0.013716
# 3 0.000224 -0.006004 0.017416 0.008911 -0.004556 -0.001376
# 4 0.004773 0.017927 0.008911 0.066549 -0.021162 0.007047
# 5 -0.002852 -0.002242 -0.004556 -0.021162 0.042439 0.001905
# 6 0.002744 0.013716 -0.001376 0.007047 0.001905 0.034535
#
#
# Mechanical properties :
#
#
# Convention : Reuss Voigt Hill
#
# Bulk Modulus (GPa) = 21.76852 48.07270 34.92061
# Shear Modulus (GPa) = 21.19615 33.25191 27.22403
#
# Velocity S-wave (km/s) = 3.32950 4.17022 3.77335
# Velocity P-wave (km/s) = 5.11524 6.95195 6.10309
#
# Compressibility (1/GPa) = 0.04593789
#
# Stress axis : x y z
#
# Youngs Moduli (GPa) = 143.55831 26.94293 57.41970
#
# Poissons Ratio (x) = 0.05388 -0.01287
# Poissons Ratio (y) = 0.28710 0.34473
# Poissons Ratio (z) = -0.03217 0.16176
#
# Static dielectric constant tensor:
#      x y z
#    x 1.792920 0.034630 0.026340 
#    y 0.034630 1.889040 0.035370 
#    z 0.026340 0.035370 1.719030 
# 
# From -- ./inp_files/126583.got.cif
#   From: 2010.05.17/outbox.cif.g08.bks.cpg/sg2_64_cif.got.tgz:126583.got - 2010.06.03 11:33:40.
