data_PCOD9084231
_publ_section_title
;
Structure prediction by ZEFSAII (Michael W. Deem and Ramdas Pophale) SiO2 
 PCOD9084231
Probable space group: P -1
;
_chemical_formula_sum "Si O2"
_cell_formula_units_Z 16
_cell_length_a 9.620062
_cell_length_b 11.401461
_cell_length_c 9.577156
_cell_angle_alpha 115.222079
_cell_angle_beta 137.864501
_cell_angle_gamma 74.571430
_cell_volume 635.380704
_symmetry_space_group_name_H-M "P -1"
_symmetry_group_IT_number 2
_symmetry_cell_setting 'triclinic'
loop_
_space_group_symop_operation_xyz
x,y,z
-x,-y,-z
loop_
_atom_site_type_symbol
_atom_site_label
_atom_site_fract_x
_atom_site_fract_y
_atom_site_fract_z
Si Si1 0.440761 0.569621 0.694283
Si Si2 0.944568 0.264409 0.551542
Si Si3 0.872104 0.057767 0.140974
Si Si4 0.611638 0.324403 0.770667
Si Si5 0.266747 0.199513 0.954984
Si Si6 0.801649 0.496905 0.244935
Si Si7 0.525687 0.858398 0.201931
Si Si8 0.712514 0.058620 0.613058
O O1 0.246409 0.644361 0.530611
O O2 0.499666 0.422800 0.636360
O O3 0.384022 0.547669 0.808238
O O4 0.643557 0.662269 0.850987
O O5 0.906459 0.156281 0.347696
O O6 0.034053 0.198904 0.721062
O O7 0.145136 0.361824 0.709322
O O8 0.738159 0.924804 0.014649
O O9 0.720746 0.127099 0.961451
O O10 0.087505 0.011196 0.223233
O O11 0.441646 0.245615 0.704991
O O12 0.716121 0.212456 0.708160
O O13 0.767944 0.404016 0.036971
O O14 0.425943 0.181155 0.937852
O O15 0.000000 0.500000 0.500000
O O16 0.666177 0.992757 0.394794
O O17 0.500000 0.000000 0.500000
#
# Coordination Sequence:
#
# PCOD9084231 Si02
#       8
#     2   2   2   2   2   2   2   2
#     4  11  22  37  63  97 127 165 206 268 329 371
#     4  11  22  36  63 102 124 162 211 270 327 369
#     4  12  25  41  66  99 128 168 222 259 322 385
#     4  11  21  42  62  92 136 165 210 262 320 383
#     4  12  22  39  67  97 133 165 207 278 324 373
#     4  10  19  34  61  95 123 157 207 266 322 368
#     4  11  22  42  65  96 131 165 216 268 323 374
#     4  10  26  43  63  89 132 180 213 258 314 385
#
# _framework density 25.181753
#
# number of rings (size 3 to 8) (size 9 to 14) (size 15 to 20)
#    0.000    1.000    5.000    2.625    1.750    2.000 
#    4.500    0.625    0.000    1.500    0.000    0.000 
#    0.000    0.000    0.000    0.000    0.000    0.000 
#
# Total GULP energy -89298.197774 kJ/mol
# GULP energy per Si atom -5581.137361 kJ/mol
# Density = 2.512444 g / cm^3
# Si number density = 25.181753 Si / 1000 Ang^3
#
#
#
# Elastic Constant Matrix: (Units=GPa)
#
#
# Indices 1 2 3 4 5 6 
#
# 1 66.8606 25.2756 13.5589 7.7700 21.5741 -18.0184
# 2 25.2756 151.1592 45.1019 -0.1565 14.8856 -22.4964
# 3 13.5589 45.1019 102.2480 3.3300 20.4524 -18.5442
# 4 7.7700 -0.1565 3.3300 48.9858 -0.4291 16.5433
# 5 21.5741 14.8856 20.4524 -0.4291 29.7772 -1.1441
# 6 -18.0184 -22.4964 -18.5442 16.5433 -1.1441 47.4599
#
#
#
# Elastic Compliance Matrix: (Units=1/GPa)
#
#
# Indices 1 2 3 4 5 6 
#
# 1 0.025992 -0.001558 0.004059 -0.009107 -0.020457 0.013397
# 2 -0.001558 0.008133 -0.002769 -0.000313 -0.000952 0.002268
# 3 0.004059 -0.002769 0.014034 -0.004015 -0.010991 0.006847
# 4 -0.009107 -0.000313 -0.004015 0.027071 0.009350 -0.014385
# 5 -0.020457 -0.000952 -0.010991 0.009350 0.056010 -0.014421
# 6 0.013397 0.002268 0.006847 -0.014385 -0.014421 0.034573
#
#
# Mechanical properties :
#
#
# Convention : Reuss Voigt Hill
#
# Bulk Modulus (GPa) = 20.99847 54.23786 37.61816
# Shear Modulus (GPa) = 27.43870 41.00003 34.21936
#
# Velocity S-wave (km/s) = 3.30453 4.03943 3.69032
# Velocity P-wave (km/s) = 4.78714 6.58341 5.75578
#
# Compressibility (1/GPa) = 0.04762252
#
# Stress axis : x y z
#
# Youngs Moduli (GPa) = 38.47338 122.95189 71.25409
#
# Poissons Ratio (x) = 0.19161 -0.28921
# Poissons Ratio (y) = 0.05996 0.19730
# Poissons Ratio (z) = -0.15616 0.34046
#
# Static dielectric constant tensor:
#      x y z
#    x 2.092240 -0.047810 -0.054400 
#    y -0.047810 2.104670 -0.007230 
#    z -0.054400 -0.007230 2.093160 
# 
# From -- ./inp_files/426574.got.cif
#   From: 2010.05.17/outbox.cif.g08.bks.cpg/sg2_214_cif.got.tgz:426574.got - 2010.06.03 11:33:40.
