data_PCOD9084144
_publ_section_title
;
Structure prediction by ZEFSAII (Michael W. Deem and Ramdas Pophale) SiO2 
 PCOD9084144
Probable space group: P -1
;
_chemical_formula_sum "Si O2"
_cell_formula_units_Z 16
_cell_length_a 21.904376
_cell_length_b 9.360326
_cell_length_c 19.550805
_cell_angle_alpha 43.254660
_cell_angle_beta 19.319368
_cell_angle_gamma 52.396505
_cell_volume 854.557417
_symmetry_space_group_name_H-M "P -1"
_symmetry_group_IT_number 2
_symmetry_cell_setting 'triclinic'
loop_
_space_group_symop_operation_xyz
x,y,z
-x,-y,-z
loop_
_atom_site_type_symbol
_atom_site_label
_atom_site_fract_x
_atom_site_fract_y
_atom_site_fract_z
Si Si1 0.904801 0.635504 0.237617
Si Si2 0.836777 0.505199 0.509585
Si Si3 0.556841 0.489392 0.022611
Si Si4 0.319349 0.021580 0.639541
Si Si5 0.496908 0.003269 0.310173
Si Si6 0.001093 0.705739 0.475458
Si Si7 0.126391 0.673579 0.750045
Si Si8 0.081249 0.962986 0.169475
O O1 0.893076 0.533635 0.361171
O O2 0.746791 0.763922 0.353690
O O3 0.872272 0.453631 0.276973
O O4 0.121414 0.816050 0.935222
O O5 0.607580 0.462030 0.775830
O O6 0.893136 0.321780 0.557317
O O7 0.949789 0.740312 0.346285
O O8 0.549939 0.240970 0.133641
O O9 0.500000 0.500000 0.000000
O O10 0.773175 0.660692 0.746352
O O11 0.500000 0.000000 0.500000
O O12 0.387199 0.020505 0.489993
O O13 0.346567 0.805095 0.495989
O O14 0.702847 0.965666 0.115873
O O15 0.000000 0.500000 0.500000
O O16 0.092556 0.909934 0.256707
O O17 0.022423 0.856899 0.789802
O O18 0.000000 0.500000 0.000000
#
# Coordination Sequence:
#
# PCOD9084144 Si02
#       8
#     2   2   2   2   2   2   2   2
#     4  11  25  42  59  90 125 165 204 256 309 361
#     4  11  20  37  65  93 122 151 207 263 305 355
#     4  12  18  33  63  97 120 151 200 256 310 356
#     4  11  24  40  65  90 120 155 212 264 306 353
#     4  12  22  39  64  93 119 164 205 248 309 369
#     4  10  19  34  61 100 119 151 201 264 307 354
#     4  12  26  43  59  85 132 174 204 244 305 375
#     4  11  22  39  65  95 124 157 208 256 305 367
#
# _framework density 18.723143
#
# number of rings (size 3 to 8) (size 9 to 14) (size 15 to 20)
#    0.000    0.750    8.750    0.750    3.500    1.500 
#    0.000    0.625    0.000    5.250    0.000    0.000 
#    0.000    0.000    0.000    0.000    0.000    0.000 
#
# Total GULP energy -89376.596896 kJ/mol
# GULP energy per Si atom -5586.037306 kJ/mol
# Density = 1.868053 g / cm^3
# Si number density = 18.723143 Si / 1000 Ang^3
#
#
#
# Elastic Constant Matrix: (Units=GPa)
#
#
# Indices 1 2 3 4 5 6 
#
# 1 91.9287 35.7963 16.0544 9.0471 17.3025 7.4362
# 2 35.7963 48.4447 21.6014 13.5841 -3.5864 11.3533
# 3 16.0544 21.6014 97.4669 32.7928 3.6673 5.1977
# 4 9.0471 13.5841 32.7928 25.6771 -9.9813 2.5055
# 5 17.3025 -3.5864 3.6673 -9.9813 39.8677 8.6568
# 6 7.4362 11.3533 5.1977 2.5055 8.6568 25.4922
#
#
#
# Elastic Compliance Matrix: (Units=1/GPa)
#
#
# Indices 1 2 3 4 5 6 
#
# 1 0.019411 -0.015901 0.003477 -0.008817 -0.013737 0.006242
# 2 -0.015901 0.040264 -0.005406 -0.001593 0.014288 -0.016887
# 3 0.003477 -0.005406 0.021763 -0.031595 -0.012870 0.004431
# 4 -0.008817 -0.001593 -0.031595 0.097311 0.033379 -0.011176
# 5 -0.013737 0.014288 -0.012870 0.033379 0.045911 -0.018603
# 6 0.006242 -0.016887 0.004431 -0.011176 -0.018603 0.051440
#
#
# Mechanical properties :
#
#
# Convention : Reuss Voigt Hill
#
# Bulk Modulus (GPa) = 21.84372 42.74939 32.29655
# Shear Modulus (GPa) = 15.28969 29.16659 22.22814
#
# Velocity S-wave (km/s) = 2.86076 3.95116 3.44932
# Velocity P-wave (km/s) = 4.75436 6.61041 5.75766
#
# Compressibility (1/GPa) = 0.04577975
#
# Stress axis : x y z
#
# Youngs Moduli (GPa) = 51.51765 24.83622 45.94901
#
# Poissons Ratio (x) = 0.39492 -0.15978
# Poissons Ratio (y) = 0.81918 0.24838
# Poissons Ratio (z) = -0.17915 0.13425
#
# Static dielectric constant tensor:
#      x y z
#    x 1.660100 -0.027400 0.009430 
#    y -0.027400 1.636350 0.013980 
#    z 0.009430 0.013980 1.680730 
# 
# From -- ./inp_files/306277.got.cif
#   From: 2010.05.17/outbox.cif.g08.bks.cpg/sg2_154_cif.got.tgz:306277.got - 2010.06.03 11:33:40.
