data_PCOD9084793
_publ_section_title
;
Structure prediction by ZEFSAII (Michael W. Deem and Ramdas Pophale) SiO2 
 PCOD9084793
Probable space group: P -1
;
_chemical_formula_sum "Si O2"
_cell_formula_units_Z 12
_cell_length_a 9.795325
_cell_length_b 5.608130
_cell_length_c 20.414962
_cell_angle_alpha 90.384681
_cell_angle_beta 150.697981
_cell_angle_gamma 77.873635
_cell_volume 498.782277
_symmetry_space_group_name_H-M "P -1"
_symmetry_group_IT_number 2
_symmetry_cell_setting 'triclinic'
loop_
_space_group_symop_operation_xyz
x,y,z
-x,-y,-z
loop_
_atom_site_type_symbol
_atom_site_label
_atom_site_fract_x
_atom_site_fract_y
_atom_site_fract_z
Si Si1 0.394842 0.750354 0.710433
Si Si2 0.353272 0.359212 0.388473
Si Si3 0.361122 0.261152 0.627400
Si Si4 0.084966 0.179343 0.390700
Si Si5 0.937895 0.027397 0.051893
Si Si6 0.028464 0.481255 0.903965
O O1 0.759353 0.607042 0.847358
O O2 0.298096 0.530829 0.637942
O O3 0.238092 0.791647 0.716074
O O4 0.287117 0.038698 0.633541
O O5 0.500000 0.500000 0.500000
O O6 0.133396 0.264053 0.339235
O O7 0.790964 0.666939 0.506599
O O8 0.656743 0.113497 0.491737
O O9 0.728838 0.104870 0.774866
O O10 0.847015 0.513848 0.759411
O O11 0.789421 0.827822 0.007557
O O12 0.797793 0.327485 0.017132
O O13 0.000000 0.000000 0.000000
#
# Coordination Sequence:
#
# PCOD9084793 Si02
#       6
#     2   2   2   2   2   2
#     4  10  20  33  54  76 108 146 172 216 264 313
#     4  11  23  34  50  77 119 149 178 210 256 330
#     4  10  20  34  53  81 108 133 185 222 257 318
#     4  11  22  33  51  78 113 150 173 206 266 325
#     4  10  19  35  57  81 105 136 176 233 279 301
#     4  10  21  37  54  83 111 132 183 225 260 321
#
# _framework density 24.058593999999999
#
# number of rings (size 3 to 8) (size 9 to 14) (size 15 to 20)
#    0.000    1.667    3.333    3.500    4.667    0.000 
#    0.000    0.000    0.000    0.000    0.000   28.000 
#    0.000    0.000    0.000    0.000    0.000    0.000 
#
# Total GULP energy -66953.717747 kJ/mol
# GULP energy per Si atom -5579.476479 kJ/mol
# Density = 2.400384 g / cm^3
# Si number density = 24.058594 Si / 1000 Ang^3
#
#
#
# Elastic Constant Matrix: (Units=GPa)
#
#
# Indices 1 2 3 4 5 6 
#
# 1 89.7341 27.9787 30.8283 -1.5519 -2.0699 16.2976
# 2 27.9787 211.6233 27.6989 20.2110 -14.2124 9.7088
# 3 30.8283 27.6989 72.9710 10.8238 -19.1796 11.3649
# 4 -1.5519 20.2110 10.8238 33.0600 -1.9098 -9.8773
# 5 -2.0699 -14.2124 -19.1796 -1.9098 31.6775 -2.9891
# 6 16.2976 9.7088 11.3649 -9.8773 -2.9891 37.7604
#
#
#
# Elastic Compliance Matrix: (Units=1/GPa)
#
#
# Indices 1 2 3 4 5 6 
#
# 1 0.014345 -0.001371 -0.006276 0.002263 -0.003686 -0.003650
# 2 -0.001371 0.005487 -0.000216 -0.003711 0.001869 -0.001577
# 3 -0.006276 -0.000216 0.021397 -0.007950 0.011512 -0.004844
# 4 0.002263 -0.003711 -0.007950 0.038730 -0.002837 0.012276
# 5 -0.003686 0.001869 0.011512 -0.002837 0.038963 -0.000012
# 6 -0.003650 -0.001577 -0.004844 0.012276 -0.000012 0.033132
#
#
# Mechanical properties :
#
#
# Convention : Reuss Voigt Hill
#
# Bulk Modulus (GPa) = 39.21244 60.81558 50.01401
# Shear Modulus (GPa) = 28.36387 39.68775 34.02581
#
# Velocity S-wave (km/s) = 3.43731 4.06597 3.76478
# Velocity P-wave (km/s) = 5.66459 6.88301 6.30331
#
# Compressibility (1/GPa) = 0.02550211
#
# Stress axis : x y z
#
# Youngs Moduli (GPa) = 69.71269 182.23963 46.73601
#
# Poissons Ratio (x) = 0.24991 0.29330
# Poissons Ratio (y) = 0.09560 0.01011
# Poissons Ratio (z) = 0.43749 0.03942
#
# Static dielectric constant tensor:
#      x y z
#    x 1.964400 -0.003820 -0.016450 
#    y -0.003820 2.061240 0.075800 
#    z -0.016450 0.075800 2.002460 
# 
# From -- ./inp_files/62439.got.cif
#   From: 2010.05.17/outbox.cif.g08.bks.cpg/sg2_32_cif.got.tgz:62439.got - 2010.06.03 11:33:40.
