data_PCOD9084607
_publ_section_title
;
Structure prediction by ZEFSAII (Michael W. Deem and Ramdas Pophale) SiO2 
 PCOD9084607
Probable space group: P -1
;
_chemical_formula_sum "Si O2"
_cell_formula_units_Z 14
_cell_length_a 8.590582
_cell_length_b 11.955374
_cell_length_c 11.465473
_cell_angle_alpha 139.886819
_cell_angle_beta 60.175744
_cell_angle_gamma 123.639987
_cell_volume 625.650835
_symmetry_space_group_name_H-M "P -1"
_symmetry_group_IT_number 2
_symmetry_cell_setting 'triclinic'
loop_
_space_group_symop_operation_xyz
x,y,z
-x,-y,-z
loop_
_atom_site_type_symbol
_atom_site_label
_atom_site_fract_x
_atom_site_fract_y
_atom_site_fract_z
Si Si1 0.128248 0.412428 0.719599
Si Si2 0.204006 0.431201 0.967966
Si Si3 0.586239 0.267844 0.261454
Si Si4 0.401968 0.316560 0.005123
Si Si5 0.998292 0.757009 0.603193
Si Si6 0.754053 0.957012 0.950952
Si Si7 0.301389 0.590319 0.432924
O O1 0.318132 0.554947 0.710359
O O2 0.048029 0.259287 0.529536
O O3 0.976841 0.524010 0.878267
O O4 0.160043 0.355762 0.793310
O O5 0.374638 0.623544 0.051402
O O6 0.283538 0.307138 0.924322
O O7 0.555402 0.312472 0.441709
O O8 0.396814 0.148006 0.175047
O O9 0.739701 0.158359 0.121411
O O10 0.325251 0.145842 0.981820
O O11 0.376114 0.490582 0.223957
O O12 0.948096 0.922982 0.815860
O O13 0.850688 0.576119 0.573928
O O14 0.198261 0.729000 0.531694
#
# Coordination Sequence:
#
# PCOD9084607 Si02
#       7
#     2   2   2   2   2   2   2
#     4  10  19  35  55  82 102 139 175 216 255 308
#     4  10  20  32  56  78 106 138 178 214 248 304
#     4  10  21  35  54  79 108 136 169 219 269 311
#     4  10  19  35  55  82 102 139 175 216 255 308
#     4   9  18  32  53  79 105 130 173 223 259 301
#     4  10  21  35  54  79 108 136 169 219 269 311
#     4   9  18  32  53  79 105 130 173 223 259 301
#
# _framework density 22.376697
#
# number of rings (size 3 to 8) (size 9 to 14) (size 15 to 20)
#    0.000    2.286    2.857    0.000    4.000    2.286 
#    0.000    0.000    0.000   10.286    0.000    0.000 
#    0.000    0.000    0.000    0.000    0.000    0.000 
#
# Total GULP energy -78270.364783 kJ/mol
# GULP energy per Si atom -5590.740342 kJ/mol
# Density = 2.232577 g / cm^3
# Si number density = 22.376697 Si / 1000 Ang^3
#
#
#
# Elastic Constant Matrix: (Units=GPa)
#
#
# Indices 1 2 3 4 5 6 
#
# 1 76.7204 32.5028 22.7557 -3.4837 7.0480 -21.5568
# 2 32.5028 60.2569 33.4326 -3.8658 7.6346 -22.9084
# 3 22.7557 33.4326 71.9286 3.7604 -4.7225 -16.0737
# 4 -3.4837 -3.8658 3.7604 28.7980 -14.9587 -1.1981
# 5 7.0480 7.6346 -4.7225 -14.9587 34.8489 -4.5301
# 6 -21.5568 -22.9084 -16.0737 -1.1981 -4.5301 30.5054
#
#
#
# Elastic Compliance Matrix: (Units=1/GPa)
#
#
# Indices 1 2 3 4 5 6 
#
# 1 0.018273 -0.005945 -0.001462 0.001396 -0.001006 0.007583
# 2 -0.005945 0.031200 -0.010025 0.003374 -0.003786 0.013516
# 3 -0.001462 -0.010025 0.020019 -0.001471 0.004919 0.002659
# 4 0.001396 0.003374 -0.001471 0.045965 0.019477 0.007443
# 5 -0.001006 -0.003786 0.004919 0.019477 0.039492 0.005667
# 6 0.007583 0.013516 0.002659 0.007443 0.005667 0.050825
#
#
# Mechanical properties :
#
#
# Convention : Reuss Voigt Hill
#
# Bulk Modulus (GPa) = 28.87960 42.92089 35.90024
# Shear Modulus (GPa) = 19.82693 26.84479 23.33586
#
# Velocity S-wave (km/s) = 2.97989 3.46739 3.23284
# Velocity P-wave (km/s) = 4.97733 5.93743 5.47845
#
# Compressibility (1/GPa) = 0.03462652
#
# Stress axis : x y z
#
# Youngs Moduli (GPa) = 54.72445 32.05156 49.95225
#
# Poissons Ratio (x) = 0.19056 0.07303
# Poissons Ratio (y) = 0.32536 0.50079
# Poissons Ratio (z) = 0.08001 0.32133
#
# Static dielectric constant tensor:
#      x y z
#    x 1.868690 -0.013880 -0.007600 
#    y -0.013880 1.779410 -0.005390 
#    z -0.007600 -0.005390 1.834370 
# 
# From -- ./inp_files/385735.got.cif
#   From: 2010.05.17/outbox.cif.g08.bks.cpg/sg2_193_cif.got.tgz:385735.got - 2010.06.03 11:33:40.
