data_PCOD9084685
_publ_section_title
;
Structure prediction by ZEFSAII (Michael W. Deem and Ramdas Pophale) SiO2 
 PCOD9084685
Probable space group: P -1
;
_chemical_formula_sum "Si O2"
_cell_formula_units_Z 16
_cell_length_a 9.976149
_cell_length_b 6.415218
_cell_length_c 19.673560
_cell_angle_alpha 68.035031
_cell_angle_beta 112.713492
_cell_angle_gamma 136.922360
_cell_volume 784.750252
_symmetry_space_group_name_H-M "P -1"
_symmetry_group_IT_number 2
_symmetry_cell_setting 'triclinic'
loop_
_space_group_symop_operation_xyz
x,y,z
-x,-y,-z
loop_
_atom_site_type_symbol
_atom_site_label
_atom_site_fract_x
_atom_site_fract_y
_atom_site_fract_z
Si Si1 0.914111 0.905263 0.139235
Si Si2 0.559508 0.612080 0.332666
Si Si3 0.554930 0.807911 0.448362
Si Si4 0.727619 0.095802 0.584467
Si Si5 0.203914 0.461884 0.217063
Si Si6 0.930012 0.813814 0.301004
Si Si7 0.297400 0.923036 0.974916
Si Si8 0.065425 0.725427 0.087481
O O1 0.881685 0.723138 0.222870
O O2 0.974842 0.846424 0.090271
O O3 0.725639 0.867922 0.096098
O O4 0.110336 0.259182 0.154545
O O5 0.620778 0.835333 0.380755
O O6 0.428018 0.626676 0.254786
O O7 0.740409 0.683202 0.322468
O O8 0.418186 0.259047 0.374481
O O9 0.500000 0.500000 0.500000
O O10 0.363704 0.769888 0.421141
O O11 0.708265 0.071029 0.501707
O O12 0.943341 0.253457 0.634162
O O13 0.154128 0.668647 0.173589
O O14 0.071290 0.187679 0.280006
O O15 0.122065 0.588191 0.948287
O O16 0.236314 0.918546 0.040637
O O17 0.500000 0.000000 0.000000
#
# Coordination Sequence:
#
# PCOD9084685 Si02
#       8
#     2   2   2   2   2   2   2   2
#     4   9  20  39  53  81 113 144 182 225 273 326
#     4  10  19  35  56  81 110 148 180 229 273 318
#     4   9  19  36  61  79 110 148 184 221 278 322
#     4   9  19  39  54  82 112 144 184 228 268 329
#     4   8  20  34  54  79 113 141 184 225 269 326
#     4   9  20  37  53  81 118 137 186 232 263 326
#     4  10  22  38  57  84 110 139 189 231 264 332
#     4  10  20  38  59  76 110 151 177 224 285 315
#
# _framework density 20.388653000000001
#
# number of rings (size 3 to 8) (size 9 to 14) (size 15 to 20)
#    0.750    2.000    0.000    0.375    3.500    1.000 
#    4.500    5.625    0.000    0.000    0.000    0.000 
#    0.000    0.000    0.000    0.000    0.000    0.000 
#
# Total GULP energy -89100.986968 kJ/mol
# GULP energy per Si atom -5568.811686 kJ/mol
# Density = 2.034225 g / cm^3
# Si number density = 20.388653 Si / 1000 Ang^3
#
#
#
# Elastic Constant Matrix: (Units=GPa)
#
#
# Indices 1 2 3 4 5 6 
#
# 1 169.1574 21.6100 85.8561 15.1085 9.6640 3.5101
# 2 21.6100 8.4583 10.0038 1.1247 -0.1284 -1.0992
# 3 85.8561 10.0038 105.2922 8.6804 21.0258 3.6006
# 4 15.1085 1.1247 8.6804 7.5798 -6.7854 0.6583
# 5 9.6640 -0.1284 21.0258 -6.7854 43.5733 5.2338
# 6 3.5101 -1.0992 3.6006 0.6583 5.2338 24.7668
#
#
#
# Elastic Compliance Matrix: (Units=1/GPa)
#
#
# Indices 1 2 3 4 5 6 
#
# 1 0.015237 -0.027516 -0.007563 -0.020026 -0.002791 -0.001159
# 2 -0.027516 0.186080 -0.001172 0.038743 0.012202 0.008721
# 3 -0.007563 -0.001172 0.019040 -0.015613 -0.010040 0.000788
# 4 -0.020026 0.038743 -0.015613 0.228514 0.048823 -0.009564
# 5 -0.002791 0.012202 -0.010040 0.048823 0.036856 -0.006690
# 6 -0.001159 0.008721 0.000788 -0.009564 -0.006690 0.042481
#
#
# Mechanical properties :
#
#
# Convention : Reuss Voigt Hill
#
# Bulk Modulus (GPa) = 6.76325 57.53860 32.15092
# Shear Modulus (GPa) = 7.69236 26.21316 16.95276
#
# Velocity S-wave (km/s) = 1.94449 3.58952 2.88667
# Velocity P-wave (km/s) = 2.89236 6.74253 5.18784
#
# Compressibility (1/GPa) = 0.14785801
#
# Stress axis : x y z
#
# Youngs Moduli (GPa) = 65.62841 5.37402 52.52020
#
# Poissons Ratio (x) = 0.14787 0.39718
# Poissons Ratio (y) = 1.80581 0.06154
# Poissons Ratio (z) = 0.49632 0.00630
#
# Static dielectric constant tensor:
#      x y z
#    x 1.694690 -0.023890 0.008980 
#    y -0.023890 1.753610 -0.020690 
#    z 0.008980 -0.020690 1.779450 
# 
# From -- ./inp_files/585218.got.cif
#   From: 2010.05.17/outbox.cif.g08.bks.cpg/sg2_293_cif.got.tgz:585218.got - 2010.06.03 11:33:40.
