data_PCOD9084394
_publ_section_title
;
Structure prediction by ZEFSAII (Michael W. Deem and Ramdas Pophale) SiO2 
 PCOD9084394
Probable space group: P -1
;
_chemical_formula_sum "Si O2"
_cell_formula_units_Z 16
_cell_length_a 7.883388
_cell_length_b 18.095480
_cell_length_c 9.883411
_cell_angle_alpha 127.944244
_cell_angle_beta 116.289403
_cell_angle_gamma 105.684708
_cell_volume 638.989524
_symmetry_space_group_name_H-M "P -1"
_symmetry_group_IT_number 2
_symmetry_cell_setting 'triclinic'
loop_
_space_group_symop_operation_xyz
x,y,z
-x,-y,-z
loop_
_atom_site_type_symbol
_atom_site_label
_atom_site_fract_x
_atom_site_fract_y
_atom_site_fract_z
Si Si1 0.737163 0.971068 0.330023
Si Si2 0.208625 0.504319 0.329387
Si Si3 0.358148 0.351677 0.602414
Si Si4 0.116593 0.968538 0.851748
Si Si5 0.218417 0.800432 0.320328
Si Si6 0.946823 0.300554 0.229181
Si Si7 0.032802 0.426229 0.818445
Si Si8 0.839137 0.051828 0.858628
O O1 0.800678 0.094540 0.565964
O O2 0.399169 0.801945 0.023017
O O3 0.000000 0.000000 0.500000
O O4 0.761585 0.010123 0.225272
O O5 0.491983 0.605506 0.445349
O O6 0.183107 0.460568 0.424925
O O7 0.084256 0.562380 0.339014
O O8 0.994807 0.344103 0.007366
O O9 0.206875 0.200070 0.432689
O O10 0.095079 0.325834 0.453729
O O11 0.627701 0.473501 0.934778
O O12 0.090461 0.070791 0.956049
O O13 0.260803 0.990011 0.065855
O O14 0.554407 0.910054 0.517910
O O15 0.150714 0.729796 0.364527
O O16 0.926732 0.191069 0.023679
O O17 0.000000 0.500000 0.000000
#
# Coordination Sequence:
#
# PCOD9084394 Si02
#       8
#     2   2   2   2   2   2   2   2
#     4  11  26  38  57  85 126 165 185 245 307 354
#     4  10  19  34  64  91 120 148 203 251 286 344
#     4   9  18  35  59  86 111 155 194 249 287 335
#     4  10  20  37  59  86 119 149 203 238 299 353
#     4   9  19  36  57  85 112 153 204 235 292 348
#     4  10  22  35  57  91 118 158 193 241 306 344
#     4   8  16  32  59  84 110 150 192 249 283 331
#     4   9  19  34  61  89 108 153 198 255 283 342
#
# _framework density 25.039534
#
# number of rings (size 3 to 8) (size 9 to 14) (size 15 to 20)
#    0.000    2.750    0.000    2.625    5.250    5.500 
#    0.000    2.500    0.000    3.000    0.000    0.000 
#    0.000    0.000    0.000    0.000    0.000    0.000 
#
# Total GULP energy -89197.361664 kJ/mol
# GULP energy per Si atom -5574.835104 kJ/mol
# Density = 2.498254 g / cm^3
# Si number density = 25.039534 Si / 1000 Ang^3
#
#
#
# Elastic Constant Matrix: (Units=GPa)
#
#
# Indices 1 2 3 4 5 6 
#
# 1 86.4185 27.5672 16.8600 0.6432 7.1078 -23.4469
# 2 27.5672 88.5645 -8.7483 13.2698 5.1125 -21.0728
# 3 16.8600 -8.7483 68.8437 8.3382 23.9858 -4.2206
# 4 0.6432 13.2698 8.3382 36.0976 0.1375 2.6271
# 5 7.1078 5.1125 23.9858 0.1375 27.9455 -2.8460
# 6 -23.4469 -21.0728 -4.2206 2.6271 -2.8460 45.1316
#
#
#
# Elastic Compliance Matrix: (Units=1/GPa)
#
#
# Indices 1 2 3 4 5 6 
#
# 1 0.015189 -0.004282 -0.004691 0.001986 0.001489 0.005431
# 2 -0.004282 0.016376 0.006995 -0.007974 -0.007252 0.006082
# 3 -0.004691 0.006995 0.025188 -0.008393 -0.021428 0.002322
# 4 0.001986 -0.007974 -0.008393 0.032867 0.007495 -0.004917
# 5 0.001489 -0.007252 -0.021428 0.007495 0.054925 -0.001589
# 6 0.005431 0.006082 0.002322 -0.004917 -0.001589 0.028222
#
#
# Mechanical properties :
#
#
# Convention : Reuss Voigt Hill
#
# Bulk Modulus (GPa) = 18.94043 35.02047 26.98045
# Shear Modulus (GPa) = 25.73055 35.71148 30.72102
#
# Velocity S-wave (km/s) = 3.20909 3.78061 3.50651
# Velocity P-wave (km/s) = 4.61646 5.75098 5.21466
#
# Compressibility (1/GPa) = 0.05279710
#
# Stress axis : x y z
#
# Youngs Moduli (GPa) = 65.83675 61.06547 39.70153
#
# Poissons Ratio (x) = 0.26151 0.18622
# Poissons Ratio (y) = 0.28194 -0.27772
# Poissons Ratio (z) = 0.30881 -0.42716
#
# Static dielectric constant tensor:
#      x y z
#    x 2.083940 0.033880 -0.023080 
#    y 0.033880 2.047300 -0.100590 
#    z -0.023080 -0.100590 2.047850 
# 
# From -- ./inp_files/402245.got.cif
#   From: 2010.05.17/outbox.cif.g08.bks.cpg/sg2_202_cif.got.tgz:402245.got - 2010.06.03 11:33:40.
