data_PCOD9084002
_publ_section_title
;
Structure prediction by ZEFSAII (Michael W. Deem and Ramdas Pophale) SiO2 
 PCOD9084002
Probable space group: P -1
;
_chemical_formula_sum "Si O2"
_cell_formula_units_Z 14
_cell_length_a 18.028967
_cell_length_b 8.318282
_cell_length_c 10.481621
_cell_angle_alpha 73.047806
_cell_angle_beta 148.490589
_cell_angle_gamma 82.472147
_cell_volume 511.396912
_symmetry_space_group_name_H-M "P -1"
_symmetry_group_IT_number 2
_symmetry_cell_setting 'triclinic'
loop_
_space_group_symop_operation_xyz
x,y,z
-x,-y,-z
loop_
_atom_site_type_symbol
_atom_site_label
_atom_site_fract_x
_atom_site_fract_y
_atom_site_fract_z
Si Si1 0.326017 0.659303 0.323174
Si Si2 0.532960 0.357600 0.960590
Si Si3 0.108248 0.584792 0.604685
Si Si4 0.797076 0.948828 0.272193
Si Si5 0.281190 0.347842 0.358109
Si Si6 0.791849 0.599072 0.472102
Si Si7 0.588888 0.064029 0.522359
O O1 0.500000 0.500000 0.500000
O O2 0.200651 0.596439 0.119691
O O3 0.293397 0.888322 0.243910
O O4 0.383802 0.560455 0.579415
O O5 0.762283 0.130191 0.279859
O O6 0.500000 0.500000 0.000000
O O7 0.460197 0.238393 0.930738
O O8 0.110073 0.604482 0.449872
O O9 0.000000 0.500000 0.500000
O O10 0.969671 0.823441 0.443079
O O11 0.364707 0.342668 0.071496
O O12 0.838142 0.740246 0.455148
O O13 0.548438 0.137419 0.808862
O O14 0.172474 0.439283 0.316309
O O15 0.267973 0.179852 0.307092
O O16 0.500000 0.000000 0.500000
#
# Coordination Sequence:
#
# PCOD9084002 Si02
#       7
#     2   2   2   2   2   2   2
#     4  10  21  35  52  86 118 145 192 242 288 349
#     4  10  20  32  54  89 112 143 197 248 283 338
#     4  10  19  34  59  89 114 151 192 242 295 348
#     4   9  18  33  56  81 121 141 184 244 297 336
#     4  10  19  35  55  88 108 149 194 247 280 341
#     4   9  17  30  54  80 111 141 184 241 289 325
#     4  12  22  34  61  84 112 158 198 235 293 349
#
# _framework density 27.375992
#
# number of rings (size 3 to 8) (size 9 to 14) (size 15 to 20)
#    0.000    2.286    4.286    2.571    2.000    0.000 
#    0.000    6.429    0.000    3.429    7.429   17.000 
#    0.000    0.000    0.000    0.000    0.000    0.000 
#
# Total GULP energy -78048.361149 kJ/mol
# GULP energy per Si atom -5574.882939 kJ/mol
# Density = 2.731368 g / cm^3
# Si number density = 27.375992 Si / 1000 Ang^3
#
#
#
# Elastic Constant Matrix: (Units=GPa)
#
#
# Indices 1 2 3 4 5 6 
#
# 1 209.2536 88.3892 40.9640 -11.1406 31.2627 -36.8546
# 2 88.3892 237.1809 54.4068 -26.6797 31.7285 -26.9732
# 3 40.9640 54.4068 101.8488 -9.3260 22.7162 -11.2427
# 4 -11.1406 -26.6797 -9.3260 34.7270 -12.2179 21.7959
# 5 31.2627 31.7285 22.7162 -12.2179 33.6453 -15.6811
# 6 -36.8546 -26.9732 -11.2427 21.7959 -15.6811 73.2879
#
#
#
# Elastic Compliance Matrix: (Units=1/GPa)
#
#
# Indices 1 2 3 4 5 6 
#
# 1 0.006511 -0.001738 -0.000841 -0.002228 -0.003527 0.002413
# 2 -0.001738 0.005805 -0.001779 0.002994 -0.001694 -0.000263
# 3 -0.000841 -0.001779 0.012425 -0.000210 -0.006209 -0.000438
# 4 -0.002228 0.002994 -0.000210 0.039789 0.009218 -0.009912
# 5 -0.003527 -0.001694 -0.006209 0.009218 0.043651 0.003248
# 6 0.002413 -0.000263 -0.000438 -0.009912 0.003248 0.018337
#
#
# Mechanical properties :
#
#
# Convention : Reuss Voigt Hill
#
# Bulk Modulus (GPa) = 62.40480 101.75591 82.08036
# Shear Modulus (GPa) = 35.56772 52.63359 44.10066
#
# Velocity S-wave (km/s) = 3.60839 4.38952 4.01799
# Velocity P-wave (km/s) = 6.34079 7.93354 7.18146
#
# Compressibility (1/GPa) = 0.01602441
#
# Stress axis : x y z
#
# Youngs Moduli (GPa) = 153.58453 172.25258 80.48457
#
# Poissons Ratio (x) = 0.29933 0.06771
# Poissons Ratio (y) = 0.26689 0.14321
# Poissons Ratio (z) = 0.12922 0.30650
#
# Static dielectric constant tensor:
#      x y z
#    x 2.070360 0.011120 -0.044510 
#    y 0.011120 2.322420 0.045910 
#    z -0.044510 0.045910 2.297490 
# 
# From -- ./inp_files/460498.got.cif
#   From: 2010.05.17/outbox.cif.g08.bks.cpg/sg2_231_cif.got.tgz:460498.got - 2010.06.03 11:33:40.
