data_PCOD9084150
_publ_section_title
;
Structure prediction by ZEFSAII (Michael W. Deem and Ramdas Pophale) SiO2 
 PCOD9084150
Probable space group: P -1
;
_chemical_formula_sum "Si O2"
_cell_formula_units_Z 16
_cell_length_a 6.983809
_cell_length_b 17.335587
_cell_length_c 9.340925
_cell_angle_alpha 140.508580
_cell_angle_beta 55.129145
_cell_angle_gamma 129.686869
_cell_volume 546.218325
_symmetry_space_group_name_H-M "P -1"
_symmetry_group_IT_number 2
_symmetry_cell_setting 'triclinic'
loop_
_space_group_symop_operation_xyz
x,y,z
-x,-y,-z
loop_
_atom_site_type_symbol
_atom_site_label
_atom_site_fract_x
_atom_site_fract_y
_atom_site_fract_z
Si Si1 0.202453 0.774412 0.759592
Si Si2 0.131688 0.234493 0.392083
Si Si3 0.787006 0.586087 0.836480
Si Si4 0.197917 0.934591 0.261536
Si Si5 0.447349 0.689083 0.309342
Si Si6 0.668835 0.976974 0.268330
Si Si7 0.485493 0.328049 0.153681
Si Si8 0.875331 0.295347 0.806984
O O1 0.014736 0.752928 0.672563
O O2 0.453864 0.775223 0.571704
O O3 0.065618 0.650611 0.745753
O O4 0.180624 0.885964 0.035216
O O5 0.129261 0.322057 0.654564
O O6 0.412354 0.291158 0.294416
O O7 0.955072 0.083889 0.294715
O O8 0.716187 0.454794 0.767629
O O9 0.623673 0.581928 0.758220
O O10 0.692086 0.678540 0.113913
O O11 0.506166 0.997938 0.236436
O O12 0.153952 0.818560 0.230276
O O13 0.000000 0.000000 0.500000
O O14 0.303393 0.725886 0.290081
O O15 0.500000 0.000000 0.500000
O O16 0.637496 0.825721 0.071457
O O17 0.780280 0.386893 0.072772
#
# Coordination Sequence:
#
# PCOD9084150 Si02
#       8
#     2   2   2   2   2   2   2   2
#     4  10  22  36  56  87 122 150 192 256 292 347
#     4  10  19  34  61  83 107 160 202 239 284 352
#     4   9  18  34  63  91 112 151 195 254 289 358
#     4  11  25  38  57  87 128 164 193 247 307 343
#     4   9  18  37  66  87 112 150 207 239 301 350
#     4  11  21  37  60  80 115 165 202 238 282 358
#     4   9  18  31  57  88 114 139 200 246 287 335
#     4   9  19  38  56  82 119 156 195 243 288 360
#
# _framework density 29.292316
#
# number of rings (size 3 to 8) (size 9 to 14) (size 15 to 20)
#    0.000    2.250    2.500    0.750    3.500    1.500 
#    0.000    6.250    0.000   12.000    0.000    0.000 
#    0.000    3.000    0.000    0.000    0.000    0.000 
#
# Total GULP energy -89158.767966 kJ/mol
# GULP energy per Si atom -5572.422998 kJ/mol
# Density = 2.922565 g / cm^3
# Si number density = 29.292316 Si / 1000 Ang^3
#
#
#
# Elastic Constant Matrix: (Units=GPa)
#
#
# Indices 1 2 3 4 5 6 
#
# 1 90.0041 36.5112 14.1647 11.0938 -3.9888 -12.9467
# 2 36.5112 171.4775 52.1011 -11.2087 -6.1079 -21.9788
# 3 14.1647 52.1011 177.6445 -50.7238 -16.3547 -4.5035
# 4 11.0938 -11.2087 -50.7238 61.6647 -3.4206 -4.9840
# 5 -3.9888 -6.1079 -16.3547 -3.4206 43.1076 -13.3279
# 6 -12.9467 -21.9788 -4.5035 -4.9840 -13.3279 49.6566
#
#
#
# Elastic Compliance Matrix: (Units=1/GPa)
#
#
# Indices 1 2 3 4 5 6 
#
# 1 0.013032 -0.002332 -0.001257 -0.003591 0.000761 0.002096
# 2 -0.002332 0.007254 -0.001544 0.000764 0.001169 0.002854
# 3 -0.001257 -0.001544 0.008738 0.007491 0.004078 0.001628
# 4 -0.003591 0.000764 0.007491 0.023807 0.005748 0.004013
# 5 0.000761 0.001169 0.004078 0.005748 0.028299 0.009258
# 6 0.002096 0.002854 0.001628 0.004013 0.009258 0.024983
#
#
# Mechanical properties :
#
#
# Convention : Reuss Voigt Hill
#
# Bulk Modulus (GPa) = 53.30819 71.63111 62.46965
# Shear Modulus (GPa) = 40.77227 53.30906 47.04066
#
# Velocity S-wave (km/s) = 3.73488 4.27066 4.01172
# Velocity P-wave (km/s) = 6.06937 6.98749 6.54455
#
# Compressibility (1/GPa) = 0.01875885
#
# Stress axis : x y z
#
# Youngs Moduli (GPa) = 76.73271 137.84554 114.44567
#
# Poissons Ratio (x) = 0.32143 0.14391
# Poissons Ratio (y) = 0.17893 0.17666
# Poissons Ratio (z) = 0.09649 0.21278
#
# Static dielectric constant tensor:
#      x y z
#    x 2.504500 0.165560 -0.084340 
#    y 0.165560 2.266030 0.061770 
#    z -0.084340 0.061770 2.570920 
# 
# From -- ./inp_files/215722.got.cif
#   From: 2010.05.17/outbox.cif.g08.bks.cpg/sg2_108_cif.got.tgz:215722.got - 2010.06.03 11:33:40.
