data_PCOD9084387
_publ_section_title
;
Structure prediction by ZEFSAII (Michael W. Deem and Ramdas Pophale) SiO2 
 PCOD9084387
Probable space group: P -1
;
_chemical_formula_sum "Si O2"
_cell_formula_units_Z 16
_cell_length_a 8.681749
_cell_length_b 5.331526
_cell_length_c 27.412776
_cell_angle_alpha 97.629188
_cell_angle_beta 143.511636
_cell_angle_gamma 67.732378
_cell_volume 663.328690
_symmetry_space_group_name_H-M "P -1"
_symmetry_group_IT_number 2
_symmetry_cell_setting 'triclinic'
loop_
_space_group_symop_operation_xyz
x,y,z
-x,-y,-z
loop_
_atom_site_type_symbol
_atom_site_label
_atom_site_fract_x
_atom_site_fract_y
_atom_site_fract_z
Si Si1 0.899238 0.186601 0.862732
Si Si2 0.870910 0.735340 0.688232
Si Si3 0.878682 0.275289 0.746323
Si Si4 0.941113 0.696043 0.361150
Si Si5 0.449446 0.139339 0.190254
Si Si6 0.211512 0.501338 0.596617
Si Si7 0.206270 0.923012 0.502187
Si Si8 0.174323 0.160212 0.026658
O O1 0.964802 0.187097 0.822193
O O2 0.678111 0.521613 0.826149
O O3 0.172851 0.112489 0.967195
O O4 0.754735 0.983572 0.837713
O O5 0.969942 0.496804 0.750110
O O6 0.519516 0.880854 0.595505
O O7 0.990282 0.561211 0.664492
O O8 0.945948 0.986845 0.727250
O O9 0.521706 0.459311 0.657782
O O10 0.722488 0.728593 0.350679
O O11 0.210670 0.676993 0.461971
O O12 0.763435 0.968279 0.289484
O O13 0.444824 0.070375 0.129773
O O14 0.000000 0.500000 0.500000
O O15 0.990636 0.798449 0.572279
O O16 0.000000 0.000000 0.500000
O O17 0.000000 0.500000 0.000000
O O18 0.000000 0.000000 0.000000
#
# Coordination Sequence:
#
# PCOD9084387 Si02
#       8
#     2   2   2   2   2   2   2   2
#     4  10  19  34  64  89 117 153 197 241 288 344
#     4  12  28  41  59  86 126 157 199 246 297 354
#     4  12  23  42  60  88 117 159 201 244 290 352
#     4  12  26  40  59  88 119 162 192 249 303 355
#     4  10  20  35  60  91 120 149 192 244 299 346
#     4  12  22  38  63  83 112 151 202 248 293 345
#     4  12  23  41  62  84 114 156 205 252 296 347
#     4   8  16  31  53  91 121 142 183 246 293 336
#
# _framework density 24.120771999999999
#
# number of rings (size 3 to 8) (size 9 to 14) (size 15 to 20)
#    0.000    1.000    5.000    1.875    1.750    0.500 
#    0.000    0.000    0.000    1.500    0.000    0.000 
#    0.000    0.000    0.000    0.000    0.000    0.000 
#
# Total GULP energy -89289.519035 kJ/mol
# GULP energy per Si atom -5580.594940 kJ/mol
# Density = 2.406587 g / cm^3
# Si number density = 24.120772 Si / 1000 Ang^3
#
#
#
# Elastic Constant Matrix: (Units=GPa)
#
#
# Indices 1 2 3 4 5 6 
#
# 1 68.0893 22.9030 36.1894 2.0221 -21.6447 11.0054
# 2 22.9030 111.0737 19.2756 6.9821 -4.1864 14.4225
# 3 36.1894 19.2756 152.4984 18.5716 -35.1769 -6.3955
# 4 2.0221 6.9821 18.5716 39.7159 -1.9840 -9.7960
# 5 -21.6447 -4.1864 -35.1769 -1.9840 38.2627 3.0195
# 6 11.0054 14.4225 -6.3955 -9.7960 3.0195 34.5669
#
#
#
# Elastic Compliance Matrix: (Units=1/GPa)
#
#
# Indices 1 2 3 4 5 6 
#
# 1 0.021297 -0.002571 -0.002681 -0.000677 0.009838 -0.007255
# 2 -0.002571 0.010340 -0.000770 -0.002416 -0.000821 -0.004251
# 3 -0.002681 -0.000770 0.009301 -0.003412 0.006666 0.001347
# 4 -0.000677 -0.002416 -0.003412 0.029346 -0.002986 0.009170
# 5 0.009838 -0.000821 0.006666 -0.002986 0.038036 -0.005725
# 6 -0.007255 -0.004251 0.001347 0.009170 -0.005725 0.036361
#
#
# Mechanical properties :
#
#
# Convention : Reuss Voigt Hill
#
# Bulk Modulus (GPa) = 34.61094 54.26638 44.43866
# Shear Modulus (GPa) = 30.05598 39.39533 34.72566
#
# Velocity S-wave (km/s) = 3.53379 4.04574 3.79840
# Velocity P-wave (km/s) = 5.57049 6.66113 6.14007
#
# Compressibility (1/GPa) = 0.02889260
#
# Stress axis : x y z
#
# Youngs Moduli (GPa) = 46.95579 96.71457 107.51620
#
# Poissons Ratio (x) = 0.24861 0.28830
# Poissons Ratio (y) = 0.12070 0.08282
# Poissons Ratio (z) = 0.12591 0.07450
#
# Static dielectric constant tensor:
#      x y z
#    x 2.022420 0.198490 -0.018260 
#    y 0.198490 2.466940 -0.075590 
#    z -0.018260 -0.075590 1.948460 
# 
# From -- ./inp_files/55030.got.cif
#   From: 2010.05.17/outbox.cif.g08.bks.cpg/sg2_28_cif.got.tgz:55030.got - 2010.06.03 11:33:40.
