data_PCOD9084525
_publ_section_title
;
Structure prediction by ZEFSAII (Michael W. Deem and Ramdas Pophale) SiO2 
 PCOD9084525
Probable space group: P -1
;
_chemical_formula_sum "Si O2"
_cell_formula_units_Z 16
_cell_length_a 13.013156
_cell_length_b 11.599659
_cell_length_c 13.343311
_cell_angle_alpha 147.157087
_cell_angle_beta 126.716768
_cell_angle_gamma 39.311162
_cell_volume 684.008143
_symmetry_space_group_name_H-M "P -1"
_symmetry_group_IT_number 2
_symmetry_cell_setting 'triclinic'
loop_
_space_group_symop_operation_xyz
x,y,z
-x,-y,-z
loop_
_atom_site_type_symbol
_atom_site_label
_atom_site_fract_x
_atom_site_fract_y
_atom_site_fract_z
Si Si1 0.754150 0.467762 0.874507
Si Si2 0.528991 0.408937 0.584088
Si Si3 0.015634 0.985904 0.816891
Si Si4 0.027030 0.385177 0.543488
Si Si5 0.390768 0.953704 0.832276
Si Si6 0.835931 0.961743 0.886879
Si Si7 0.476333 0.316918 0.920843
Si Si8 0.391485 0.022618 0.540614
O O1 0.697903 0.376357 0.679863
O O2 0.914524 0.236745 0.863828
O O3 0.601396 0.572354 0.935894
O O4 0.750425 0.726914 0.041646
O O5 0.387098 0.734044 0.729586
O O6 0.544951 0.225422 0.365029
O O7 0.514768 0.261776 0.558818
O O8 0.070771 0.730162 0.594737
O O9 0.890969 0.032158 0.869741
O O10 0.163769 0.898403 0.911483
O O11 0.213940 0.130282 0.482482
O O12 0.000000 0.500000 0.500000
O O13 0.966114 0.645118 0.760861
O O14 0.500000 0.000000 0.000000
O O15 0.660596 0.036649 0.826036
O O16 0.361419 0.258896 0.763712
O O17 0.500000 0.500000 0.000000
O O18 0.500000 0.000000 0.500000
#
# Coordination Sequence:
#
# PCOD9084525 Si02
#       8
#     2   2   2   2   2   2   2   2
#     4  11  19  35  59  90 115 150 204 252 304 350
#     4  10  20  37  57  90 123 150 196 250 308 352
#     4  10  19  35  54  76 115 160 204 242 284 356
#     4  10  21  36  53  79 120 164 207 235 284 362
#     4   9  20  37  61  86 119 151 196 256 305 354
#     4  10  22  36  50  77 122 171 204 235 291 357
#     4  12  23  35  53  85 126 164 198 246 299 355
#     4  12  22  36  59  92 129 162 195 246 303 364
#
# _framework density 23.391535000000001
#
# number of rings (size 3 to 8) (size 9 to 14) (size 15 to 20)
#    0.000    1.500    3.750    3.000    3.500    0.000 
#    2.250    0.000    0.000    0.000    0.000   13.125 
#    0.000    0.000    0.000    0.000    0.000    0.000 
#
# Total GULP energy -89073.076527 kJ/mol
# GULP energy per Si atom -5567.067283 kJ/mol
# Density = 2.333829 g / cm^3
# Si number density = 23.391535 Si / 1000 Ang^3
#
#
#
# Elastic Constant Matrix: (Units=GPa)
#
#
# Indices 1 2 3 4 5 6 
#
# 1 30.5970 15.1491 9.9162 5.2606 6.1898 12.7312
# 2 15.1491 104.3621 37.4363 19.8530 16.9354 27.4196
# 3 9.9162 37.4363 138.3403 -1.9727 22.1305 19.6434
# 4 5.2606 19.8530 -1.9727 57.4410 12.1517 13.6160
# 5 6.1898 16.9354 22.1305 12.1517 25.6934 6.8724
# 6 12.7312 27.4196 19.6434 13.6160 6.8724 26.0082
#
#
#
# Elastic Compliance Matrix: (Units=1/GPa)
#
#
# Indices 1 2 3 4 5 6 
#
# 1 0.041969 -0.000569 0.001120 0.002606 -0.006464 -0.020447
# 2 -0.000569 0.014222 -0.001464 -0.001207 -0.004233 -0.011859
# 3 0.001120 -0.001464 0.009758 0.003905 -0.007860 -0.006342
# 4 0.002606 -0.001207 0.003905 0.022864 -0.010780 -0.012074
# 5 -0.006464 -0.004233 -0.007860 -0.010780 0.053802 0.004991
# 6 -0.020447 -0.011859 -0.006342 -0.012074 0.004991 0.070753
#
#
# Mechanical properties :
#
#
# Convention : Reuss Voigt Hill
#
# Bulk Modulus (GPa) = 15.59475 44.25584 29.92529
# Shear Modulus (GPa) = 21.13555 35.88170 28.50862
#
# Velocity S-wave (km/s) = 3.00918 3.92083 3.49486
# Velocity P-wave (km/s) = 4.33069 6.28155 5.39503
#
# Compressibility (1/GPa) = 0.06412414
#
# Stress axis : x y z
#
# Youngs Moduli (GPa) = 23.82714 70.31278 102.47945
#
# Poissons Ratio (x) = 0.03998 -0.11478
# Poissons Ratio (y) = 0.01355 0.15002
# Poissons Ratio (z) = -0.02669 0.10293
#
# Static dielectric constant tensor:
#      x y z
#    x 1.826760 0.049670 -0.017120 
#    y 0.049670 1.962600 -0.062930 
#    z -0.017120 -0.062930 2.079840 
# 
# From -- ./inp_files/406224.got.cif
#   From: 2010.05.17/outbox.cif.g08.bks.cpg/sg2_204_cif.got.tgz:406224.got - 2010.06.03 11:33:40.
