data_PCOD9084749
_publ_section_title
;
Structure prediction by ZEFSAII (Michael W. Deem and Ramdas Pophale) SiO2 
 PCOD9084749
Probable space group: P -1
;
_chemical_formula_sum "Si O2"
_cell_formula_units_Z 14
_cell_length_a 13.051309
_cell_length_b 9.987257
_cell_length_c 18.774586
_cell_angle_alpha 70.512257
_cell_angle_beta 35.088370
_cell_angle_gamma 45.188242
_cell_volume 801.293866
_symmetry_space_group_name_H-M "P -1"
_symmetry_group_IT_number 2
_symmetry_cell_setting 'triclinic'
loop_
_space_group_symop_operation_xyz
x,y,z
-x,-y,-z
loop_
_atom_site_type_symbol
_atom_site_label
_atom_site_fract_x
_atom_site_fract_y
_atom_site_fract_z
Si Si1 0.760841 0.898106 0.533802
Si Si2 0.675517 0.316264 0.784631
Si Si3 0.146725 0.530713 0.266916
Si Si4 0.404095 0.190125 0.971301
Si Si5 0.456877 0.989209 0.834468
Si Si6 0.944690 0.202295 0.995206
Si Si7 0.138731 0.300261 0.754184
O O1 0.478601 0.118565 0.607638
O O2 0.641900 0.928180 0.672509
O O3 0.010342 0.861277 0.400602
O O4 0.930009 0.666066 0.435062
O O5 0.693712 0.418339 0.820995
O O6 0.604377 0.202180 0.868003
O O7 0.401074 0.541366 0.852423
O O8 0.376486 0.256571 0.187812
O O9 0.959009 0.646413 0.281300
O O10 0.432353 0.120477 0.886732
O O11 0.074342 0.449850 0.131449
O O12 0.500000 0.000000 0.000000
O O13 0.136448 0.149724 0.958283
O O14 0.066776 0.198593 0.854189
O O15 0.000000 0.000000 0.000000
#
# Coordination Sequence:
#
# PCOD9084749 Si02
#       7
#     2   2   2   2   2   2   2
#     4   9  21  38  59  89 116 151 198 237 295 340
#     4   9  22  36  60  86 120 145 202 232 295 334
#     4  10  19  37  62  88 114 154 192 246 287 334
#     4  11  23  40  58  87 115 160 192 238 294 348
#     4  11  21  37  65  81 123 153 194 238 292 348
#     4  10  19  35  56  91 114 150 194 242 282 341
#     4  10  21  36  62  84 123 152 194 238 292 348
#
# _framework density 17.471741999999999
#
# number of rings (size 3 to 8) (size 9 to 14) (size 15 to 20)
#    0.857    1.143    2.857    0.857    0.000    9.143 
#    0.000    0.714    0.000    0.000    0.000    0.000 
#    0.000    0.000    0.000    0.000    0.000    0.000 
#
# Total GULP energy -77995.639906 kJ/mol
# GULP energy per Si atom -5571.117136 kJ/mol
# Density = 1.743198 g / cm^3
# Si number density = 17.471742 Si / 1000 Ang^3
#
#
#
# Elastic Constant Matrix: (Units=GPa)
#
#
# Indices 1 2 3 4 5 6 
#
# 1 81.5490 32.2977 54.2155 -1.8517 -9.1435 -7.0447
# 2 32.2977 103.6579 32.7246 0.5267 -15.9071 1.3283
# 3 54.2155 32.7246 89.2683 10.5850 -21.3301 2.7384
# 4 -1.8517 0.5267 10.5850 16.1107 1.3135 2.4001
# 5 -9.1435 -15.9071 -21.3301 1.3135 43.8298 4.2235
# 6 -7.0447 1.3283 2.7384 2.4001 4.2235 30.1143
#
#
#
# Elastic Compliance Matrix: (Units=1/GPa)
#
#
# Indices 1 2 3 4 5 6 
#
# 1 0.025577 -0.003475 -0.017458 0.013874 -0.005550 0.007397
# 2 -0.003475 0.011654 -0.001422 0.000154 0.002965 -0.001626
# 3 -0.017458 -0.001422 0.027348 -0.019822 0.010360 -0.006381
# 4 0.013874 0.000154 -0.019822 0.077399 -0.009029 0.000139
# 5 -0.005550 0.002965 0.010360 -0.009029 0.028592 -0.005661
# 6 0.007397 -0.001626 -0.006381 0.000139 -0.005661 0.036372
#
#
# Mechanical properties :
#
#
# Convention : Reuss Voigt Hill
#
# Bulk Modulus (GPa) = 50.32909 56.99453 53.66181
# Shear Modulus (GPa) = 19.35931 28.36011 23.85971
#
# Velocity S-wave (km/s) = 3.33233 4.03326 3.69943
# Velocity P-wave (km/s) = 6.60866 7.37438 7.00199
#
# Compressibility (1/GPa) = 0.01986922
#
# Stress axis : x y z
#
# Youngs Moduli (GPa) = 39.09764 85.81013 36.56588
#
# Poissons Ratio (x) = 0.29817 0.63837
# Poissons Ratio (y) = 0.13585 0.05199
# Poissons Ratio (z) = 0.68257 0.12200
#
# Static dielectric constant tensor:
#      x y z
#    x 1.586420 -0.001740 -0.004330 
#    y -0.001740 1.584350 -0.000650 
#    z -0.004330 -0.000650 1.609890 
# 
# From -- ./inp_files/238851.got.cif
#   From: 2010.05.17/outbox.cif.g08.bks.cpg/sg2_120_cif.got.tgz:238851.got - 2010.06.03 11:33:40.
