data_PCOD9084483
_publ_section_title
;
Structure prediction by ZEFSAII (Michael W. Deem and Ramdas Pophale) SiO2 
 PCOD9084483
Probable space group: P -1
;
_chemical_formula_sum "Si O2"
_cell_formula_units_Z 16
_cell_length_a 11.903576
_cell_length_b 14.902474
_cell_length_c 5.097231
_cell_angle_alpha 84.657599
_cell_angle_beta 60.449048
_cell_angle_gamma 123.524989
_cell_volume 566.362695
_symmetry_space_group_name_H-M "P -1"
_symmetry_group_IT_number 2
_symmetry_cell_setting 'triclinic'
loop_
_space_group_symop_operation_xyz
x,y,z
-x,-y,-z
loop_
_atom_site_type_symbol
_atom_site_label
_atom_site_fract_x
_atom_site_fract_y
_atom_site_fract_z
Si Si1 0.449604 0.766519 0.657808
Si Si2 0.866416 0.343355 0.330153
Si Si3 0.356822 0.895829 0.988192
Si Si4 0.543418 0.594786 0.145787
Si Si5 0.775305 0.858611 0.513748
Si Si6 0.870492 0.662712 0.908360
Si Si7 0.216500 0.528028 0.381659
Si Si8 0.107213 0.927696 0.294982
O O1 0.311213 0.710460 0.597911
O O2 0.650904 0.824272 0.417665
O O3 0.459166 0.875779 0.695158
O O4 0.343697 0.652745 0.017846
O O5 0.786613 0.238460 0.670344
O O6 0.927677 0.469331 0.341750
O O7 0.012572 0.345900 0.032723
O O8 0.243752 0.924836 0.005296
O O9 0.500000 0.000000 0.000000
O O10 0.665402 0.728894 0.829032
O O11 0.675596 0.612873 0.201445
O O12 0.500000 0.500000 0.000000
O O13 0.356312 0.554093 0.426245
O O14 0.973272 0.911912 0.250950
O O15 0.797135 0.954463 0.656953
O O16 0.843799 0.581189 0.713762
O O17 0.988299 0.805396 0.651993
#
# Coordination Sequence:
#
# PCOD9084483 Si02
#       8
#     2   2   2   2   2   2   2   2
#     4  10  20  34  53  80 105 134 173 213 259 307
#     4  10  21  33  52  80 104 137 171 214 264 301
#     4  10  19  35  53  74 104 138 171 209 255 309
#     4   8  15  29  53  75  98 136 174 211 255 302
#     4   9  16  30  52  76 104 133 171 213 253 308
#     4   9  17  32  51  76 105 136 175 211 258 308
#     4   9  18  34  55  75 102 139 173 213 257 307
#     4   9  17  30  53  77  99 138 174 209 258 301
#
# _framework density 28.250444999999999
#
# number of rings (size 3 to 8) (size 9 to 14) (size 15 to 20)
#    0.000    2.750    1.250    0.375    0.000    1.000 
#    0.000    1.250    0.000   26.250    0.000    0.000 
#    0.000    0.000    0.000    0.000    0.000    0.000 
#
# Total GULP energy -89508.725736 kJ/mol
# GULP energy per Si atom -5594.295359 kJ/mol
# Density = 2.818615 g / cm^3
# Si number density = 28.250445 Si / 1000 Ang^3
#
#
#
# Elastic Constant Matrix: (Units=GPa)
#
#
# Indices 1 2 3 4 5 6 
#
# 1 280.4273 56.8813 42.8874 -0.7639 -19.2069 -1.6414
# 2 56.8813 173.8634 15.6483 -14.1169 -5.2237 -21.2135
# 3 42.8874 15.6483 66.0377 -13.7776 -13.1912 -2.4811
# 4 -0.7639 -14.1169 -13.7776 35.8393 4.1697 0.1293
# 5 -19.2069 -5.2237 -13.1912 4.1697 43.0610 -7.5391
# 6 -1.6414 -21.2135 -2.4811 0.1293 -7.5391 56.1866
#
#
#
# Elastic Compliance Matrix: (Units=1/GPa)
#
#
# Indices 1 2 3 4 5 6 
#
# 1 0.004295 -0.001306 -0.002605 -0.001545 0.001050 -0.000338
# 2 -0.001306 0.006712 -0.000031 0.002546 0.000421 0.002545
# 3 -0.002605 -0.000031 0.019164 0.006797 0.004277 0.001317
# 4 -0.001545 0.002546 0.006797 0.031620 -0.001188 0.000984
# 5 0.001050 0.000421 0.004277 -0.001188 0.025841 0.003849
# 6 -0.000338 0.002545 0.001317 0.000984 0.003849 0.019321
#
#
# Mechanical properties :
#
#
# Convention : Reuss Voigt Hill
#
# Bulk Modulus (GPa) = 44.87228 83.46250 64.16739
# Shear Modulus (GPa) = 40.89421 54.01149 47.45285
#
# Velocity S-wave (km/s) = 3.80881 4.37725 4.10289
# Velocity P-wave (km/s) = 5.93809 7.42664 6.72369
#
# Compressibility (1/GPa) = 0.02228548
#
# Stress axis : x y z
#
# Youngs Moduli (GPa) = 232.82772 148.99628 52.18051
#
# Poissons Ratio (x) = 0.19457 0.13595
# Poissons Ratio (y) = 0.30404 0.00164
# Poissons Ratio (z) = 0.60660 0.00469
#
# Static dielectric constant tensor:
#      x y z
#    x 2.280450 0.091680 -0.018590 
#    y 0.091680 2.384520 0.020030 
#    z -0.018590 0.020030 2.315690 
# 
# From -- ./inp_files/66220.got.cif
#   From: 2010.05.17/outbox.cif.g08.bks.cpg/sg2_34_cif.got.tgz:66220.got - 2010.06.03 11:33:40.
