data_PCOD9084114
_publ_section_title
;
Structure prediction by ZEFSAII (Michael W. Deem and Ramdas Pophale) SiO2 
 PCOD9084114
Probable space group: P -1
;
_chemical_formula_sum "Si O2"
_cell_formula_units_Z 16
_cell_length_a 12.807737
_cell_length_b 8.538073
_cell_length_c 12.072842
_cell_angle_alpha 99.524489
_cell_angle_beta 124.343889
_cell_angle_gamma 46.701756
_cell_volume 737.507453
_symmetry_space_group_name_H-M "P -1"
_symmetry_group_IT_number 2
_symmetry_cell_setting 'triclinic'
loop_
_space_group_symop_operation_xyz
x,y,z
-x,-y,-z
loop_
_atom_site_type_symbol
_atom_site_label
_atom_site_fract_x
_atom_site_fract_y
_atom_site_fract_z
Si Si1 0.049066 0.447180 0.173214
Si Si2 0.065041 0.517074 0.654350
Si Si3 0.709746 0.531055 0.925655
Si Si4 0.801424 0.965402 0.050516
Si Si5 0.119089 0.787895 0.811585
Si Si6 0.439964 0.963741 0.351563
Si Si7 0.457437 0.056836 0.819573
Si Si8 0.765991 0.151998 0.805722
O O1 0.250196 0.219624 0.223824
O O2 0.062972 0.400351 0.307084
O O3 0.894542 0.471412 0.032390
O O4 0.971855 0.691935 0.136913
O O5 0.084596 0.690579 0.684530
O O6 0.260350 0.263158 0.779879
O O7 0.000000 0.500000 0.500000
O O8 0.717278 0.380642 0.823937
O O9 0.539254 0.805832 0.846154
O O10 0.724164 0.431860 0.041641
O O11 0.613942 0.035433 0.953519
O O12 0.809916 0.041385 0.942536
O O13 0.816815 0.093867 0.162469
O O14 0.935480 0.973782 0.801202
O O15 0.424639 0.135943 0.681286
O O16 0.500000 0.000000 0.500000
O O17 0.394411 0.820539 0.327247
#
# Coordination Sequence:
#
# PCOD9084114 Si02
#       8
#     2   2   2   2   2   2   2   2
#     4  10  21  36  63  84 113 153 186 238 283 341
#     4  11  23  43  57  76 115 167 196 218 277 350
#     4   9  18  34  58  90 114 136 186 232 300 329
#     4   9  20  35  59  94 114 135 189 243 302 322
#     4  10  20  34  62  85 114 154 183 232 288 351
#     4  11  22  36  53  84 113 151 198 230 272 330
#     4  10  23  34  60  86 117 146 185 245 281 332
#     4  10  19  34  60  90 117 146 179 240 291 344
#
# _framework density 21.694697000000001
#
# number of rings (size 3 to 8) (size 9 to 14) (size 15 to 20)
#    0.000    2.000    2.500    2.250    5.250    6.500 
#    0.000    5.000    0.000    0.000    0.000    0.000 
#    0.000    0.000    0.000    0.000    0.000    0.000 
#
# Total GULP energy -89378.513932 kJ/mol
# GULP energy per Si atom -5586.157121 kJ/mol
# Density = 2.164532 g / cm^3
# Si number density = 21.694697 Si / 1000 Ang^3
#
#
#
# Elastic Constant Matrix: (Units=GPa)
#
#
# Indices 1 2 3 4 5 6 
#
# 1 37.0786 29.6911 14.4362 4.0054 6.1962 7.9456
# 2 29.6911 164.3776 41.4228 23.5062 24.4550 31.6676
# 3 14.4362 41.4228 81.2419 38.6676 9.3300 14.1760
# 4 4.0054 23.5062 38.6676 46.7175 -0.2686 11.4329
# 5 6.1962 24.4550 9.3300 -0.2686 18.4030 5.6698
# 6 7.9456 31.6676 14.1760 11.4329 5.6698 40.6579
#
#
#
# Elastic Compliance Matrix: (Units=1/GPa)
#
#
# Indices 1 2 3 4 5 6 
#
# 1 0.032856 -0.004641 -0.004814 0.003981 -0.001781 -0.001999
# 2 -0.004641 0.009839 -0.001050 -0.002692 -0.009701 -0.004281
# 3 -0.004814 -0.001050 0.023658 -0.018710 -0.009271 0.000064
# 4 0.003981 -0.002692 -0.018710 0.039238 0.013874 -0.005127
# 5 -0.001781 -0.009701 -0.009271 0.013874 0.073668 -0.003039
# 6 -0.001999 -0.004281 0.000064 -0.005127 -0.003039 0.030164
#
#
# Mechanical properties :
#
#
# Convention : Reuss Voigt Hill
#
# Bulk Modulus (GPa) = 22.05336 50.42205 36.23771
# Shear Modulus (GPa) = 20.36267 34.29887 27.33077
#
# Velocity S-wave (km/s) = 3.06698 3.98047 3.55320
# Velocity P-wave (km/s) = 4.76752 6.66465 5.79426
#
# Compressibility (1/GPa) = 0.04534457
#
# Stress axis : x y z
#
# Youngs Moduli (GPa) = 30.43572 101.63382 42.26885
#
# Poissons Ratio (x) = 0.47168 0.20347
# Poissons Ratio (y) = 0.14125 0.04437
# Poissons Ratio (z) = 0.14651 0.10669
#
# Static dielectric constant tensor:
#      x y z
#    x 1.847290 0.022240 -0.003770 
#    y 0.022240 1.797300 0.025270 
#    z -0.003770 0.025270 1.805100 
# 
# From -- ./inp_files/447673.got.cif
#   From: 2010.05.17/outbox.cif.g08.bks.cpg/sg2_224_cif.got.tgz:447673.got - 2010.06.03 11:33:40.
