data_PCOD9084908
_publ_section_title
;
Structure prediction by ZEFSAII (Michael W. Deem and Ramdas Pophale) SiO2 
 PCOD9084908
Probable space group: P -1
;
_chemical_formula_sum "Si O2"
_cell_formula_units_Z 16
_cell_length_a 9.217282
_cell_length_b 7.818957
_cell_length_c 13.276295
_cell_angle_alpha 71.752412
_cell_angle_beta 94.782864
_cell_angle_gamma 48.537136
_cell_volume 621.566148
_symmetry_space_group_name_H-M "P -1"
_symmetry_group_IT_number 2
_symmetry_cell_setting 'triclinic'
loop_
_space_group_symop_operation_xyz
x,y,z
-x,-y,-z
loop_
_atom_site_type_symbol
_atom_site_label
_atom_site_fract_x
_atom_site_fract_y
_atom_site_fract_z
Si Si1 0.606183 0.648553 0.064122
Si Si2 0.397542 0.780786 0.827245
Si Si3 0.100133 0.493814 0.605390
Si Si4 0.338321 0.711573 0.636127
Si Si5 0.952481 0.568396 0.867617
Si Si6 0.069801 0.651797 0.260009
Si Si7 0.544192 0.142507 0.779302
Si Si8 0.135273 0.819112 0.421071
O O1 0.594212 0.443403 0.114808
O O2 0.445125 0.877517 0.094568
O O3 0.830665 0.526005 0.135296
O O4 0.551566 0.729214 0.929193
O O5 0.433482 0.770961 0.710340
O O6 0.165353 0.055377 0.796355
O O7 0.942890 0.545905 0.667255
O O8 0.336925 0.232688 0.703699
O O9 0.118523 0.677843 0.531077
O O10 0.000000 0.500000 0.500000
O O11 0.486080 0.403396 0.707751
O O12 0.294844 0.801015 0.499168
O O13 0.106494 0.893410 0.645719
O O14 0.900188 0.420648 0.841712
O O15 0.756367 0.881978 0.789821
O O16 0.000000 0.500000 0.000000
O O17 0.188960 0.670199 0.346422
#
# Coordination Sequence:
#
# PCOD9084908 Si02
#       8
#     2   2   2   2   2   2   2   2
#     4  10  21  41  60  84 120 161 207 254 295 357
#     4   9  19  35  64  86 113 164 207 247 304 351
#     4   9  17  32  59  88 115 153 196 242 297 356
#     4   8  15  32  56  90 113 148 201 245 292 363
#     4  12  26  38  59  91 127 163 200 248 303 362
#     4  10  19  35  57  90 121 156 196 249 301 359
#     4  10  20  37  60  87 121 162 199 242 304 356
#     4   8  15  30  59  89 114 149 197 245 301 353
#
# _framework density 25.741427999999999
#
# number of rings (size 3 to 8) (size 9 to 14) (size 15 to 20)
#    0.000    2.500    1.250    0.750    1.750    1.000 
#    0.000   15.625    0.000    0.750    0.000    0.000 
#    0.000    0.000    0.000    0.000    0.000    0.000 
#
# Total GULP energy -89121.850354 kJ/mol
# GULP energy per Si atom -5570.115647 kJ/mol
# Density = 2.568284 g / cm^3
# Si number density = 25.741428 Si / 1000 Ang^3
#
#
#
# Elastic Constant Matrix: (Units=GPa)
#
#
# Indices 1 2 3 4 5 6 
#
# 1 55.2628 20.6893 19.7501 9.3843 21.9785 2.1259
# 2 20.6893 177.8990 64.5306 28.0820 28.0995 17.2146
# 3 19.7501 64.5306 168.9924 42.2678 48.4373 9.1510
# 4 9.3843 28.0820 42.2678 55.6564 15.8944 7.8561
# 5 21.9785 28.0995 48.4373 15.8944 42.5097 2.6330
# 6 2.1259 17.2146 9.1510 7.8561 2.6330 25.9327
#
#
#
# Elastic Compliance Matrix: (Units=1/GPa)
#
#
# Indices 1 2 3 4 5 6 
#
# 1 0.023153 -0.001105 0.001593 -0.000904 -0.012708 -0.000163
# 2 -0.001105 0.007131 -0.001641 -0.001209 -0.001601 -0.003535
# 3 0.001593 -0.001641 0.010284 -0.004407 -0.009788 -0.000341
# 4 -0.000904 -0.001209 -0.004407 0.023316 -0.002155 -0.004412
# 5 -0.012708 -0.001601 -0.009788 -0.002155 0.042998 0.001846
# 6 -0.000163 -0.003535 -0.000341 -0.004412 0.001846 0.042191
#
#
# Mechanical properties :
#
#
# Convention : Reuss Voigt Hill
#
# Bulk Modulus (GPa) = 26.13459 68.01047 47.07253
# Shear Modulus (GPa) = 30.46327 44.63206 37.54766
#
# Velocity S-wave (km/s) = 3.44384 4.16848 3.82337
# Velocity P-wave (km/s) = 5.09786 7.04601 6.14957
#
# Compressibility (1/GPa) = 0.03826346
#
# Stress axis : x y z
#
# Youngs Moduli (GPa) = 43.19011 140.23702 97.23606
#
# Poissons Ratio (x) = 0.15496 -0.15493
# Poissons Ratio (y) = 0.04772 0.15956
# Poissons Ratio (z) = -0.06882 0.23012
#
# Static dielectric constant tensor:
#      x y z
#    x 2.034460 -0.083540 -0.379860 
#    y -0.083540 2.023710 -0.057910 
#    z -0.379860 -0.057910 1.777250 
# 
# From -- ./inp_files/515671.got.cif
#   From: 2010.05.17/outbox.cif.g08.bks.cpg/sg2_258_cif.got.tgz:515671.got - 2010.06.03 11:33:40.
