data_PCOD9084041
_publ_section_title
;
Structure prediction by ZEFSAII (Michael W. Deem and Ramdas Pophale) SiO2 
 PCOD9084041
Probable space group: P -1
;
_chemical_formula_sum "Si O2"
_cell_formula_units_Z 12
_cell_length_a 8.770564
_cell_length_b 8.305308
_cell_length_c 15.801169
_cell_angle_alpha 50.324422
_cell_angle_beta 34.382268
_cell_angle_gamma 70.281025
_cell_volume 450.224594
_symmetry_space_group_name_H-M "P -1"
_symmetry_group_IT_number 2
_symmetry_cell_setting 'triclinic'
loop_
_space_group_symop_operation_xyz
x,y,z
-x,-y,-z
loop_
_atom_site_type_symbol
_atom_site_label
_atom_site_fract_x
_atom_site_fract_y
_atom_site_fract_z
Si Si1 0.067438 0.183870 0.247911
Si Si2 0.679552 0.081636 0.169396
Si Si3 0.240176 0.591922 0.140477
Si Si4 0.370738 0.257639 0.821721
Si Si5 0.308415 0.688793 0.753717
Si Si6 0.866134 0.257112 0.691844
O O1 0.072060 0.318039 0.287766
O O2 0.817333 0.200151 0.296935
O O3 0.044195 0.928951 0.330046
O O4 0.419534 0.345357 0.006851
O O5 0.531282 0.142706 0.297559
O O6 0.534165 0.829354 0.278150
O O7 0.729807 0.263778 0.008585
O O8 0.010900 0.124611 0.033465
O O9 0.084167 0.678456 0.254370
O O10 0.451819 0.529471 0.701382
O O11 0.513640 0.172330 0.860067
O O12 0.000000 0.500000 0.000000
O O13 0.000000 0.500000 0.500000
#
# Coordination Sequence:
#
# PCOD9084041 Si02
#       6
#     2   2   2   2   2   2
#     4  11  23  39  67  97 121 154 209 263 306 361
#     4  10  20  33  65  98 118 146 196 267 313 346
#     4  11  22  37  68  97 117 157 211 260 308 353
#     4  10  21  37  59  88 126 154 194 249 307 357
#     4  10  19  34  59  96 124 143 188 263 321 349
#     4  12  28  43  58  86 133 176 202 241 304 374
#
# _framework density 26.653364
#
# number of rings (size 3 to 8) (size 9 to 14) (size 15 to 20)
#    0.000    1.333    5.000    2.500    9.333    0.667 
#    0.000    1.667    0.000    0.000    0.000    0.000 
#    0.000    0.000    0.000    0.000    0.000    0.000 
#
# Total GULP energy -67150.823742 kJ/mol
# GULP energy per Si atom -5595.901978 kJ/mol
# Density = 2.659270 g / cm^3
# Si number density = 26.653364 Si / 1000 Ang^3
#
#
#
# Elastic Constant Matrix: (Units=GPa)
#
#
# Indices 1 2 3 4 5 6 
#
# 1 145.2349 108.8146 31.4600 -14.3157 4.4188 22.0391
# 2 108.8146 305.4625 60.1422 -40.9803 5.8121 44.7386
# 3 31.4600 60.1422 79.1200 -16.7166 1.7384 21.0620
# 4 -14.3157 -40.9803 -16.7166 47.6707 6.6477 -7.3543
# 5 4.4188 5.8121 1.7384 6.6477 34.6490 -8.2794
# 6 22.0391 44.7386 21.0620 -7.3543 -8.2794 74.5878
#
#
#
# Elastic Compliance Matrix: (Units=1/GPa)
#
#
# Indices 1 2 3 4 5 6 
#
# 1 0.009576 -0.003060 -0.001317 -0.000221 -0.000774 -0.000730
# 2 -0.003060 0.005392 -0.001759 0.003035 -0.001412 -0.001691
# 3 -0.001317 -0.001759 0.016061 0.003511 -0.001718 -0.002935
# 4 -0.000221 0.003035 0.003511 0.025417 -0.005743 -0.000878
# 5 -0.000774 -0.001412 -0.001718 -0.005743 0.031457 0.004486
# 6 -0.000730 -0.001691 -0.002935 -0.000878 0.004486 0.015877
#
#
# Mechanical properties :
#
#
# Convention : Reuss Voigt Hill
#
# Bulk Modulus (GPa) = 53.31704 103.40566 78.36135
# Shear Modulus (GPa) = 40.88181 53.34153 47.11167
#
# Velocity S-wave (km/s) = 3.92067 4.47845 4.20881
# Velocity P-wave (km/s) = 6.36732 8.10078 7.28579
#
# Compressibility (1/GPa) = 0.01875573
#
# Stress axis : x y z
#
# Youngs Moduli (GPa) = 104.43036 185.46377 62.26246
#
# Poissons Ratio (x) = 0.56751 0.08200
# Poissons Ratio (y) = 0.31955 0.10955
# Poissons Ratio (z) = 0.13754 0.32632
#
# Static dielectric constant tensor:
#      x y z
#    x 2.105880 0.044850 -0.065180 
#    y 0.044850 2.164800 0.029470 
#    z -0.065180 0.029470 2.189160 
# 
# From -- ./inp_files/183306.got.cif
#   From: 2010.05.17/outbox.cif.g08.bks.cpg/sg2_92_cif.got.tgz:183306.got - 2010.06.03 11:33:40.
