data_PCOD9084464
_publ_section_title
;
Structure prediction by ZEFSAII (Michael W. Deem and Ramdas Pophale) SiO2 
 PCOD9084464
Probable space group: P -1
;
_chemical_formula_sum "Si O2"
_cell_formula_units_Z 15
_cell_length_a 5.212558
_cell_length_b 21.482986
_cell_length_c 11.315884
_cell_angle_alpha 154.415625
_cell_angle_beta 105.151445
_cell_angle_gamma 72.231696
_cell_volume 520.813676
_symmetry_space_group_name_H-M "P -1"
_symmetry_group_IT_number 2
_symmetry_cell_setting 'triclinic'
loop_
_space_group_symop_operation_xyz
x,y,z
-x,-y,-z
loop_
_atom_site_type_symbol
_atom_site_label
_atom_site_fract_x
_atom_site_fract_y
_atom_site_fract_z
Si Si1 0.941651 0.184828 0.214428
Si Si2 0.524182 0.392876 0.201728
Si Si3 0.500000 0.000000 0.000000
Si Si4 0.700226 0.336340 0.651034
Si Si5 0.972716 0.510536 0.371563
Si Si6 0.261404 0.925593 0.236251
Si Si7 0.319060 0.930996 0.579188
Si Si8 0.729953 0.656964 0.194341
O O1 0.209123 0.100997 0.161966
O O2 0.711468 0.218084 0.345599
O O3 0.999942 0.334187 0.415241
O O4 0.816931 0.102982 0.957426
O O5 0.500000 0.500000 0.500000
O O6 0.208822 0.390466 0.141621
O O7 0.675523 0.474459 0.261894
O O8 0.695232 0.235067 0.976365
O O9 0.613249 0.029609 0.208665
O O10 0.419247 0.357151 0.720184
O O11 0.980502 0.289895 0.678461
O O12 0.769371 0.488887 0.872975
O O13 0.000000 0.500000 0.500000
O O14 0.549197 0.973026 0.335813
O O15 0.997662 0.038624 0.433665
O O16 0.495949 0.772402 0.306377
#
# Coordination Sequence:
#
# PCOD9084464 Si02
#       8
#     2   2   1   2   2   2   2   2
#     4  11  22  37  57  90 121 156 189 232 297 346
#     4  10  19  35  51  78 110 148 185 233 273 338
#     4  10  24  32  52  84 128 146 178 224 288 362
#     4  10  22  37  62  77 111 156 198 249 270 330
#     4  10  20  34  55  77 115 147 189 234 276 341
#     4  11  23  33  57  82 119 145 187 226 293 347
#     4  11  23  36  52  81 115 158 178 229 283 356
#     4  10  21  42  55  80 111 155 207 232 280 332
#
# _framework density 28.801086000000002
#
# number of rings (size 3 to 8) (size 9 to 14) (size 15 to 20)
#    0.000    1.600    4.000    1.600    7.467    2.133 
#    0.000    0.000    0.000    0.000    0.000    5.600 
#    0.000    0.000    0.000    0.000    0.000    0.000 
#
# Total GULP energy -83823.420829 kJ/mol
# GULP energy per Si atom -5588.228055 kJ/mol
# Density = 2.873553 g / cm^3
# Si number density = 28.801086 Si / 1000 Ang^3
#
#
#
# Elastic Constant Matrix: (Units=GPa)
#
#
# Indices 1 2 3 4 5 6 
#
# 1 180.7481 21.8105 1.1408 7.9139 -37.1834 -6.0487
# 2 21.8105 127.5424 11.4750 0.1751 -10.9569 -2.7422
# 3 1.1408 11.4750 80.3043 15.0334 -22.8583 -10.4353
# 4 7.9139 0.1751 15.0334 51.4597 -7.4683 2.8761
# 5 -37.1834 -10.9569 -22.8583 -7.4683 48.4692 6.6401
# 6 -6.0487 -2.7422 -10.4353 2.8761 6.6401 55.4928
#
#
#
# Elastic Compliance Matrix: (Units=1/GPa)
#
#
# Indices 1 2 3 4 5 6 
#
# 1 0.006857 -0.000834 0.001865 -0.000781 0.005776 0.000406
# 2 -0.000834 0.008143 -0.001021 0.000515 0.000799 -0.000003
# 3 0.001865 -0.001021 0.015817 -0.003917 0.007726 0.002406
# 4 -0.000781 0.000515 -0.003917 0.020980 0.001180 -0.002025
# 5 0.005776 0.000799 0.007726 0.001180 0.029266 -0.001441
# 6 0.000406 -0.000003 0.002406 -0.002025 -0.001441 0.018794
#
#
# Mechanical properties :
#
#
# Convention : Reuss Voigt Hill
#
# Bulk Modulus (GPa) = 32.42959 50.82747 41.62853
# Shear Modulus (GPa) = 45.40593 54.69558 50.05076
#
# Velocity S-wave (km/s) = 3.97487 4.36257 4.17322
# Velocity P-wave (km/s) = 5.68774 6.56217 6.14054
#
# Compressibility (1/GPa) = 0.03083604
#
# Stress axis : x y z
#
# Youngs Moduli (GPa) = 145.82756 122.80554 63.22225
#
# Poissons Ratio (x) = 0.10248 -0.11790
# Poissons Ratio (y) = 0.12169 0.06456
# Poissons Ratio (z) = -0.27194 0.12540
#
# Static dielectric constant tensor:
#      x y z
#    x 2.152100 -0.284670 0.060170 
#    y -0.284670 2.338530 -0.240120 
#    z 0.060170 -0.240120 2.330270 
# 
# From -- ./inp_files/108634.got.cif
#   From: 2010.05.17/outbox.cif.g08.bks.cpg/sg2_55_cif.got.tgz:108634.got - 2010.06.03 11:33:40.
