data_PCOD9084336
_publ_section_title
;
Structure prediction by ZEFSAII (Michael W. Deem and Ramdas Pophale) SiO2 
 PCOD9084336
Probable space group: P -1
;
_chemical_formula_sum "Si O2"
_cell_formula_units_Z 16
_cell_length_a 11.531550
_cell_length_b 12.512796
_cell_length_c 12.069750
_cell_angle_alpha 36.252348
_cell_angle_beta 120.029489
_cell_angle_gamma 128.329716
_cell_volume 807.881008
_symmetry_space_group_name_H-M "P -1"
_symmetry_group_IT_number 2
_symmetry_cell_setting 'triclinic'
loop_
_space_group_symop_operation_xyz
x,y,z
-x,-y,-z
loop_
_atom_site_type_symbol
_atom_site_label
_atom_site_fract_x
_atom_site_fract_y
_atom_site_fract_z
Si Si1 0.928193 0.439321 0.688414
Si Si2 0.388627 0.907680 0.194618
Si Si3 0.644747 0.074184 0.583068
Si Si4 0.857788 0.779489 0.305647
Si Si5 0.147019 0.147278 0.162534
Si Si6 0.211974 0.443204 0.753641
Si Si7 0.971937 0.322295 0.051459
Si Si8 0.323938 0.058236 0.803418
O O1 0.759134 0.295526 0.706841
O O2 0.945208 0.658729 0.493884
O O3 0.036746 0.386748 0.707894
O O4 0.972126 0.411109 0.856031
O O5 0.394175 0.989324 0.253073
O O6 0.535102 0.879011 0.259274
O O7 0.367123 0.024398 0.979043
O O8 0.712859 0.317179 0.408059
O O9 0.500000 0.000000 0.500000
O O10 0.753952 0.975865 0.676385
O O11 0.761081 0.663245 0.251893
O O12 0.751452 0.792455 0.339614
O O13 0.985792 0.999150 0.157375
O O14 0.094029 0.230872 0.175745
O O15 0.229942 0.332130 0.964422
O O16 0.808351 0.144702 0.134300
O O17 0.000000 0.500000 0.000000
#
# Coordination Sequence:
#
# PCOD9084336 Si02
#       8
#     2   2   2   2   2   2   2   2
#     4  10  19  34  63  88 115 153 196 250 301 350
#     4  10  20  40  56  84 124 159 198 250 300 353
#     4  12  25  41  60  91 126 163 206 250 306 364
#     4  11  18  36  62  95 114 151 206 249 306 354
#     4  10  22  39  63  90 119 158 205 249 304 366
#     4  11  21  38  64  90 124 154 195 260 304 352
#     4   9  20  40  61  89 120 162 201 246 307 361
#     4   9  21  37  62  87 118 163 202 246 301 366
#
# _framework density 19.804897
#
# number of rings (size 3 to 8) (size 9 to 14) (size 15 to 20)
#    0.000    1.750    2.500    3.000    0.000    3.000 
#    2.250    3.750    0.000    0.000    0.000    0.000 
#    0.000    0.000    0.000    0.000    0.000    0.000 
#
# Total GULP energy -89176.577851 kJ/mol
# GULP energy per Si atom -5573.536116 kJ/mol
# Density = 1.975982 g / cm^3
# Si number density = 19.804897 Si / 1000 Ang^3
#
#
#
# Elastic Constant Matrix: (Units=GPa)
#
#
# Indices 1 2 3 4 5 6 
#
# 1 129.6264 66.9449 15.5072 -4.8228 15.2936 -8.2431
# 2 66.9449 104.1274 20.3563 -3.9173 9.1850 -17.4507
# 3 15.5072 20.3563 46.2632 -11.9942 9.4090 2.3925
# 4 -4.8228 -3.9173 -11.9942 20.7824 -1.9122 5.1822
# 5 15.2936 9.1850 9.4090 -1.9122 26.6039 -6.1846
# 6 -8.2431 -17.4507 2.3925 5.1822 -6.1846 24.5669
#
#
#
# Elastic Compliance Matrix: (Units=1/GPa)
#
#
# Indices 1 2 3 4 5 6 
#
# 1 0.012298 -0.008257 0.001490 0.002605 -0.005443 -0.003804
# 2 -0.008257 0.018185 -0.008375 -0.006266 0.004074 0.013310
# 3 0.001490 -0.008375 0.033558 0.021063 -0.012086 -0.016203
# 4 0.002605 -0.006266 0.021063 0.064275 -0.007036 -0.020958
# 5 -0.005443 0.004074 -0.012086 -0.007036 0.046678 0.015480
# 6 -0.003804 0.013310 -0.016203 -0.020958 0.015480 0.058779
#
#
# Mechanical properties :
#
#
# Convention : Reuss Voigt Hill
#
# Bulk Modulus (GPa) = 29.62424 53.95933 41.79178
# Shear Modulus (GPa) = 18.16130 26.20454 22.18292
#
# Velocity S-wave (km/s) = 3.03150 3.64144 3.35038
# Velocity P-wave (km/s) = 5.21956 6.70706 6.00952
#
# Compressibility (1/GPa) = 0.03375614
#
# Stress axis : x y z
#
# Youngs Moduli (GPa) = 81.31598 54.99019 29.79908
#
# Poissons Ratio (x) = 0.45406 -0.04440
# Poissons Ratio (y) = 0.67143 0.24958
# Poissons Ratio (z) = -0.12117 0.46057
#
# Static dielectric constant tensor:
#      x y z
#    x 1.730220 -0.022050 0.005630 
#    y -0.022050 1.698560 -0.007110 
#    z 0.005630 -0.007110 1.727490 
# 
# From -- ./inp_files/262290.got.cif
#   From: 2010.05.17/outbox.cif.g08.bks.cpg/sg2_132_cif.got.tgz:262290.got - 2010.06.03 11:33:40.
