data_PCOD9084221
_publ_section_title
;
Structure prediction by ZEFSAII (Michael W. Deem and Ramdas Pophale) SiO2 
 PCOD9084221
Probable space group: P -1
;
_chemical_formula_sum "Si O2"
_cell_formula_units_Z 16
_cell_length_a 12.446735
_cell_length_b 7.118729
_cell_length_c 9.504125
_cell_angle_alpha 97.907378
_cell_angle_beta 103.924108
_cell_angle_gamma 107.007462
_cell_volume 761.750034
_symmetry_space_group_name_H-M "P -1"
_symmetry_group_IT_number 2
_symmetry_cell_setting 'triclinic'
loop_
_space_group_symop_operation_xyz
x,y,z
-x,-y,-z
loop_
_atom_site_type_symbol
_atom_site_label
_atom_site_fract_x
_atom_site_fract_y
_atom_site_fract_z
Si Si1 0.387874 0.675697 0.895862
Si Si2 0.810794 0.089132 0.736854
Si Si3 0.626527 0.958932 0.899599
Si Si4 0.089404 0.477925 0.313035
Si Si5 0.151732 0.596193 0.637447
Si Si6 0.134124 0.014146 0.555384
Si Si7 0.248998 0.254517 0.886160
Si Si8 0.965876 0.704088 0.999654
O O1 0.503673 0.776499 0.850473
O O2 0.271185 0.645731 0.764002
O O3 0.361953 0.455232 0.928125
O O4 0.393922 0.837369 0.036527
O O5 0.692844 0.991925 0.776685
O O6 0.816368 0.969674 0.585132
O O7 0.937221 0.703098 0.824568
O O8 0.921110 0.125697 0.882306
O O9 0.711980 0.910530 0.036292
O O10 0.962931 0.500883 0.311780
O O11 0.139775 0.803903 0.598068
O O12 0.172171 0.683112 0.287577
O O13 0.141676 0.461741 0.480659
O O14 0.200952 0.178364 0.708588
O O15 0.000000 0.000000 0.500000
O O16 0.147799 0.302186 0.947985
O O17 0.000000 0.500000 0.000000
#
# Coordination Sequence:
#
# PCOD9084221 Si02
#       8
#     2   2   2   2   2   2   2   2
#     4  11  23  44  69  91 126 173 225 267 312 376
#     4  10  20  39  59  93 133 161 207 264 320 379
#     4  11  25  44  68  93 125 173 224 270 314 371
#     4   9  19  33  62  95 125 162 204 261 324 386
#     4  10  20  38  63  92 131 170 210 254 330 387
#     4  11  23  39  61  99 134 170 202 262 330 395
#     4  12  24  42  68  95 129 171 215 265 324 386
#     4  10  19  34  61  93 125 160 201 260 321 376
#
# _framework density 21.004266000000001
#
# number of rings (size 3 to 8) (size 9 to 14) (size 15 to 20)
#    0.000    1.500    2.500    4.125    3.500    1.500 
#    0.000    3.125    2.750    0.000    0.000    0.000 
#    0.000    0.000    0.000    0.000    0.000    0.000 
#
# Total GULP energy -89463.267183 kJ/mol
# GULP energy per Si atom -5591.454199 kJ/mol
# Density = 2.095646 g / cm^3
# Si number density = 21.004266 Si / 1000 Ang^3
#
#
#
# Elastic Constant Matrix: (Units=GPa)
#
#
# Indices 1 2 3 4 5 6 
#
# 1 89.9162 22.2516 23.5285 -4.8447 -12.8351 37.9792
# 2 22.2516 76.6820 21.9353 4.3657 -18.3531 15.1585
# 3 23.5285 21.9353 107.7833 -5.2769 -25.1438 14.9454
# 4 -4.8447 4.3657 -5.2769 32.4764 2.1149 -5.9365
# 5 -12.8351 -18.3531 -25.1438 2.1149 34.1400 -9.0283
# 6 37.9792 15.1585 14.9454 -5.9365 -9.0283 38.6371
#
#
#
# Elastic Compliance Matrix: (Units=1/GPa)
#
#
# Indices 1 2 3 4 5 6 
#
# 1 0.019518 -0.001517 -0.001283 -0.000432 0.000854 -0.017960
# 2 -0.001517 0.016295 -0.001128 -0.003669 0.006668 -0.003471
# 3 -0.001283 -0.001128 0.011649 0.001214 0.007167 -0.000941
# 4 -0.000432 -0.003669 0.001214 0.032626 -0.001670 0.006017
# 5 0.000854 0.006668 0.007167 -0.001670 0.039292 0.002697
# 6 -0.017960 -0.003471 -0.000941 0.006017 0.002697 0.046817
#
#
# Mechanical properties :
#
#
# Convention : Reuss Voigt Hill
#
# Bulk Modulus (GPa) = 25.24918 45.53472 35.39195
# Shear Modulus (GPa) = 26.70160 34.82842 30.76501
#
# Velocity S-wave (km/s) = 3.56932 4.07647 3.83130
# Velocity P-wave (km/s) = 5.38830 6.62440 6.03807
#
# Compressibility (1/GPa) = 0.03960525
#
# Stress axis : x y z
#
# Youngs Moduli (GPa) = 51.23591 61.36973 85.84169
#
# Poissons Ratio (x) = 0.09310 0.11016
# Poissons Ratio (y) = 0.07773 0.09681
# Poissons Ratio (z) = 0.06575 0.06921
#
# Static dielectric constant tensor:
#      x y z
#    x 1.717880 -0.036080 0.000250 
#    y -0.036080 1.830680 -0.001590 
#    z 0.000250 -0.001590 1.771170 
# 
# From -- ./inp_files/510578.got.cif
#   From: 2010.05.17/outbox.cif.g08.bks.cpg/sg2_256_cif.got.tgz:510578.got - 2010.06.03 11:33:40.
