data_PCOD9084433
_publ_section_title
;
Structure prediction by ZEFSAII (Michael W. Deem and Ramdas Pophale) SiO2 
 PCOD9084433
Probable space group: P -1
;
_chemical_formula_sum "Si O2"
_cell_formula_units_Z 16
_cell_length_a 14.919814
_cell_length_b 8.517978
_cell_length_c 12.573338
_cell_angle_alpha 109.968848
_cell_angle_beta 112.704716
_cell_angle_gamma 128.291836
_cell_volume 691.058331
_symmetry_space_group_name_H-M "P -1"
_symmetry_group_IT_number 2
_symmetry_cell_setting 'triclinic'
loop_
_space_group_symop_operation_xyz
x,y,z
-x,-y,-z
loop_
_atom_site_type_symbol
_atom_site_label
_atom_site_fract_x
_atom_site_fract_y
_atom_site_fract_z
Si Si1 0.373347 0.771232 0.178596
Si Si2 0.060890 0.304151 0.404997
Si Si3 0.661268 0.667547 0.190261
Si Si4 0.234271 0.858191 0.515855
Si Si5 0.441655 0.727494 0.775726
Si Si6 0.920137 0.942167 0.061766
Si Si7 0.361461 0.278858 0.250258
Si Si8 0.688944 0.005689 0.649968
O O1 0.570358 0.962807 0.339507
O O2 0.401591 0.904356 0.108699
O O3 0.341163 0.863314 0.275693
O O4 0.198115 0.382021 0.012904
O O5 0.075390 0.521873 0.434397
O O6 0.235125 0.502530 0.603761
O O7 0.858748 0.943538 0.278205
O O8 0.081531 0.248967 0.286277
O O9 0.573423 0.373081 0.138145
O O10 0.717195 0.888769 0.356199
O O11 0.500000 0.500000 0.000000
O O12 0.186548 0.796154 0.354505
O O13 0.488491 0.640066 0.699658
O O14 0.769302 0.863601 0.942064
O O15 0.000000 0.000000 0.000000
O O16 0.484052 0.619354 0.427094
O O17 0.240938 0.018942 0.232446
#
# Coordination Sequence:
#
# PCOD9084433 Si02
#       8
#     2   2   2   2   2   2   2   2
#     4  10  21  38  63  96 126 170 212 253 314 373
#     4  11  26  42  65  96 125 165 216 262 311 376
#     4  12  24  45  68  93 126 163 208 267 322 376
#     4  11  21  40  66  92 126 169 212 259 312 375
#     4  10  22  44  68  89 123 167 216 259 313 376
#     4  12  25  40  62  98 136 165 207 261 316 369
#     4  10  21  37  63  93 127 171 208 252 313 373
#     4  10  19  34  66  89 125 165 216 244 309 373
#
# _framework density 23.152895000000001
#
# number of rings (size 3 to 8) (size 9 to 14) (size 15 to 20)
#    0.000    1.250    2.500    3.375    7.000    0.000 
#    0.000   17.500    0.000    0.000    0.000    0.000 
#    0.000    0.000    0.000    0.000    0.000    0.000 
#
# Total GULP energy -89501.362287 kJ/mol
# GULP energy per Si atom -5593.835143 kJ/mol
# Density = 2.310020 g / cm^3
# Si number density = 23.152895 Si / 1000 Ang^3
#
#
#
# Elastic Constant Matrix: (Units=GPa)
#
#
# Indices 1 2 3 4 5 6 
#
# 1 54.0142 23.8526 -5.5786 1.1211 -11.7779 6.7565
# 2 23.8526 198.2389 25.6142 -13.5689 6.6763 -6.4398
# 3 -5.5786 25.6142 23.0360 -3.6396 -1.6130 -3.0761
# 4 1.1211 -13.5689 -3.6396 30.2568 -1.2296 0.5114
# 5 -11.7779 6.6763 -1.6130 -1.2296 28.4025 -1.0166
# 6 6.7565 -6.4398 -3.0761 0.5114 -1.0166 32.0135
#
#
#
# Elastic Compliance Matrix: (Units=1/GPa)
#
#
# Indices 1 2 3 4 5 6 
#
# 1 0.025371 -0.005259 0.011997 -0.001277 0.012209 -0.004852
# 2 -0.005259 0.007180 -0.009013 0.002133 -0.004234 0.001520
# 3 0.011997 -0.009013 0.057727 0.002861 0.010549 0.001491
# 4 -0.001277 0.002133 0.002861 0.034417 0.000637 0.000444
# 5 0.012209 -0.004234 0.010549 0.000637 0.041854 -0.001096
# 6 -0.004852 0.001520 0.001491 0.000444 -0.001096 0.032668
#
#
# Mechanical properties :
#
#
# Convention : Reuss Voigt Hill
#
# Bulk Modulus (GPa) = 11.66500 40.34061 26.00281
# Shear Modulus (GPa) = 21.51994 33.56129 27.54062
#
# Velocity S-wave (km/s) = 3.05203 3.81143 3.45267
# Velocity P-wave (km/s) = 4.17960 6.06883 5.21055
#
# Compressibility (1/GPa) = 0.08572654
#
# Stress axis : x y z
#
# Youngs Moduli (GPa) = 39.41568 139.28136 17.32280
#
# Poissons Ratio (x) = 0.73247 -0.20782
# Poissons Ratio (y) = 0.20728 0.15614
# Poissons Ratio (z) = -0.47286 1.25539
#
# Static dielectric constant tensor:
#      x y z
#    x 1.885870 0.011140 -0.000180 
#    y 0.011140 1.922770 -0.002210 
#    z -0.000180 -0.002210 1.832130 
# 
# From -- ./inp_files/447859.got.cif
#   From: 2010.05.17/outbox.cif.g08.bks.cpg/sg2_224_cif.got.tgz:447859.got - 2010.06.03 11:33:40.
