data_PCOD9084475
_publ_section_title
;
Structure prediction by ZEFSAII (Michael W. Deem and Ramdas Pophale) SiO2 
 PCOD9084475
Probable space group: P -1
;
_chemical_formula_sum "Si O2"
_cell_formula_units_Z 14
_cell_length_a 7.111183
_cell_length_b 15.909088
_cell_length_c 7.565532
_cell_angle_alpha 125.220288
_cell_angle_beta 84.340976
_cell_angle_gamma 119.256746
_cell_volume 589.523284
_symmetry_space_group_name_H-M "P -1"
_symmetry_group_IT_number 2
_symmetry_cell_setting 'triclinic'
loop_
_space_group_symop_operation_xyz
x,y,z
-x,-y,-z
loop_
_atom_site_type_symbol
_atom_site_label
_atom_site_fract_x
_atom_site_fract_y
_atom_site_fract_z
Si Si1 0.265295 0.116935 0.904350
Si Si2 0.099015 0.374951 0.591794
Si Si3 0.942931 0.118030 0.216578
Si Si4 0.718661 0.357445 0.245945
Si Si5 0.558983 0.390534 0.658783
Si Si6 0.783533 0.823840 0.378186
Si Si7 0.054289 0.347085 0.955257
O O1 0.279421 0.010632 0.873172
O O2 0.475629 0.252925 0.073503
O O3 0.226654 0.092975 0.669400
O O4 0.063646 0.113429 0.024316
O O5 0.177294 0.502050 0.647977
O O6 0.335255 0.381432 0.596526
O O7 0.999520 0.368954 0.787959
O O8 0.941717 0.240764 0.362715
O O9 0.098900 0.129430 0.385858
O O10 0.682316 0.360176 0.461434
O O11 0.883917 0.325990 0.098305
O O12 0.465554 0.288511 0.693365
O O13 0.718095 0.527258 0.871615
O O14 0.906236 0.762376 0.201166
#
# Coordination Sequence:
#
# PCOD9084475 Si02
#       7
#     2   2   2   2   2   2   2
#     4  11  20  37  65  83 112 152 191 239 281 329
#     4  10  20  37  57  82 113 148 198 229 277 342
#     4   9  21  38  58  90 110 143 203 236 270 339
#     4  12  21  33  58  89 118 147 189 234 292 331
#     4  10  19  35  52  83 117 148 191 233 272 344
#     4  10  20  38  60  84 112 152 194 229 283 337
#     4  10  21  34  52  86 124 147 181 240 288 336
#
# _framework density 23.748003000000001
#
# number of rings (size 3 to 8) (size 9 to 14) (size 15 to 20)
#    0.000    2.000    2.857    5.143    2.000    0.000 
#    0.000    2.857    0.000    6.857    0.000    0.000 
#    0.000    0.000    0.000    0.000    0.000    0.000 
#
# Total GULP energy -78192.938408 kJ/mol
# GULP energy per Si atom -5585.209886 kJ/mol
# Density = 2.369395 g / cm^3
# Si number density = 23.748003 Si / 1000 Ang^3
#
#
#
# Elastic Constant Matrix: (Units=GPa)
#
#
# Indices 1 2 3 4 5 6 
#
# 1 43.4466 40.3585 14.5945 -4.2731 -21.2557 9.3934
# 2 40.3585 132.6726 21.3543 -18.3856 -9.2707 -3.4929
# 3 14.5945 21.3543 100.2478 -6.0607 -19.6314 -3.2018
# 4 -4.2731 -18.3856 -6.0607 36.7172 6.9429 -8.6792
# 5 -21.2557 -9.2707 -19.6314 6.9429 29.9915 -7.7756
# 6 9.3934 -3.4929 -3.2018 -8.6792 -7.7756 19.1504
#
#
#
# Elastic Compliance Matrix: (Units=1/GPa)
#
#
# Indices 1 2 3 4 5 6 
#
# 1 0.062350 -0.019388 0.000082 -0.015393 0.034828 -0.026941
# 2 -0.019388 0.014654 -0.001032 0.009597 -0.008793 0.012790
# 3 0.000082 -0.001032 0.012215 0.001230 0.009014 0.006031
# 4 -0.015393 0.009597 0.001230 0.037668 -0.010022 0.022509
# 5 0.034828 -0.008793 0.009014 -0.010022 0.064708 0.004551
# 6 -0.026941 0.012790 0.006031 0.022509 0.004551 0.080823
#
#
# Mechanical properties :
#
#
# Convention : Reuss Voigt Hill
#
# Bulk Modulus (GPa) = 20.60071 47.66460 34.13266
# Shear Modulus (GPa) = 15.18486 30.50913 22.84700
#
# Velocity S-wave (km/s) = 2.53141 3.58816 3.10507
# Velocity P-wave (km/s) = 4.15182 6.10583 5.22105
#
# Compressibility (1/GPa) = 0.04854202
#
# Stress axis : x y z
#
# Youngs Moduli (GPa) = 16.03858 68.24273 81.86440
#
# Poissons Ratio (x) = 1.32312 -0.00673
# Poissons Ratio (y) = 0.31096 0.08448
# Poissons Ratio (z) = -0.00132 0.07042
#
# Static dielectric constant tensor:
#      x y z
#    x 1.943030 -0.045980 0.066280 
#    y -0.045980 1.930360 0.029160 
#    z 0.066280 0.029160 1.944530 
# 
# From -- ./inp_files/211097.got.cif
#   From: 2010.05.17/outbox.cif.g08.bks.cpg/sg2_106_cif.got.tgz:211097.got - 2010.06.03 11:33:40.
