data_PCOD9084477
_publ_section_title
;
Structure prediction by ZEFSAII (Michael W. Deem and Ramdas Pophale) SiO2 
 PCOD9084477
Probable space group: P -1
;
_chemical_formula_sum "Si O2"
_cell_formula_units_Z 14
_cell_length_a 7.208027
_cell_length_b 17.894041
_cell_length_c 5.406349
_cell_angle_alpha 63.047814
_cell_angle_beta 68.540553
_cell_angle_gamma 89.616882
_cell_volume 567.744198
_symmetry_space_group_name_H-M "P -1"
_symmetry_group_IT_number 2
_symmetry_cell_setting 'triclinic'
loop_
_space_group_symop_operation_xyz
x,y,z
-x,-y,-z
loop_
_atom_site_type_symbol
_atom_site_label
_atom_site_fract_x
_atom_site_fract_y
_atom_site_fract_z
Si Si1 0.234210 0.444882 0.239656
Si Si2 0.583688 0.048648 0.136140
Si Si3 0.780371 0.357766 0.085462
Si Si4 0.829218 0.305765 0.639718
Si Si5 0.264915 0.364497 0.845333
Si Si6 0.966669 0.860920 0.220592
Si Si7 0.283764 0.168529 0.112338
O O1 0.331898 0.409652 0.004238
O O2 0.329956 0.419316 0.485931
O O3 0.998132 0.394901 0.432545
O O4 0.238859 0.544472 0.063626
O O5 0.493786 0.135368 0.053425
O O6 0.500000 0.000000 0.500000
O O7 0.826437 0.069589 0.983616
O O8 0.500000 0.000000 0.000000
O O9 0.702406 0.311916 0.445473
O O10 0.020058 0.354877 0.981612
O O11 0.706572 0.306634 0.951143
O O12 0.956713 0.230300 0.681523
O O13 0.301335 0.269601 0.952335
O O14 0.837630 0.864327 0.527329
O O15 0.841414 0.865130 0.024275
#
# Coordination Sequence:
#
# PCOD9084477 Si02
#       7
#     2   2   2   2   2   2   2
#     4  10  16  25  46  85 129 160 213 273 299 364
#     4  12  30  50  70 106 133 164 223 270 340 416
#     4  10  16  25  46  85 129 160 213 273 299 364
#     4  10  16  29  48  84 121 159 218 252 304 386
#     4  10  16  29  48  84 121 159 218 252 304 386
#     4  12  23  44  73  97 135 175 217 274 329 395
#     4  12  23  44  73  97 135 175 217 274 329 395
#
# _framework density 24.658992000000001
#
# number of rings (size 3 to 8) (size 9 to 14) (size 15 to 20)
#    0.000    1.143    5.714    6.000    0.000    3.429 
#    0.000    0.000    0.000    0.000    0.000   11.000 
#    0.000    0.000    0.000    0.000    0.000    0.000 
#
# Total GULP energy -78481.846381 kJ/mol
# GULP energy per Si atom -5605.846170 kJ/mol
# Density = 2.460287 g / cm^3
# Si number density = 24.658992 Si / 1000 Ang^3
#
#
#
# Elastic Constant Matrix: (Units=GPa)
#
#
# Indices 1 2 3 4 5 6 
#
# 1 84.6814 10.0357 38.5681 17.0476 -15.8315 -2.8514
# 2 10.0357 100.2677 36.3934 9.4422 9.5961 -13.9445
# 3 38.5681 36.3934 157.7340 38.3238 32.2253 14.6277
# 4 17.0476 9.4422 38.3238 45.0090 13.2917 14.7801
# 5 -15.8315 9.5961 32.2253 13.2917 41.1333 6.0638
# 6 -2.8514 -13.9445 14.6277 14.7801 6.0638 37.1945
#
#
#
# Elastic Compliance Matrix: (Units=1/GPa)
#
#
# Indices 1 2 3 4 5 6 
#
# 1 0.018766 0.000398 -0.006055 -0.007631 0.013635 0.004779
# 2 0.000398 0.012183 -0.002826 -0.002299 -0.000726 0.006742
# 3 -0.006055 -0.002826 0.011376 -0.003020 -0.009120 -0.003311
# 4 -0.007631 -0.002299 -0.003020 0.035133 -0.009520 -0.012668
# 5 0.013635 -0.000726 -0.009120 -0.009520 0.039703 0.001670
# 6 0.004779 0.006742 -0.003311 -0.012668 0.001670 0.035843
#
#
# Mechanical properties :
#
#
# Convention : Reuss Voigt Hill
#
# Bulk Modulus (GPa) = 39.43545 56.96415 48.19980
# Shear Modulus (GPa) = 28.02292 41.84643 34.93468
#
# Velocity S-wave (km/s) = 3.37474 4.12394 3.76801
# Velocity P-wave (km/s) = 5.58679 6.76955 6.20641
#
# Compressibility (1/GPa) = 0.02535790
#
# Stress axis : x y z
#
# Youngs Moduli (GPa) = 53.28821 82.08206 87.90127
#
# Poissons Ratio (x) = -0.03265 0.53224
# Poissons Ratio (y) = -0.02119 0.24845
# Poissons Ratio (z) = 0.32266 0.23200
#
# Static dielectric constant tensor:
#      x y z
#    x 1.958040 0.034400 0.024770 
#    y 0.034400 1.931410 0.043700 
#    z 0.024770 0.043700 2.034750 
# 
# From -- ./inp_files/10157.got.cif
#   From: 2010.05.17/outbox.cif.g08.bks.cpg/sg2_6_cif.got.tgz:10157.got - 2010.06.03 11:33:40.
