data_PCOD9084392
_publ_section_title
;
Structure prediction by ZEFSAII (Michael W. Deem and Ramdas Pophale) SiO2 
 PCOD9084392
Probable space group: P -1
;
_chemical_formula_sum "Si O2"
_cell_formula_units_Z 16
_cell_length_a 9.948949
_cell_length_b 16.604217
_cell_length_c 9.534637
_cell_angle_alpha 102.225285
_cell_angle_beta 73.132935
_cell_angle_gamma 145.933446
_cell_volume 843.125855
_symmetry_space_group_name_H-M "P -1"
_symmetry_group_IT_number 2
_symmetry_cell_setting 'triclinic'
loop_
_space_group_symop_operation_xyz
x,y,z
-x,-y,-z
loop_
_atom_site_type_symbol
_atom_site_label
_atom_site_fract_x
_atom_site_fract_y
_atom_site_fract_z
Si Si1 0.884862 0.773648 0.777058
Si Si2 0.176355 0.294983 0.556685
Si Si3 0.621518 0.287108 0.249093
Si Si4 0.936558 0.030766 0.658160
Si Si5 0.804553 0.926577 0.152895
Si Si6 0.573709 0.346893 0.998585
Si Si7 0.064515 0.389476 0.223627
Si Si8 0.704500 0.480144 0.498597
O O1 0.824310 0.733302 0.616398
O O2 0.927389 0.705169 0.805421
O O3 0.654211 0.707574 0.895619
O O4 0.124838 0.946853 0.779381
O O5 0.439793 0.395219 0.576161
O O6 0.156540 0.384083 0.588388
O O7 0.975663 0.143489 0.640198
O O8 0.657754 0.374823 0.388229
O O9 0.797576 0.296929 0.238337
O O10 0.338335 0.122814 0.268302
O O11 0.685544 0.357831 0.105775
O O12 0.126191 0.098762 0.748187
O O13 0.000000 0.000000 0.500000
O O14 0.542172 0.778305 0.114814
O O15 0.000000 0.000000 0.000000
O O16 0.756755 0.489845 0.905756
O O17 0.157501 0.464905 0.376256
#
# Coordination Sequence:
#
# PCOD9084392 Si02
#       8
#     2   2   2   2   2   2   2   2
#     4  10  19  40  59  91 115 144 198 246 278 339
#     4  10  19  34  64  91 110 147 197 245 281 330
#     4  12  23  41  56  87 124 151 189 242 288 350
#     4  12  19  36  64  87 110 152 195 236 289 335
#     4  10  19  36  60  87 112 145 197 245 275 328
#     4  11  21  40  62  83 114 159 197 235 282 346
#     4  11  25  37  60  86 119 157 188 236 302 338
#     4  10  20  39  58  86 121 144 195 242 282 343
#
# _framework density 18.977003
#
# number of rings (size 3 to 8) (size 9 to 14) (size 15 to 20)
#    0.000    1.250    6.250    1.875    0.000    0.000 
#    4.500    4.375    0.000    0.000    0.000    0.000 
#    0.000    0.000    0.000    0.000    0.000    0.000 
#
# Total GULP energy -89341.872332 kJ/mol
# GULP energy per Si atom -5583.867021 kJ/mol
# Density = 1.893381 g / cm^3
# Si number density = 18.977003 Si / 1000 Ang^3
#
#
#
# Elastic Constant Matrix: (Units=GPa)
#
#
# Indices 1 2 3 4 5 6 
#
# 1 85.8756 20.1473 18.5237 0.0944 24.9141 2.3151
# 2 20.1473 77.9664 9.9180 -6.0961 5.8833 -22.6381
# 3 18.5237 9.9180 41.6012 -3.5525 25.0279 1.9929
# 4 0.0944 -6.0961 -3.5525 30.8688 -5.2380 12.1288
# 5 24.9141 5.8833 25.0279 -5.2380 25.1231 -2.9111
# 6 2.3151 -22.6381 1.9929 12.1288 -2.9111 24.2235
#
#
#
# Elastic Compliance Matrix: (Units=1/GPa)
#
#
# Indices 1 2 3 4 5 6 
#
# 1 0.021623 -0.009691 0.015464 0.000251 -0.036486 -0.016906
# 2 -0.009691 0.024265 -0.018032 -0.005137 0.024365 0.030587
# 3 0.015464 -0.018032 0.081161 0.004812 -0.095469 -0.038890
# 4 0.000251 -0.005137 0.004812 0.042613 0.001995 -0.026317
# 5 -0.036486 0.024365 -0.095469 0.001995 0.172037 0.053787
# 6 -0.016906 0.030587 -0.038890 -0.026317 0.053787 0.094324
#
#
# Mechanical properties :
#
#
# Convention : Reuss Voigt Hill
#
# Bulk Modulus (GPa) = 9.75306 33.62457 21.68881
# Shear Modulus (GPa) = 10.10680 26.50003 18.30342
#
# Velocity S-wave (km/s) = 2.31028 3.74094 3.10902
# Velocity P-wave (km/s) = 3.50244 6.03461 4.93374
#
# Compressibility (1/GPa) = 0.10253194
#
# Stress axis : x y z
#
# Youngs Moduli (GPa) = 46.24604 41.21183 12.32125
#
# Poissons Ratio (x) = 0.39937 -0.19054
# Poissons Ratio (y) = 0.44816 0.22218
# Poissons Ratio (z) = -0.71516 0.74313
#
# Static dielectric constant tensor:
#      x y z
#    x 1.635590 -0.009030 0.000060 
#    y -0.009030 1.695650 0.012670 
#    z 0.000060 0.012670 1.641190 
# 
# From -- ./inp_files/182680.got.cif
#   From: 2010.05.17/outbox.cif.g08.bks.cpg/sg2_92_cif.got.tgz:182680.got - 2010.06.03 11:33:40.
