data_PCOD9084128
_publ_section_title
;
Structure prediction by ZEFSAII (Michael W. Deem and Ramdas Pophale) SiO2 
 PCOD9084128
Probable space group: P -1
;
_chemical_formula_sum "Si O2"
_cell_formula_units_Z 14
_cell_length_a 8.072525
_cell_length_b 15.695444
_cell_length_c 23.254385
_cell_angle_alpha 160.610816
_cell_angle_beta 145.219223
_cell_angle_gamma 34.377939
_cell_volume 537.708128
_symmetry_space_group_name_H-M "P -1"
_symmetry_group_IT_number 2
_symmetry_cell_setting 'triclinic'
loop_
_space_group_symop_operation_xyz
x,y,z
-x,-y,-z
loop_
_atom_site_type_symbol
_atom_site_label
_atom_site_fract_x
_atom_site_fract_y
_atom_site_fract_z
Si Si1 0.717251 0.844526 0.346812
Si Si2 0.654098 0.828099 0.742895
Si Si3 0.215256 0.746883 0.781177
Si Si4 0.736159 0.668414 0.795106
Si Si5 0.161861 0.643529 0.075088
Si Si6 0.448798 0.343947 0.071861
Si Si7 0.887908 0.944793 0.340886
O O1 0.397879 0.782951 0.206407
O O2 0.747976 0.019360 0.411674
O O3 0.974187 0.561872 0.247078
O O4 0.788342 0.000383 0.522577
O O5 0.718396 0.674719 0.724279
O O6 0.880646 0.733850 0.694192
O O7 0.317782 0.883584 0.657200
O O8 0.670775 0.125829 0.956947
O O9 0.417803 0.654878 0.724229
O O10 0.400753 0.583394 0.783274
O O11 0.219432 0.052248 0.990298
O O12 0.281001 0.583854 0.136282
O O13 0.153210 0.354071 0.865107
O O14 0.811859 0.793877 0.069684
#
# Coordination Sequence:
#
# PCOD9084128 Si02
#       7
#     2   2   2   2   2   2   2
#     4  11  22  39  61  90 125 161 203 255 306 361
#     4  10  20  38  58  86 126 159 198 258 304 355
#     4  10  19  34  60  91 123 158 203 258 301 358
#     4  10  20  34  60  90 117 161 209 241 304 375
#     4  10  19  36  62  88 122 165 201 250 311 362
#     4   9  18  33  58  93 123 157 208 250 303 372
#     4  10  23  38  59  91 125 158 205 255 302 366
#
# _framework density 26.036428000000001
#
# number of rings (size 3 to 8) (size 9 to 14) (size 15 to 20)
#    0.000    2.000    0.000    5.571    0.000    4.000 
#    0.000    7.143    0.000    6.857    0.000    0.000 
#    0.000    0.000    0.000    0.000    0.000    0.000 
#
# Total GULP energy -78133.020936 kJ/mol
# GULP energy per Si atom -5580.930067 kJ/mol
# Density = 2.597717 g / cm^3
# Si number density = 26.036428 Si / 1000 Ang^3
#
#
#
# Elastic Constant Matrix: (Units=GPa)
#
#
# Indices 1 2 3 4 5 6 
#
# 1 91.3440 3.7338 6.1160 -4.5618 -1.0286 -18.2073
# 2 3.7338 79.0457 11.8010 -1.4591 -15.4333 -3.2140
# 3 6.1160 11.8010 107.2590 -3.8412 -6.8797 -14.7226
# 4 -4.5618 -1.4591 -3.8412 26.4639 6.6103 3.2982
# 5 -1.0286 -15.4333 -6.8797 6.6103 12.7650 -13.0449
# 6 -18.2073 -3.2140 -14.7226 3.2982 -13.0449 47.5605
#
#
#
# Elastic Compliance Matrix: (Units=1/GPa)
#
#
# Indices 1 2 3 4 5 6 
#
# 1 0.012958 0.003228 0.001508 -0.003454 0.018844 0.011054
# 2 0.003228 0.025287 0.003793 -0.016659 0.065158 0.023146
# 3 0.001508 0.003793 0.012033 -0.006069 0.026990 0.012383
# 4 -0.003454 -0.016659 -0.006069 0.061949 -0.089735 -0.033236
# 5 0.018844 0.065158 0.026990 -0.089735 0.342392 0.120107
# 6 0.011054 0.023146 0.012383 -0.033236 0.120107 0.065902
#
#
# Mechanical properties :
#
#
# Convention : Reuss Voigt Hill
#
# Bulk Modulus (GPa) = 14.85068 35.66116 25.25592
# Shear Modulus (GPa) = 9.50734 34.42441 21.96588
#
# Velocity S-wave (km/s) = 1.91298 3.64010 2.90773
# Velocity P-wave (km/s) = 3.25507 5.60299 4.58198
#
# Compressibility (1/GPa) = 0.06733699
#
# Stress axis : x y z
#
# Youngs Moduli (GPa) = 77.17443 39.54535 83.10233
#
# Poissons Ratio (x) = -0.12764 -0.12534
# Poissons Ratio (y) = -0.24909 -0.31524
# Poissons Ratio (z) = -0.11640 -0.15001
#
# Static dielectric constant tensor:
#      x y z
#    x 2.230460 -0.096880 -0.012890 
#    y -0.096880 2.075080 0.004810 
#    z -0.012890 0.004810 2.081240 
# 
# From -- ./inp_files/617448.got.cif
#   From: 2010.05.17/outbox.cif.g08.bks.cpg/sg2_309_cif.got.tgz:617448.got - 2010.06.03 11:33:40.
