data_PCOD9084119
_publ_section_title
;
Structure prediction by ZEFSAII (Michael W. Deem and Ramdas Pophale) SiO2 
 PCOD9084119
Probable space group: P -1
;
_chemical_formula_sum "Si O2"
_cell_formula_units_Z 12
_cell_length_a 6.832370
_cell_length_b 19.353308
_cell_length_c 11.671159
_cell_angle_alpha 22.886734
_cell_angle_beta 58.541532
_cell_angle_gamma 49.100540
_cell_volume 435.961660
_symmetry_space_group_name_H-M "P -1"
_symmetry_group_IT_number 2
_symmetry_cell_setting 'triclinic'
loop_
_space_group_symop_operation_xyz
x,y,z
-x,-y,-z
loop_
_atom_site_type_symbol
_atom_site_label
_atom_site_fract_x
_atom_site_fract_y
_atom_site_fract_z
Si Si1 0.898235 0.065364 0.191823
Si Si2 0.945485 0.660536 0.427968
Si Si3 0.158807 0.434729 0.170135
Si Si4 0.472699 0.297034 0.805435
Si Si5 0.291456 0.712738 0.866898
Si Si6 0.609277 0.278260 0.548294
O O1 0.126761 0.838980 0.428623
O O2 0.988454 0.202943 0.882164
O O3 0.605203 0.144567 0.104812
O O4 0.889053 0.100828 0.275457
O O5 0.631300 0.749844 0.378937
O O6 0.151872 0.416500 0.701660
O O7 0.979519 0.649775 0.571798
O O8 0.474791 0.275112 0.289410
O O9 0.166950 0.615664 0.966891
O O10 0.000000 0.500000 0.000000
O O11 0.500000 0.500000 0.500000
O O12 0.638596 0.196755 0.793068
O O13 0.465465 0.525659 0.193519
#
# Coordination Sequence:
#
# PCOD9084119 Si02
#       6
#     2   2   2   2   2   2
#     4  11  22  38  64  94 120 157 204 256 311 360
#     4  10  21  38  63  91 120 156 203 254 305 361
#     4  10  22  39  66  85 122 171 205 247 309 368
#     4  10  19  34  60  90 124 154 195 251 308 362
#     4  10  22  42  63  90 123 164 207 252 307 369
#     4  11  21  37  63  92 125 156 200 256 312 362
#
# _framework density 27.525355999999999
#
# number of rings (size 3 to 8) (size 9 to 14) (size 15 to 20)
#    0.000    1.667    3.333    2.500    4.667    0.000 
#    0.000    7.500    0.000    6.000    0.000    0.000 
#    0.000    0.000    0.000    0.000    0.000    0.000 
#
# Total GULP energy -67120.010981 kJ/mol
# GULP energy per Si atom -5593.334248 kJ/mol
# Density = 2.746271 g / cm^3
# Si number density = 27.525356 Si / 1000 Ang^3
#
#
#
# Elastic Constant Matrix: (Units=GPa)
#
#
# Indices 1 2 3 4 5 6 
#
# 1 104.5273 52.0356 27.1241 -2.0095 22.5986 21.7055
# 2 52.0356 215.9804 41.2406 8.2150 3.3898 33.7718
# 3 27.1241 41.2406 54.0481 10.7375 14.0550 9.1033
# 4 -2.0095 8.2150 10.7375 62.8319 1.2077 5.1991
# 5 22.5986 3.3898 14.0550 1.2077 36.9687 15.3879
# 6 21.7055 33.7718 9.1033 5.1991 15.3879 49.6872
#
#
#
# Elastic Compliance Matrix: (Units=1/GPa)
#
#
# Indices 1 2 3 4 5 6 
#
# 1 0.013257 -0.002185 -0.003449 0.001580 -0.005792 -0.002046
# 2 -0.002185 0.006523 -0.004268 0.000056 0.003999 -0.003941
# 3 -0.003449 -0.004268 0.026024 -0.004059 -0.008367 0.002655
# 4 0.001580 0.000056 -0.004059 0.016802 0.000859 -0.002009
# 5 -0.005792 0.003999 -0.008367 0.000859 0.037716 -0.010425
# 6 -0.002046 -0.003941 0.002655 -0.002009 -0.010425 0.026651
#
#
# Mechanical properties :
#
#
# Convention : Reuss Voigt Hill
#
# Bulk Modulus (GPa) = 38.46007 68.37293 53.41650
# Shear Modulus (GPa) = 32.16614 46.84125 39.50370
#
# Velocity S-wave (km/s) = 3.42219 4.12970 3.79248
# Velocity P-wave (km/s) = 5.44225 6.90168 6.21495
#
# Compressibility (1/GPa) = 0.02600099
#
# Stress axis : x y z
#
# Youngs Moduli (GPa) = 75.43236 153.31028 38.42571
#
# Poissons Ratio (x) = 0.33493 0.13253
# Poissons Ratio (y) = 0.16479 0.16399
# Poissons Ratio (z) = 0.26017 0.65430
#
# Static dielectric constant tensor:
#      x y z
#    x 2.267100 -0.040120 0.014290 
#    y -0.040120 2.179260 -0.027510 
#    z 0.014290 -0.027510 2.178800 
# 
# From -- ./inp_files/374947.got.cif
#   From: 2010.05.17/outbox.cif.g08.bks.cpg/sg2_188_cif.got.tgz:374947.got - 2010.06.03 11:33:40.
