data_PCOD9084922
_publ_section_title
;
Structure prediction by ZEFSAII (Michael W. Deem and Ramdas Pophale) SiO2 
 PCOD9084922
Probable space group: P -1
;
_chemical_formula_sum "Si O2"
_cell_formula_units_Z 16
_cell_length_a 19.901633
_cell_length_b 15.079428
_cell_length_c 14.388608
_cell_angle_alpha 48.333158
_cell_angle_beta 159.059845
_cell_angle_gamma 145.137701
_cell_volume 765.456442
_symmetry_space_group_name_H-M "P -1"
_symmetry_group_IT_number 2
_symmetry_cell_setting 'triclinic'
loop_
_space_group_symop_operation_xyz
x,y,z
-x,-y,-z
loop_
_atom_site_type_symbol
_atom_site_label
_atom_site_fract_x
_atom_site_fract_y
_atom_site_fract_z
Si Si1 0.401518 0.939090 0.562906
Si Si2 0.895428 0.421529 0.521672
Si Si3 0.709719 0.853393 0.286206
Si Si4 0.843747 0.534301 0.547737
Si Si5 0.628914 0.075051 0.959761
Si Si6 0.367975 0.125661 0.253863
Si Si7 0.108488 0.991754 0.405627
Si Si8 0.377253 0.330464 0.866897
O O1 0.136620 0.733147 0.396509
O O2 0.609082 0.044812 0.845112
O O3 0.546092 0.929232 0.676115
O O4 0.320394 0.027226 0.354035
O O5 0.016990 0.548598 0.678964
O O6 0.000000 0.500000 0.500000
O O7 0.584023 0.334536 0.179715
O O8 0.574100 0.684783 0.167901
O O9 0.758991 0.850777 0.459698
O O10 0.584804 0.926237 0.056443
O O11 0.000000 0.000000 0.500000
O O12 0.642052 0.340882 0.469446
O O13 0.615420 0.524752 0.224454
O O14 0.078721 0.721177 0.776987
O O15 0.362890 0.031341 0.671502
O O16 0.090719 0.057925 0.900219
O O17 0.913279 0.828917 0.340902
#
# Coordination Sequence:
#
# PCOD9084922 Si02
#       8
#     2   2   2   2   2   2   2   2
#     4  10  22  44  67  88 119 180 218 245 314 398
#     4  11  24  39  65  98 132 159 210 268 323 370
#     4  10  19  35  57  92 124 165 207 252 318 382
#     4  11  24  38  60 100 129 161 207 272 319 364
#     4  12  23  35  65  96 128 161 214 269 319 373
#     4  10  23  45  67  84 126 177 218 251 308 393
#     4  11  22  36  62  92 128 167 212 257 315 388
#     4  11  21  37  62  90 132 165 209 256 324 377
#
# _framework density 20.902560999999999
#
# number of rings (size 3 to 8) (size 9 to 14) (size 15 to 20)
#    0.000    1.250    6.250    1.500    3.500    1.000 
#    0.000    0.000    0.000    6.750    0.000    0.000 
#    0.000    0.000    0.000    0.000    0.000    0.000 
#
# Total GULP energy -89141.444318 kJ/mol
# GULP energy per Si atom -5571.340270 kJ/mol
# Density = 2.085499 g / cm^3
# Si number density = 20.902561 Si / 1000 Ang^3
#
#
#
# Elastic Constant Matrix: (Units=GPa)
#
#
# Indices 1 2 3 4 5 6 
#
# 1 54.7725 54.3232 7.9985 0.1298 -18.3729 -9.0950
# 2 54.3232 125.2153 42.1009 -18.3860 -13.1198 -2.0734
# 3 7.9985 42.1009 90.1956 -4.7916 -0.0427 3.6627
# 4 0.1298 -18.3860 -4.7916 22.3057 -0.3939 -3.4411
# 5 -18.3729 -13.1198 -0.0427 -0.3939 35.2585 1.0115
# 6 -9.0950 -2.0734 3.6627 -3.4411 1.0115 25.9756
#
#
#
# Elastic Compliance Matrix: (Units=1/GPa)
#
#
# Indices 1 2 3 4 5 6 
#
# 1 0.047165 -0.022684 0.005113 -0.015859 0.015642 0.011273
# 2 -0.022684 0.022362 -0.007439 0.016477 -0.003244 -0.002800
# 3 0.005113 -0.007439 0.013977 -0.003348 -0.000089 -0.001214
# 4 -0.015859 0.016477 -0.003348 0.058380 -0.001600 0.004031
# 5 0.015642 -0.003244 -0.000089 -0.001600 0.035183 0.003648
# 6 0.011273 -0.002800 -0.001214 0.004031 0.003648 0.042784
#
#
# Mechanical properties :
#
#
# Convention : Reuss Voigt Hill
#
# Bulk Modulus (GPa) = 29.86489 53.22540 41.54515
# Shear Modulus (GPa) = 17.79155 27.75869 22.77512
#
# Velocity S-wave (km/s) = 2.92064 3.64813 3.30447
# Velocity P-wave (km/s) = 5.06875 6.57754 5.87181
#
# Compressibility (1/GPa) = 0.03348413
#
# Stress axis : x y z
#
# Youngs Moduli (GPa) = 21.20211 44.71934 71.54493
#
# Poissons Ratio (x) = 1.01442 -0.36580
# Poissons Ratio (y) = 0.48095 0.53220
# Poissons Ratio (z) = -0.10840 0.33266
#
# Static dielectric constant tensor:
#      x y z
#    x 1.844870 -0.069640 -0.064860 
#    y -0.069640 1.828670 0.095320 
#    z -0.064860 0.095320 1.849390 
# 
# From -- ./inp_files/541516.got.cif
#   From: 2010.05.17/outbox.cif.g08.bks.cpg/sg2_271_cif.got.tgz:541516.got - 2010.06.03 11:33:40.
