data_PCOD9084867
_publ_section_title
;
Structure prediction by ZEFSAII (Michael W. Deem and Ramdas Pophale) SiO2 
 PCOD9084867
Probable space group: P -1
;
_chemical_formula_sum "Si O2"
_cell_formula_units_Z 16
_cell_length_a 11.407177
_cell_length_b 18.222794
_cell_length_c 9.509683
_cell_angle_alpha 62.508610
_cell_angle_beta 50.659270
_cell_angle_gamma 26.478781
_cell_volume 648.763706
_symmetry_space_group_name_H-M "P -1"
_symmetry_group_IT_number 2
_symmetry_cell_setting 'triclinic'
loop_
_space_group_symop_operation_xyz
x,y,z
-x,-y,-z
loop_
_atom_site_type_symbol
_atom_site_label
_atom_site_fract_x
_atom_site_fract_y
_atom_site_fract_z
Si Si1 0.168685 0.632477 0.971399
Si Si2 0.344736 0.891039 0.825118
Si Si3 0.818678 0.882406 0.431994
Si Si4 0.506224 0.201558 0.890544
Si Si5 0.569853 0.328569 0.141939
Si Si6 0.226100 0.505467 0.782508
Si Si7 0.548996 0.042646 0.796743
Si Si8 0.918836 0.410924 0.499708
O O1 0.218195 0.702752 0.917992
O O2 0.243760 0.578699 0.798636
O O3 0.390058 0.462681 0.036082
O O4 0.807281 0.780344 0.149110
O O5 0.283452 0.826967 0.881758
O O6 0.721252 0.729504 0.652878
O O7 0.150331 0.047029 0.736322
O O8 0.342298 0.899417 0.988731
O O9 0.072607 0.690089 0.375165
O O10 0.500000 0.000000 0.500000
O O11 0.765596 0.914386 0.612473
O O12 0.479881 0.313216 0.800401
O O13 0.649502 0.080590 0.759682
O O14 0.134343 0.353108 0.038811
O O15 0.298535 0.435633 0.365245
O O16 0.230999 0.514118 0.606053
O O17 0.500000 0.000000 0.000000
#
# Coordination Sequence:
#
# PCOD9084867 Si02
#       8
#     2   2   2   2   2   2   2   2
#     4  10  21  37  57  83 119 154 194 232 291 353
#     4  10  19  35  57  86 118 147 195 243 288 338
#     4  10  20  35  56  86 116 148 187 241 291 340
#     4   9  18  31  55  83 108 142 189 242 284 326
#     4  11  22  35  58  88 120 156 186 237 294 350
#     4   9  17  33  53  78 112 142 187 238 280 336
#     4  11  21  36  62  85 114 153 198 243 287 343
#     4  10  21  34  58  85 115 151 191 240 293 336
#
# _framework density 24.662295
#
# number of rings (size 3 to 8) (size 9 to 14) (size 15 to 20)
#    0.000    2.000    1.250    4.875    3.500    0.500 
#    0.000    0.000    2.750    8.250    0.000    0.000 
#    0.000    0.000    0.000    0.000    0.000    0.000 
#
# Total GULP energy -89561.744388 kJ/mol
# GULP energy per Si atom -5597.609024 kJ/mol
# Density = 2.460616 g / cm^3
# Si number density = 24.662295 Si / 1000 Ang^3
#
#
#
# Elastic Constant Matrix: (Units=GPa)
#
#
# Indices 1 2 3 4 5 6 
#
# 1 120.1942 37.1738 29.3743 -6.7049 12.0238 23.5448
# 2 37.1738 98.0727 20.3342 -19.0221 8.8170 25.6889
# 3 29.3743 20.3342 77.4911 -12.4374 15.8826 4.2359
# 4 -6.7049 -19.0221 -12.4374 33.3323 2.4838 -3.3146
# 5 12.0238 8.8170 15.8826 2.4838 37.8858 3.0187
# 6 23.5448 25.6889 4.2359 -3.3146 3.0187 42.4171
#
#
#
# Elastic Compliance Matrix: (Units=1/GPa)
#
#
# Indices 1 2 3 4 5 6 
#
# 1 0.010696 -0.002344 -0.003074 -0.000661 -0.001184 -0.004178
# 2 -0.002344 0.014609 -0.001016 0.006976 -0.002150 -0.006747
# 3 -0.003074 -0.001016 0.016400 0.005534 -0.006150 0.001554
# 4 -0.000661 0.006976 0.005534 0.036248 -0.006019 -0.001150
# 5 -0.001184 -0.002150 -0.006150 -0.006019 0.030248 -0.000050
# 6 -0.004178 -0.006747 0.001554 -0.001150 -0.000050 0.029739
#
#
# Mechanical properties :
#
#
# Convention : Reuss Voigt Hill
#
# Bulk Modulus (GPa) = 34.67770 52.16917 43.42343
# Shear Modulus (GPa) = 31.16767 36.65209 33.90988
#
# Velocity S-wave (km/s) = 3.55882 3.85926 3.71208
# Velocity P-wave (km/s) = 5.56583 6.40764 6.00151
#
# Compressibility (1/GPa) = 0.02883698
#
# Stress axis : x y z
#
# Youngs Moduli (GPa) = 93.49071 68.44943 60.97382
#
# Poissons Ratio (x) = 0.16046 0.18746
# Poissons Ratio (y) = 0.21916 0.06194
# Poissons Ratio (z) = 0.28743 0.06954
#
# Static dielectric constant tensor:
#      x y z
#    x 1.957440 -0.012460 -0.042600 
#    y -0.012460 1.960730 0.015030 
#    z -0.042600 0.015030 1.977870 
# 
# From -- ./inp_files/263328.got.cif
#   From: 2010.05.17/outbox.cif.g08.bks.cpg/sg2_132_cif.got.tgz:263328.got - 2010.06.03 11:33:40.
