data_PCOD9084210
_publ_section_title
;
Structure prediction by ZEFSAII (Michael W. Deem and Ramdas Pophale) SiO2 
 PCOD9084210
Probable space group: P -1
;
_chemical_formula_sum "Si O2"
_cell_formula_units_Z 16
_cell_length_a 12.656026
_cell_length_b 19.050047
_cell_length_c 8.623468
_cell_angle_alpha 54.119429
_cell_angle_beta 129.558244
_cell_angle_gamma 156.540940
_cell_volume 638.108169
_symmetry_space_group_name_H-M "P -1"
_symmetry_group_IT_number 2
_symmetry_cell_setting 'triclinic'
loop_
_space_group_symop_operation_xyz
x,y,z
-x,-y,-z
loop_
_atom_site_type_symbol
_atom_site_label
_atom_site_fract_x
_atom_site_fract_y
_atom_site_fract_z
Si Si1 0.194531 0.217708 0.583870
Si Si2 0.404769 0.996659 0.256638
Si Si3 0.708744 0.572779 0.800912
Si Si4 0.294535 0.079473 0.248384
Si Si5 0.771430 0.277876 0.657952
Si Si6 0.032757 0.619618 0.847143
Si Si7 0.416225 0.602580 0.828119
Si Si8 0.440590 0.677229 0.423416
O O1 0.422678 0.392332 0.676805
O O2 0.155911 0.265262 0.346260
O O3 0.328037 0.206515 0.643184
O O4 0.926068 0.051008 0.650803
O O5 0.217624 0.973292 0.173964
O O6 0.665881 0.183931 0.174519
O O7 0.500000 0.000000 0.500000
O O8 0.285297 0.856294 0.216281
O O9 0.916106 0.609846 0.894018
O O10 0.631611 0.514816 0.981700
O O11 0.587561 0.207542 0.429593
O O12 0.375695 0.222822 0.099811
O O13 0.651552 0.275910 0.681046
O O14 0.101281 0.468167 0.698091
O O15 0.823828 0.520618 0.635738
O O16 0.000000 0.500000 0.000000
O O17 0.525710 0.675318 0.662884
#
# Coordination Sequence:
#
# PCOD9084210 Si02
#       8
#     2   2   2   2   2   2   2   2
#     4  10  23  41  62  89 125 173 213 250 303 371
#     4  10  19  34  61  91 123 162 205 254 303 366
#     4  10  22  40  62  90 126 165 212 259 304 372
#     4  10  20  38  62  90 126 165 209 251 304 380
#     4  10  20  35  60  95 124 153 198 258 318 359
#     4  11  21  39  66  94 124 164 211 259 314 368
#     4  11  22  39  65  94 125 162 207 264 321 367
#     4  10  21  39  63  90 129 167 204 254 314 375
#
# _framework density 25.074117000000001
#
# number of rings (size 3 to 8) (size 9 to 14) (size 15 to 20)
#    0.000    1.750    0.000    6.750    0.000    5.000 
#    0.000    6.875    0.000    0.000    0.000    0.000 
#    0.000    0.000    0.000    0.000    0.000    0.000 
#
# Total GULP energy -89442.261229 kJ/mol
# GULP energy per Si atom -5590.141327 kJ/mol
# Density = 2.501705 g / cm^3
# Si number density = 25.074117 Si / 1000 Ang^3
#
#
#
# Elastic Constant Matrix: (Units=GPa)
#
#
# Indices 1 2 3 4 5 6 
#
# 1 145.2379 60.8895 13.6793 -16.2173 -10.6829 -1.9912
# 2 60.8895 133.5178 26.4268 -48.1304 1.4101 0.2591
# 3 13.6793 26.4268 73.4918 -16.8007 -2.3552 0.9597
# 4 -16.2173 -48.1304 -16.8007 34.2291 -4.8542 -4.1646
# 5 -10.6829 1.4101 -2.3552 -4.8542 27.3940 -0.8215
# 6 -1.9912 0.2591 0.9597 -4.1646 -0.8215 31.3247
#
#
#
# Elastic Compliance Matrix: (Units=1/GPa)
#
#
# Indices 1 2 3 4 5 6 
#
# 1 0.008955 -0.004857 -0.000328 -0.002225 0.003332 0.000411
# 2 -0.004857 0.018363 -0.000210 0.023962 0.001472 0.002770
# 3 -0.000328 -0.000210 0.015562 0.007626 0.002590 0.000586
# 4 -0.002225 0.023962 0.007626 0.068213 0.010905 0.008782
# 5 0.003332 0.001472 0.002590 0.010905 0.039961 0.002618
# 6 0.000411 0.002770 0.000586 0.008782 0.002618 0.033145
#
#
# Mechanical properties :
#
#
# Convention : Reuss Voigt Hill
#
# Bulk Modulus (GPa) = 31.16149 61.58207 46.37178
# Shear Modulus (GPa) = 24.30889 35.33969 29.82429
#
# Velocity S-wave (km/s) = 3.11703 3.75828 3.45258
# Velocity P-wave (km/s) = 5.04075 6.59138 5.86751
#
# Compressibility (1/GPa) = 0.03209089
#
# Stress axis : x y z
#
# Youngs Moduli (GPa) = 111.67485 54.45661 64.25784
#
# Poissons Ratio (x) = 0.26449 0.02105
# Poissons Ratio (y) = 0.54239 0.01351
# Poissons Ratio (z) = 0.03658 0.01145
#
# Static dielectric constant tensor:
#      x y z
#    x 2.063580 -0.034880 0.017030 
#    y -0.034880 1.936300 0.090720 
#    z 0.017030 0.090720 2.132890 
# 
# From -- ./inp_files/320059.got.cif
#   From: 2010.05.17/outbox.cif.g08.bks.cpg/sg2_161_cif.got.tgz:320059.got - 2010.06.03 11:33:40.
