data_PCOD9084704
_publ_section_title
;
Structure prediction by ZEFSAII (Michael W. Deem and Ramdas Pophale) SiO2 
 PCOD9084704
Probable space group: P -1
;
_chemical_formula_sum "Si O2"
_cell_formula_units_Z 14
_cell_length_a 7.508896
_cell_length_b 11.244835
_cell_length_c 11.575008
_cell_angle_alpha 94.343592
_cell_angle_beta 36.899094
_cell_angle_gamma 91.039801
_cell_volume 583.652760
_symmetry_space_group_name_H-M "P -1"
_symmetry_group_IT_number 2
_symmetry_cell_setting 'triclinic'
loop_
_space_group_symop_operation_xyz
x,y,z
-x,-y,-z
loop_
_atom_site_type_symbol
_atom_site_label
_atom_site_fract_x
_atom_site_fract_y
_atom_site_fract_z
Si Si1 0.787448 0.057641 0.907941
Si Si2 0.837847 0.107285 0.441218
Si Si3 0.979734 0.511942 0.147159
Si Si4 0.588544 0.900822 0.684861
Si Si5 0.654422 0.483611 0.760040
Si Si6 0.816981 0.379292 0.436809
Si Si7 0.058002 0.276550 0.661856
O O1 0.867546 0.170579 0.798830
O O2 0.700261 0.096720 0.085106
O O3 0.052324 0.957372 0.738991
O O4 0.500000 0.000000 0.000000
O O5 0.122901 0.104807 0.379474
O O6 0.744549 0.244256 0.480335
O O7 0.606707 0.024784 0.615188
O O8 0.818633 0.421414 0.306638
O O9 0.866161 0.641492 0.263614
O O10 0.335148 0.495009 0.984755
O O11 0.000000 0.500000 0.000000
O O12 0.663953 0.788813 0.553659
O O13 0.844382 0.596998 0.695792
O O14 0.855386 0.367123 0.692718
O O15 0.632764 0.463327 0.631050
#
# Coordination Sequence:
#
# PCOD9084704 Si02
#       7
#     2   2   2   2   2   2   2
#     4   9  19  26  52  86 120 142 162 221 292 332
#     4   9  17  29  48  87 119 135 171 220 286 334
#     4  11  26  40  54  80 113 155 194 227 277 336
#     4   9  17  29  48  84 121 137 167 223 282 336
#     4  10  22  35  59  85 108 143 189 240 284 326
#     4  10  20  36  61  85 112 143 185 240 283 326
#     4  10  19  35  56  84 113 139 186 233 274 328
#
# _framework density 23.986865000000002
#
# number of rings (size 3 to 8) (size 9 to 14) (size 15 to 20)
#    0.000    2.286    1.429    2.571    8.000    0.571 
#    0.000    0.000    0.000    3.429    0.000    6.000 
#    0.000    0.000    0.000    0.000    0.000    0.000 
#
# Total GULP energy -78272.071413 kJ/mol
# GULP energy per Si atom -5590.862244 kJ/mol
# Density = 2.393227 g / cm^3
# Si number density = 23.986865 Si / 1000 Ang^3
#
#
#
# Elastic Constant Matrix: (Units=GPa)
#
#
# Indices 1 2 3 4 5 6 
#
# 1 81.3919 36.1000 31.2187 6.4468 28.8960 -2.0009
# 2 36.1000 139.2943 50.5989 10.4287 13.2985 -5.2306
# 3 31.2187 50.5989 174.1516 4.6054 36.2614 -8.4882
# 4 6.4468 10.4287 4.6054 25.4272 6.8590 8.3262
# 5 28.8960 13.2985 36.2614 6.8590 45.6938 4.7140
# 6 -2.0009 -5.2306 -8.4882 8.3262 4.7140 15.3943
#
#
#
# Elastic Compliance Matrix: (Units=1/GPa)
#
#
# Indices 1 2 3 4 5 6 
#
# 1 0.017793 -0.003325 0.000388 -0.002227 -0.010870 0.005930
# 2 -0.003325 0.009075 -0.002062 -0.003927 0.001355 0.003224
# 3 0.000388 -0.002062 0.007944 -0.000997 -0.006443 0.006243
# 4 -0.002227 -0.003927 -0.000997 0.051800 -0.001361 -0.029774
# 5 -0.010870 0.001355 -0.006443 -0.001361 0.035182 -0.014543
# 6 0.005930 0.003224 0.006243 -0.029774 -0.014543 0.090823
#
#
# Mechanical properties :
#
#
# Convention : Reuss Voigt Hill
#
# Bulk Modulus (GPa) = 40.29947 70.07479 55.18713
# Shear Modulus (GPa) = 21.65543 35.76443 28.70993
#
# Velocity S-wave (km/s) = 3.00793 3.86554 3.46338
# Velocity P-wave (km/s) = 5.37593 7.01430 6.24904
#
# Compressibility (1/GPa) = 0.02481422
#
# Stress axis : x y z
#
# Youngs Moduli (GPa) = 56.20030 110.18722 125.88140
#
# Poissons Ratio (x) = 0.36638 -0.04878
# Poissons Ratio (y) = 0.18687 0.25955
# Poissons Ratio (z) = -0.02178 0.22719
#
# Static dielectric constant tensor:
#      x y z
#    x 2.085120 -0.009470 0.010470 
#    y -0.009470 1.853130 0.014990 
#    z 0.010470 0.014990 1.901000 
# 
# From -- ./inp_files/387485.got.cif
#   From: 2010.05.17/outbox.cif.g08.bks.cpg/sg2_194_cif.got.tgz:387485.got - 2010.06.03 11:33:40.
