data_PCOD9084001
_publ_section_title
;
Structure prediction by ZEFSAII (Michael W. Deem and Ramdas Pophale) SiO2 
 PCOD9084001
Probable space group: P -1
;
_chemical_formula_sum "Si O2"
_cell_formula_units_Z 16
_cell_length_a 7.720215
_cell_length_b 14.679486
_cell_length_c 8.412901
_cell_angle_alpha 99.572284
_cell_angle_beta 123.918551
_cell_angle_gamma 60.591364
_cell_volume 681.535721
_symmetry_space_group_name_H-M "P -1"
_symmetry_group_IT_number 2
_symmetry_cell_setting 'triclinic'
loop_
_space_group_symop_operation_xyz
x,y,z
-x,-y,-z
loop_
_atom_site_type_symbol
_atom_site_label
_atom_site_fract_x
_atom_site_fract_y
_atom_site_fract_z
Si Si1 0.712985 0.978118 0.721595
Si Si2 0.359645 0.244101 0.213493
Si Si3 0.232280 0.840750 0.350213
Si Si4 0.415911 0.617839 0.788232
Si Si5 0.832313 0.228016 0.039494
Si Si6 0.493666 0.865639 0.063422
Si Si7 0.891652 0.420210 0.927043
Si Si8 0.004282 0.725202 0.368077
O O1 0.892871 0.854422 0.801658
O O2 0.500000 0.000000 0.500000
O O3 0.831062 0.045421 0.722590
O O4 0.609361 0.028054 0.856205
O O5 0.518995 0.200477 0.439757
O O6 0.459031 0.318239 0.206394
O O7 0.414621 0.156236 0.078268
O O8 0.074484 0.323316 0.105579
O O9 0.061316 0.820299 0.376911
O O10 0.230006 0.774068 0.177265
O O11 0.324904 0.658667 0.928913
O O12 0.613035 0.496286 0.839521
O O13 0.171063 0.659664 0.578059
O O14 0.712926 0.164305 0.044409
O O15 0.721223 0.781341 0.257534
O O16 0.926006 0.359979 0.761433
O O17 0.000000 0.500000 0.000000
#
# Coordination Sequence:
#
# PCOD9084001 Si02
#       8
#     2   2   2   2   2   2   2   2
#     4  11  23  40  59  81 112 156 193 227 285 348
#     4   8  17  33  55  83 113 144 187 236 281 324
#     4  10  21  38  58  84 120 147 183 245 286 325
#     4   9  17  33  56  81 112 152 191 226 271 340
#     4  10  21  40  58  80 114 155 192 228 280 347
#     4   9  18  36  57  80 111 148 189 227 274 344
#     4   9  17  32  57  86 115 149 187 229 279 339
#     4  10  19  34  59  89 114 145 189 238 284 327
#
# _framework density 23.476393000000002
#
# number of rings (size 3 to 8) (size 9 to 14) (size 15 to 20)
#    0.000    2.500    0.000    3.375    0.000    2.000 
#    0.000   20.000    0.000    3.000    0.000    0.000 
#    0.000    0.000    0.000    0.000    0.000    0.000 
#
# Total GULP energy -89272.734853 kJ/mol
# GULP energy per Si atom -5579.545928 kJ/mol
# Density = 2.342296 g / cm^3
# Si number density = 23.476393 Si / 1000 Ang^3
#
#
#
# Elastic Constant Matrix: (Units=GPa)
#
#
# Indices 1 2 3 4 5 6 
#
# 1 26.2678 18.2974 -2.5427 -14.2583 -8.5411 -0.9278
# 2 18.2974 80.6623 6.2683 -28.9006 -10.4187 8.8880
# 3 -2.5427 6.2683 96.8697 -26.2035 0.5822 -1.3781
# 4 -14.2583 -28.9006 -26.2035 37.0551 2.9094 8.3616
# 5 -8.5411 -10.4187 0.5822 2.9094 25.8705 -12.2454
# 6 -0.9278 8.8880 -1.3781 8.3616 -12.2454 40.7586
#
#
#
# Elastic Compliance Matrix: (Units=1/GPa)
#
#
# Indices 1 2 3 4 5 6 
#
# 1 0.060113 -0.003725 0.008311 0.024240 0.016606 0.002478
# 2 -0.003725 0.020845 0.003601 0.019112 0.001101 -0.008098
# 3 0.008311 0.003601 0.014957 0.017379 0.000202 -0.003595
# 4 0.024240 0.019112 0.017379 0.067351 -0.000279 -0.016929
# 5 0.016606 0.001101 0.000202 -0.000279 0.052113 0.015859
# 6 0.002478 -0.008098 -0.003595 -0.016929 0.015859 0.034473
#
#
# Mechanical properties :
#
#
# Convention : Reuss Voigt Hill
#
# Bulk Modulus (GPa) = 8.90554 27.53845 18.22199
# Shear Modulus (GPa) = 18.45645 32.85529 25.65587
#
# Velocity S-wave (km/s) = 2.80692 3.74505 3.30940
# Velocity P-wave (km/s) = 3.78242 5.51872 4.73091
#
# Compressibility (1/GPa) = 0.11228964
#
# Stress axis : x y z
#
# Youngs Moduli (GPa) = 16.63525 47.97389 66.85832
#
# Poissons Ratio (x) = 0.17871 -0.55568
# Poissons Ratio (y) = 0.06197 -0.24078
# Poissons Ratio (z) = -0.13826 -0.17277
#
# Static dielectric constant tensor:
#      x y z
#    x 2.010420 0.049270 0.036390 
#    y 0.049270 1.873850 0.014330 
#    z 0.036390 0.014330 1.869530 
# 
# From -- ./inp_files/218108.got.cif
#   From: 2010.05.17/outbox.cif.g08.bks.cpg/sg2_110_cif.got.tgz:218108.got - 2010.06.03 11:33:40.
