data_PCOD9084588
_publ_section_title
;
Structure prediction by ZEFSAII (Michael W. Deem and Ramdas Pophale) SiO2 
 PCOD9084588
Probable space group: P -1
;
_chemical_formula_sum "Si O2"
_cell_formula_units_Z 16
_cell_length_a 9.559608
_cell_length_b 8.460902
_cell_length_c 24.566239
_cell_angle_alpha 56.258684
_cell_angle_beta 149.525636
_cell_angle_gamma 120.921857
_cell_volume 835.045905
_symmetry_space_group_name_H-M "P -1"
_symmetry_group_IT_number 2
_symmetry_cell_setting 'triclinic'
loop_
_space_group_symop_operation_xyz
x,y,z
-x,-y,-z
loop_
_atom_site_type_symbol
_atom_site_label
_atom_site_fract_x
_atom_site_fract_y
_atom_site_fract_z
Si Si1 0.990985 0.713582 0.438450
Si Si2 0.388487 0.938042 0.916376
Si Si3 0.033851 0.125941 0.933693
Si Si4 0.082758 0.904960 0.328200
Si Si5 0.027729 0.761270 0.688200
Si Si6 0.819443 0.455719 0.116303
Si Si7 0.555397 0.961641 0.286303
Si Si8 0.347277 0.060224 0.549559
O O1 0.082190 0.731687 0.402895
O O2 0.689063 0.790586 0.331597
O O3 0.000000 0.500000 0.500000
O O4 0.191021 0.864042 0.511575
O O5 0.189426 0.740733 0.883323
O O6 0.203841 0.095025 0.799832
O O7 0.662702 0.907859 0.979985
O O8 0.500000 0.000000 0.000000
O O9 0.021784 0.354536 0.890992
O O10 0.774453 0.055540 0.822509
O O11 0.000000 0.000000 0.000000
O O12 0.342623 0.922680 0.372667
O O13 0.080658 0.084490 0.334909
O O14 0.082342 0.588460 0.780248
O O15 0.810271 0.768453 0.564148
O O16 0.310853 0.852999 0.737358
O O17 0.500000 0.500000 0.000000
O O18 0.654876 0.949392 0.384244
#
# Coordination Sequence:
#
# PCOD9084588 Si02
#       8
#     2   2   2   2   2   2   2   2
#     4  10  20  35  53  77 107 141 177 215 262 326
#     4  10  20  37  56  79 108 138 177 228 271 313
#     4  11  21  37  58  80 107 143 183 223 268 325
#     4   9  18  34  54  75 104 145 177 209 266 327
#     4   9  17  34  56  76 105 144 179 214 262 328
#     4   9  19  35  56  78 103 144 184 215 263 326
#     4  10  20  35  55  80 108 140 177 225 270 311
#     4  10  19  35  55  79 107 141 178 221 269 314
#
# _framework density 19.160623000000001
#
# number of rings (size 3 to 8) (size 9 to 14) (size 15 to 20)
#    0.000    2.500    0.000    6.750    0.000    3.000 
#    0.000   10.625    0.000    0.000    0.000    0.000 
#    0.000    0.000    0.000    0.000    0.000    0.000 
#
# Total GULP energy -89100.984137 kJ/mol
# GULP energy per Si atom -5568.811509 kJ/mol
# Density = 1.911701 g / cm^3
# Si number density = 19.160623 Si / 1000 Ang^3
#
#
#
# Elastic Constant Matrix: (Units=GPa)
#
#
# Indices 1 2 3 4 5 6 
#
# 1 91.6777 41.6168 25.3364 -0.1665 -11.7725 22.0172
# 2 41.6168 72.8833 37.3915 -13.8188 -16.9745 28.7875
# 3 25.3364 37.3915 103.6120 3.1921 -12.2274 13.6874
# 4 -0.1665 -13.8188 3.1921 25.8667 7.8379 -8.8905
# 5 -11.7725 -16.9745 -12.2274 7.8379 43.8075 0.5925
# 6 22.0172 28.7875 13.6874 -8.8905 0.5925 18.4922
#
#
#
# Elastic Compliance Matrix: (Units=1/GPa)
#
#
# Indices 1 2 3 4 5 6 
#
# 1 0.018599 -0.000355 0.000546 -0.012062 0.007550 -0.028037
# 2 -0.000355 0.051981 -0.005611 -0.005036 0.020455 -0.079421
# 3 0.000546 -0.005611 0.012741 -0.007102 0.002865 -0.004852
# 4 -0.012062 -0.005036 -0.007102 0.062558 -0.019154 0.058146
# 5 0.007550 0.020455 0.002865 -0.019154 0.037731 -0.053371
# 6 -0.028037 -0.079421 -0.004852 0.058146 -0.053371 0.244353
#
#
# Mechanical properties :
#
#
# Convention : Reuss Voigt Hill
#
# Bulk Modulus (GPa) = 13.79665 52.98474 33.39069
# Shear Modulus (GPa) = 10.80004 28.55516 19.67760
#
# Velocity S-wave (km/s) = 2.37672 3.86463 3.20813
# Velocity P-wave (km/s) = 3.84030 6.90122 5.58456
#
# Compressibility (1/GPa) = 0.07248138
#
# Stress axis : x y z
#
# Youngs Moduli (GPa) = 53.76692 19.23782 78.48898
#
# Poissons Ratio (x) = 0.00682 -0.04289
# Poissons Ratio (y) = 0.01906 0.44043
# Poissons Ratio (z) = -0.02938 0.10795
#
# Static dielectric constant tensor:
#      x y z
#    x 1.663540 0.010260 -0.004110 
#    y 0.010260 1.713180 -0.010660 
#    z -0.004110 -0.010660 1.725110 
# 
# From -- ./inp_files/307611.got.cif
#   From: 2010.05.17/outbox.cif.g08.bks.cpg/sg2_154_cif.got.tgz:307611.got - 2010.06.03 11:33:40.
