data_PCOD9084408
_publ_section_title
;
Structure prediction by ZEFSAII (Michael W. Deem and Ramdas Pophale) SiO2 
 PCOD9084408
Probable space group: P -1
;
_chemical_formula_sum "Si O2"
_cell_formula_units_Z 12
_cell_length_a 15.090360
_cell_length_b 16.391630
_cell_length_c 11.243674
_cell_angle_alpha 145.089395
_cell_angle_beta 28.576395
_cell_angle_gamma 153.138190
_cell_volume 592.401947
_symmetry_space_group_name_H-M "P -1"
_symmetry_group_IT_number 2
_symmetry_cell_setting 'triclinic'
loop_
_space_group_symop_operation_xyz
x,y,z
-x,-y,-z
loop_
_atom_site_type_symbol
_atom_site_label
_atom_site_fract_x
_atom_site_fract_y
_atom_site_fract_z
Si Si1 0.047937 0.243212 0.925080
Si Si2 0.723981 0.909045 0.441280
Si Si3 0.519282 0.995206 0.331179
Si Si4 0.056823 0.220282 0.617120
Si Si5 0.652983 0.223223 0.094831
Si Si6 0.444215 0.659715 0.893372
O O1 0.150716 0.182954 0.829780
O O2 0.036683 0.162353 0.710091
O O3 0.229587 0.459802 0.952836
O O4 0.784229 0.161573 0.172964
O O5 0.472113 0.761454 0.628627
O O6 0.665098 0.988039 0.498272
O O7 0.901344 0.071341 0.519516
O O8 0.500000 0.000000 0.500000
O O9 0.488284 0.815535 0.113549
O O10 0.325937 0.328648 0.387589
O O11 0.926391 0.310140 0.887808
O O12 0.608925 0.291771 0.111736
O O13 0.500000 0.000000 0.000000
#
# Coordination Sequence:
#
# PCOD9084408 Si02
#       6
#     2   2   2   2   2   2
#     4  12  25  40  69 102 135 164 212 272 331 392
#     4  11  21  41  66  97 132 174 214 260 328 391
#     4  12  27  49  67  85 129 186 228 270 311 371
#     4  11  20  37  67  99 138 160 196 267 338 397
#     4  10  19  34  64  97 135 166 201 251 333 392
#     4  12  24  41  66 104 132 169 213 265 330 396
#
# _framework density 20.256516999999999
#
# number of rings (size 3 to 8) (size 9 to 14) (size 15 to 20)
#    0.000    0.667    8.333    2.000    0.000    3.333 
#    0.000    0.833    0.000    0.000    0.000    0.000 
#    0.000    0.000    0.000    0.000    0.000    0.000 
#
# Total GULP energy -66984.662661 kJ/mol
# GULP energy per Si atom -5582.055222 kJ/mol
# Density = 2.021041 g / cm^3
# Si number density = 20.256517 Si / 1000 Ang^3
#
#
#
# Elastic Constant Matrix: (Units=GPa)
#
#
# Indices 1 2 3 4 5 6 
#
# 1 117.3049 51.8670 51.0343 -7.7056 -8.1928 0.7518
# 2 51.8670 102.1098 41.3720 -20.9339 -12.8224 -1.3560
# 3 51.0343 41.3720 56.3794 -10.4522 -18.6742 10.1057
# 4 -7.7056 -20.9339 -10.4522 15.2466 -5.5023 -6.4386
# 5 -8.1928 -12.8224 -18.6742 -5.5023 45.6494 -2.8957
# 6 0.7518 -1.3560 10.1057 -6.4386 -2.8957 13.3355
#
#
#
# Elastic Compliance Matrix: (Units=1/GPa)
#
#
# Indices 1 2 3 4 5 6 
#
# 1 0.016414 -0.003814 -0.016308 -0.007342 -0.005279 0.006354
# 2 -0.003814 0.028189 -0.011321 0.048811 0.010870 0.037587
# 3 -0.016308 -0.011321 0.051761 0.001104 0.012910 -0.036120
# 4 -0.007342 0.048811 0.001104 0.189334 0.042335 0.105147
# 5 -0.005279 0.010870 0.012910 0.042335 0.035652 0.019802
# 6 0.006354 0.037587 -0.036120 0.105147 0.019802 0.160890
#
#
# Mechanical properties :
#
#
# Convention : Reuss Voigt Hill
#
# Bulk Modulus (GPa) = 29.86950 62.70453 46.28702
# Shear Modulus (GPa) = 8.98820 23.61436 16.30128
#
# Velocity S-wave (km/s) = 2.10875 3.41804 2.83988
# Velocity P-wave (km/s) = 4.55047 6.82640 5.80114
#
# Compressibility (1/GPa) = 0.03347896
#
# Stress axis : x y z
#
# Youngs Moduli (GPa) = 60.92243 35.47540 19.31956
#
# Poissons Ratio (x) = 0.13530 0.31506
# Poissons Ratio (y) = 0.23236 0.21871
# Poissons Ratio (z) = 0.99351 0.40160
#
# Static dielectric constant tensor:
#      x y z
#    x 1.725000 0.023530 -0.031410 
#    y 0.023530 1.779260 0.037090 
#    z -0.031410 0.037090 1.762230 
# 
# From -- ./inp_files/454053.got.cif
#   From: 2010.05.17/outbox.cif.g08.bks.cpg/sg2_228_cif.got.tgz:454053.got - 2010.06.03 11:33:40.
