data_PCOD9084070
_publ_section_title
;
Structure prediction by ZEFSAII (Michael W. Deem and Ramdas Pophale) SiO2 
 PCOD9084070
Probable space group: P -1
;
_chemical_formula_sum "Si O2"
_cell_formula_units_Z 14
_cell_length_a 9.176274
_cell_length_b 12.211823
_cell_length_c 8.686753
_cell_angle_alpha 42.896286
_cell_angle_beta 115.470788
_cell_angle_gamma 102.314689
_cell_volume 589.926913
_symmetry_space_group_name_H-M "P -1"
_symmetry_group_IT_number 2
_symmetry_cell_setting 'triclinic'
loop_
_space_group_symop_operation_xyz
x,y,z
-x,-y,-z
loop_
_atom_site_type_symbol
_atom_site_label
_atom_site_fract_x
_atom_site_fract_y
_atom_site_fract_z
Si Si1 0.135326 0.265553 0.777090
Si Si2 0.599657 0.618008 0.332504
Si Si3 0.879404 0.204760 0.966378
Si Si4 0.000542 0.835750 0.496765
Si Si5 0.402349 0.950875 0.158083
Si Si6 0.707584 0.359016 0.013009
Si Si7 0.695520 0.724017 0.600802
O O1 0.230573 0.418856 0.645755
O O2 0.030961 0.239998 0.605136
O O3 0.021851 0.257983 0.877409
O O4 0.282810 0.108570 0.005947
O O5 0.500000 0.500000 0.500000
O O6 0.464167 0.687087 0.071997
O O7 0.658887 0.703614 0.422597
O O8 0.948252 0.029426 0.255210
O O9 0.722541 0.168585 0.832775
O O10 0.815000 0.337100 0.928128
O O11 0.872543 0.777479 0.620548
O O12 0.186074 0.767757 0.695807
O O13 0.540893 0.861942 0.428587
O O14 0.500000 0.000000 0.000000
O O15 0.691669 0.548889 0.856665
#
# Coordination Sequence:
#
# PCOD9084070 Si02
#       7
#     2   2   2   2   2   2   2
#     4  10  21  37  62  86 114 152 197 236 290 342
#     4   9  18  35  58  82 110 150 197 227 276 348
#     4  11  21  36  60  89 118 149 190 248 292 334
#     4  10  20  36  58  88 113 153 195 239 280 345
#     4  11  16  33  63  83 106 149 209 231 260 347
#     4  11  21  35  61  87 117 146 195 246 285 336
#     4  10  19  34  60  86 107 151 202 231 273 340
#
# _framework density 23.731756000000001
#
# number of rings (size 3 to 8) (size 9 to 14) (size 15 to 20)
#    0.000    1.714    5.714    2.571    0.000    0.000 
#    0.000    7.143    6.286    3.429    0.000    3.000 
#    0.000    0.000    0.000    0.000    0.000    0.000 
#
# Total GULP energy -78091.647303 kJ/mol
# GULP energy per Si atom -5577.974807 kJ/mol
# Density = 2.367774 g / cm^3
# Si number density = 23.731756 Si / 1000 Ang^3
#
#
#
# Elastic Constant Matrix: (Units=GPa)
#
#
# Indices 1 2 3 4 5 6 
#
# 1 125.9831 23.0449 23.6968 0.9228 -7.0069 19.7565
# 2 23.0449 32.4709 12.1583 -2.0041 3.3450 12.8184
# 3 23.6968 12.1583 80.2304 -9.7014 39.4820 9.8805
# 4 0.9228 -2.0041 -9.7014 25.0002 5.4883 10.0866
# 5 -7.0069 3.3450 39.4820 5.4883 42.0050 1.4656
# 6 19.7565 12.8184 9.8805 10.0866 1.4656 34.4891
#
#
#
# Elastic Compliance Matrix: (Units=1/GPa)
#
#
# Indices 1 2 3 4 5 6 
#
# 1 0.011585 -0.006444 -0.009272 -0.007202 0.012102 0.000007
# 2 -0.006444 0.042412 0.003777 0.013922 -0.009234 -0.016832
# 3 -0.009272 0.003777 0.044431 0.035241 -0.047618 -0.017104
# 4 -0.007202 0.013922 0.035241 0.077726 -0.044474 -0.031986
# 5 0.012102 -0.009234 -0.047618 -0.044474 0.076435 0.019900
# 6 0.000007 -0.016832 -0.017104 -0.031986 0.019900 0.048656
#
#
# Mechanical properties :
#
#
# Convention : Reuss Voigt Hill
#
# Bulk Modulus (GPa) = 13.41422 39.60939 26.51180
# Shear Modulus (GPa) = 14.28679 32.28448 23.28563
#
# Velocity S-wave (km/s) = 2.45625 3.69235 3.13581
# Velocity P-wave (km/s) = 3.70256 5.90801 4.93019
#
# Compressibility (1/GPa) = 0.07454778
#
# Stress axis : x y z
#
# Youngs Moduli (GPa) = 86.31720 23.57846 22.50668
#
# Poissons Ratio (x) = 0.15194 0.20869
# Poissons Ratio (y) = 0.55624 -0.08500
# Poissons Ratio (z) = 0.80037 -0.08904
#
# Static dielectric constant tensor:
#      x y z
#    x 1.969910 0.012640 0.008500 
#    y 0.012640 1.973560 -0.081470 
#    z 0.008500 -0.081470 2.019970 
# 
# From -- ./inp_files/205374.got.cif
#   From: 2010.05.17/outbox.cif.g08.bks.cpg/sg2_103_cif.got.tgz:205374.got - 2010.06.03 11:33:40.
