data_PCOD9084037
_publ_section_title
;
Structure prediction by ZEFSAII (Michael W. Deem and Ramdas Pophale) SiO2 
 PCOD9084037
Probable space group: P -1
;
_chemical_formula_sum "Si O2"
_cell_formula_units_Z 16
_cell_length_a 11.217615
_cell_length_b 17.018139
_cell_length_c 10.337867
_cell_angle_alpha 151.338224
_cell_angle_beta 97.811786
_cell_angle_gamma 69.731629
_cell_volume 823.707261
_symmetry_space_group_name_H-M "P -1"
_symmetry_group_IT_number 2
_symmetry_cell_setting 'triclinic'
loop_
_space_group_symop_operation_xyz
x,y,z
-x,-y,-z
loop_
_atom_site_type_symbol
_atom_site_label
_atom_site_fract_x
_atom_site_fract_y
_atom_site_fract_z
Si Si1 0.265300 0.943430 0.617395
Si Si2 0.448440 0.346498 0.767039
Si Si3 0.366108 0.188652 0.293845
Si Si4 0.001904 0.194314 0.810506
Si Si5 0.163501 0.636087 0.208480
Si Si6 0.194904 0.023200 0.016919
Si Si7 0.122758 0.718647 0.616232
Si Si8 0.861897 0.484129 0.432439
O O1 0.419843 0.843399 0.443509
O O2 0.214982 0.786172 0.393196
O O3 0.157897 0.117023 0.768870
O O4 0.255616 0.999088 0.846764
O O5 0.416397 0.303056 0.556334
O O6 0.500000 0.500000 0.000000
O O7 0.300441 0.437704 0.943489
O O8 0.263276 0.334996 0.386178
O O9 0.268516 0.116238 0.243565
O O10 0.500000 0.000000 0.000000
O O11 0.947107 0.325749 0.865533
O O12 0.000000 0.000000 0.500000
O O13 0.906902 0.314019 0.089599
O O14 0.108938 0.676247 0.403822
O O15 0.209671 0.829581 0.789942
O O16 0.032012 0.151380 0.169497
O O17 0.182506 0.555694 0.492984
O O18 0.000000 0.500000 0.500000
#
# Coordination Sequence:
#
# PCOD9084037 Si02
#       8
#     2   2   2   2   2   2   2   2
#     4   9  16  32  58  86 122 161 211 255 305 372
#     4  10  20  36  60  90 124 169 215 258 312 381
#     4  12  23  39  66  97 127 165 225 268 313 381
#     4  10  19  34  59  94 122 157 218 264 306 378
#     4   9  19  34  58  89 122 163 209 254 321 372
#     4  10  19  36  60  95 125 171 205 262 327 379
#     4  10  21  38  66  91 136 168 207 266 334 388
#     4  12  23  41  65 100 127 167 223 269 314 387
#
# _framework density 19.424375999999999
#
# number of rings (size 3 to 8) (size 9 to 14) (size 15 to 20)
#    0.000    1.750    5.000    0.000    1.750    0.000 
#    0.000    3.125    2.750    0.750    0.000    0.000 
#    0.000    0.000    0.000    0.000    0.000    0.000 
#
# Total GULP energy -89074.416243 kJ/mol
# GULP energy per Si atom -5567.151015 kJ/mol
# Density = 1.938017 g / cm^3
# Si number density = 19.424376 Si / 1000 Ang^3
#
#
#
# Elastic Constant Matrix: (Units=GPa)
#
#
# Indices 1 2 3 4 5 6 
#
# 1 68.8190 49.3193 27.9294 8.8292 7.1380 -18.4857
# 2 49.3193 109.6563 31.7528 2.0248 -8.3535 -15.1278
# 3 27.9294 31.7528 78.5543 4.2319 -5.4669 -5.6332
# 4 8.8292 2.0248 4.2319 21.5963 -13.1534 -8.3148
# 5 7.1380 -8.3535 -5.4669 -13.1534 33.5325 5.7630
# 6 -18.4857 -15.1278 -5.6332 -8.3148 5.7630 25.3644
#
#
#
# Elastic Compliance Matrix: (Units=1/GPa)
#
#
# Indices 1 2 3 4 5 6 
#
# 1 0.035866 -0.013432 -0.006724 -0.019941 -0.022514 0.015213
# 2 -0.013432 0.016371 -0.001628 0.011257 0.010948 0.000816
# 3 -0.006724 -0.001628 0.015814 0.001549 0.004714 -0.002923
# 4 -0.019941 0.011257 0.001549 0.079369 0.036680 0.010209
# 5 -0.022514 0.010948 0.004714 0.036680 0.054060 -0.009091
# 6 0.015213 0.000816 -0.002923 0.010209 -0.009091 0.055762
#
#
# Mechanical properties :
#
#
# Convention : Reuss Voigt Hill
#
# Bulk Modulus (GPa) = 40.84527 52.78140 46.81333
# Shear Modulus (GPa) = 16.18279 25.96718 21.07498
#
# Velocity S-wave (km/s) = 2.88951 3.66024 3.29747
# Velocity P-wave (km/s) = 5.67502 6.71527 6.21694
#
# Compressibility (1/GPa) = 0.02448264
#
# Stress axis : x y z
#
# Youngs Moduli (GPa) = 27.88156 61.08479 63.23646
#
# Poissons Ratio (x) = 0.82051 0.42520
# Poissons Ratio (y) = 0.37451 0.10292
# Poissons Ratio (z) = 0.18748 0.09942
#
# Static dielectric constant tensor:
#      x y z
#    x 1.718530 -0.044470 0.038240 
#    y -0.044470 1.692890 0.012150 
#    z 0.038240 0.012150 1.785610 
# 
# From -- ./inp_files/274666.got.cif
#   From: 2010.05.17/outbox.cif.g08.bks.cpg/sg2_138_cif.got.tgz:274666.got - 2010.06.03 11:33:40.
