data_PCOD9084863
_publ_section_title
;
Structure prediction by ZEFSAII (Michael W. Deem and Ramdas Pophale) SiO2 
 PCOD9084863
Probable space group: P -1
;
_chemical_formula_sum "Si O2"
_cell_formula_units_Z 16
_cell_length_a 8.322103
_cell_length_b 8.918636
_cell_length_c 12.891190
_cell_angle_alpha 80.463078
_cell_angle_beta 126.098272
_cell_angle_gamma 106.693202
_cell_volume 740.518508
_symmetry_space_group_name_H-M "P -1"
_symmetry_group_IT_number 2
_symmetry_cell_setting 'triclinic'
loop_
_space_group_symop_operation_xyz
x,y,z
-x,-y,-z
loop_
_atom_site_type_symbol
_atom_site_label
_atom_site_fract_x
_atom_site_fract_y
_atom_site_fract_z
Si Si1 0.894116 0.361808 0.053556
Si Si2 0.118582 0.260647 0.316317
Si Si3 0.214466 0.443965 0.817948
Si Si4 0.536360 0.802471 0.040825
Si Si5 0.690278 0.057408 0.226227
Si Si6 0.760563 0.374325 0.619472
Si Si7 0.628078 0.808457 0.406543
Si Si8 0.238845 0.495209 0.597551
O O1 0.829203 0.449766 0.118609
O O2 0.055475 0.266854 0.170574
O O3 0.671590 0.246278 0.961103
O O4 0.000000 0.500000 0.000000
O O5 0.208034 0.443272 0.356852
O O6 0.263574 0.168830 0.441696
O O7 0.900555 0.187770 0.296137
O O8 0.363556 0.340426 0.921822
O O9 0.304817 0.529471 0.736573
O O10 0.986540 0.343955 0.710999
O O11 0.697591 0.929351 0.153923
O O12 0.478439 0.866841 0.901662
O O13 0.654907 0.962100 0.329964
O O14 0.608312 0.267799 0.651952
O O15 0.666368 0.377775 0.468222
O O16 0.718533 0.673628 0.397625
O O17 0.000000 0.500000 0.500000
#
# Coordination Sequence:
#
# PCOD9084863 Si02
#       8
#     2   2   2   2   2   2   2   2
#     4  10  22  36  60  90 116 142 196 255 293 341
#     4   9  19  35  55  88 113 148 193 233 284 346
#     4  10  19  35  57  86 115 153 193 243 294 340
#     4  10  21  38  56  82 117 161 201 230 286 351
#     4  10  21  35  59  83 118 161 198 229 278 364
#     4   9  20  33  58  93 115 144 197 245 291 335
#     4  11  19  35  61  89 116 153 195 245 289 332
#     4   9  17  31  53  86 117 145 182 239 288 346
#
# _framework density 21.606480999999999
#
# number of rings (size 3 to 8) (size 9 to 14) (size 15 to 20)
#    0.000    2.250    1.250    3.000    3.500    1.000 
#    0.000    0.625    0.000    0.750    0.000    0.000 
#    0.000    0.000    0.000    0.000    0.000    0.000 
#
# Total GULP energy -89119.439089 kJ/mol
# GULP energy per Si atom -5569.964943 kJ/mol
# Density = 2.155730 g / cm^3
# Si number density = 21.606481 Si / 1000 Ang^3
#
#
#
# Elastic Constant Matrix: (Units=GPa)
#
#
# Indices 1 2 3 4 5 6 
#
# 1 40.8502 17.5391 13.9608 -7.0375 0.7382 13.7424
# 2 17.5391 93.1185 35.4116 -29.3823 -1.3332 34.5513
# 3 13.9608 35.4116 84.4719 -30.8575 13.1011 13.4191
# 4 -7.0375 -29.3823 -30.8575 38.2440 -0.4315 -12.1979
# 5 0.7382 -1.3332 13.1011 -0.4315 24.1101 -2.6616
# 6 13.7424 34.5513 13.4191 -12.1979 -2.6616 30.7726
#
#
#
# Elastic Compliance Matrix: (Units=1/GPa)
#
#
# Indices 1 2 3 4 5 6 
#
# 1 0.029537 -0.000273 -0.003222 -0.001208 -0.000515 -0.012002
# 2 -0.000273 0.021865 -0.003269 0.007797 0.000944 -0.019830
# 3 -0.003222 -0.003269 0.020130 0.013223 -0.010713 0.000646
# 4 -0.001208 0.007797 0.013223 0.043392 -0.005639 0.002732
# 5 -0.000515 0.000944 -0.010713 -0.005639 0.047899 0.005749
# 6 -0.012002 -0.019830 0.000646 0.002732 0.005749 0.061420
#
#
# Mechanical properties :
#
#
# Convention : Reuss Voigt Hill
#
# Bulk Modulus (GPa) = 17.24019 39.14040 28.19030
# Shear Modulus (GPa) = 19.44705 28.72727 24.08716
#
# Velocity S-wave (km/s) = 3.00335 3.65028 3.34250
# Velocity P-wave (km/s) = 4.47474 5.99337 5.28885
#
# Compressibility (1/GPa) = 0.05800399
#
# Stress axis : x y z
#
# Youngs Moduli (GPa) = 33.85586 45.73444 49.67602
#
# Poissons Ratio (x) = 0.01250 0.16005
# Poissons Ratio (y) = 0.00926 0.16240
# Poissons Ratio (z) = 0.10908 0.14951
#
# Static dielectric constant tensor:
#      x y z
#    x 1.791070 0.004090 -0.007030 
#    y 0.004090 1.829810 0.032850 
#    z -0.007030 0.032850 1.899680 
# 
# From -- ./inp_files/499011.got.cif
#   From: 2010.05.17/outbox.cif.g08.bks.cpg/sg2_250_cif.got.tgz:499011.got - 2010.06.03 11:33:40.
