data_PCOD9084949
_publ_section_title
;
Structure prediction by ZEFSAII (Michael W. Deem and Ramdas Pophale) SiO2 
 PCOD9084949
Probable space group: P -1
;
_chemical_formula_sum "Si O2"
_cell_formula_units_Z 14
_cell_length_a 7.423998
_cell_length_b 12.338214
_cell_length_c 10.565318
_cell_angle_alpha 90.549712
_cell_angle_beta 42.092705
_cell_angle_gamma 99.167094
_cell_volume 631.755683
_symmetry_space_group_name_H-M "P -1"
_symmetry_group_IT_number 2
_symmetry_cell_setting 'triclinic'
loop_
_space_group_symop_operation_xyz
x,y,z
-x,-y,-z
loop_
_atom_site_type_symbol
_atom_site_label
_atom_site_fract_x
_atom_site_fract_y
_atom_site_fract_z
Si Si1 0.753315 0.733708 0.206789
Si Si2 0.648587 0.667666 0.539375
Si Si3 0.479177 0.830647 0.122928
Si Si4 0.090634 0.094762 0.556694
Si Si5 0.953871 0.039036 0.883026
Si Si6 0.219778 0.597819 0.191474
Si Si7 0.655873 0.512022 0.121627
O O1 0.601948 0.687613 0.415241
O O2 0.565597 0.792597 0.215770
O O3 0.809485 0.630646 0.098257
O O4 0.022976 0.829108 0.103158
O O5 0.422909 0.577712 0.727880
O O6 0.693678 0.789708 0.582316
O O7 0.934246 0.623819 0.387726
O O8 0.190899 0.864760 0.275193
O O9 0.435502 0.717802 0.063367
O O10 0.700431 0.941034 0.969873
O O11 0.162132 0.047494 0.655135
O O12 0.000000 0.000000 0.500000
O O13 0.000000 0.000000 0.000000
O O14 0.367842 0.532483 0.213800
O O15 0.193309 0.531330 0.074031
#
# Coordination Sequence:
#
# PCOD9084949 Si02
#       7
#     2   2   2   2   2   2   2
#     4   9  19  35  54  81 111 145 180 222 277 334
#     4  10  20  36  55  79 117 143 179 235 282 317
#     4   9  18  36  60  76 111 142 179 231 278 322
#     4  10  21  35  56  85 108 141 191 228 272 341
#     4   9  18  35  57  77 110 145 175 226 279 321
#     4   9  20  34  56  86 105 141 193 227 269 333
#     4  10  19  35  58  79 110 147 185 225 273 334
#
# _framework density 22.160466
#
# number of rings (size 3 to 8) (size 9 to 14) (size 15 to 20)
#    0.000    2.571    0.000    1.286    2.000    0.571 
#    0.000    6.429    6.286    0.000    0.000    0.000 
#    0.000    0.000    0.000    0.000    0.000    0.000 
#
# Total GULP energy -78000.734651 kJ/mol
# GULP energy per Si atom -5571.481046 kJ/mol
# Density = 2.211003 g / cm^3
# Si number density = 22.160466 Si / 1000 Ang^3
#
#
#
# Elastic Constant Matrix: (Units=GPa)
#
#
# Indices 1 2 3 4 5 6 
#
# 1 70.6859 17.0503 16.7447 -2.6239 21.3228 -14.0183
# 2 17.0503 170.8354 66.0368 4.1071 28.0317 35.9070
# 3 16.7447 66.0368 59.5047 -3.4250 23.3571 -0.7928
# 4 -2.6239 4.1071 -3.4250 39.7695 4.7672 13.0756
# 5 21.3228 28.0317 23.3571 4.7672 26.4433 -4.1923
# 6 -14.0183 35.9070 -0.7928 13.0756 -4.1923 35.9277
#
#
#
# Elastic Compliance Matrix: (Units=1/GPa)
#
#
# Indices 1 2 3 4 5 6 
#
# 1 0.020360 -0.002618 0.003433 0.000984 -0.015510 0.008468
# 2 -0.002618 0.018334 -0.017060 0.004533 -0.006582 -0.022139
# 3 0.003433 -0.017060 0.043448 0.003078 -0.021116 0.015764
# 4 0.000984 0.004533 0.003078 0.033009 -0.017137 -0.018091
# 5 -0.015510 -0.006582 -0.021116 -0.017137 0.081549 0.015813
# 6 0.008468 -0.022139 0.015764 -0.018091 0.015813 0.062041
#
#
# Mechanical properties :
#
#
# Convention : Reuss Voigt Hill
#
# Bulk Modulus (GPa) = 20.14001 55.63219 37.88610
# Shear Modulus (GPa) = 16.24533 33.84104 25.04319
#
# Velocity S-wave (km/s) = 2.71048 3.91204 3.36532
# Velocity P-wave (km/s) = 4.34782 6.75012 5.67749
#
# Compressibility (1/GPa) = 0.04965242
#
# Stress axis : x y z
#
# Youngs Moduli (GPa) = 49.11661 54.54400 23.01597
#
# Poissons Ratio (x) = 0.14278 -0.07902
# Poissons Ratio (y) = 0.12857 0.39266
# Poissons Ratio (z) = -0.16863 0.93053
#
# Static dielectric constant tensor:
#      x y z
#    x 1.963480 0.020390 0.077540 
#    y 0.020390 1.853370 0.004010 
#    z 0.077540 0.004010 1.809840 
# 
# From -- ./inp_files/46394.got.cif
#   From: 2010.05.17/outbox.cif.g08.bks.cpg/sg2_24_cif.got.tgz:46394.got - 2010.06.03 11:33:40.
