data_PCOD9084091
_publ_section_title
;
Structure prediction by ZEFSAII (Michael W. Deem and Ramdas Pophale) SiO2 
 PCOD9084091
Probable space group: P -1
;
_chemical_formula_sum "Si O2"
_cell_formula_units_Z 16
_cell_length_a 15.016551
_cell_length_b 14.434884
_cell_length_c 13.949412
_cell_angle_alpha 47.356647
_cell_angle_beta 151.612506
_cell_angle_gamma 151.778230
_cell_volume 612.205570
_symmetry_space_group_name_H-M "P -1"
_symmetry_group_IT_number 2
_symmetry_cell_setting 'triclinic'
loop_
_space_group_symop_operation_xyz
x,y,z
-x,-y,-z
loop_
_atom_site_type_symbol
_atom_site_label
_atom_site_fract_x
_atom_site_fract_y
_atom_site_fract_z
Si Si1 0.527437 0.244671 0.792365
Si Si2 0.007243 0.307237 0.707843
Si Si3 0.403392 0.129161 0.261270
Si Si4 0.351653 0.895294 0.142846
Si Si5 0.952215 0.048347 0.301427
Si Si6 0.828014 0.566339 0.016675
Si Si7 0.758137 0.808500 0.767174
Si Si8 0.010885 0.849188 0.379190
O O1 0.704905 0.247630 0.887263
O O2 0.726224 0.405887 0.956841
O O3 0.332696 0.244797 0.548278
O O4 0.228741 0.015809 0.726622
O O5 0.743144 0.264097 0.453757
O O6 0.792853 0.081422 0.714797
O O7 0.156120 0.317234 0.749842
O O8 0.194962 0.463720 0.869158
O O9 0.448946 0.264608 0.285885
O O10 0.139252 0.025220 0.006790
O O11 0.739934 0.112086 0.364180
O O12 0.169339 0.916620 0.913891
O O13 0.204914 0.791324 0.182386
O O14 0.842915 0.849139 0.297294
O O15 0.676770 0.618768 0.807477
O O16 0.748955 0.910516 0.607221
#
# Coordination Sequence:
#
# PCOD9084091 Si02
#       8
#     2   2   2   2   2   2   2   2
#     4  10  24  42  60  80 114 150 195 238 286 337
#     4   9  17  29  50  85 122 145 177 227 283 338
#     4   8  14  25  45  74 118 151 179 211 267 334
#     4  11  21  38  63  86 110 146 195 243 282 326
#     4  10  22  43  62  80 106 156 200 233 276 342
#     4  11  20  35  56  91 122 145 178 241 293 330
#     4   9  15  27  48  81 115 145 180 222 275 325
#     4  10  19  34  60  88 115 149 193 228 272 344
#
# _framework density 26.135014000000002
#
# number of rings (size 3 to 8) (size 9 to 14) (size 15 to 20)
#    0.000    2.250    1.250    4.500    0.000    0.500 
#    4.500    0.625    0.000    0.750    0.000    0.000 
#    0.000    0.000    0.000    0.000    0.000    0.000 
#
# Total GULP energy -89289.269451 kJ/mol
# GULP energy per Si atom -5580.579341 kJ/mol
# Density = 2.607553 g / cm^3
# Si number density = 26.135014 Si / 1000 Ang^3
#
#
#
# Elastic Constant Matrix: (Units=GPa)
#
#
# Indices 1 2 3 4 5 6 
#
# 1 181.0528 18.4387 15.7233 3.3111 -5.7174 -38.5046
# 2 18.4387 36.5861 10.9982 1.6485 -0.1845 -4.1364
# 3 15.7233 10.9982 104.0272 -18.0675 -7.0917 -8.4417
# 4 3.3111 1.6485 -18.0675 25.3593 -13.1388 -7.7876
# 5 -5.7174 -0.1845 -7.0917 -13.1388 44.0961 0.1078
# 6 -38.5046 -4.1364 -8.4417 -7.7876 0.1078 35.4625
#
#
#
# Elastic Compliance Matrix: (Units=1/GPa)
#
#
# Indices 1 2 3 4 5 6 
#
# 1 0.007686 -0.003210 0.000647 0.003484 0.002104 0.008884
# 2 -0.003210 0.030273 -0.004347 -0.007011 -0.003071 -0.002519
# 3 0.000647 -0.004347 0.013731 0.015687 0.006931 0.006888
# 4 0.003484 -0.007011 0.015687 0.069576 0.023623 0.021907
# 5 0.002104 -0.003071 0.006931 0.023623 0.031070 0.008669
# 6 0.008884 -0.002519 0.006888 0.021907 0.008669 0.043975
#
#
# Mechanical properties :
#
#
# Convention : Reuss Voigt Hill
#
# Bulk Modulus (GPa) = 26.40633 45.77628 36.09131
# Shear Modulus (GPa) = 22.44637 39.41731 30.93184
#
# Velocity S-wave (km/s) = 2.93381 3.88779 3.44399
# Velocity P-wave (km/s) = 4.64781 6.14057 5.44558
#
# Compressibility (1/GPa) = 0.03786971
#
# Stress axis : x y z
#
# Youngs Moduli (GPa) = 130.10706 33.03283 72.83030
#
# Poissons Ratio (x) = 0.10604 -0.04713
# Poissons Ratio (y) = 0.41766 0.31658
# Poissons Ratio (z) = -0.08419 0.14359
#
# Static dielectric constant tensor:
#      x y z
#    x 2.116170 0.004180 -0.005010 
#    y 0.004180 2.124470 0.025900 
#    z -0.005010 0.025900 2.112390 
# 
# From -- ./inp_files/533282.got.cif
#   From: 2010.05.17/outbox.cif.g08.bks.cpg/sg2_267_cif.got.tgz:533282.got - 2010.06.03 11:33:40.
