data_PCOD9084148
_publ_section_title
;
Structure prediction by ZEFSAII (Michael W. Deem and Ramdas Pophale) SiO2 
 PCOD9084148
Probable space group: P -1
;
_chemical_formula_sum "Si O2"
_cell_formula_units_Z 16
_cell_length_a 7.331822
_cell_length_b 5.430442
_cell_length_c 20.367580
_cell_angle_alpha 111.027037
_cell_angle_beta 113.239593
_cell_angle_gamma 59.819946
_cell_volume 630.857329
_symmetry_space_group_name_H-M "P -1"
_symmetry_group_IT_number 2
_symmetry_cell_setting 'triclinic'
loop_
_space_group_symop_operation_xyz
x,y,z
-x,-y,-z
loop_
_atom_site_type_symbol
_atom_site_label
_atom_site_fract_x
_atom_site_fract_y
_atom_site_fract_z
Si Si1 0.339073 0.656967 0.052343
Si Si2 0.497281 0.594662 0.411867
Si Si3 0.437367 0.134992 0.798588
Si Si4 0.078775 0.039941 0.824913
Si Si5 0.081878 0.484899 0.698076
Si Si6 0.746207 0.706583 0.562702
Si Si7 0.761763 0.857655 0.006900
Si Si8 0.710757 0.497954 0.742558
O O1 0.476814 0.646620 0.135464
O O2 0.500000 0.500000 0.000000
O O3 0.195473 0.478894 0.023223
O O4 0.220557 0.989292 0.043131
O O5 0.717130 0.573466 0.476536
O O6 0.411185 0.388353 0.421649
O O7 0.491037 0.515423 0.327280
O O8 0.340541 0.944643 0.424977
O O9 0.257092 0.127702 0.823555
O O10 0.313588 0.220494 0.719572
O O11 0.631466 0.819571 0.788857
O O12 0.127238 0.043414 0.908572
O O13 0.833547 0.265774 0.793165
O O14 0.102706 0.745316 0.765858
O O15 0.977419 0.578107 0.620819
O O16 0.898286 0.426095 0.707081
O O17 0.500000 0.000000 0.000000
#
# Coordination Sequence:
#
# PCOD9084148 Si02
#       8
#     2   2   2   2   2   2   2   2
#     4  10  19  37  58  83 111 158 200 242 301 360
#     4   9  17  35  58  87 121 157 199 245 291 357
#     4  11  23  38  62  86 122 158 199 254 306 355
#     4  11  21  38  63  84 118 159 198 251 302 367
#     4  10  21  38  61  89 118 161 203 245 297 365
#     4   9  17  33  62  86 115 164 202 235 296 357
#     4  10  19  34  61  81 111 153 202 244 297 353
#     4  10  23  39  57  93 122 155 200 252 303 357
#
# _framework density 25.362311999999999
#
# number of rings (size 3 to 8) (size 9 to 14) (size 15 to 20)
#    0.000    2.000    3.750    1.500    1.750    1.000 
#    0.000    1.875    0.000    0.750    0.000    0.000 
#    0.000    0.000    0.000    0.000    0.000    0.000 
#
# Total GULP energy -89477.219482 kJ/mol
# GULP energy per Si atom -5592.326218 kJ/mol
# Density = 2.530459 g / cm^3
# Si number density = 25.362312 Si / 1000 Ang^3
#
#
#
# Elastic Constant Matrix: (Units=GPa)
#
#
# Indices 1 2 3 4 5 6 
#
# 1 84.9698 5.5202 12.9251 2.1989 -1.0185 25.9151
# 2 5.5202 103.6155 27.3828 -10.0393 6.2978 23.9535
# 3 12.9251 27.3828 199.3775 -23.3768 32.3659 -0.1853
# 4 2.1989 -10.0393 -23.3768 48.8841 5.3549 5.0995
# 5 -1.0185 6.2978 32.3659 5.3549 30.4266 9.5679
# 6 25.9151 23.9535 -0.1853 5.0995 9.5679 30.6868
#
#
#
# Elastic Compliance Matrix: (Units=1/GPa)
#
#
# Indices 1 2 3 4 5 6 
#
# 1 0.019304 0.004637 -0.003776 -0.000507 0.011129 -0.023331
# 2 0.004637 0.013961 -0.002753 0.002546 0.005036 -0.016824
# 3 -0.003776 -0.002753 0.007909 0.003755 -0.011229 0.008263
# 4 -0.000507 0.002546 0.003755 0.023973 -0.007785 -0.003093
# 5 0.011129 0.005036 -0.011229 -0.007785 0.054678 -0.029152
# 6 -0.023331 -0.016824 0.008263 -0.003093 -0.029152 0.075076
#
#
# Mechanical properties :
#
#
# Convention : Reuss Voigt Hill
#
# Bulk Modulus (GPa) = 26.74364 53.29101 40.01733
# Shear Modulus (GPa) = 23.67988 44.80848 34.24418
#
# Velocity S-wave (km/s) = 3.05891 4.20781 3.67849
# Velocity P-wave (km/s) = 4.80036 6.68320 5.81844
#
# Compressibility (1/GPa) = 0.03739206
#
# Stress axis : x y z
#
# Youngs Moduli (GPa) = 51.80204 71.62589 126.43312
#
# Poissons Ratio (x) = -0.33216 0.47743
# Poissons Ratio (y) = -0.24023 0.34805
# Poissons Ratio (z) = 0.19561 0.19718
#
# Static dielectric constant tensor:
#      x y z
#    x 2.057000 -0.094800 0.088600 
#    y -0.094800 2.524520 -0.254340 
#    z 0.088600 -0.254340 2.065060 
# 
# From -- ./inp_files/56450.got.cif
#   From: 2010.05.17/outbox.cif.g08.bks.cpg/sg2_29_cif.got.tgz:56450.got - 2010.06.03 11:33:40.
