data_PCOD9084761
_publ_section_title
;
Structure prediction by ZEFSAII (Michael W. Deem and Ramdas Pophale) SiO2 
 PCOD9084761
Probable space group: P -1
;
_chemical_formula_sum "Si O2"
_cell_formula_units_Z 14
_cell_length_a 11.644968
_cell_length_b 10.703820
_cell_length_c 18.277124
_cell_angle_alpha 23.900727
_cell_angle_beta 133.612514
_cell_angle_gamma 130.649845
_cell_volume 666.592351
_symmetry_space_group_name_H-M "P -1"
_symmetry_group_IT_number 2
_symmetry_cell_setting 'triclinic'
loop_
_space_group_symop_operation_xyz
x,y,z
-x,-y,-z
loop_
_atom_site_type_symbol
_atom_site_label
_atom_site_fract_x
_atom_site_fract_y
_atom_site_fract_z
Si Si1 0.598930 0.716756 0.486340
Si Si2 0.132649 0.722468 0.165703
Si Si3 0.379799 0.684215 0.917095
Si Si4 0.533843 0.495186 0.724759
Si Si5 0.185556 0.126631 0.106256
Si Si6 0.831368 0.586623 0.911646
Si Si7 0.651396 0.854194 0.056341
O O1 0.500000 0.500000 0.500000
O O2 0.763217 0.557010 0.657901
O O3 0.509832 0.707100 0.530440
O O4 0.636552 0.047112 0.290954
O O5 0.947421 0.668835 0.098610
O O6 0.175258 0.828642 0.210296
O O7 0.184665 0.012532 0.979137
O O8 0.349251 0.337791 0.058972
O O9 0.243088 0.681126 0.922512
O O10 0.541509 0.738609 0.003064
O O11 0.688809 0.618393 0.773997
O O12 0.381415 0.407093 0.756380
O O13 0.579920 0.165493 0.889077
O O14 0.150584 0.123309 0.179444
O O15 0.000000 0.500000 0.000000
#
# Coordination Sequence:
#
# PCOD9084761 Si02
#       7
#     2   2   2   2   2   2   2
#     4  11  19  34  53  85 105 138 170 225 264 303
#     4  10  19  35  57  74 111 139 175 217 263 313
#     4   9  19  33  52  84 102 129 184 215 261 303
#     4   9  17  28  51  77 104 130 177 215 256 303
#     4   9  21  35  52  83 102 142 178 213 260 319
#     4   9  17  33  52  80 101 137 177 222 248 309
#     4   9  16  31  52  78  99 140 174 218 251 306
#
# _framework density 21.002341000000001
#
# number of rings (size 3 to 8) (size 9 to 14) (size 15 to 20)
#    0.857    1.714    2.857    1.714    0.000    1.143 
#    0.000    0.000    0.000    4.286    0.000    0.000 
#    0.000    0.000    0.000    0.000    0.000    0.000 
#
# Total GULP energy -77939.278476 kJ/mol
# GULP energy per Si atom -5567.091320 kJ/mol
# Density = 2.095454 g / cm^3
# Si number density = 21.002341 Si / 1000 Ang^3
#
#
#
# Elastic Constant Matrix: (Units=GPa)
#
#
# Indices 1 2 3 4 5 6 
#
# 1 82.8100 1.9877 30.4184 1.7545 -21.0606 -12.0506
# 2 1.9877 94.3681 1.9531 18.4786 -7.1718 -11.1790
# 3 30.4184 1.9531 78.0079 6.4409 -34.6675 4.6248
# 4 1.7545 18.4786 6.4409 15.1616 -4.3264 -7.1976
# 5 -21.0606 -7.1718 -34.6675 -4.3264 38.9916 8.9180
# 6 -12.0506 -11.1790 4.6248 -7.1976 8.9180 29.7363
#
#
#
# Elastic Compliance Matrix: (Units=1/GPa)
#
#
# Indices 1 2 3 4 5 6 
#
# 1 0.015933 -0.000180 -0.006464 0.005482 0.001545 0.008258
# 2 -0.000180 0.014180 0.002391 -0.017589 0.002729 -0.000190
# 3 -0.006464 0.002391 0.028451 -0.015446 0.024469 -0.017222
# 4 0.005482 -0.017589 -0.015446 0.103012 -0.008402 0.025465
# 5 0.001545 0.002729 0.024469 -0.008402 0.052355 -0.019888
# 6 0.008258 -0.000190 -0.017222 0.025465 -0.019888 0.051711
#
#
# Mechanical properties :
#
#
# Convention : Reuss Voigt Hill
#
# Bulk Modulus (GPa) = 19.97627 35.98938 27.98282
# Shear Modulus (GPa) = 17.19197 31.49967 24.34582
#
# Velocity S-wave (km/s) = 2.86418 3.87695 3.40839
# Velocity P-wave (km/s) = 4.52439 6.10033 5.37048
#
# Compressibility (1/GPa) = 0.05005940
#
# Stress axis : x y z
#
# Youngs Moduli (GPa) = 62.76211 70.52104 35.14863
#
# Poissons Ratio (x) = 0.01267 0.22720
# Poissons Ratio (y) = 0.01127 -0.08405
# Poissons Ratio (z) = 0.40569 -0.16864
#
# Static dielectric constant tensor:
#      x y z
#    x 1.844190 -0.027450 -0.044240 
#    y -0.027450 1.772680 -0.001940 
#    z -0.044240 -0.001940 1.745870 
# 
# From -- ./inp_files/234750.got.cif
#   From: 2010.05.17/outbox.cif.g08.bks.cpg/sg2_118_cif.got.tgz:234750.got - 2010.06.03 11:33:40.
