data_PCOD9084083
_publ_section_title
;
Structure prediction by ZEFSAII (Michael W. Deem and Ramdas Pophale) SiO2 
 PCOD9084083
Probable space group: P -1
;
_chemical_formula_sum "Si O2"
_cell_formula_units_Z 16
_cell_length_a 9.371911
_cell_length_b 14.163465
_cell_length_c 15.738376
_cell_angle_alpha 146.835469
_cell_angle_beta 117.521784
_cell_angle_gamma 41.831171
_cell_volume 683.299170
_symmetry_space_group_name_H-M "P -1"
_symmetry_group_IT_number 2
_symmetry_cell_setting 'triclinic'
loop_
_space_group_symop_operation_xyz
x,y,z
-x,-y,-z
loop_
_atom_site_type_symbol
_atom_site_label
_atom_site_fract_x
_atom_site_fract_y
_atom_site_fract_z
Si Si1 0.146068 0.250856 0.736972
Si Si2 0.412740 0.187626 0.273041
Si Si3 0.687589 0.632372 0.002569
Si Si4 0.965927 0.615319 0.822342
Si Si5 0.244228 0.884939 0.797985
Si Si6 0.386757 0.178795 0.519908
Si Si7 0.984256 0.733929 0.631481
Si Si8 0.750469 0.104274 0.997314
O O1 0.263201 0.338716 0.868199
O O2 0.017257 0.401866 0.728191
O O3 0.378632 0.948349 0.562849
O O4 0.937016 0.373162 0.836722
O O5 0.261561 0.240258 0.190064
O O6 0.567524 0.224098 0.305884
O O7 0.216629 0.425427 0.462497
O O8 0.590711 0.889969 0.125471
O O9 0.476485 0.667131 0.950707
O O10 0.199676 0.467269 0.718604
O O11 0.919044 0.815044 0.018463
O O12 0.090050 0.834856 0.708085
O O13 0.346125 0.812263 0.868851
O O14 0.215209 0.182927 0.424580
O O15 0.500000 0.000000 0.500000
O O16 0.855334 0.866452 0.786086
O O17 0.000000 0.000000 0.000000
#
# Coordination Sequence:
#
# PCOD9084083 Si02
#       8
#     2   2   2   2   2   2   2   2
#     4  10  20  34  54  86 117 152 193 243 289 353
#     4  11  21  36  61  93 117 152 209 250 293 348
#     4  11  20  34  61  85 118 154 197 245 290 353
#     4  10  19  34  60  87 116 150 200 247 293 352
#     4  11  20  36  58  89 122 155 190 250 304 350
#     4   9  19  36  56  81 114 152 199 241 290 354
#     4  10  22  37  57  89 122 155 195 254 302 348
#     4  10  21  36  57  87 122 156 191 240 307 352
#
# _framework density 23.415804999999999
#
# number of rings (size 3 to 8) (size 9 to 14) (size 15 to 20)
#    0.000    1.750    3.750    1.500    0.000    1.500 
#    0.000    2.500    0.000    0.000    3.250   17.500 
#    0.000    0.000    0.000    0.000    0.000    0.000 
#
# Total GULP energy -89128.380347 kJ/mol
# GULP energy per Si atom -5570.523772 kJ/mol
# Density = 2.336251 g / cm^3
# Si number density = 23.415805 Si / 1000 Ang^3
#
#
#
# Elastic Constant Matrix: (Units=GPa)
#
#
# Indices 1 2 3 4 5 6 
#
# 1 63.1529 19.8916 19.1809 4.6564 -11.1738 -20.4385
# 2 19.8916 124.1089 9.5306 -4.1386 0.2274 -8.2978
# 3 19.1809 9.5306 80.4433 7.6887 -25.8899 -17.8783
# 4 4.6564 -4.1386 7.6887 35.5995 -7.9973 -8.0789
# 5 -11.1738 0.2274 -25.8899 -7.9973 42.3001 3.5078
# 6 -20.4385 -8.2978 -17.8783 -8.0789 3.5078 32.4196
#
#
#
# Elastic Compliance Matrix: (Units=1/GPa)
#
#
# Indices 1 2 3 4 5 6 
#
# 1 0.021548 -0.002557 -0.000793 0.000809 0.004360 0.012223
# 2 -0.002557 0.008615 -0.000701 0.001428 -0.000936 0.000663
# 3 -0.000793 -0.000701 0.017688 0.000279 0.010005 0.008062
# 4 0.000809 0.001428 0.000279 0.031209 0.005597 0.008201
# 5 0.004360 -0.000936 0.010005 0.005597 0.031480 0.006015
# 6 0.012223 0.000663 0.008062 0.008201 0.006015 0.044560
#
#
# Mechanical properties :
#
#
# Convention : Reuss Voigt Hill
#
# Bulk Modulus (GPa) = 25.15703 40.54570 32.85137
# Shear Modulus (GPa) = 28.33648 36.67065 32.50357
#
# Velocity S-wave (km/s) = 3.48249 3.96165 3.72977
# Velocity P-wave (km/s) = 5.19011 6.18703 5.71036
#
# Compressibility (1/GPa) = 0.03975032
#
# Stress axis : x y z
#
# Youngs Moduli (GPa) = 46.40757 116.08022 56.53471
#
# Poissons Ratio (x) = 0.29677 0.04481
# Poissons Ratio (y) = 0.11864 0.03965
# Poissons Ratio (z) = 0.03678 0.08140
#
# Static dielectric constant tensor:
#      x y z
#    x 2.061860 0.023250 0.006060 
#    y 0.023250 1.882130 -0.005120 
#    z 0.006060 -0.005120 1.996630 
# 
# From -- ./inp_files/284969.got.cif
#   From: 2010.05.17/outbox.cif.g08.bks.cpg/sg2_143_cif.got.tgz:284969.got - 2010.06.03 11:33:40.
