data_PCOD9084156
_publ_section_title
;
Structure prediction by ZEFSAII (Michael W. Deem and Ramdas Pophale) SiO2 
 PCOD9084156
Probable space group: P -1
;
_chemical_formula_sum "Si O2"
_cell_formula_units_Z 15
_cell_length_a 19.819653
_cell_length_b 8.848224
_cell_length_c 10.852917
_cell_angle_alpha 83.870404
_cell_angle_beta 38.445255
_cell_angle_gamma 50.301697
_cell_volume 517.854026
_symmetry_space_group_name_H-M "P -1"
_symmetry_group_IT_number 2
_symmetry_cell_setting 'triclinic'
loop_
_space_group_symop_operation_xyz
x,y,z
-x,-y,-z
loop_
_atom_site_type_symbol
_atom_site_label
_atom_site_fract_x
_atom_site_fract_y
_atom_site_fract_z
Si Si1 0.767579 0.308303 0.945183
Si Si2 0.725955 0.801670 0.321991
Si Si3 0.682739 0.563312 0.529254
Si Si4 0.309237 0.481256 0.209773
Si Si5 0.063746 0.477518 0.546394
Si Si6 0.607651 0.207218 0.284949
Si Si7 0.022021 0.707242 0.189459
Si Si8 0.000000 0.000000 0.000000
O O1 0.606010 0.541912 0.033444
O O2 0.856768 0.358385 0.863938
O O3 0.639593 0.345262 0.211842
O O4 0.029944 0.897848 0.579388
O O5 0.615702 0.822117 0.576850
O O6 0.608221 0.103802 0.414956
O O7 0.766238 0.644341 0.159654
O O8 0.000000 0.500000 0.000000
O O9 0.584963 0.628841 0.793485
O O10 0.640300 0.515752 0.467523
O O11 0.974467 0.172408 0.132248
O O12 0.262922 0.360056 0.271629
O O13 0.137534 0.234738 0.539648
O O14 0.000000 0.500000 0.500000
O O15 0.819795 0.858324 0.926349
O O16 0.926579 0.959968 0.216552
#
# Coordination Sequence:
#
# PCOD9084156 Si02
#       8
#     2   2   2   2   2   2   2   1
#     4  10  19  36  58  88 117 153 200 245 297 355
#     4  10  21  39  65  85 116 161 201 241 297 368
#     4  11  21  40  60  87 123 157 201 247 301 351
#     4  10  20  35  63  85 115 161 199 242 296 362
#     4  10  19  37  62  85 114 157 202 240 294 360
#     4  10  23  36  60  91 122 156 196 251 302 348
#     4  10  19  34  61  85 116 146 204 245 284 359
#     4  10  22  34  60  84 114 158 194 242 296 352
#
# _framework density 28.965696999999999
#
# number of rings (size 3 to 8) (size 9 to 14) (size 15 to 20)
#    0.000    1.867    2.667    2.800    1.867    0.533 
#    0.000    3.333   17.600    0.000    0.000    0.000 
#    0.000    0.000    0.000    0.000    0.000    0.000 
#
# Total GULP energy -83796.021521 kJ/mol
# GULP energy per Si atom -5586.401435 kJ/mol
# Density = 2.889977 g / cm^3
# Si number density = 28.965697 Si / 1000 Ang^3
#
#
#
# Elastic Constant Matrix: (Units=GPa)
#
#
# Indices 1 2 3 4 5 6 
#
# 1 91.3982 71.1284 -0.6373 9.2469 4.1585 17.6146
# 2 71.1284 293.5982 43.5028 -9.9752 -0.8629 -1.7921
# 3 -0.6373 43.5028 51.4893 0.9737 4.8615 6.6317
# 4 9.2469 -9.9752 0.9737 47.8925 0.1455 4.0300
# 5 4.1585 -0.8629 4.8615 0.1455 43.4914 -5.8031
# 6 17.6146 -1.7921 6.6317 4.0300 -5.8031 70.9125
#
#
#
# Elastic Compliance Matrix: (Units=1/GPa)
#
#
# Indices 1 2 3 4 5 6 
#
# 1 0.016176 -0.004864 0.005249 -0.003843 -0.002837 -0.004646
# 2 -0.004864 0.005414 -0.005035 0.002012 0.001371 0.001814
# 3 0.005249 -0.005035 0.024654 -0.002221 -0.003874 -0.003927
# 4 -0.003843 0.002012 -0.002221 0.022084 0.000583 0.000006
# 5 -0.002837 0.001371 -0.003874 0.000583 0.024129 0.003043
# 6 -0.004646 0.001814 -0.003927 0.000006 0.003043 0.015918
#
#
# Mechanical properties :
#
#
# Convention : Reuss Voigt Hill
#
# Bulk Modulus (GPa) = 27.06873 73.83040 50.44957
# Shear Modulus (GPa) = 38.46420 53.95875 46.21147
#
# Velocity S-wave (km/s) = 3.64802 4.32076 3.99856
# Velocity P-wave (km/s) = 5.20667 7.10184 6.22678
#
# Compressibility (1/GPa) = 0.03694300
#
# Stress axis : x y z
#
# Youngs Moduli (GPa) = 61.81942 184.70866 40.56055
#
# Poissons Ratio (x) = 0.89840 -0.21288
# Poissons Ratio (y) = 0.30068 0.20424
# Poissons Ratio (z) = -0.32446 0.93009
#
# Static dielectric constant tensor:
#      x y z
#    x 1.351570 3.482790 4.787670 
#    y 3.482790 -10.281850 -16.664990 
#    z 4.787670 -16.664990 -20.104940 
# 
# From -- ./inp_files/268104.got.cif
#   From: 2010.05.17/outbox.cif.g08.bks.cpg/sg2_135_cif.got.tgz:268104.got - 2010.06.03 11:33:40.
