data_PCOD9084066
_publ_section_title
;
Structure prediction by ZEFSAII (Michael W. Deem and Ramdas Pophale) SiO2 
 PCOD9084066
Probable space group: P -1
;
_chemical_formula_sum "Si O2"
_cell_formula_units_Z 16
_cell_length_a 10.893422
_cell_length_b 18.933520
_cell_length_c 11.759197
_cell_angle_alpha 140.367419
_cell_angle_beta 68.775048
_cell_angle_gamma 140.005125
_cell_volume 826.383453
_symmetry_space_group_name_H-M "P -1"
_symmetry_group_IT_number 2
_symmetry_cell_setting 'triclinic'
loop_
_space_group_symop_operation_xyz
x,y,z
-x,-y,-z
loop_
_atom_site_type_symbol
_atom_site_label
_atom_site_fract_x
_atom_site_fract_y
_atom_site_fract_z
Si Si1 0.461898 0.419451 0.789838
Si Si2 0.509665 0.781032 0.348637
Si Si3 0.163414 0.791376 0.193082
Si Si4 0.455220 0.099986 0.149764
Si Si5 0.847136 0.414865 0.591992
Si Si6 0.025240 0.260267 0.041536
Si Si7 0.265801 0.498328 0.874799
Si Si8 0.283426 0.649344 0.839410
O O1 0.389641 0.244535 0.631174
O O2 0.291366 0.383578 0.737586
O O3 0.500000 0.500000 0.000000
O O4 0.709691 0.593199 0.858808
O O5 0.268983 0.642943 0.318768
O O6 0.650114 0.991305 0.557041
O O7 0.449811 0.684031 0.128091
O O8 0.028975 0.764937 0.105661
O O9 0.984836 0.640918 0.166089
O O10 0.259636 0.747660 0.043657
O O11 0.638006 0.254115 0.378054
O O12 0.519122 0.199201 0.131870
O O13 0.194965 0.947768 0.086030
O O14 0.500000 0.000000 0.000000
O O15 0.051336 0.472162 0.622555
O O16 0.975110 0.614156 0.756529
O O17 0.307403 0.569673 0.823483
#
# Coordination Sequence:
#
# PCOD9084066 Si02
#       8
#     2   2   2   2   2   2   2   2
#     4   9  18  37  59  80 113 149 190 232 271 329
#     4  10  19  34  60  85 108 148 191 234 278 322
#     4  11  19  35  57  87 113 143 189 232 287 328
#     4  12  21  36  58  85 112 141 194 235 272 333
#     4  10  19  35  56  85 107 143 186 231 283 325
#     4  10  19  35  57  86 107 141 194 239 268 319
#     4  11  22  40  52  82 126 149 179 230 286 339
#     4  11  23  37  55  84 122 152 175 230 290 341
#
# _framework density 19.361473
#
# number of rings (size 3 to 8) (size 9 to 14) (size 15 to 20)
#    0.000    1.500    8.750    0.750    0.000    1.000 
#    2.250    0.625    0.000    3.000    0.000    0.000 
#    0.000    0.000    0.000    0.000    0.000    0.000 
#
# Total GULP energy -89143.128146 kJ/mol
# GULP energy per Si atom -5571.445509 kJ/mol
# Density = 1.931741 g / cm^3
# Si number density = 19.361473 Si / 1000 Ang^3
#
#
#
# Elastic Constant Matrix: (Units=GPa)
#
#
# Indices 1 2 3 4 5 6 
#
# 1 47.1515 32.7382 6.5482 3.2601 -1.9243 -8.4141
# 2 32.7382 113.2264 4.6750 8.2099 9.1539 -19.3059
# 3 6.5482 4.6750 67.9812 12.9576 9.8917 -9.0535
# 4 3.2601 8.2099 12.9576 19.7643 0.4770 -0.9533
# 5 -1.9243 9.1539 9.8917 0.4770 14.3644 2.1638
# 6 -8.4141 -19.3059 -9.0535 -0.9533 2.1638 22.7352
#
#
#
# Elastic Compliance Matrix: (Units=1/GPa)
#
#
# Indices 1 2 3 4 5 6 
#
# 1 0.028613 -0.009255 -0.004283 0.001622 0.012643 -0.000110
# 2 -0.009255 0.015368 0.005361 -0.007347 -0.016441 0.013016
# 3 -0.004283 0.005361 0.022444 -0.015089 -0.020942 0.013265
# 4 0.001622 -0.007347 -0.015089 0.062413 0.014790 -0.010438
# 5 0.012643 -0.016441 -0.020942 0.014790 0.099709 -0.026491
# 6 -0.000110 0.013016 0.013265 -0.010438 -0.026491 0.062362
#
#
# Mechanical properties :
#
#
# Convention : Reuss Voigt Hill
#
# Bulk Modulus (GPa) = 19.97220 35.14244 27.55732
# Shear Modulus (GPa) = 15.43434 23.66597 19.55015
#
# Velocity S-wave (km/s) = 2.82648 3.49997 3.18110
# Velocity P-wave (km/s) = 4.58146 5.87564 5.26844
#
# Compressibility (1/GPa) = 0.05006959
#
# Stress axis : x y z
#
# Youngs Moduli (GPa) = 34.94906 65.07134 44.55578
#
# Poissons Ratio (x) = 0.60223 0.19085
# Poissons Ratio (y) = 0.32345 -0.23885
# Poissons Ratio (z) = 0.14970 -0.34883
#
# Static dielectric constant tensor:
#      x y z
#    x 1.712720 0.019090 0.006940 
#    y 0.019090 1.688820 0.002870 
#    z 0.006940 0.002870 1.760950 
# 
# From -- ./inp_files/431224.got.cif
#   From: 2010.05.17/outbox.cif.g08.bks.cpg/sg2_216_cif.got.tgz:431224.got - 2010.06.03 11:33:40.
