data_PCOD9084993
_publ_section_title
;
Structure prediction by ZEFSAII (Michael W. Deem and Ramdas Pophale) SiO2 
 PCOD9084993
Probable space group: P -1
;
_chemical_formula_sum "Si O2"
_cell_formula_units_Z 16
_cell_length_a 8.906581
_cell_length_b 9.984768
_cell_length_c 14.991227
_cell_angle_alpha 55.307510
_cell_angle_beta 143.664690
_cell_angle_gamma 107.973450
_cell_volume 617.963419
_symmetry_space_group_name_H-M "P -1"
_symmetry_group_IT_number 2
_symmetry_cell_setting 'triclinic'
loop_
_space_group_symop_operation_xyz
x,y,z
-x,-y,-z
loop_
_atom_site_type_symbol
_atom_site_label
_atom_site_fract_x
_atom_site_fract_y
_atom_site_fract_z
Si Si1 0.771903 0.967617 0.837477
Si Si2 0.110725 0.694162 0.804477
Si Si3 0.421971 0.507012 0.618437
Si Si4 0.968380 0.005031 0.214812
Si Si5 0.724054 0.611369 0.869390
Si Si6 0.125270 0.567124 0.275962
Si Si7 0.457274 0.176149 0.087232
Si Si8 0.391464 0.202889 0.831614
O O1 0.754651 0.790612 0.847667
O O2 0.806975 0.064331 0.726416
O O3 0.527817 0.989477 0.782704
O O4 0.000000 0.000000 0.000000
O O5 0.983176 0.853818 0.748595
O O6 0.899629 0.620343 0.683770
O O7 0.295107 0.529651 0.011998
O O8 0.298028 0.753465 0.802914
O O9 0.506160 0.630473 0.680914
O O10 0.216683 0.580458 0.414270
O O11 0.679391 0.408200 0.717367
O O12 0.327341 0.379681 0.684007
O O13 0.852446 0.875715 0.264868
O O14 0.701647 0.105978 0.990981
O O15 0.000000 0.500000 0.000000
O O16 0.836048 0.700196 0.079286
O O17 0.442642 0.187931 0.968492
#
# Coordination Sequence:
#
# PCOD9084993 Si02
#       8
#     2   2   2   2   2   2   2   2
#     4  12  22  33  57  94 121 149 198 256 299 342
#     4  11  21  37  60  92 116 160 203 247 296 358
#     4  11  22  40  60  90 118 162 202 240 305 358
#     4  10  19  35  58  82 121 156 201 236 305 354
#     4  12  19  37  65  87 118 156 201 251 293 359
#     4  11  23  37  61  90 122 154 201 254 293 353
#     4  11  21  35  58  91 123 149 197 253 295 349
#     4  10  20  35  56  85 118 160 191 245 297 362
#
# _framework density 25.891500000000001
#
# number of rings (size 3 to 8) (size 9 to 14) (size 15 to 20)
#    0.000    1.000    7.500    1.125    0.000    0.500 
#    0.000    0.625    0.000    0.750    6.500    0.000 
#    0.000    0.000    0.000    0.000    0.000    0.000 
#
# Total GULP energy -89177.826765 kJ/mol
# GULP energy per Si atom -5573.614173 kJ/mol
# Density = 2.583257 g / cm^3
# Si number density = 25.891500 Si / 1000 Ang^3
#
#
#
# Elastic Constant Matrix: (Units=GPa)
#
#
# Indices 1 2 3 4 5 6 
#
# 1 113.7737 46.5502 22.2981 -2.7439 -20.3866 32.9923
# 2 46.5502 187.6504 45.6601 34.5549 -31.6508 27.2772
# 3 22.2981 45.6601 69.8404 24.4247 -25.2924 1.4085
# 4 -2.7439 34.5549 24.4247 25.0478 -10.6174 -5.4588
# 5 -20.3866 -31.6508 -25.2924 -10.6174 30.8420 7.4026
# 6 32.9923 27.2772 1.4085 -5.4588 7.4026 49.4213
#
#
#
# Elastic Compliance Matrix: (Units=1/GPa)
#
#
# Indices 1 2 3 4 5 6 
#
# 1 0.015118 -0.001204 -0.002440 0.008631 0.012183 -0.010230
# 2 -0.001204 0.010356 0.001760 -0.014354 0.008200 -0.007776
# 3 -0.002440 0.001760 0.028728 -0.024899 0.016472 -0.005379
# 4 0.008631 -0.014354 -0.024899 0.086599 -0.002715 0.012842
# 5 0.012183 0.008200 0.016472 -0.002715 0.067101 -0.023479
# 6 -0.010230 -0.007776 -0.005379 0.012842 -0.023479 0.036444
#
#
# Mechanical properties :
#
#
# Convention : Reuss Voigt Hill
#
# Bulk Modulus (GPa) = 19.82747 66.69793 43.26270
# Shear Modulus (GPa) = 18.87341 38.17931 28.52636
#
# Velocity S-wave (km/s) = 2.70282 3.84420 3.32289
# Velocity P-wave (km/s) = 4.17311 6.74688 5.60960
#
# Compressibility (1/GPa) = 0.05043508
#
# Stress axis : x y z
#
# Youngs Moduli (GPa) = 66.14759 96.56152 34.80928
#
# Poissons Ratio (x) = 0.11627 0.08492
# Poissons Ratio (y) = 0.07965 -0.06127
# Poissons Ratio (z) = 0.16137 -0.16997
#
# Static dielectric constant tensor:
#      x y z
#    x 2.191750 -0.039740 0.005420 
#    y -0.039740 2.211840 -0.014660 
#    z 0.005420 -0.014660 2.078530 
# 
# From -- ./inp_files/500222.got.cif
#   From: 2010.05.17/outbox.cif.g08.bks.cpg/sg2_251_cif.got.tgz:500222.got - 2010.06.03 11:33:40.
