data_PCOD9084046
_publ_section_title
;
Structure prediction by ZEFSAII (Michael W. Deem and Ramdas Pophale) SiO2 
 PCOD9084046
Probable space group: P -1
;
_chemical_formula_sum "Si O2"
_cell_formula_units_Z 16
_cell_length_a 13.901671
_cell_length_b 11.233150
_cell_length_c 8.910186
_cell_angle_alpha 92.509012
_cell_angle_beta 76.525918
_cell_angle_gamma 148.120721
_cell_volume 681.703072
_symmetry_space_group_name_H-M "P -1"
_symmetry_group_IT_number 2
_symmetry_cell_setting 'triclinic'
loop_
_space_group_symop_operation_xyz
x,y,z
-x,-y,-z
loop_
_atom_site_type_symbol
_atom_site_label
_atom_site_fract_x
_atom_site_fract_y
_atom_site_fract_z
Si Si1 0.333897 0.240209 0.605718
Si Si2 0.539347 0.006969 0.810745
Si Si3 0.864986 0.526467 0.729506
Si Si4 0.316818 0.153620 0.932136
Si Si5 0.160406 0.743702 0.864372
Si Si6 0.035072 0.892454 0.471779
Si Si7 0.059505 0.150615 0.817303
Si Si8 0.611836 0.389701 0.074175
O O1 0.500000 0.500000 0.500000
O O2 0.402859 0.253508 0.737356
O O3 0.140835 0.110045 0.726341
O O4 0.246163 0.085790 0.482089
O O5 0.737282 0.280591 0.709658
O O6 0.355867 0.870376 0.780534
O O7 0.522429 0.848002 0.808223
O O8 0.500000 0.000000 0.000000
O O9 0.066171 0.691109 0.741090
O O10 0.893326 0.658194 0.603646
O O11 0.749435 0.465077 0.907857
O O12 0.221182 0.922311 0.949959
O O13 0.474895 0.328414 0.015984
O O14 0.139147 0.058451 0.026696
O O15 0.000000 0.500000 0.000000
O O16 0.002561 0.836520 0.304979
O O17 0.000000 0.000000 0.500000
O O18 0.242067 0.397560 0.851339
#
# Coordination Sequence:
#
# PCOD9084046 Si02
#       8
#     2   2   2   2   2   2   2   2
#     4  11  26  46  68  95 126 176 225 267 327 400
#     4  10  19  34  60 100 127 166 218 268 311 388
#     4  11  20  38  64  95 129 172 219 266 319 385
#     4  12  23  40  68  98 130 168 219 272 329 381
#     4  12  18  33  63  97 130 168 218 272 319 376
#     4  10  24  43  64  88 131 174 216 266 326 391
#     4  11  25  44  64  93 139 170 211 276 330 379
#     4  11  22  38  67 101 128 167 221 270 324 383
#
# _framework density 23.470628999999999
#
# number of rings (size 3 to 8) (size 9 to 14) (size 15 to 20)
#    0.000    1.000    7.500    0.375    5.250    1.500 
#    0.000    0.625    0.000    6.750    0.000    0.000 
#    0.000    0.000    0.000    0.000    0.000    0.000 
#
# Total GULP energy -89391.745057 kJ/mol
# GULP energy per Si atom -5586.984066 kJ/mol
# Density = 2.341721 g / cm^3
# Si number density = 23.470629 Si / 1000 Ang^3
#
#
#
# Elastic Constant Matrix: (Units=GPa)
#
#
# Indices 1 2 3 4 5 6 
#
# 1 85.3120 28.1011 32.8633 6.4895 19.0300 20.4427
# 2 28.1011 141.4502 55.8281 8.6594 27.1306 16.9317
# 3 32.8633 55.8281 107.9011 1.8241 36.4243 -1.2417
# 4 6.4895 8.6594 1.8241 32.0517 -3.2972 16.5976
# 5 19.0300 27.1306 36.4243 -3.2972 32.4351 0.5871
# 6 20.4427 16.9317 -1.2417 16.5976 0.5871 44.0061
#
#
#
# Elastic Compliance Matrix: (Units=1/GPa)
#
#
# Indices 1 2 3 4 5 6 
#
# 1 0.015955 0.000017 -0.002974 0.000216 -0.005877 -0.007505
# 2 0.000017 0.009790 -0.003716 -0.001088 -0.004074 -0.003415
# 3 -0.002974 -0.003716 0.017258 -0.003388 -0.014958 0.004776
# 4 0.000216 -0.001088 -0.003388 0.040403 0.008969 -0.015136
# 5 -0.005877 -0.004074 -0.014958 0.008969 0.055401 -0.000246
# 6 -0.007505 -0.003415 0.004776 -0.015136 -0.000246 0.033371
#
#
# Mechanical properties :
#
#
# Convention : Reuss Voigt Hill
#
# Bulk Modulus (GPa) = 33.72028 63.13869 48.42948
# Shear Modulus (GPa) = 25.58737 36.22330 30.90533
#
# Velocity S-wave (km/s) = 3.30538 3.93281 3.63266
# Velocity P-wave (km/s) = 5.38197 6.89798 6.18659
#
# Compressibility (1/GPa) = 0.02965575
#
# Stress axis : x y z
#
# Youngs Moduli (GPa) = 62.67728 102.14839 57.94507
#
# Poissons Ratio (x) = -0.00169 0.17233
# Poissons Ratio (y) = -0.00103 0.21531
# Poissons Ratio (z) = 0.18640 0.37956
#
# Static dielectric constant tensor:
#      x y z
#    x 1.962440 -0.010320 0.033710 
#    y -0.010320 1.858030 0.004740 
#    z 0.033710 0.004740 1.916810 
# 
# From -- ./inp_files/307364.got.cif
#   From: 2010.05.17/outbox.cif.g08.bks.cpg/sg2_154_cif.got.tgz:307364.got - 2010.06.03 11:33:40.
