data_PCOD9084769
_publ_section_title
;
Structure prediction by ZEFSAII (Michael W. Deem and Ramdas Pophale) SiO2 
 PCOD9084769
Probable space group: P -1
;
_chemical_formula_sum "Si O2"
_cell_formula_units_Z 14
_cell_length_a 10.463097
_cell_length_b 14.903078
_cell_length_c 24.476679
_cell_angle_alpha 17.373117
_cell_angle_beta 28.267374
_cell_angle_gamma 25.229508
_cell_volume 481.202072
_symmetry_space_group_name_H-M "P -1"
_symmetry_group_IT_number 2
_symmetry_cell_setting 'triclinic'
loop_
_space_group_symop_operation_xyz
x,y,z
-x,-y,-z
loop_
_atom_site_type_symbol
_atom_site_label
_atom_site_fract_x
_atom_site_fract_y
_atom_site_fract_z
Si Si1 0.366590 0.188576 0.832549
Si Si2 0.812464 0.471981 0.639016
Si Si3 0.561260 0.808300 0.820502
Si Si4 0.635251 0.399595 0.178053
Si Si5 0.198054 0.293726 0.315939
Si Si6 0.906055 0.751572 0.993906
Si Si7 0.795404 0.447893 0.466016
O O1 0.028036 0.378204 0.824698
O O2 0.553196 0.350537 0.638338
O O3 0.371948 0.233766 0.871114
O O4 0.498006 0.800500 0.995107
O O5 0.952845 0.618006 0.546059
O O6 0.000000 0.500000 0.500000
O O7 0.465559 0.636138 0.700223
O O8 0.921803 0.071957 0.830213
O O9 0.634840 0.954095 0.652080
O O10 0.317756 0.155702 0.736188
O O11 0.500000 0.500000 0.000000
O O12 0.832535 0.607319 0.876076
O O13 0.978371 0.245240 0.114071
O O14 0.442151 0.313490 0.254332
O O15 0.964172 0.226982 0.478784
#
# Coordination Sequence:
#
# PCOD9084769 Si02
#       7
#     2   2   2   2   2   2   2
#     4  10  22  32  52  85 117 144 171 218 277 325
#     4  10  22  39  59  79 101 141 193 233 265 312
#     4  11  19  32  55  82 110 144 176 216 268 325
#     4  10  19  35  57  78 107 149 184 217 262 327
#     4  10  20  31  54  78 112 149 178 208 262 328
#     4  10  20  36  57  80 109 144 182 217 269 329
#     4  11  22  36  53  83 116 140 178 228 269 318
#
# _framework density 29.093806000000001
#
# number of rings (size 3 to 8) (size 9 to 14) (size 15 to 20)
#    0.000    1.714    2.857    1.714    2.000    4.000 
#    0.000    2.857    0.000    1.714    0.000    0.000 
#    0.000    0.000    0.000    0.000    0.000    0.000 
#
# Total GULP energy -78119.395027 kJ/mol
# GULP energy per Si atom -5579.956788 kJ/mol
# Density = 2.902759 g / cm^3
# Si number density = 29.093806 Si / 1000 Ang^3
#
#
#
# Elastic Constant Matrix: (Units=GPa)
#
#
# Indices 1 2 3 4 5 6 
#
# 1 70.9811 24.0457 14.4174 13.9154 13.7166 27.6489
# 2 24.0457 190.4713 65.8028 50.9646 12.2986 33.0126
# 3 14.4174 65.8028 137.1937 27.5272 7.8921 3.5064
# 4 13.9154 50.9646 27.5272 73.9836 11.3875 11.3919
# 5 13.7166 12.2986 7.8921 11.3875 30.5475 14.2431
# 6 27.6489 33.0126 3.5064 11.3919 14.2431 43.7787
#
#
#
# Elastic Compliance Matrix: (Units=1/GPa)
#
#
# Indices 1 2 3 4 5 6 
#
# 1 0.019425 0.000599 -0.001621 -0.001289 -0.002771 -0.011353
# 2 0.000599 0.008223 -0.003151 -0.003932 0.001383 -0.005753
# 3 -0.001621 -0.003151 0.009222 -0.001256 -0.001546 0.003490
# 4 -0.001289 -0.003932 -0.001256 0.017494 -0.004387 0.000754
# 5 -0.002771 0.001383 -0.001546 -0.004387 0.040714 -0.011273
# 6 -0.011353 -0.005753 0.003490 0.000754 -0.011273 0.037543
#
#
# Mechanical properties :
#
#
# Convention : Reuss Voigt Hill
#
# Bulk Modulus (GPa) = 35.05596 67.46419 51.26007
# Shear Modulus (GPa) = 33.22849 49.28730 41.25789
#
# Velocity S-wave (km/s) = 3.38319 4.12039 3.76985
# Velocity P-wave (km/s) = 5.22845 6.77316 6.05030
#
# Compressibility (1/GPa) = 0.02852582
#
# Stress axis : x y z
#
# Youngs Moduli (GPa) = 51.48026 121.61189 108.43607
#
# Poissons Ratio (x) = -0.07285 0.17572
# Poissons Ratio (y) = -0.03084 0.34163
# Poissons Ratio (z) = 0.08342 0.38314
#
# Static dielectric constant tensor:
#      x y z
#    x 2.331560 -0.057720 0.069680 
#    y -0.057720 2.306000 0.196930 
#    z 0.069680 0.196930 2.352600 
# 
# From -- ./inp_files/306362.got.cif
#   From: 2010.05.17/outbox.cif.g08.bks.cpg/sg2_154_cif.got.tgz:306362.got - 2010.06.03 11:33:40.
