data_PCOD9084929
_publ_section_title
;
Structure prediction by ZEFSAII (Michael W. Deem and Ramdas Pophale) SiO2 
 PCOD9084929
Probable space group: P -1
;
_chemical_formula_sum "Si O2"
_cell_formula_units_Z 14
_cell_length_a 9.672289
_cell_length_b 7.892349
_cell_length_c 9.220656
_cell_angle_alpha 73.333172
_cell_angle_beta 78.613186
_cell_angle_gamma 85.689721
_cell_volume 660.905773
_symmetry_space_group_name_H-M "P -1"
_symmetry_group_IT_number 2
_symmetry_cell_setting 'triclinic'
loop_
_space_group_symop_operation_xyz
x,y,z
-x,-y,-z
loop_
_atom_site_type_symbol
_atom_site_label
_atom_site_fract_x
_atom_site_fract_y
_atom_site_fract_z
Si Si1 0.059666 0.158569 0.766519
Si Si2 0.684770 0.440584 0.139035
Si Si3 0.862028 0.392998 0.598778
Si Si4 0.473148 0.188165 0.383155
Si Si5 0.750609 0.649796 0.807383
Si Si6 0.978644 0.245875 0.089507
Si Si7 0.679074 0.602284 0.397906
O O1 0.198015 0.251868 0.655288
O O2 0.924214 0.206194 0.682822
O O3 0.026867 0.241017 0.912257
O O4 0.077972 0.950192 0.824302
O O5 0.598015 0.266298 0.239507
O O6 0.647965 0.574712 0.243994
O O7 0.850657 0.383437 0.111687
O O8 0.658848 0.548070 0.970675
O O9 0.795949 0.499036 0.720831
O O10 0.751058 0.419349 0.486685
O O11 0.000000 0.500000 0.500000
O O12 0.337396 0.203603 0.300847
O O13 0.440316 0.326557 0.487126
O O14 0.500000 0.000000 0.500000
O O15 0.888484 0.720783 0.842414
#
# Coordination Sequence:
#
# PCOD9084929 Si02
#       7
#     2   2   2   2   2   2   2
#     4  10  19  35  57  95 128 152 199 255 313 352
#     4  12  22  41  67  93 123 165 212 250 306 374
#     4   9  18  34  57  87 124 161 195 247 302 369
#     4  11  26  45  62  88 129 166 206 259 314 364
#     4  11  22  41  64  93 121 166 211 250 306 373
#     4  11  21  34  65  95 123 154 200 263 306 355
#     4  10  21  39  63  86 123 165 207 250 306 372
#
# _framework density 21.183049
#
# number of rings (size 3 to 8) (size 9 to 14) (size 15 to 20)
#    0.000    1.429    2.857    3.857    0.000    1.143 
#    0.000    8.571    0.000    0.000    0.000    0.000 
#    0.000    0.000    0.000    0.000    0.000    0.000 
#
# Total GULP energy -78175.576259 kJ/mol
# GULP energy per Si atom -5583.969733 kJ/mol
# Density = 2.113484 g / cm^3
# Si number density = 21.183049 Si / 1000 Ang^3
#
#
#
# Elastic Constant Matrix: (Units=GPa)
#
#
# Indices 1 2 3 4 5 6 
#
# 1 81.3787 11.3148 27.9049 -10.6087 -3.7143 -9.6223
# 2 11.3148 60.2927 21.6667 -16.0653 3.9497 -15.0320
# 3 27.9049 21.6667 128.0103 -2.9377 3.6529 -11.3319
# 4 -10.6087 -16.0653 -2.9377 36.8943 -6.8211 3.7141
# 5 -3.7143 3.9497 3.6529 -6.8211 29.6376 -7.6958
# 6 -9.6223 -15.0320 -11.3319 3.7141 -7.6958 27.6585
#
#
#
# Elastic Compliance Matrix: (Units=1/GPa)
#
#
# Indices 1 2 3 4 5 6 
#
# 1 0.014548 0.000365 -0.002838 0.004450 0.004373 0.004716
# 2 0.000365 0.022405 -0.002793 0.008984 0.002216 0.010570
# 3 -0.002838 -0.002793 0.008994 -0.001644 -0.001193 0.001068
# 4 0.004450 0.008984 -0.001644 0.033315 0.008153 0.003552
# 5 0.004373 0.002216 -0.001193 0.008153 0.039142 0.012033
# 6 0.004716 0.010570 0.001068 0.003552 0.012033 0.046849
#
#
# Mechanical properties :
#
#
# Convention : Reuss Voigt Hill
#
# Bulk Modulus (GPa) = 28.23752 43.49495 35.86623
# Shear Modulus (GPa) = 26.65375 32.75775 29.70575
#
# Velocity S-wave (km/s) = 3.55104 3.93671 3.74884
# Velocity P-wave (km/s) = 5.49294 6.42192 5.97551
#
# Compressibility (1/GPa) = 0.03541388
#
# Stress axis : x y z
#
# Youngs Moduli (GPa) = 68.73779 44.63300 111.18239
#
# Poissons Ratio (x) = -0.01628 0.31557
# Poissons Ratio (y) = -0.02507 0.31055
# Poissons Ratio (z) = 0.19510 0.12467
#
# Static dielectric constant tensor:
#      x y z
#    x 1.849580 0.024830 -0.001840 
#    y 0.024830 1.735450 -0.029690 
#    z -0.001840 -0.029690 1.775720 
# 
# From -- ./inp_files/157179.got.cif
#   From: 2010.05.17/outbox.cif.g08.bks.cpg/sg2_79_cif.got.tgz:157179.got - 2010.06.03 11:33:40.
