data_PCOD9084484
_publ_section_title
;
Structure prediction by ZEFSAII (Michael W. Deem and Ramdas Pophale) SiO2 
 PCOD9084484
Probable space group: P -1
;
_chemical_formula_sum "Si O2"
_cell_formula_units_Z 14
_cell_length_a 8.554884
_cell_length_b 11.785966
_cell_length_c 10.061385
_cell_angle_alpha 78.844796
_cell_angle_beta 44.962757
_cell_angle_gamma 99.563436
_cell_volume 632.583860
_symmetry_space_group_name_H-M "P -1"
_symmetry_group_IT_number 2
_symmetry_cell_setting 'triclinic'
loop_
_space_group_symop_operation_xyz
x,y,z
-x,-y,-z
loop_
_atom_site_type_symbol
_atom_site_label
_atom_site_fract_x
_atom_site_fract_y
_atom_site_fract_z
Si Si1 0.694171 0.961760 0.961661
Si Si2 0.846699 0.050107 0.401019
Si Si3 0.298387 0.896804 0.817874
Si Si4 0.907552 0.523078 0.378188
Si Si5 0.155364 0.338974 0.178530
Si Si6 0.605046 0.335933 0.824789
Si Si7 0.936712 0.611603 0.067240
O O1 0.553603 0.807534 0.101743
O O2 0.780143 0.039601 0.028775
O O3 0.933507 0.990830 0.722717
O O4 0.500000 0.000000 0.000000
O O5 0.778388 0.063252 0.285061
O O6 0.958333 0.193870 0.360519
O O7 0.592195 0.953825 0.638879
O O8 0.172560 0.743408 0.929789
O O9 0.044397 0.432552 0.278752
O O10 0.135116 0.647327 0.273671
O O11 0.806710 0.559951 0.297869
O O12 0.703365 0.445368 0.626821
O O13 0.431067 0.356899 0.036620
O O14 0.176783 0.353634 0.001129
O O15 0.000000 0.500000 0.000000
#
# Coordination Sequence:
#
# PCOD9084484 Si02
#       7
#     2   2   2   2   2   2   2
#     4  11  22  36  54  81 111 138 176 222 265 314
#     4   9  20  36  58  81 103 140 180 217 266 315
#     4  10  19  37  58  78 108 140 175 219 265 314
#     4  10  19  35  53  75 107 139 173 212 256 308
#     4   9  18  35  55  77 104 135 174 217 260 306
#     4  10  21  34  53  77 104 142 176 208 259 315
#     4   9  19  35  55  79 105 134 172 218 260 307
#
# _framework density 22.131453
#
# number of rings (size 3 to 8) (size 9 to 14) (size 15 to 20)
#    0.000    2.286    0.000    2.571    0.000    2.286 
#    0.000   10.000    0.000    0.000    0.000    0.000 
#    0.000    0.000    0.000    0.000    0.000    0.000 
#
# Total GULP energy -78122.669378 kJ/mol
# GULP energy per Si atom -5580.190670 kJ/mol
# Density = 2.208108 g / cm^3
# Si number density = 22.131453 Si / 1000 Ang^3
#
#
#
# Elastic Constant Matrix: (Units=GPa)
#
#
# Indices 1 2 3 4 5 6 
#
# 1 31.8909 -1.5772 7.5326 -2.1515 -1.6363 -5.6807
# 2 -1.5772 110.0766 24.2960 -9.8065 -16.0957 6.4498
# 3 7.5326 24.2960 90.3625 -0.0366 -26.4196 -3.7714
# 4 -2.1515 -9.8065 -0.0366 16.3546 3.0743 -1.0094
# 5 -1.6363 -16.0957 -26.4196 3.0743 37.3607 3.8404
# 6 -5.6807 6.4498 -3.7714 -1.0094 3.8404 28.2819
#
#
#
# Elastic Compliance Matrix: (Units=1/GPa)
#
#
# Indices 1 2 3 4 5 6 
#
# 1 0.033651 0.001120 -0.003272 0.005773 -0.001498 0.006477
# 2 0.001120 0.010693 -0.002240 0.005849 0.002867 -0.002693
# 3 -0.003272 -0.002240 0.014756 -0.003516 0.009575 0.000396
# 4 0.005773 0.005849 -0.003516 0.066580 -0.005446 0.002473
# 5 -0.001498 0.002867 0.009575 -0.005446 0.035639 -0.004712
# 6 0.006477 -0.002693 0.000396 0.002473 -0.004712 0.038054
#
#
# Mechanical properties :
#
#
# Convention : Reuss Voigt Hill
#
# Bulk Modulus (GPa) = 19.87395 32.53698 26.20547
# Shear Modulus (GPa) = 22.22913 29.87135 26.05024
#
# Velocity S-wave (km/s) = 3.17269 3.67784 3.43457
# Velocity P-wave (km/s) = 4.73505 5.72442 5.25308
#
# Compressibility (1/GPa) = 0.05031711
#
# Stress axis : x y z
#
# Youngs Moduli (GPa) = 29.71652 93.51730 67.76838
#
# Poissons Ratio (x) = -0.10474 0.22171
# Poissons Ratio (y) = -0.03328 0.15181
# Poissons Ratio (z) = 0.09722 0.20950
#
# Static dielectric constant tensor:
#      x y z
#    x 1.894780 0.024540 0.007910 
#    y 0.024540 1.809720 -0.003930 
#    z 0.007910 -0.003930 1.788460 
# 
# From -- ./inp_files/66981.got.cif
#   From: 2010.05.17/outbox.cif.g08.bks.cpg/sg2_34_cif.got.tgz:66981.got - 2010.06.03 11:33:40.
