data_PCOD9084742
_publ_section_title
;
Structure prediction by ZEFSAII (Michael W. Deem and Ramdas Pophale) SiO2 
 PCOD9084742
Probable space group: P -1
;
_chemical_formula_sum "Si O2"
_cell_formula_units_Z 16
_cell_length_a 18.921690
_cell_length_b 5.424738
_cell_length_c 9.464079
_cell_angle_alpha 74.873207
_cell_angle_beta 122.553792
_cell_angle_gamma 71.854809
_cell_volume 657.368665
_symmetry_space_group_name_H-M "P -1"
_symmetry_group_IT_number 2
_symmetry_cell_setting 'triclinic'
loop_
_space_group_symop_operation_xyz
x,y,z
-x,-y,-z
loop_
_atom_site_type_symbol
_atom_site_label
_atom_site_fract_x
_atom_site_fract_y
_atom_site_fract_z
Si Si1 0.974326 0.352202 0.662455
Si Si2 0.826861 0.307488 0.675538
Si Si3 0.779129 0.355537 0.930644
Si Si4 0.219045 0.052499 0.541237
Si Si5 0.400714 0.092562 0.472236
Si Si6 0.529694 0.554225 0.366769
Si Si7 0.317944 0.929802 0.953730
Si Si8 0.875838 0.482263 0.250340
O O1 0.938922 0.205525 0.760624
O O2 0.892493 0.723494 0.541577
O O3 0.944081 0.296714 0.484871
O O4 0.079625 0.320230 0.781774
O O5 0.819965 0.223177 0.839685
O O6 0.770510 0.678770 0.550287
O O7 0.787710 0.162033 0.546101
O O8 0.696845 0.720157 0.759743
O O9 0.715229 0.243492 0.952894
O O10 0.864917 0.311730 0.133893
O O11 0.297627 0.881531 0.778092
O O12 0.400268 0.322152 0.550286
O O13 0.500000 0.000000 0.500000
O O14 0.417678 0.780868 0.594396
O O15 0.500000 0.500000 0.500000
O O16 0.431517 0.799617 0.137190
O O17 0.237334 0.289047 0.845016
#
# Coordination Sequence:
#
# PCOD9084742 Si02
#       8
#     2   2   2   2   2   2   2   2
#     4   8  20  41  63  84 133 164 199 250 316 357
#     4  10  23  42  61  86 131 171 193 252 316 365
#     4  12  24  34  66  97 122 155 215 257 304 363
#     4   9  22  43  62  84 123 177 199 239 311 371
#     4  10  20  36  55  88 125 153 186 258 313 350
#     4  10  19  35  56  89 121 150 189 259 309 343
#     4  11  22  35  68  95 117 158 219 255 292 371
#     4  10  20  38  62  99 114 161 215 257 290 367
#
# _framework density 24.339461
#
# number of rings (size 3 to 8) (size 9 to 14) (size 15 to 20)
#    0.750    1.250    2.500    2.250    1.750    1.500 
#    0.000    5.000    0.000    4.500    0.000    0.000 
#    0.000    0.000    0.000    0.000    0.000    0.000 
#
# Total GULP energy -89452.821024 kJ/mol
# GULP energy per Si atom -5590.801314 kJ/mol
# Density = 2.428406 g / cm^3
# Si number density = 24.339461 Si / 1000 Ang^3
#
#
#
# Elastic Constant Matrix: (Units=GPa)
#
#
# Indices 1 2 3 4 5 6 
#
# 1 86.8949 18.6328 28.2638 12.1521 -5.2168 14.4613
# 2 18.6328 123.1571 35.2473 26.4389 3.8816 15.6829
# 3 28.2638 35.2473 120.1757 13.1615 4.1824 -2.9409
# 4 12.1521 26.4389 13.1615 49.0641 -6.4808 2.9403
# 5 -5.2168 3.8816 4.1824 -6.4808 42.5301 2.8949
# 6 14.4613 15.6829 -2.9409 2.9403 2.8949 35.2811
#
#
#
# Elastic Compliance Matrix: (Units=1/GPa)
#
#
# Indices 1 2 3 4 5 6 
#
# 1 0.013984 -0.000074 -0.003281 -0.001899 0.002163 -0.005992
# 2 -0.000074 0.010505 -0.002600 -0.004836 -0.001152 -0.004358
# 3 -0.003281 -0.002600 0.010095 -0.000910 -0.001538 0.003544
# 4 -0.001899 -0.004836 -0.000910 0.024193 0.003950 0.000512
# 5 0.002163 -0.001152 -0.001538 0.003950 0.024832 -0.002869
# 6 -0.005992 -0.004358 0.003544 0.000512 -0.002869 0.033225
#
#
# Mechanical properties :
#
#
# Convention : Reuss Voigt Hill
#
# Bulk Modulus (GPa) = 44.10675 54.94616 49.52646
# Shear Modulus (GPa) = 36.68324 41.91398 39.29861
#
# Velocity S-wave (km/s) = 3.88642 4.15427 4.02257
# Velocity P-wave (km/s) = 6.18868 6.75534 6.47821
#
# Compressibility (1/GPa) = 0.02267227
#
# Stress axis : x y z
#
# Youngs Moduli (GPa) = 71.51137 95.19660 99.05509
#
# Poissons Ratio (x) = 0.00707 0.32500
# Poissons Ratio (y) = 0.00531 0.25759
# Poissons Ratio (z) = 0.23463 0.24756
#
# Static dielectric constant tensor:
#      x y z
#    x 1.954260 -0.086210 0.004050 
#    y -0.086210 2.223690 -0.041540 
#    z 0.004050 -0.041540 1.905070 
# 
# From -- ./inp_files/351033.got.cif
#   From: 2010.05.17/outbox.cif.g08.bks.cpg/sg2_176_cif.got.tgz:351033.got - 2010.06.03 11:33:40.
