data_PCOD9084491
_publ_section_title
;
Structure prediction by ZEFSAII (Michael W. Deem and Ramdas Pophale) SiO2 
 PCOD9084491
Probable space group: P -1
;
_chemical_formula_sum "Si O2"
_cell_formula_units_Z 15
_cell_length_a 10.282958
_cell_length_b 8.774081
_cell_length_c 11.170372
_cell_angle_alpha 39.755989
_cell_angle_beta 113.124397
_cell_angle_gamma 109.643321
_cell_volume 591.736391
_symmetry_space_group_name_H-M "P -1"
_symmetry_group_IT_number 2
_symmetry_cell_setting 'triclinic'
loop_
_space_group_symop_operation_xyz
x,y,z
-x,-y,-z
loop_
_atom_site_type_symbol
_atom_site_label
_atom_site_fract_x
_atom_site_fract_y
_atom_site_fract_z
Si Si1 0.804158 0.880048 0.236323
Si Si2 0.905132 0.621292 0.792346
Si Si3 0.813609 0.243401 0.236104
Si Si4 0.369915 0.725695 0.158938
Si Si5 0.294588 0.986246 0.440500
Si Si6 0.747150 0.327047 0.617794
Si Si7 0.576628 0.540762 0.878454
Si Si8 0.000000 0.000000 0.000000
O O1 0.780801 0.606450 0.433550
O O2 0.916978 0.920247 0.145824
O O3 0.837016 0.040678 0.269107
O O4 0.667353 0.013668 0.056812
O O5 0.774278 0.455310 0.796099
O O6 0.843391 0.858941 0.679065
O O7 0.031007 0.674408 0.708721
O O8 0.000000 0.500000 0.000000
O O9 0.703697 0.144255 0.354395
O O10 0.733908 0.459219 0.018107
O O11 0.387402 0.715817 0.313705
O O12 0.468222 0.613743 0.161304
O O13 0.411314 0.189585 0.323522
O O14 0.279905 0.800074 0.441821
O O15 0.871444 0.176793 0.812015
O O16 0.500000 0.500000 0.000000
#
# Coordination Sequence:
#
# PCOD9084491 Si02
#       8
#     2   2   2   2   2   2   2   1
#     4  10  19  35  53  78 113 159 191 234 285 346
#     4  11  18  37  59  85 123 157 198 240 287 341
#     4  11  22  39  63  87 119 157 200 246 297 346
#     4   9  21  38  61  85 118 157 197 241 292 353
#     4  11  24  37  59  92 120 155 197 244 295 356
#     4  11  23  36  53  82 124 156 194 234 297 353
#     4  10  22  43  68  88 110 148 204 256 297 347
#     4  10  22  32  50  80 122 160 198 226 272 350
#
# _framework density 25.349126999999999
#
# number of rings (size 3 to 8) (size 9 to 14) (size 15 to 20)
#    0.000    1.600    4.000    3.200    1.867    5.867 
#    0.000    0.667    0.000    4.000    0.000    0.000 
#    0.000    0.000    0.000    0.000    0.000    0.000 
#
# Total GULP energy -83565.994243 kJ/mol
# GULP energy per Si atom -5571.066283 kJ/mol
# Density = 2.529143 g / cm^3
# Si number density = 25.349127 Si / 1000 Ang^3
#
#
#
# Elastic Constant Matrix: (Units=GPa)
#
#
# Indices 1 2 3 4 5 6 
#
# 1 84.0786 31.4924 24.7942 7.0967 -9.0215 -24.0962
# 2 31.4924 95.4859 36.2853 -8.4008 -12.4550 -17.0041
# 3 24.7942 36.2853 186.2198 -7.4078 -12.2721 -13.9908
# 4 7.0967 -8.4008 -7.4078 36.0591 -20.3307 -17.3280
# 5 -9.0215 -12.4550 -12.2721 -20.3307 50.6944 5.6647
# 6 -24.0962 -17.0041 -13.9908 -17.3280 5.6647 44.0144
#
#
#
# Elastic Compliance Matrix: (Units=1/GPa)
#
#
# Indices 1 2 3 4 5 6 
#
# 1 0.015472 -0.003562 -0.000845 -0.000484 0.000749 0.006539
# 2 -0.003562 0.015131 -0.001078 0.011046 0.006463 0.007070
# 3 -0.000845 -0.001078 0.006138 0.003459 0.002218 0.002149
# 4 -0.000484 0.011046 0.003459 0.055706 0.023118 0.024058
# 5 0.000749 0.006463 0.002218 0.023118 0.030270 0.008817
# 6 0.006539 0.007070 0.002149 0.024058 0.008817 0.038050
#
#
# Mechanical properties :
#
#
# Convention : Reuss Voigt Hill
#
# Bulk Modulus (GPa) = 38.80243 61.21424 50.00833
# Shear Modulus (GPa) = 27.72744 44.36773 36.04758
#
# Velocity S-wave (km/s) = 3.31089 4.18816 3.77509
# Velocity P-wave (km/s) = 5.47324 6.89844 6.22675
#
# Compressibility (1/GPa) = 0.02577158
#
# Stress axis : x y z
#
# Youngs Moduli (GPa) = 64.63202 66.09003 162.93023
#
# Poissons Ratio (x) = 0.23544 0.13760
# Poissons Ratio (y) = 0.23025 0.17556
# Poissons Ratio (z) = 0.05458 0.07121
#
# Static dielectric constant tensor:
#      x y z
#    x 2.243960 0.047600 -0.035500 
#    y 0.047600 1.997300 0.010560 
#    z -0.035500 0.010560 2.030060 
# 
# From -- ./inp_files/414017.got.cif
#   From: 2010.05.17/outbox.cif.g08.bks.cpg/sg2_208_cif.got.tgz:414017.got - 2010.06.03 11:33:40.
