data_PCOD9084720
_publ_section_title
;
Structure prediction by ZEFSAII (Michael W. Deem and Ramdas Pophale) SiO2 
 PCOD9084720
Probable space group: P -1
;
_chemical_formula_sum "Si O2"
_cell_formula_units_Z 14
_cell_length_a 9.210454
_cell_length_b 13.636436
_cell_length_c 11.404176
_cell_angle_alpha 44.352323
_cell_angle_beta 131.745005
_cell_angle_gamma 107.345731
_cell_volume 702.259026
_symmetry_space_group_name_H-M "P -1"
_symmetry_group_IT_number 2
_symmetry_cell_setting 'triclinic'
loop_
_space_group_symop_operation_xyz
x,y,z
-x,-y,-z
loop_
_atom_site_type_symbol
_atom_site_label
_atom_site_fract_x
_atom_site_fract_y
_atom_site_fract_z
Si Si1 0.185115 0.402254 0.843527
Si Si2 0.731588 0.541820 0.417897
Si Si3 0.886268 0.199122 0.242425
Si Si4 0.652560 0.531738 0.747227
Si Si5 0.095838 0.333950 0.408171
Si Si6 0.466396 0.203686 0.358376
Si Si7 0.245214 0.981498 0.499942
O O1 0.291100 0.420180 0.764192
O O2 0.953151 0.411728 0.672355
O O3 0.124666 0.553196 0.759956
O O4 0.315039 0.268262 0.110046
O O5 0.545713 0.489889 0.401321
O O6 0.757519 0.679479 0.388368
O O7 0.736337 0.125367 0.286970
O O8 0.053367 0.201487 0.431333
O O9 0.780205 0.368937 0.004229
O O10 0.015217 0.100909 0.289354
O O11 0.804120 0.582744 0.702037
O O12 0.565456 0.658128 0.691211
O O13 0.691067 0.122659 0.491471
O O14 0.393354 0.080518 0.489642
#
# Coordination Sequence:
#
# PCOD9084720 Si02
#       7
#     2   2   2   2   2   2   2
#     4   9  19  36  56  84 116 142 184 238 280 321
#     4   9  21  33  55  94 113 140 185 249 278 322
#     4  11  21  38  60  85 114 151 189 235 282 333
#     4  12  20  34  65  90 108 145 196 237 278 328
#     4  10  19  35  56  86 115 142 184 241 272 330
#     4  11  21  38  60  87 115 146 189 239 280 335
#     4  10  24  36  54  88 121 148 181 235 293 334
#
# _framework density 19.935663000000002
#
# number of rings (size 3 to 8) (size 9 to 14) (size 15 to 20)
#    0.857    0.857    2.857    2.571    2.000    1.143 
#    0.000    0.000    0.000   18.857    0.000    0.000 
#    0.000    0.000    0.000    0.000    0.000    0.000 
#
# Total GULP energy -77950.149574 kJ/mol
# GULP energy per Si atom -5567.867827 kJ/mol
# Density = 1.989029 g / cm^3
# Si number density = 19.935663 Si / 1000 Ang^3
#
#
#
# Elastic Constant Matrix: (Units=GPa)
#
#
# Indices 1 2 3 4 5 6 
#
# 1 112.9341 40.7520 34.6513 -7.9312 -10.2434 -21.7754
# 2 40.7520 64.8326 39.4065 -7.4290 -0.7749 -13.9856
# 3 34.6513 39.4065 34.3689 -7.7649 -4.1260 -8.0157
# 4 -7.9312 -7.4290 -7.7649 27.4387 -3.1728 8.6387
# 5 -10.2434 -0.7749 -4.1260 -3.1728 20.2257 -5.0101
# 6 -21.7754 -13.9856 -8.0157 8.6387 -5.0101 37.2025
#
#
#
# Elastic Compliance Matrix: (Units=1/GPa)
#
#
# Indices 1 2 3 4 5 6 
#
# 1 0.014524 -0.000342 -0.012045 -0.000700 0.006463 0.006810
# 2 -0.000342 0.055196 -0.064103 -0.006672 -0.010479 0.006876
# 3 -0.012045 -0.064103 0.118878 0.017003 0.016565 -0.007252
# 4 -0.000700 -0.006672 0.017003 0.042686 0.007535 -0.008151
# 5 0.006463 -0.010479 0.016565 0.007535 0.059264 0.009644
# 6 0.006810 0.006876 -0.007252 -0.008151 0.009644 0.035080
#
#
# Mechanical properties :
#
#
# Convention : Reuss Voigt Hill
#
# Bulk Modulus (GPa) = 28.07632 49.08391 38.58012
# Shear Modulus (GPa) = 10.19410 23.46177 16.82794
#
# Velocity S-wave (km/s) = 2.26376 3.43428 2.90851
# Velocity P-wave (km/s) = 4.57677 6.35613 5.53837
#
# Compressibility (1/GPa) = 0.03561720
#
# Stress axis : x y z
#
# Youngs Moduli (GPa) = 68.85107 18.11734 8.41201
#
# Poissons Ratio (x) = 0.00619 0.10133
# Poissons Ratio (y) = 0.02354 0.53923
# Poissons Ratio (z) = 0.82933 1.16137
#
# Static dielectric constant tensor:
#      x y z
#    x 1.733050 -0.028220 0.013800 
#    y -0.028220 1.724690 -0.000860 
#    z 0.013800 -0.000860 1.708750 
# 
# From -- ./inp_files/233803.got.cif
#   From: 2010.05.17/outbox.cif.g08.bks.cpg/sg2_117_cif.got.tgz:233803.got - 2010.06.03 11:33:40.
