data_PCOD9084133
_publ_section_title
;
Structure prediction by ZEFSAII (Michael W. Deem and Ramdas Pophale) SiO2 
 PCOD9084133
Probable space group: P -1
;
_chemical_formula_sum "Si O2"
_cell_formula_units_Z 12
_cell_length_a 12.358460
_cell_length_b 8.896777
_cell_length_c 8.447866
_cell_angle_alpha 95.071278
_cell_angle_beta 99.800948
_cell_angle_gamma 31.201215
_cell_volume 471.174830
_symmetry_space_group_name_H-M "P -1"
_symmetry_group_IT_number 2
_symmetry_cell_setting 'triclinic'
loop_
_space_group_symop_operation_xyz
x,y,z
-x,-y,-z
loop_
_atom_site_type_symbol
_atom_site_label
_atom_site_fract_x
_atom_site_fract_y
_atom_site_fract_z
Si Si1 0.952579 0.293265 0.463838
Si Si2 0.291308 0.643845 0.386913
Si Si3 0.011712 0.115009 0.887368
Si Si4 0.570294 0.484556 0.190699
Si Si5 0.908570 0.618269 0.250392
Si Si6 0.730357 0.910727 0.922655
O O1 0.756969 0.419700 0.489999
O O2 0.881177 0.502698 0.339373
O O3 0.069805 0.258104 0.624373
O O4 0.127243 0.974832 0.405476
O O5 0.481600 0.508208 0.330765
O O6 0.214893 0.620507 0.224815
O O7 0.184688 0.848090 0.783092
O O8 0.099679 0.156436 0.999254
O O9 0.000000 0.000000 0.000000
O O10 0.473706 0.765531 0.169025
O O11 0.500000 0.500000 0.000000
O O12 0.139863 0.335486 0.196873
O O13 0.728037 0.838114 0.089283
#
# Coordination Sequence:
#
# PCOD9084133 Si02
#       6
#     2   2   2   2   2   2
#     4  10  21  35  60  88 126 168 194 238 305 369
#     4  11  20  38  60  93 119 159 206 243 300 354
#     4  11  19  35  64  94 117 150 203 259 299 339
#     4  10  20  35  62  94 121 148 207 261 291 344
#     4  10  19  35  61  90 123 168 194 239 308 361
#     4  10  19  34  60  94 117 157 203 249 296 352
#
# _framework density 25.468254999999999
#
# number of rings (size 3 to 8) (size 9 to 14) (size 15 to 20)
#    0.000    1.667    6.667    0.000    0.000    0.000 
#    0.000    3.333    0.000   30.000    0.000    0.000 
#    0.000    0.000    0.000    0.000    0.000    0.000 
#
# Total GULP energy -66955.860762 kJ/mol
# GULP energy per Si atom -5579.655063 kJ/mol
# Density = 2.541029 g / cm^3
# Si number density = 25.468255 Si / 1000 Ang^3
#
#
#
# Elastic Constant Matrix: (Units=GPa)
#
#
# Indices 1 2 3 4 5 6 
#
# 1 144.6020 51.8907 48.2126 1.6644 -42.0419 14.4113
# 2 51.8907 78.1280 28.1665 -3.7194 -18.4140 17.1721
# 3 48.2126 28.1665 122.1330 3.4711 -45.6979 16.9075
# 4 1.6644 -3.7194 3.4711 43.9398 16.3759 -14.9270
# 5 -42.0419 -18.4140 -45.6979 16.3759 62.5019 2.3996
# 6 14.4113 17.1721 16.9075 -14.9270 2.3996 37.1462
#
#
#
# Elastic Compliance Matrix: (Units=1/GPa)
#
#
# Indices 1 2 3 4 5 6 
#
# 1 0.011601 -0.005009 0.000753 -0.006024 0.008668 -0.005508
# 2 -0.005009 0.018335 -0.000234 -0.001667 0.002577 -0.007263
# 3 0.000753 -0.000234 0.015933 -0.011579 0.015623 -0.013098
# 4 -0.006024 -0.001667 -0.011579 0.042297 -0.025128 0.026999
# 5 0.008668 0.002577 0.015623 -0.025128 0.041534 -0.024446
# 6 -0.005508 -0.007263 -0.013098 0.026999 -0.024446 0.050805
#
#
# Mechanical properties :
#
#
# Convention : Reuss Voigt Hill
#
# Bulk Modulus (GPa) = 27.11000 66.82250 46.96625
# Shear Modulus (GPa) = 24.77928 43.15712 33.96820
#
# Velocity S-wave (km/s) = 3.12260 4.12095 3.65601
# Velocity P-wave (km/s) = 4.86503 6.99554 6.02520
#
# Compressibility (1/GPa) = 0.03688676
#
# Stress axis : x y z
#
# Youngs Moduli (GPa) = 86.20309 54.53971 62.76476
#
# Poissons Ratio (x) = 0.27321 -0.04725
# Poissons Ratio (y) = 0.43183 0.01469
# Poissons Ratio (z) = -0.06489 0.01277
#
# Static dielectric constant tensor:
#      x y z
#    x 2.069030 -0.010350 0.038200 
#    y -0.010350 2.052220 -0.062730 
#    z 0.038200 -0.062730 2.161560 
# 
# From -- ./inp_files/243993.got.cif
#   From: 2010.05.17/outbox.cif.g08.bks.cpg/sg2_122_cif.got.tgz:243993.got - 2010.06.03 11:33:40.
