data_PCOD9084582
_publ_section_title
;
Structure prediction by ZEFSAII (Michael W. Deem and Ramdas Pophale) SiO2 
 PCOD9084582
Probable space group: P -1
;
_chemical_formula_sum "Si O2"
_cell_formula_units_Z 14
_cell_length_a 16.466221
_cell_length_b 30.267971
_cell_length_c 31.712871
_cell_angle_alpha 171.005056
_cell_angle_beta 17.036530
_cell_angle_gamma 162.922680
_cell_volume 700.617045
_symmetry_space_group_name_H-M "P -1"
_symmetry_group_IT_number 2
_symmetry_cell_setting 'triclinic'
loop_
_space_group_symop_operation_xyz
x,y,z
-x,-y,-z
loop_
_atom_site_type_symbol
_atom_site_label
_atom_site_fract_x
_atom_site_fract_y
_atom_site_fract_z
Si Si1 0.273521 0.239829 0.642621
Si Si2 0.356933 0.893456 0.190588
Si Si3 0.772642 0.151169 0.360231
Si Si4 0.037338 0.809580 0.842832
Si Si5 0.841973 0.630861 0.454042
Si Si6 0.247010 0.793235 0.480065
Si Si7 0.186257 0.251736 0.878111
O O1 0.447011 0.145998 0.505726
O O2 0.934098 0.167060 0.748394
O O3 0.327667 0.075345 0.418357
O O4 0.385112 0.581757 0.899459
O O5 0.631341 0.071920 0.198041
O O6 0.821386 0.161458 0.395264
O O7 0.854384 0.893645 0.050981
O O8 0.955289 0.467487 0.551050
O O9 0.000000 0.000000 0.000000
O O10 0.500000 0.500000 0.500000
O O11 0.982657 0.605372 0.406487
O O12 0.943015 0.977971 0.722822
O O13 0.021660 0.485440 0.195229
O O14 0.531783 0.674483 0.221402
O O15 0.302316 0.110142 0.728358
#
# Coordination Sequence:
#
# PCOD9084582 Si02
#       7
#     2   2   2   2   2   2   2
#     4  10  19  35  55  78 100 146 182 235 264 333
#     4  10  20  35  55  74 107 141 191 217 284 330
#     4  12  23  35  59  85 113 141 194 240 275 324
#     4  12  22  37  56  83 110 154 184 232 285 338
#     4  10  19  36  62  88 112 153 189 223 281 345
#     4   9  23  36  60  87 115 148 193 231 281 336
#     4   9  20  38  62  81 116 156 183 226 280 353
#
# _framework density 19.982386000000002
#
# number of rings (size 3 to 8) (size 9 to 14) (size 15 to 20)
#    0.857    0.857    2.857    2.143    2.000    0.000 
#    0.000    2.857    0.000    0.000    0.000    0.000 
#    0.000    0.000    0.000    0.000    0.000    0.000 
#
# Total GULP energy -78083.196769 kJ/mol
# GULP energy per Si atom -5577.371198 kJ/mol
# Density = 1.993691 g / cm^3
# Si number density = 19.982386 Si / 1000 Ang^3
#
#
#
# Elastic Constant Matrix: (Units=GPa)
#
#
# Indices 1 2 3 4 5 6 
#
# 1 45.5588 16.0412 -0.5456 -6.2507 15.9137 5.3100
# 2 16.0412 86.0871 -7.2433 -12.8112 1.2273 28.3962
# 3 -0.5456 -7.2433 80.8268 1.3342 17.5112 4.7020
# 4 -6.2507 -12.8112 1.3342 35.3293 2.7640 1.3152
# 5 15.9137 1.2273 17.5112 2.7640 19.4404 -0.1209
# 6 5.3100 28.3962 4.7020 1.3152 -0.1209 27.1314
#
#
#
# Elastic Compliance Matrix: (Units=1/GPa)
#
#
# Indices 1 2 3 4 5 6 
#
# 1 0.039917 -0.001882 0.009665 0.009659 -0.042687 -0.008176
# 2 -0.001882 0.021228 0.004145 0.008446 -0.004877 -0.022999
# 3 0.009665 0.004145 0.018931 0.004898 -0.025984 -0.009864
# 4 0.009659 0.008446 0.004898 0.034787 -0.017881 -0.013345
# 5 -0.042687 -0.004877 -0.025984 -0.017881 0.112758 0.019332
# 6 -0.008176 -0.022999 -0.009864 -0.013345 0.019332 0.064972
#
#
# Mechanical properties :
#
#
# Convention : Reuss Voigt Hill
#
# Bulk Modulus (GPa) = 9.62163 25.44192 17.53177
# Shear Modulus (GPa) = 16.48093 29.99491 23.23792
#
# Velocity S-wave (km/s) = 2.87500 3.87856 3.41386
# Velocity P-wave (km/s) = 3.98075 5.72866 4.93274
#
# Compressibility (1/GPa) = 0.10393251
#
# Stress axis : x y z
#
# Youngs Moduli (GPa) = 25.05226 47.10686 52.82285
#
# Poissons Ratio (x) = 0.08864 -0.51054
# Poissons Ratio (y) = 0.04714 -0.21894
# Poissons Ratio (z) = -0.24213 -0.19525
#
# Static dielectric constant tensor:
#      x y z
#    x 1.693800 0.008640 -0.019570 
#    y 0.008640 1.741810 0.002160 
#    z -0.019570 0.002160 1.717630 
# 
# From -- ./inp_files/623735.got.cif
#   From: 2010.05.17/outbox.cif.g08.bks.cpg/sg2_312_cif.got.tgz:623735.got - 2010.06.03 11:33:40.
