data_PCOD9084115
_publ_section_title
;
Structure prediction by ZEFSAII (Michael W. Deem and Ramdas Pophale) SiO2 
 PCOD9084115
Probable space group: P -1
;
_chemical_formula_sum "Si O2"
_cell_formula_units_Z 16
_cell_length_a 12.152515
_cell_length_b 14.706206
_cell_length_c 10.108825
_cell_angle_alpha 144.083157
_cell_angle_beta 51.737568
_cell_angle_gamma 140.740758
_cell_volume 670.514816
_symmetry_space_group_name_H-M "P -1"
_symmetry_group_IT_number 2
_symmetry_cell_setting 'triclinic'
loop_
_space_group_symop_operation_xyz
x,y,z
-x,-y,-z
loop_
_atom_site_type_symbol
_atom_site_label
_atom_site_fract_x
_atom_site_fract_y
_atom_site_fract_z
Si Si1 0.662705 0.742463 0.111042
Si Si2 0.016091 0.202108 0.989041
Si Si3 0.120489 0.828403 0.662488
Si Si4 0.129297 0.566088 0.728857
Si Si5 0.547952 0.129972 0.487247
Si Si6 0.594273 0.476372 0.605859
Si Si7 0.689891 0.783601 0.684884
Si Si8 0.576326 0.133043 0.968956
O O1 0.502857 0.727077 0.279803
O O2 0.782061 0.960869 0.222457
O O3 0.600832 0.597048 0.864375
O O4 0.788323 0.726941 0.095054
O O5 0.995934 0.192178 0.152299
O O6 0.961365 0.335361 0.135725
O O7 0.875328 0.987718 0.785163
O O8 0.254185 0.793147 0.586074
O O9 0.013548 0.661877 0.438029
O O10 0.285662 0.597956 0.557743
O O11 0.234624 0.677168 0.913866
O O12 0.500000 0.000000 0.500000
O O13 0.431763 0.988705 0.288894
O O14 0.683713 0.625553 0.590779
O O15 0.404395 0.307855 0.492690
O O16 0.558913 0.816686 0.896583
O O17 0.500000 0.000000 0.000000
#
# Coordination Sequence:
#
# PCOD9084115 Si02
#       8
#     2   2   2   2   2   2   2   2
#     4  11  22  38  59  89 124 162 202 262 316 369
#     4  12  20  36  60  92 123 161 212 256 308 370
#     4  11  20  38  61  88 124 163 213 253 307 371
#     4  11  23  34  60  93 119 162 214 261 299 366
#     4  10  22  41  65  90 125 169 207 255 318 375
#     4  10  20  34  56  90 122 153 206 260 310 356
#     4  10  19  34  60  90 118 156 209 262 297 362
#     4  11  20  40  66  93 124 167 211 254 311 371
#
# _framework density 23.862261
#
# number of rings (size 3 to 8) (size 9 to 14) (size 15 to 20)
#    0.000    1.250    5.000    2.250    0.000    0.000 
#    0.000    5.000    0.000    0.000    0.000    0.000 
#    0.000    0.000    0.000    0.000    0.000    0.000 
#
# Total GULP energy -89540.412004 kJ/mol
# GULP energy per Si atom -5596.275750 kJ/mol
# Density = 2.380795 g / cm^3
# Si number density = 23.862261 Si / 1000 Ang^3
#
#
#
# Elastic Constant Matrix: (Units=GPa)
#
#
# Indices 1 2 3 4 5 6 
#
# 1 130.2317 29.0790 70.2863 6.7031 -18.1321 19.4253
# 2 29.0790 51.4607 42.0788 24.3021 1.5827 6.0064
# 3 70.2863 42.0788 179.9693 18.9330 22.4972 30.3272
# 4 6.7031 24.3021 18.9330 45.4618 17.8905 -1.5065
# 5 -18.1321 1.5827 22.4972 17.8905 51.5760 -0.4598
# 6 19.4253 6.0064 30.3272 -1.5065 -0.4598 36.8173
#
#
#
# Elastic Compliance Matrix: (Units=1/GPa)
#
#
# Indices 1 2 3 4 5 6 
#
# 1 0.011921 -0.002489 -0.004388 -0.001272 0.006603 -0.002239
# 2 -0.002489 0.034029 -0.005953 -0.018078 0.006948 0.000012
# 3 -0.004388 -0.005953 0.010115 0.002014 -0.006515 -0.005044
# 4 -0.001272 -0.018078 0.002014 0.036375 -0.013359 0.003283
# 5 0.006603 0.006948 -0.006515 -0.013359 0.028978 0.000565
# 6 -0.002239 0.000012 -0.005044 0.003283 0.000565 0.032637
#
#
# Mechanical properties :
#
#
# Convention : Reuss Voigt Hill
#
# Bulk Modulus (GPa) = 32.89015 71.61664 52.25339
# Shear Modulus (GPa) = 26.33646 41.45220 33.89433
#
# Velocity S-wave (km/s) = 3.32578 4.17243 3.77293
# Velocity P-wave (km/s) = 5.34425 7.29999 6.39730
#
# Compressibility (1/GPa) = 0.03040424
#
# Stress axis : x y z
#
# Youngs Moduli (GPa) = 83.88207 29.38693 98.86509
#
# Poissons Ratio (x) = 0.07315 0.43383
# Poissons Ratio (y) = 0.20881 0.58853
# Poissons Ratio (z) = 0.36809 0.17494
#
# Static dielectric constant tensor:
#      x y z
#    x 1.951650 0.001230 -0.042250 
#    y 0.001230 1.945250 -0.022000 
#    z -0.042250 -0.022000 2.007100 
# 
# From -- ./inp_files/416544.got.cif
#   From: 2010.05.17/outbox.cif.g08.bks.cpg/sg2_209_cif.got.tgz:416544.got - 2010.06.03 11:33:40.
