data_PCOD9084904
_publ_section_title
;
Structure prediction by ZEFSAII (Michael W. Deem and Ramdas Pophale) SiO2 
 PCOD9084904
Probable space group: P -1
;
_chemical_formula_sum "Si O2"
_cell_formula_units_Z 10
_cell_length_a 9.737904
_cell_length_b 25.203500
_cell_length_c 8.218719
_cell_angle_alpha 22.674184
_cell_angle_beta 31.148231
_cell_angle_gamma 30.168027
_cell_volume 372.776379
_symmetry_space_group_name_H-M "P -1"
_symmetry_group_IT_number 2
_symmetry_cell_setting 'triclinic'
loop_
_space_group_symop_operation_xyz
x,y,z
-x,-y,-z
loop_
_atom_site_type_symbol
_atom_site_label
_atom_site_fract_x
_atom_site_fract_y
_atom_site_fract_z
Si Si1 0.270273 0.557525 0.207435
Si Si2 0.186495 0.085427 0.141998
Si Si3 0.317166 0.670427 0.152007
Si Si4 0.076408 0.175727 0.362647
Si Si5 0.496813 0.232166 0.992349
O O1 0.383363 0.658669 0.925659
O O2 0.281601 0.407495 0.703876
O O3 0.500000 0.500000 0.000000
O O4 0.984077 0.662618 0.113928
O O5 0.169250 0.083221 0.363120
O O6 0.000000 0.000000 0.500000
O O7 0.030412 0.251678 0.746967
O O8 0.500000 0.000000 0.000000
O O9 0.500000 0.500000 0.500000
O O10 0.389381 0.766299 0.945335
O O11 0.775409 0.187965 0.714724
O O12 0.303057 0.147716 0.356777
#
# Coordination Sequence:
#
# PCOD9084904 Si02
#       5
#     2   2   2   2   2
#     4   8  16  33  57  86 120 158 199 246 303 364
#     4  11  24  44  65  90 125 169 209 250 309 379
#     4   9  20  40  65  95 126 161 209 262 308 359
#     4  10  20  36  58  84 119 161 200 244 304 370
#     4  10  19  35  57  89 119 153 200 256 303 352
#
# _framework density 26.825735000000002
#
# number of rings (size 3 to 8) (size 9 to 14) (size 15 to 20)
#    0.000    2.400    0.000    1.800    0.000    1.600 
#    0.000   39.000    0.000    0.000    0.000    0.000 
#    0.000    0.000    0.000    0.000    0.000    0.000 
#
# Total GULP energy -55738.483994 kJ/mol
# GULP energy per Si atom -5573.848399 kJ/mol
# Density = 2.676468 g / cm^3
# Si number density = 26.825735 Si / 1000 Ang^3
#
#
#
# Elastic Constant Matrix: (Units=GPa)
#
#
# Indices 1 2 3 4 5 6 
#
# 1 251.7899 80.6493 26.1477 4.6098 -29.2644 24.9366
# 2 80.6493 189.6532 42.2594 9.9146 -10.2751 8.7719
# 3 26.1477 42.2594 56.9415 12.5883 -10.2020 -4.0060
# 4 4.6098 9.9146 12.5883 40.8868 -9.8140 2.1360
# 5 -29.2644 -10.2751 -10.2020 -9.8140 42.0291 -16.6731
# 6 24.9366 8.7719 -4.0060 2.1360 -16.6731 77.3878
#
#
#
# Elastic Compliance Matrix: (Units=1/GPa)
#
#
# Indices 1 2 3 4 5 6 
#
# 1 0.005019 -0.001833 -0.000695 0.000790 0.002712 -0.000883
# 2 -0.001833 0.007059 -0.004552 -0.000306 -0.000984 -0.000649
# 3 -0.000695 -0.004552 0.023337 -0.005190 0.004030 0.002960
# 4 0.000790 -0.000306 -0.005190 0.027386 0.005594 -0.000039
# 5 0.002712 -0.000984 0.004030 0.005594 0.030009 0.005757
# 6 -0.000883 -0.000649 0.002960 -0.000039 0.005757 0.014675
#
#
# Mechanical properties :
#
#
# Convention : Reuss Voigt Hill
#
# Bulk Modulus (GPa) = 47.04680 88.49971 67.77325
# Shear Modulus (GPa) = 38.84117 55.34927 47.09522
#
# Velocity S-wave (km/s) = 3.80927 4.54727 4.19453
# Velocity P-wave (km/s) = 6.07646 7.78669 6.98412
#
# Compressibility (1/GPa) = 0.02125543
#
# Stress axis : x y z
#
# Youngs Moduli (GPa) = 199.24079 141.66074 42.85079
#
# Poissons Ratio (x) = 0.25965 0.02979
# Poissons Ratio (y) = 0.36519 0.19504
# Poissons Ratio (z) = 0.13853 0.64478
#
# Static dielectric constant tensor:
#      x y z
#    x 2.121660 -0.065040 0.039850 
#    y -0.065040 2.288160 -0.181840 
#    z 0.039850 -0.181840 2.209760 
# 
# From -- ./inp_files/18848.got.cif
#   From: 2010.05.17/outbox.cif.g08.bks.cpg/sg2_10_cif.got.tgz:18848.got - 2010.06.03 11:33:40.
