data_PCOD9084731
_publ_section_title
;
Structure prediction by ZEFSAII (Michael W. Deem and Ramdas Pophale) SiO2 
 PCOD9084731
Probable space group: P -1
;
_chemical_formula_sum "Si O2"
_cell_formula_units_Z 16
_cell_length_a 12.391981
_cell_length_b 10.439775
_cell_length_c 7.758276
_cell_angle_alpha 69.503621
_cell_angle_beta 105.844287
_cell_angle_gamma 72.721403
_cell_volume 814.064763
_symmetry_space_group_name_H-M "P -1"
_symmetry_group_IT_number 2
_symmetry_cell_setting 'triclinic'
loop_
_space_group_symop_operation_xyz
x,y,z
-x,-y,-z
loop_
_atom_site_type_symbol
_atom_site_label
_atom_site_fract_x
_atom_site_fract_y
_atom_site_fract_z
Si Si1 0.856959 0.526747 0.909746
Si Si2 0.465598 0.177228 0.889293
Si Si3 0.971671 0.303518 0.592260
Si Si4 0.388162 0.216413 0.200425
Si Si5 0.849308 0.098888 0.696591
Si Si6 0.053614 0.790179 0.006092
Si Si7 0.187271 0.359165 0.549826
Si Si8 0.413749 0.873805 0.377578
O O1 0.751496 0.649256 0.925078
O O2 0.866126 0.357367 0.000098
O O3 0.812218 0.593731 0.668662
O O4 0.000000 0.500000 0.000000
O O5 0.324329 0.261591 0.722118
O O6 0.552522 0.191801 0.770598
O O7 0.463253 0.229318 0.059645
O O8 0.500000 0.000000 0.000000
O O9 0.901212 0.200859 0.565285
O O10 0.999723 0.268559 0.826039
O O11 0.880364 0.481512 0.451787
O O12 0.098956 0.273925 0.569120
O O13 0.467396 0.209952 0.407984
O O14 0.384202 0.052524 0.272703
O O15 0.868723 0.136673 0.888562
O O16 0.707088 0.136084 0.594947
O O17 0.941805 0.922432 0.796580
#
# Coordination Sequence:
#
# PCOD9084731 Si02
#       8
#     2   2   2   2   2   2   2   2
#     4  11  21  34  57  89 119 151 188 251 297 338
#     4  10  22  35  58  85 114 155 191 242 286 337
#     4   8  18  31  56  85 108 146 191 239 282 345
#     4  10  22  36  56  88 120 146 202 244 288 341
#     4   9  17  34  62  81 118 153 199 232 291 358
#     4   8  18  33  54  91 108 153 195 230 298 352
#     4  10  19  35  56  87 116 143 199 237 291 344
#     4  10  20  38  59  84 113 160 197 239 289 347
#
# _framework density 19.654454999999999
#
# number of rings (size 3 to 8) (size 9 to 14) (size 15 to 20)
#    0.750    1.750    1.250    0.750    8.750    0.000 
#    0.000    2.500    2.750    3.000    0.000    0.000 
#    0.000    0.000    0.000    0.000    0.000    0.000 
#
# Total GULP energy -89113.166523 kJ/mol
# GULP energy per Si atom -5569.572908 kJ/mol
# Density = 1.960972 g / cm^3
# Si number density = 19.654455 Si / 1000 Ang^3
#
#
#
# Elastic Constant Matrix: (Units=GPa)
#
#
# Indices 1 2 3 4 5 6 
#
# 1 80.4886 21.9350 19.9442 -21.0546 0.3991 1.0923
# 2 21.9350 61.1166 28.1617 -12.7787 2.1196 -15.5269
# 3 19.9442 28.1617 63.6270 -17.2468 6.5210 -5.5161
# 4 -21.0546 -12.7787 -17.2468 26.6822 -8.9625 1.3791
# 5 0.3991 2.1196 6.5210 -8.9625 25.7236 -2.6946
# 6 1.0923 -15.5269 -5.5161 1.3791 -2.6946 20.2483
#
#
#
# Elastic Compliance Matrix: (Units=1/GPa)
#
#
# Indices 1 2 3 4 5 6 
#
# 1 0.017192 -0.004581 -0.000833 0.012484 0.004151 -0.004965
# 2 -0.004581 0.027482 -0.008221 0.004392 0.003436 0.019239
# 3 -0.000833 -0.008221 0.022204 0.009192 -0.001849 -0.001083
# 4 0.012484 0.004392 0.009192 0.061551 0.018929 0.003526
# 5 0.004151 0.003436 -0.001849 0.018929 0.046301 0.006780
# 6 -0.004965 0.019239 -0.001083 0.003526 0.006780 0.064775
#
#
# Mechanical properties :
#
#
# Convention : Reuss Voigt Hill
#
# Bulk Modulus (GPa) = 25.24877 38.36823 31.80850
# Shear Modulus (GPa) = 17.85858 23.54354 20.70106
#
# Velocity S-wave (km/s) = 3.01762 3.46479 3.24890
# Velocity P-wave (km/s) = 5.00156 5.96407 5.50389
#
# Compressibility (1/GPa) = 0.03960589
#
# Stress axis : x y z
#
# Youngs Moduli (GPa) = 58.16805 36.38783 45.03741
#
# Poissons Ratio (x) = 0.16671 0.03751
# Poissons Ratio (y) = 0.26650 0.37026
# Poissons Ratio (z) = 0.04845 0.29915
#
# Static dielectric constant tensor:
#      x y z
#    x 1.655540 0.019410 0.004570 
#    y 0.019410 1.684340 -0.024780 
#    z 0.004570 -0.024780 1.650870 
# 
# From -- ./inp_files/252100.got.cif
#   From: 2010.05.17/outbox.cif.g08.bks.cpg/sg2_127_cif.got.tgz:252100.got - 2010.06.03 11:33:40.
