data_PCOD9084905
_publ_section_title
;
Structure prediction by ZEFSAII (Michael W. Deem and Ramdas Pophale) SiO2 
 PCOD9084905
Probable space group: P -1
;
_chemical_formula_sum "Si O2"
_cell_formula_units_Z 16
_cell_length_a 13.406677
_cell_length_b 9.465119
_cell_length_c 9.703159
_cell_angle_alpha 111.917426
_cell_angle_beta 120.630255
_cell_angle_gamma 41.615829
_cell_volume 703.580527
_symmetry_space_group_name_H-M "P -1"
_symmetry_group_IT_number 2
_symmetry_cell_setting 'triclinic'
loop_
_space_group_symop_operation_xyz
x,y,z
-x,-y,-z
loop_
_atom_site_type_symbol
_atom_site_label
_atom_site_fract_x
_atom_site_fract_y
_atom_site_fract_z
Si Si1 0.282496 0.883335 0.919885
Si Si2 0.221492 0.628093 0.677973
Si Si3 0.422268 0.937566 0.571308
Si Si4 0.557125 0.650727 0.812683
Si Si5 0.239530 0.331583 0.413264
Si Si6 0.304610 0.188812 0.955794
Si Si7 0.397492 0.719902 0.237473
Si Si8 0.068907 0.512675 0.693139
O O1 0.189684 0.837293 0.750444
O O2 0.462099 0.720798 0.916483
O O3 0.238869 0.100812 0.953906
O O4 0.291278 0.827275 0.064495
O O5 0.182180 0.556856 0.491425
O O6 0.416850 0.436703 0.742993
O O7 0.134092 0.618267 0.736832
O O8 0.427570 0.834748 0.677473
O O9 0.611526 0.803950 0.635135
O O10 0.371309 0.875380 0.386825
O O11 0.324025 0.180805 0.555796
O O12 0.616158 0.427003 0.745100
O O13 0.702839 0.636898 0.919818
O O14 0.089805 0.363157 0.278849
O O15 0.208702 0.290831 0.784252
O O16 0.500000 0.000000 0.000000
O O17 0.000000 0.500000 0.500000
#
# Coordination Sequence:
#
# PCOD9084905 Si02
#       8
#     2   2   2   2   2   2   2   2
#     4  10  20  32  58  88 121 148 195 246 299 345
#     4   9  17  33  56  82 115 151 188 242 294 343
#     4  10  21  36  62  86 118 159 204 240 284 368
#     4  10  20  34  60  90 117 150 200 251 290 346
#     4   9  21  35  58  84 117 158 200 236 301 344
#     4  10  21  33  58  91 117 147 196 243 290 351
#     4  10  19  35  57  89 120 152 194 244 304 344
#     4  10  20  36  60  85 121 156 195 246 300 347
#
# _framework density 22.740824
#
# number of rings (size 3 to 8) (size 9 to 14) (size 15 to 20)
#    0.000    2.250    0.000    4.125   12.250    0.000 
#    0.000    3.125    5.500    1.500    0.000    0.000 
#    0.000    0.000    0.000    0.000    0.000    0.000 
#
# Total GULP energy -89103.542134 kJ/mol
# GULP energy per Si atom -5568.971383 kJ/mol
# Density = 2.268906 g / cm^3
# Si number density = 22.740824 Si / 1000 Ang^3
#
#
#
# Elastic Constant Matrix: (Units=GPa)
#
#
# Indices 1 2 3 4 5 6 
#
# 1 62.9584 40.2905 23.4993 5.6064 22.9400 25.3165
# 2 40.2905 72.6883 35.8396 11.5461 17.1774 37.3367
# 3 23.4993 35.8396 79.6542 -2.4671 -2.6084 18.0318
# 4 5.6064 11.5461 -2.4671 37.5729 14.1474 11.5238
# 5 22.9400 17.1774 -2.6084 14.1474 38.0401 7.0910
# 6 25.3165 37.3367 18.0318 11.5238 7.0910 40.1448
#
#
#
# Elastic Compliance Matrix: (Units=1/GPa)
#
#
# Indices 1 2 3 4 5 6 
#
# 1 0.031760 -0.007505 -0.004013 0.006702 -0.016624 -0.010233
# 2 -0.007505 0.036495 -0.009151 -0.000452 -0.008023 -0.023551
# 3 -0.004013 -0.009151 0.017822 0.001547 0.006944 0.001366
# 4 0.006702 -0.000452 0.001547 0.034995 -0.014513 -0.011984
# 5 -0.016624 -0.008023 0.006944 -0.014513 0.043708 0.011271
# 6 -0.010233 -0.023551 0.001366 -0.011984 0.011271 0.054103
#
#
# Mechanical properties :
#
#
# Convention : Reuss Voigt Hill
#
# Bulk Modulus (GPa) = 22.35290 46.06218 34.20754
# Shear Modulus (GPa) = 18.17303 30.86302 24.51802
#
# Velocity S-wave (km/s) = 2.82997 3.68797 3.28708
# Velocity P-wave (km/s) = 4.53090 6.19952 5.42969
#
# Compressibility (1/GPa) = 0.04473692
#
# Stress axis : x y z
#
# Youngs Moduli (GPa) = 31.48660 27.40135 56.11106
#
# Poissons Ratio (x) = 0.20565 0.22517
# Poissons Ratio (y) = 0.23631 0.51349
# Poissons Ratio (z) = 0.12635 0.25076
#
# Static dielectric constant tensor:
#      x y z
#    x 1.930690 -0.012150 -0.006350 
#    y -0.012150 1.902560 0.063760 
#    z -0.006350 0.063760 1.891380 
# 
# From -- ./inp_files/444924.got.cif
#   From: 2010.05.17/outbox.cif.g08.bks.cpg/sg2_223_cif.got.tgz:444924.got - 2010.06.03 11:33:40.
