data_PCOD9084759
_publ_section_title
;
Structure prediction by ZEFSAII (Michael W. Deem and Ramdas Pophale) SiO2 
 PCOD9084759
Probable space group: P -1
;
_chemical_formula_sum "Si O2"
_cell_formula_units_Z 14
_cell_length_a 10.314300
_cell_length_b 8.529924
_cell_length_c 7.043086
_cell_angle_alpha 108.465697
_cell_angle_beta 80.462658
_cell_angle_gamma 124.869935
_cell_volume 482.124947
_symmetry_space_group_name_H-M "P -1"
_symmetry_group_IT_number 2
_symmetry_cell_setting 'triclinic'
loop_
_space_group_symop_operation_xyz
x,y,z
-x,-y,-z
loop_
_atom_site_type_symbol
_atom_site_label
_atom_site_fract_x
_atom_site_fract_y
_atom_site_fract_z
Si Si1 0.406664 0.706379 0.290864
Si Si2 0.589409 0.387291 0.312663
Si Si3 0.251564 0.009574 0.824583
Si Si4 0.500000 0.000000 0.000000
Si Si5 0.232932 0.231784 0.426598
Si Si6 0.861302 0.718734 0.916397
Si Si7 0.000000 0.500000 0.000000
Si Si8 0.819109 0.175764 0.608389
O O1 0.382629 0.669598 0.506771
O O2 0.589852 0.817637 0.254940
O O3 0.351461 0.855189 0.306167
O O4 0.303977 0.499639 0.127573
O O5 0.585933 0.237106 0.111657
O O6 0.411901 0.337011 0.338467
O O7 0.728728 0.618208 0.351322
O O8 0.156738 0.108175 0.934160
O O9 0.179569 0.831015 0.622487
O O10 0.332203 0.978055 0.971151
O O11 0.173487 0.010028 0.407103
O O12 0.125249 0.241291 0.299169
O O13 0.979374 0.676559 0.976290
O O14 0.059305 0.624777 0.234675
#
# Coordination Sequence:
#
# PCOD9084759 Si02
#       8
#     2   2   2   1   2   2   1   2
#     4  10  20  37  61  95 132 166 193 247 330 394
#     4  10  19  35  56  95 138 159 193 243 325 391
#     4  12  22  34  64  99 130 159 201 260 319 381
#     4  12  22  32  56 102 138 160 188 252 310 394
#     4  10  20  36  62  92 122 167 202 252 318 376
#     4  10  23  40  63  91 124 165 212 260 308 370
#     4  10  26  48  64  82 118 178 228 262 298 360
#     4  11  22  40  66  89 126 170 213 254 311 373
#
# _framework density 29.038115000000001
#
# number of rings (size 3 to 8) (size 9 to 14) (size 15 to 20)
#    0.000    1.429    4.286    1.714    0.000    2.286 
#    0.000    0.000    0.000    1.714    0.000    0.000 
#    0.000    0.000    0.000    0.000    0.000    0.000 
#
# Total GULP energy -78075.400728 kJ/mol
# GULP energy per Si atom -5576.814338 kJ/mol
# Density = 2.897202 g / cm^3
# Si number density = 29.038115 Si / 1000 Ang^3
#
#
#
# Elastic Constant Matrix: (Units=GPa)
#
#
# Indices 1 2 3 4 5 6 
#
# 1 146.3913 64.1960 61.7035 10.4452 0.2430 -36.6353
# 2 64.1960 144.5450 66.8890 11.2529 7.0154 -59.5386
# 3 61.7035 66.8890 236.1680 44.1669 18.7507 -23.5076
# 4 10.4452 11.2529 44.1669 69.1890 -13.6894 7.1431
# 5 0.2430 7.0154 18.7507 -13.6894 36.4917 -3.6067
# 6 -36.6353 -59.5386 -23.5076 7.1431 -3.6067 62.5606
#
#
#
# Elastic Compliance Matrix: (Units=1/GPa)
#
#
# Indices 1 2 3 4 5 6 
#
# 1 0.009182 -0.002320 -0.001602 0.000034 0.001483 0.002648
# 2 -0.002320 0.013477 -0.001559 -0.002292 -0.001542 0.011054
# 3 -0.001602 -0.001559 0.006313 -0.004462 -0.004588 0.000195
# 4 0.000034 -0.002292 -0.004462 0.020174 0.009750 -0.005580
# 5 0.001483 -0.001542 -0.004588 0.009750 0.033556 -0.001501
# 6 0.002648 0.011054 0.000195 -0.005580 -0.001501 0.028679
#
#
# Mechanical properties :
#
#
# Convention : Reuss Voigt Hill
#
# Bulk Modulus (GPa) = 55.53233 101.40902 78.47068
# Shear Modulus (GPa) = 38.95692 55.93599 47.44646
#
# Velocity S-wave (km/s) = 3.66673 4.39372 4.04658
# Velocity P-wave (km/s) = 6.09032 7.79347 6.99394
#
# Compressibility (1/GPa) = 0.01800753
#
# Stress axis : x y z
#
# Youngs Moduli (GPa) = 108.91324 74.20159 158.41254
#
# Poissons Ratio (x) = 0.17216 0.25381
# Poissons Ratio (y) = 0.25269 0.24703
# Poissons Ratio (z) = 0.17450 0.11571
#
# Static dielectric constant tensor:
#      x y z
#    x 2.293210 0.096190 -0.043700 
#    y 0.096190 2.317600 -0.070380 
#    z -0.043700 -0.070380 2.166520 
# 
# From -- ./inp_files/191507.got.cif
#   From: 2010.05.17/outbox.cif.g08.bks.cpg/sg2_96_cif.got.tgz:191507.got - 2010.06.03 11:33:40.
