data_PCOD9084493
_publ_section_title
;
Structure prediction by ZEFSAII (Michael W. Deem and Ramdas Pophale) SiO2 
 PCOD9084493
Probable space group: P -1
;
_chemical_formula_sum "Si O2"
_cell_formula_units_Z 14
_cell_length_a 8.670440
_cell_length_b 9.916158
_cell_length_c 22.981271
_cell_angle_alpha 45.821615
_cell_angle_beta 123.625623
_cell_angle_gamma 150.555061
_cell_volume 688.649542
_symmetry_space_group_name_H-M "P -1"
_symmetry_group_IT_number 2
_symmetry_cell_setting 'triclinic'
loop_
_space_group_symop_operation_xyz
x,y,z
-x,-y,-z
loop_
_atom_site_type_symbol
_atom_site_label
_atom_site_fract_x
_atom_site_fract_y
_atom_site_fract_z
Si Si1 0.170281 0.986714 0.581273
Si Si2 0.369953 0.745227 0.503299
Si Si3 0.520046 0.606262 0.360107
Si Si4 0.430214 0.121686 0.906267
Si Si5 0.114488 0.797468 0.817759
Si Si6 0.843892 0.573087 0.075488
Si Si7 0.549777 0.690887 0.029640
O O1 0.849997 0.635623 0.648361
O O2 0.417786 0.073458 0.566842
O O3 0.361226 0.244495 0.595109
O O4 0.000000 0.000000 0.500000
O O5 0.423472 0.570140 0.584980
O O6 0.000000 0.500000 0.500000
O O7 0.500000 0.000000 0.500000
O O8 0.739910 0.905266 0.272875
O O9 0.391740 0.251838 0.907023
O O10 0.743693 0.448865 0.839841
O O11 0.187190 0.875399 0.878455
O O12 0.500000 0.000000 0.000000
O O13 0.245527 0.712249 0.842924
O O14 0.621445 0.541011 0.068660
O O15 0.777800 0.529035 0.004940
O O16 0.192060 0.943548 0.049990
#
# Coordination Sequence:
#
# PCOD9084493 Si02
#       7
#     2   2   2   2   2   2   2
#     4  10  20  40  65  89 120 161 206 237 287 376
#     4  11  21  38  66  95 121 157 200 245 295 363
#     4  11  23  40  60  92 126 163 203 249 304 364
#     4  12  21  36  57  86 113 157 205 250 300 362
#     4  12  23  37  59  84 120 153 199 255 306 350
#     4  10  19  35  53  79 103 146 186 244 292 345
#     4  10  20  33  55  76 106 138 199 243 283 345
#
# _framework density 20.329642
#
# number of rings (size 3 to 8) (size 9 to 14) (size 15 to 20)
#    0.000    1.143    2.857    6.429    0.000    0.000 
#    0.000    4.286    0.000    0.000    0.000    0.000 
#    0.000    0.000    0.000    0.000    0.000    0.000 
#
# Total GULP energy -77968.979407 kJ/mol
# GULP energy per Si atom -5569.212815 kJ/mol
# Density = 2.028337 g / cm^3
# Si number density = 20.329642 Si / 1000 Ang^3
#
#
#
# Elastic Constant Matrix: (Units=GPa)
#
#
# Indices 1 2 3 4 5 6 
#
# 1 128.1546 37.7505 32.5048 -6.6799 7.4155 -21.2304
# 2 37.7505 123.7886 3.3789 -2.9302 12.6524 -12.4159
# 3 32.5048 3.3789 79.8808 -23.2229 1.4348 -13.4825
# 4 -6.6799 -2.9302 -23.2229 30.3134 -4.0134 -5.3432
# 5 7.4155 12.6524 1.4348 -4.0134 20.0544 -7.7215
# 6 -21.2304 -12.4159 -13.4825 -5.3432 -7.7215 50.7775
#
#
#
# Elastic Compliance Matrix: (Units=1/GPa)
#
#
# Indices 1 2 3 4 5 6 
#
# 1 0.009916 -0.002604 -0.003699 -0.000625 -0.000994 0.002310
# 2 -0.002604 0.009416 0.001108 0.000738 -0.004566 0.000891
# 3 -0.003699 0.001108 0.019658 0.016135 0.004953 0.006395
# 4 -0.000625 0.000738 0.016135 0.048964 0.012759 0.011296
# 5 -0.000994 -0.004566 0.004953 0.012759 0.059212 0.010130
# 6 0.002310 0.000891 0.006395 0.011296 0.010130 0.025305
#
#
# Mechanical properties :
#
#
# Convention : Reuss Voigt Hill
#
# Bulk Modulus (GPa) = 34.96428 53.23246 44.09837
# Shear Modulus (GPa) = 25.98842 37.44170 31.71506
#
# Velocity S-wave (km/s) = 3.57928 4.29619 3.95402
# Velocity P-wave (km/s) = 5.85813 7.13100 6.52568
#
# Compressibility (1/GPa) = 0.02860062
#
# Stress axis : x y z
#
# Youngs Moduli (GPa) = 100.84628 106.20433 50.86966
#
# Poissons Ratio (x) = 0.27661 0.18815
# Poissons Ratio (y) = 0.26265 -0.05639
# Poissons Ratio (z) = 0.37300 -0.11773
#
# Static dielectric constant tensor:
#      x y z
#    x 1.949480 0.195360 -0.046880 
#    y 0.195360 2.123870 -0.021510 
#    z -0.046880 -0.021510 1.764870 
# 
# From -- ./inp_files/606674.got.cif
#   From: 2010.05.17/outbox.cif.g08.bks.cpg/sg2_304_cif.got.tgz:606674.got - 2010.06.03 11:33:40.
