data_PCOD9084674
_publ_section_title
;
Structure prediction by ZEFSAII (Michael W. Deem and Ramdas Pophale) SiO2 
 PCOD9084674
Probable space group: P -1
;
_chemical_formula_sum "Si O2"
_cell_formula_units_Z 14
_cell_length_a 6.511377
_cell_length_b 15.853811
_cell_length_c 15.235720
_cell_angle_alpha 151.846794
_cell_angle_beta 86.497926
_cell_angle_gamma 106.904314
_cell_volume 640.153079
_symmetry_space_group_name_H-M "P -1"
_symmetry_group_IT_number 2
_symmetry_cell_setting 'triclinic'
loop_
_space_group_symop_operation_xyz
x,y,z
-x,-y,-z
loop_
_atom_site_type_symbol
_atom_site_label
_atom_site_fract_x
_atom_site_fract_y
_atom_site_fract_z
Si Si1 0.922968 0.932152 0.579084
Si Si2 0.163673 0.934292 0.880144
Si Si3 0.936486 0.848680 0.053624
Si Si4 0.172839 0.836841 0.353421
Si Si5 0.342567 0.574650 0.021642
Si Si6 0.407666 0.520272 0.769905
Si Si7 0.275946 0.743610 0.843159
O O1 0.715831 0.722992 0.434733
O O2 0.136950 0.898407 0.508469
O O3 0.817686 0.991586 0.554183
O O4 0.020492 0.118839 0.815229
O O5 0.155824 0.736845 0.745563
O O6 0.090277 0.960045 0.807779
O O7 0.441126 0.107386 0.038746
O O8 0.000000 0.000000 0.000000
O O9 0.687712 0.640247 0.849104
O O10 0.155458 0.842630 0.997870
O O11 0.353180 0.764890 0.249599
O O12 0.919228 0.626910 0.153950
O O13 0.500000 0.500000 0.000000
O O14 0.396308 0.613744 0.951651
O O15 0.264463 0.559644 0.732545
#
# Coordination Sequence:
#
# PCOD9084674 Si02
#       7
#     2   2   2   2   2   2   2
#     4  10  20  37  56  81 115 148 185 233 280 329
#     4   8  16  32  59  85 105 142 186 220 271 330
#     4  10  19  35  56  80 112 146 183 226 275 329
#     4   9  20  37  54  76 112 148 185 235 280 322
#     4  10  19  35  57  78 105 148 192 231 278 326
#     4  10  21  34  53  82 111 144 186 227 275 328
#     4   9  17  34  58  81 111 146 179 226 275 325
#
# _framework density 21.869771
#
# number of rings (size 3 to 8) (size 9 to 14) (size 15 to 20)
#    0.000    2.571    0.000    1.714    0.000    2.286 
#    0.000   23.571    0.000   29.143    0.000    0.000 
#    0.000    0.000    0.000    0.000    0.000    0.000 
#
# Total GULP energy -77986.582595 kJ/mol
# GULP energy per Si atom -5570.470185 kJ/mol
# Density = 2.181999 g / cm^3
# Si number density = 21.869771 Si / 1000 Ang^3
#
#
#
# Elastic Constant Matrix: (Units=GPa)
#
#
# Indices 1 2 3 4 5 6 
#
# 1 115.9670 21.9408 13.5254 14.3960 -4.7554 16.2032
# 2 21.9408 90.4720 -6.0390 31.5722 5.1459 -1.7121
# 3 13.5254 -6.0390 24.0150 23.0160 -0.0955 12.3360
# 4 14.3960 31.5722 23.0160 11.8724 -8.8861 -3.0647
# 5 -4.7554 5.1459 -0.0955 -8.8861 21.2434 1.3306
# 6 16.2032 -1.7121 12.3360 -3.0647 1.3306 23.6518
#
#
#
# Elastic Compliance Matrix: (Units=1/GPa)
#
#
# Indices 1 2 3 4 5 6 
#
# 1 0.010547 -0.002623 -0.002184 -0.001068 0.002952 -0.006581
# 2 -0.002623 0.007276 -0.011969 0.010657 0.001436 0.009867
# 3 -0.002184 -0.011969 0.006618 0.034385 0.016780 0.000689
# 4 -0.001068 0.010657 0.034385 -0.022461 -0.010888 -0.018729
# 5 0.002952 0.001436 0.016780 -0.010888 0.043818 -0.014547
# 6 -0.006581 0.009867 0.000689 -0.018729 -0.014547 0.045535
#
#
# Mechanical properties :
#
#
# Convention : Reuss Voigt Hill
#
# Bulk Modulus (GPa) = -109.75019 32.14540 -38.80240
# Shear Modulus (GPa) = 41.03360 24.75530 32.89445
#
# Velocity S-wave (km/s) = 4.33629 3.36808 3.88249
# Velocity P-wave (km/s) = 5.02207 5.46404 1.52226
#
# Compressibility (1/GPa) = -0.00911160
#
# Stress axis : x y z
#
# Youngs Moduli (GPa) = 94.81023 137.43219 151.09214
#
# Poissons Ratio (x) = 0.36054 0.32999
# Poissons Ratio (y) = 0.24872 1.80849
# Poissons Ratio (z) = 0.20707 1.64499
#
# Static dielectric constant tensor:
#      x y z
#    x 1.822650 0.012510 -0.005110 
#    y 0.012510 1.881210 0.011040 
#    z -0.005110 0.011040 1.795280 
# 
# From -- ./inp_files/37836.got.cif
#   From: 2010.05.17/outbox.cif.g08.bks.cpg/sg2_19_cif.got.tgz:37836.got - 2010.06.03 11:33:40.
