data_PCOD9084623
_publ_section_title
;
Structure prediction by ZEFSAII (Michael W. Deem and Ramdas Pophale) SiO2 
 PCOD9084623
Probable space group: P -1
;
_chemical_formula_sum "Si O2"
_cell_formula_units_Z 16
_cell_length_a 5.056506
_cell_length_b 22.060990
_cell_length_c 7.114633
_cell_angle_alpha 66.091128
_cell_angle_beta 87.846165
_cell_angle_gamma 70.034852
_cell_volume 677.232451
_symmetry_space_group_name_H-M "P -1"
_symmetry_group_IT_number 2
_symmetry_cell_setting 'triclinic'
loop_
_space_group_symop_operation_xyz
x,y,z
-x,-y,-z
loop_
_atom_site_type_symbol
_atom_site_label
_atom_site_fract_x
_atom_site_fract_y
_atom_site_fract_z
Si Si1 0.755907 0.303607 0.506338
Si Si2 0.806291 0.456737 0.628756
Si Si3 0.084322 0.083531 0.311584
Si Si4 0.329870 0.333391 0.799584
Si Si5 0.658051 0.372457 0.039161
Si Si6 0.843553 0.774334 0.893183
Si Si7 0.404187 0.934878 0.403867
Si Si8 0.387576 0.209597 0.541031
O O1 0.575432 0.335259 0.654875
O O2 0.613340 0.247448 0.510128
O O3 0.086501 0.257558 0.575730
O O4 0.683197 0.364459 0.271981
O O5 0.500000 0.500000 0.500000
O O6 0.732706 0.436882 0.866851
O O7 0.000000 0.500000 0.500000
O O8 0.028744 0.379213 0.661039
O O9 0.075213 0.158768 0.136801
O O10 0.305022 0.068002 0.500994
O O11 0.792201 0.083772 0.408314
O O12 0.221090 0.016223 0.256528
O O13 0.374502 0.369347 0.950065
O O14 0.351276 0.253152 0.934484
O O15 0.885666 0.296700 0.060027
O O16 0.691760 0.789598 0.677525
O O17 0.479657 0.874491 0.317801
#
# Coordination Sequence:
#
# PCOD9084623 Si02
#       8
#     2   2   2   2   2   2   2   2
#     4  11  24  37  61  92 119 154 200 245 289 346
#     4  11  23  42  68  91 120 158 190 234 291 348
#     4   9  17  27  50  81 113 150 203 245 289 353
#     4  11  23  40  66  90 120 155 198 238 293 351
#     4  10  21  41  64  89 121 156 193 241 292 345
#     4   9  19  33  58  86 117 155 197 250 296 340
#     4   9  16  29  48  79 114 155 198 245 294 350
#     4  10  19  35  55  84 121 155 197 249 298 341
#
# _framework density 23.625565999999999
#
# number of rings (size 3 to 8) (size 9 to 14) (size 15 to 20)
#    0.000    2.000    2.500    2.250    5.250    0.000 
#    0.000    1.250    0.000    1.500    0.000    0.000 
#    0.000    0.000    0.000    0.000    0.000    0.000 
#
# Total GULP energy -89261.999483 kJ/mol
# GULP energy per Si atom -5578.874968 kJ/mol
# Density = 2.357179 g / cm^3
# Si number density = 23.625566 Si / 1000 Ang^3
#
#
#
# Elastic Constant Matrix: (Units=GPa)
#
#
# Indices 1 2 3 4 5 6 
#
# 1 110.4658 9.9238 16.7046 -2.9941 -15.9992 -11.7338
# 2 9.9238 54.5543 11.2368 -16.1669 -2.4961 -13.1223
# 3 16.7046 11.2368 78.7401 -5.3329 -24.4891 -4.6224
# 4 -2.9941 -16.1669 -5.3329 33.1200 7.5646 -6.5431
# 5 -15.9992 -2.4961 -24.4891 7.5646 35.5735 -6.7319
# 6 -11.7338 -13.1223 -4.6224 -6.5431 -6.7319 37.2206
#
#
#
# Elastic Compliance Matrix: (Units=1/GPa)
#
#
# Indices 1 2 3 4 5 6 
#
# 1 0.010315 -0.000558 -0.000265 0.000236 0.005122 0.003990
# 2 -0.000558 0.025832 -0.002241 0.014607 -0.000998 0.011040
# 3 -0.000265 -0.002241 0.017030 -0.000496 0.012188 0.003358
# 4 0.000236 0.014607 -0.000496 0.040810 -0.005751 0.011297
# 5 0.005122 -0.000998 0.012188 -0.005751 0.041720 0.009311
# 6 0.003990 0.011040 0.003358 0.011297 0.009311 0.036104
#
#
# Mechanical properties :
#
#
# Convention : Reuss Voigt Hill
#
# Bulk Modulus (GPa) = 21.25436 35.49896 28.37666
# Shear Modulus (GPa) = 25.82339 34.90916 30.36628
#
# Velocity S-wave (km/s) = 3.30968 3.84813 3.58902
# Velocity P-wave (km/s) = 4.86017 5.89936 5.40479
#
# Compressibility (1/GPa) = 0.04704916
#
# Stress axis : x y z
#
# Youngs Moduli (GPa) = 96.94711 38.71144 58.71855
#
# Poissons Ratio (x) = 0.02159 0.01559
# Poissons Ratio (y) = 0.05406 0.13159
# Poissons Ratio (z) = 0.02573 0.08675
#
# Static dielectric constant tensor:
#      x y z
#    x 1.924890 0.034240 0.001570 
#    y 0.034240 2.026830 -0.014630 
#    z 0.001570 -0.014630 1.928400 
# 
# From -- ./inp_files/142951.got.cif
#   From: 2010.05.17/outbox.cif.g08.bks.cpg/sg2_72_cif.got.tgz:142951.got - 2010.06.03 11:33:40.
