data_PCOD9084319
_publ_section_title
;
Structure prediction by ZEFSAII (Michael W. Deem and Ramdas Pophale) SiO2 
 PCOD9084319
Probable space group: P -1
;
_chemical_formula_sum "Si O2"
_cell_formula_units_Z 16
_cell_length_a 5.203528
_cell_length_b 16.443349
_cell_length_c 18.051778
_cell_angle_alpha 152.836028
_cell_angle_beta 58.837807
_cell_angle_gamma 119.833847
_cell_volume 600.679852
_symmetry_space_group_name_H-M "P -1"
_symmetry_group_IT_number 2
_symmetry_cell_setting 'triclinic'
loop_
_space_group_symop_operation_xyz
x,y,z
-x,-y,-z
loop_
_atom_site_type_symbol
_atom_site_label
_atom_site_fract_x
_atom_site_fract_y
_atom_site_fract_z
Si Si1 0.034056 0.058172 0.166468
Si Si2 0.685560 0.609405 0.954203
Si Si3 0.865602 0.146516 0.408757
Si Si4 0.640729 0.749752 0.337020
Si Si5 0.316947 0.793332 0.798508
Si Si6 0.045275 0.697339 0.117940
Si Si7 0.769986 0.553589 0.311584
Si Si8 0.128974 0.510505 0.407914
O O1 0.325587 0.201043 0.251469
O O2 0.940342 0.001256 0.218656
O O3 0.795469 0.126359 0.198305
O O4 0.187874 0.910469 0.976954
O O5 0.553745 0.396716 0.804540
O O6 0.962152 0.576026 0.832709
O O7 0.401281 0.718167 0.063314
O O8 0.832685 0.686889 0.070324
O O9 0.585085 0.120475 0.486192
O O10 0.792309 0.294331 0.478705
O O11 0.131545 0.262922 0.508281
O O12 0.742919 0.628525 0.291865
O O13 0.918651 0.822181 0.301877
O O14 0.150529 0.598475 0.677215
O O15 0.000000 0.500000 0.000000
O O16 0.454143 0.441776 0.289286
O O17 0.000000 0.500000 0.500000
#
# Coordination Sequence:
#
# PCOD9084319 Si02
#       8
#     2   2   2   2   2   2   2   2
#     4  10  21  39  54  74  95 132 173 219 255 296
#     4  10  17  28  43  64  96 138 164 198 242 304
#     4  10  21  31  51  73 109 134 169 213 259 298
#     4   9  18  28  42  70  98 135 164 201 247 304
#     4  10  22  37  57  72  96 130 179 214 253 303
#     4  10  16  25  45  62  94 135 169 190 244 306
#     4  10  20  30  44  72 104 134 167 208 254 301
#     4  11  21  34  51  75 104 136 172 212 257 306
#
# _framework density 26.636483999999999
#
# number of rings (size 3 to 8) (size 9 to 14) (size 15 to 20)
#    0.000    2.000    3.750    2.250    5.250    1.000 
#    0.000    0.000    0.000    0.000    0.000    0.000 
#    0.000    2.000    0.000   35.500    0.000    8.500 
#
# Total GULP energy -89296.725812 kJ/mol
# GULP energy per Si atom -5581.045363 kJ/mol
# Density = 2.657586 g / cm^3
# Si number density = 26.636484 Si / 1000 Ang^3
#
#
#
# Elastic Constant Matrix: (Units=GPa)
#
#
# Indices 1 2 3 4 5 6 
#
# 1 141.9374 24.6734 42.8279 -19.6636 13.3982 15.7139
# 2 24.6734 51.8244 29.9799 -16.8234 5.7437 -1.1827
# 3 42.8279 29.9799 121.8277 -44.9699 17.6709 -2.2255
# 4 -19.6636 -16.8234 -44.9699 33.4099 -6.6963 -2.4316
# 5 13.3982 5.7437 17.6709 -6.6963 35.8953 -5.0279
# 6 15.7139 -1.1827 -2.2255 -2.4316 -5.0279 37.2163
#
#
#
# Elastic Compliance Matrix: (Units=1/GPa)
#
#
# Indices 1 2 3 4 5 6 
#
# 1 0.008890 -0.002783 -0.002084 0.000233 -0.002403 -0.004276
# 2 -0.002783 0.024482 -0.001968 0.008203 -0.000048 0.002365
# 3 -0.002084 -0.001968 0.017827 0.021320 -0.003310 0.002829
# 4 0.000233 0.008203 0.021320 0.063458 0.000739 0.005683
# 5 -0.002403 -0.000048 -0.003310 0.000739 0.031243 0.005084
# 6 -0.004276 0.002365 0.002829 0.005683 0.005084 0.029978
#
#
# Mechanical properties :
#
#
# Convention : Reuss Voigt Hill
#
# Bulk Modulus (GPa) = 26.64596 56.72799 41.68697
# Shear Modulus (GPa) = 24.74557 35.84485 30.29521
#
# Velocity S-wave (km/s) = 3.05127 3.67237 3.37613
# Velocity P-wave (km/s) = 4.73698 6.27097 5.55716
#
# Compressibility (1/GPa) = 0.03752914
#
# Stress axis : x y z
#
# Youngs Moduli (GPa) = 112.47990 40.84711 56.09547
#
# Poissons Ratio (x) = 0.11366 0.11691
# Poissons Ratio (y) = 0.31299 0.11040
# Poissons Ratio (z) = 0.23442 0.08039
#
# Static dielectric constant tensor:
#      x y z
#    x 2.175330 -0.004980 -0.036180 
#    y -0.004980 2.143190 -0.025410 
#    z -0.036180 -0.025410 2.263510 
# 
# From -- ./inp_files/550891.got.cif
#   From: 2010.05.17/outbox.cif.g08.bks.cpg/sg2_276_cif.got.tgz:550891.got - 2010.06.03 11:33:40.
