data_PCOD9084853
_publ_section_title
;
Structure prediction by ZEFSAII (Michael W. Deem and Ramdas Pophale) SiO2 
 PCOD9084853
Probable space group: P -1
;
_chemical_formula_sum "Si O2"
_cell_formula_units_Z 16
_cell_length_a 9.037792
_cell_length_b 18.666652
_cell_length_c 10.781134
_cell_angle_alpha 146.987440
_cell_angle_beta 90.891592
_cell_angle_gamma 68.252875
_cell_volume 747.673037
_symmetry_space_group_name_H-M "P -1"
_symmetry_group_IT_number 2
_symmetry_cell_setting 'triclinic'
loop_
_space_group_symop_operation_xyz
x,y,z
-x,-y,-z
loop_
_atom_site_type_symbol
_atom_site_label
_atom_site_fract_x
_atom_site_fract_y
_atom_site_fract_z
Si Si1 0.111152 0.485112 0.356026
Si Si2 0.386018 0.569359 0.468155
Si Si3 0.570966 0.031429 0.252780
Si Si4 0.253817 0.212115 0.322113
Si Si5 0.530528 0.120501 0.808976
Si Si6 0.232425 0.933143 0.024816
Si Si7 0.264831 0.776199 0.157266
Si Si8 0.916560 0.019188 0.320371
O O1 0.201468 0.579838 0.501999
O O2 0.000000 0.500000 0.500000
O O3 0.942642 0.591179 0.404995
O O4 0.301850 0.289305 0.039792
O O5 0.500000 0.500000 0.500000
O O6 0.315892 0.755571 0.701411
O O7 0.543749 0.419302 0.155998
O O8 0.408405 0.183522 0.378154
O O9 0.750201 0.017249 0.271294
O O10 0.465795 0.033680 0.376776
O O11 0.656771 0.861912 0.921693
O O12 0.220860 0.080051 0.172097
O O13 0.624607 0.133746 0.951538
O O14 0.661857 0.113985 0.697719
O O15 0.023194 0.017822 0.201708
O O16 0.178423 0.817003 0.352257
O O17 0.090073 0.854601 0.169346
#
# Coordination Sequence:
#
# PCOD9084853 Si02
#       8
#     2   2   2   2   2   2   2   2
#     4  11  20  32  55  82 117 146 185 239 295 340
#     4  11  19  34  58  85 115 150 188 247 292 334
#     4  10  20  33  54  81 116 151 194 234 291 341
#     4  10  22  35  53  86 119 154 188 246 288 340
#     4   9  18  34  54  82 115 147 186 246 282 342
#     4  10  20  36  57  85 119 149 195 236 293 341
#     4   9  20  34  56  87 119 150 192 245 289 330
#     4  10  19  35  57  85 117 156 196 236 281 354
#
# _framework density 21.399729000000001
#
# number of rings (size 3 to 8) (size 9 to 14) (size 15 to 20)
#    0.000    2.000    5.000    0.750    0.000    2.500 
#    0.000    0.000    0.000    9.750    0.000    0.000 
#    0.000    0.000    0.000    0.000    0.000    0.000 
#
# Total GULP energy -89247.001570 kJ/mol
# GULP energy per Si atom -5577.937598 kJ/mol
# Density = 2.135102 g / cm^3
# Si number density = 21.399729 Si / 1000 Ang^3
#
#
#
# Elastic Constant Matrix: (Units=GPa)
#
#
# Indices 1 2 3 4 5 6 
#
# 1 134.1313 35.1445 24.6549 7.8879 -15.1909 -17.1051
# 2 35.1445 63.9480 26.9217 19.7888 -7.5579 -13.5868
# 3 24.6549 26.9217 63.2393 1.3662 -17.7258 1.7576
# 4 7.8879 19.7888 1.3662 19.0686 -7.4215 -7.6361
# 5 -15.1909 -7.5579 -17.7258 -7.4215 26.7607 5.2014
# 6 -17.1051 -13.5868 1.7576 -7.6361 5.2014 41.7251
#
#
#
# Elastic Compliance Matrix: (Units=1/GPa)
#
#
# Indices 1 2 3 4 5 6 
#
# 1 0.009474 -0.005390 -0.000332 0.004363 0.004380 0.002395
# 2 -0.005390 0.037599 -0.017766 -0.039626 -0.016279 0.005559
# 3 -0.000332 -0.017766 0.029204 0.022569 0.021506 -0.005702
# 4 0.004363 -0.039626 0.022569 0.104781 0.034753 0.002778
# 5 0.004380 -0.016279 0.021506 0.034753 0.060220 -0.005558
# 6 0.002395 0.005559 -0.005702 0.002778 -0.005558 0.028200
#
#
# Mechanical properties :
#
#
# Convention : Reuss Voigt Hill
#
# Bulk Modulus (GPa) = 34.12918 48.30675 41.21796
# Shear Modulus (GPa) = 15.32701 29.15072 22.23886
#
# Velocity S-wave (km/s) = 2.67914 3.69480 3.22718
# Velocity P-wave (km/s) = 5.05504 6.38942 5.76099
#
# Compressibility (1/GPa) = 0.02930044
#
# Stress axis : x y z
#
# Youngs Moduli (GPa) = 105.55607 26.59648 34.24140
#
# Poissons Ratio (x) = 0.14336 0.01136
# Poissons Ratio (y) = 0.56898 0.60834
# Poissons Ratio (z) = 0.03503 0.47252
#
# Static dielectric constant tensor:
#      x y z
#    x 1.876460 0.055530 0.004260 
#    y 0.055530 1.831240 -0.004690 
#    z 0.004260 -0.004690 1.796790 
# 
# From -- ./inp_files/405098.got.cif
#   From: 2010.05.17/outbox.cif.g08.bks.cpg/sg2_203_cif.got.tgz:405098.got - 2010.06.03 11:33:40.
