data_PCOD9084610
_publ_section_title
;
Structure prediction by ZEFSAII (Michael W. Deem and Ramdas Pophale) SiO2 
 PCOD9084610
Probable space group: P -1
;
_chemical_formula_sum "Si O2"
_cell_formula_units_Z 16
_cell_length_a 15.956879
_cell_length_b 9.724630
_cell_length_c 16.185806
_cell_angle_alpha 132.772189
_cell_angle_beta 48.750562
_cell_angle_gamma 91.019163
_cell_volume 869.066543
_symmetry_space_group_name_H-M "P -1"
_symmetry_group_IT_number 2
_symmetry_cell_setting 'triclinic'
loop_
_space_group_symop_operation_xyz
x,y,z
-x,-y,-z
loop_
_atom_site_type_symbol
_atom_site_label
_atom_site_fract_x
_atom_site_fract_y
_atom_site_fract_z
Si Si1 0.895802 0.091756 0.768615
Si Si2 0.509128 0.229156 0.997701
Si Si3 0.611924 0.229019 0.102232
Si Si4 0.117670 0.154990 0.468042
Si Si5 0.363241 0.914268 0.529269
Si Si6 0.338503 0.237608 0.813491
Si Si7 0.290014 0.217631 0.028382
Si Si8 0.782127 0.111264 0.529429
O O1 0.870673 0.054184 0.676032
O O2 0.795996 0.071541 0.881638
O O3 0.802230 0.413963 0.970261
O O4 0.101868 0.857850 0.555365
O O5 0.707187 0.962881 0.722667
O O6 0.532341 0.197517 0.069188
O O7 0.385321 0.246044 0.036756
O O8 0.414633 0.557861 0.183241
O O9 0.485090 0.575451 0.335609
O O10 0.645208 0.066739 0.095756
O O11 0.924825 0.489081 0.707356
O O12 0.133830 0.095133 0.529799
O O13 0.478561 0.910502 0.398786
O O14 0.222093 0.015611 0.598594
O O15 0.299613 0.107161 0.729843
O O16 0.341471 0.188958 0.888445
#
# Coordination Sequence:
#
# PCOD9084610 Si02
#       8
#     2   2   2   2   2   2   2   2
#     4  10  19  35  55  82 114 147 183 224 279 330
#     4  10  21  35  55  85 117 150 182 226 278 337
#     4   9  22  38  55  83 115 150 186 225 278 335
#     4  11  21  34  56  90 118 143 184 230 278 332
#     4   9  21  39  58  82 108 144 193 236 278 327
#     4  10  20  37  60  82 105 146 193 234 280 325
#     4  12  21  37  59  84 116 151 184 226 279 336
#     4  11  18  35  58  82 113 147 186 235 278 325
#
# _framework density 18.410557000000001
#
# number of rings (size 3 to 8) (size 9 to 14) (size 15 to 20)
#    0.000    1.750    2.500    3.375    0.000    3.000 
#    4.500    0.000    0.000    0.750    0.000    0.000 
#    0.000    0.000    0.000    0.000    0.000    0.000 
#
# Total GULP energy -89223.013727 kJ/mol
# GULP energy per Si atom -5576.438358 kJ/mol
# Density = 1.836865 g / cm^3
# Si number density = 18.410557 Si / 1000 Ang^3
#
#
#
# Elastic Constant Matrix: (Units=GPa)
#
#
# Indices 1 2 3 4 5 6 
#
# 1 113.8393 35.6760 38.5611 7.2980 7.4007 -1.1103
# 2 35.6760 76.9096 25.2831 1.4356 8.4765 -4.9366
# 3 38.5611 25.2831 47.7931 1.6127 1.8219 -8.0035
# 4 7.2980 1.4356 1.6127 12.5489 -0.1227 3.0339
# 5 7.4007 8.4765 1.8219 -0.1227 33.2708 3.3766
# 6 -1.1103 -4.9366 -8.0035 3.0339 3.3766 10.3821
#
#
#
# Elastic Compliance Matrix: (Units=1/GPa)
#
#
# Indices 1 2 3 4 5 6 
#
# 1 0.013478 -0.003140 -0.010028 -0.004737 -0.001052 -0.006056
# 2 -0.003140 0.017010 -0.005461 -0.000661 -0.003845 0.004986
# 3 -0.010028 -0.005461 0.036470 -0.004554 -0.001042 0.026115
# 4 -0.004737 -0.000661 -0.004554 0.091034 0.005115 -0.032597
# 5 -0.001052 -0.003845 -0.001042 0.005115 0.032861 -0.014926
# 6 -0.006056 0.004986 0.026115 -0.032597 -0.014926 0.132555
#
#
# Mechanical properties :
#
#
# Convention : Reuss Voigt Hill
#
# Bulk Modulus (GPa) = 33.66968 48.62027 41.14498
# Shear Modulus (GPa) = 13.49287 20.50848 17.00068
#
# Velocity S-wave (km/s) = 2.71013 3.34121 3.04208
# Velocity P-wave (km/s) = 5.30292 6.43049 5.89373
#
# Compressibility (1/GPa) = 0.02970031
#
# Stress axis : x y z
#
# Youngs Moduli (GPa) = 74.19505 58.78802 27.41982
#
# Poissons Ratio (x) = 0.18459 0.27495
# Poissons Ratio (y) = 0.23297 0.14975
# Poissons Ratio (z) = 0.74400 0.32107
#
# Static dielectric constant tensor:
#      x y z
#    x 1.652390 0.015500 -0.030550 
#    y 0.015500 1.625030 -0.011570 
#    z -0.030550 -0.011570 1.668020 
# 
# From -- ./inp_files/252253.got.cif
#   From: 2010.05.17/outbox.cif.g08.bks.cpg/sg2_127_cif.got.tgz:252253.got - 2010.06.03 11:33:40.
