data_PCOD9084719
_publ_section_title
;
Structure prediction by ZEFSAII (Michael W. Deem and Ramdas Pophale) SiO2 
 PCOD9084719
Probable space group: P -1
;
_chemical_formula_sum "Si O2"
_cell_formula_units_Z 16
_cell_length_a 14.008983
_cell_length_b 25.760671
_cell_length_c 20.046908
_cell_angle_alpha 19.263961
_cell_angle_beta 17.547225
_cell_angle_gamma 19.371011
_cell_volume 647.820625
_symmetry_space_group_name_H-M "P -1"
_symmetry_group_IT_number 2
_symmetry_cell_setting 'triclinic'
loop_
_space_group_symop_operation_xyz
x,y,z
-x,-y,-z
loop_
_atom_site_type_symbol
_atom_site_label
_atom_site_fract_x
_atom_site_fract_y
_atom_site_fract_z
Si Si1 0.876098 0.844970 0.946966
Si Si2 0.726796 0.053361 0.556005
Si Si3 0.782189 0.294261 0.758532
Si Si4 0.332431 0.478689 0.068106
Si Si5 0.800044 0.670212 0.973814
Si Si6 0.375564 0.940560 0.759842
Si Si7 0.507660 0.586103 0.684561
Si Si8 0.767906 0.104508 0.229355
O O1 0.126009 0.892013 0.674346
O O2 0.973254 0.853973 0.947846
O O3 0.955067 0.647004 0.115342
O O4 0.500000 0.000000 0.000000
O O5 0.438655 0.240540 0.547166
O O6 0.699731 0.874525 0.776389
O O7 0.000000 0.000000 0.500000
O O8 0.751403 0.465574 0.609359
O O9 0.153733 0.124767 0.720651
O O10 0.589090 0.326922 0.775800
O O11 0.554373 0.226552 0.040575
O O12 0.394561 0.279470 0.267740
O O13 0.500000 0.500000 0.000000
O O14 0.539490 0.494045 0.846245
O O15 0.100548 0.634545 0.873734
O O16 0.000000 0.500000 0.000000
O O17 0.707812 0.952017 0.491054
O O18 0.140977 0.937711 0.856479
#
# Coordination Sequence:
#
# PCOD9084719 Si02
#       8
#     2   2   2   2   2   2   2   2
#     4  10  21  37  60  86 114 151 197 246 288 353
#     4   9  18  34  56  83 115 153 186 233 303 347
#     4  10  19  35  56  86 114 146 203 241 289 340
#     4   9  18  35  58  77 115 156 186 232 298 353
#     4   9  18  32  55  84 117 151 185 244 298 344
#     4  10  21  34  60  80 113 156 192 246 279 363
#     4   9  17  33  57  82 114 151 191 239 297 347
#     4  10  20  38  57  82 117 156 194 231 306 348
#
# _framework density 24.698194000000001
#
# number of rings (size 3 to 8) (size 9 to 14) (size 15 to 20)
#    0.000    2.500    1.250    0.750    0.000    3.000 
#    6.750    0.000    2.750    6.000    0.000    0.000 
#    0.000    0.000    0.000    0.000    0.000    0.000 
#
# Total GULP energy -89136.416195 kJ/mol
# GULP energy per Si atom -5571.026012 kJ/mol
# Density = 2.464198 g / cm^3
# Si number density = 24.698194 Si / 1000 Ang^3
#
#
#
# Elastic Constant Matrix: (Units=GPa)
#
#
# Indices 1 2 3 4 5 6 
#
# 1 113.6044 20.7744 22.5457 -3.5848 -5.9591 18.5912
# 2 20.7744 149.4560 21.0694 -25.6616 -19.6467 9.7079
# 3 22.5457 21.0694 67.0836 -23.6132 3.3197 9.6882
# 4 -3.5848 -25.6616 -23.6132 30.1495 -0.6233 -13.0155
# 5 -5.9591 -19.6467 3.3197 -0.6233 26.7020 -10.5562
# 6 18.5912 9.7079 9.6882 -13.0155 -10.5562 41.4931
#
#
#
# Elastic Compliance Matrix: (Units=1/GPa)
#
#
# Indices 1 2 3 4 5 6 
#
# 1 0.010606 -0.001574 -0.004304 -0.005751 -0.000489 -0.005307
# 2 -0.001574 0.009388 0.000012 0.009527 0.008192 0.003579
# 3 -0.004304 0.000012 0.022503 0.017731 -0.002727 0.001539
# 4 -0.005751 0.009527 0.017731 0.063018 0.012573 0.019174
# 5 -0.000489 0.008192 -0.002727 0.012573 0.050189 0.015652
# 6 -0.005307 0.003579 0.001539 0.019174 0.015652 0.035278
#
#
# Mechanical properties :
#
#
# Convention : Reuss Voigt Hill
#
# Bulk Modulus (GPa) = 32.50433 50.99141 41.74787
# Shear Modulus (GPa) = 23.47753 37.38588 30.43171
#
# Velocity S-wave (km/s) = 3.08649 3.89486 3.51400
# Velocity P-wave (km/s) = 5.08833 6.39666 5.77963
#
# Compressibility (1/GPa) = 0.03076513
#
# Stress axis : x y z
#
# Youngs Moduli (GPa) = 94.28747 106.51473 44.43769
#
# Poissons Ratio (x) = 0.16770 0.19124
# Poissons Ratio (y) = 0.14845 -0.00052
# Poissons Ratio (z) = 0.40577 -0.00126
#
# Static dielectric constant tensor:
#      x y z
#    x 2.006240 0.016050 -0.025750 
#    y 0.016050 2.053230 0.026760 
#    z -0.025750 0.026760 2.023000 
# 
# From -- ./inp_files/598634.got.cif
#   From: 2010.05.17/outbox.cif.g08.bks.cpg/sg2_300_cif.got.tgz:598634.got - 2010.06.03 11:33:40.
