data_PCOD9084574
_publ_section_title
;
Structure prediction by ZEFSAII (Michael W. Deem and Ramdas Pophale) SiO2 
 PCOD9084574
Probable space group: P -1
;
_chemical_formula_sum "Si O2"
_cell_formula_units_Z 16
_cell_length_a 9.717691
_cell_length_b 20.637502
_cell_length_c 9.065848
_cell_angle_alpha 60.557833
_cell_angle_beta 81.698194
_cell_angle_gamma 33.153610
_cell_volume 716.860979
_symmetry_space_group_name_H-M "P -1"
_symmetry_group_IT_number 2
_symmetry_cell_setting 'triclinic'
loop_
_space_group_symop_operation_xyz
x,y,z
-x,-y,-z
loop_
_atom_site_type_symbol
_atom_site_label
_atom_site_fract_x
_atom_site_fract_y
_atom_site_fract_z
Si Si1 0.307566 0.420250 0.280131
Si Si2 0.139006 0.112016 0.744221
Si Si3 0.807338 0.409606 0.124647
Si Si4 0.800468 0.907250 0.584372
Si Si5 0.736680 0.432380 0.438423
Si Si6 0.577605 0.285459 0.705637
Si Si7 0.598395 0.775294 0.038321
Si Si8 0.404898 0.224096 0.304112
O O1 0.509646 0.320653 0.504162
O O2 0.345326 0.325830 0.291164
O O3 0.960680 0.597318 0.189377
O O4 0.370984 0.456967 0.115213
O O5 0.056328 0.238252 0.636604
O O6 0.894774 0.178181 0.795758
O O7 0.088000 0.126638 0.559614
O O8 0.467482 0.919448 0.933633
O O9 0.655002 0.463591 0.243681
O O10 0.956306 0.264875 0.192760
O O11 0.093016 0.325278 0.226862
O O12 0.500000 0.000000 0.500000
O O13 0.673533 0.042650 0.525354
O O14 0.500000 0.500000 0.500000
O O15 0.690357 0.539606 0.369641
O O16 0.560936 0.210679 0.852988
O O17 0.521310 0.793824 0.858329
#
# Coordination Sequence:
#
# PCOD9084574 Si02
#       8
#     2   2   2   2   2   2   2   2
#     4  11  21  32  50  81 109 132 166 214 260 297
#     4   9  19  35  55  75  97 135 179 208 246 308
#     4   9  16  31  53  74  98 134 173 209 247 302
#     4   8  15  30  53  75  95 125 173 216 242 287
#     4   9  18  34  54  74  98 136 175 206 249 311
#     4  11  21  34  51  78 109 134 165 216 260 295
#     4  10  19  35  55  74 100 140 177 204 245 309
#     4   9  17  31  53  77  99 134 176 207 245 305
#
# _framework density 22.319531999999999
#
# number of rings (size 3 to 8) (size 9 to 14) (size 15 to 20)
#    0.000    2.500    0.000    4.500    0.000    0.000 
#    0.000   10.000    0.000    0.000    0.000    0.000 
#    0.000    0.000    0.000    0.000    0.000    0.000 
#
# Total GULP energy -89268.411464 kJ/mol
# GULP energy per Si atom -5579.275716 kJ/mol
# Density = 2.226873 g / cm^3
# Si number density = 22.319532 Si / 1000 Ang^3
#
#
#
# Elastic Constant Matrix: (Units=GPa)
#
#
# Indices 1 2 3 4 5 6 
#
# 1 35.8897 22.3474 31.0537 -11.9187 -6.6191 -4.9580
# 2 22.3474 94.9341 41.0012 -12.6154 -12.3214 2.3776
# 3 31.0537 41.0012 74.0840 -0.0190 -25.2427 12.4458
# 4 -11.9187 -12.6154 -0.0190 37.3038 7.1032 -24.5738
# 5 -6.6191 -12.3214 -25.2427 7.1032 22.9705 6.1354
# 6 -4.9580 2.3776 12.4458 -24.5738 6.1354 21.6687
#
#
#
# Elastic Compliance Matrix: (Units=1/GPa)
#
#
# Indices 1 2 3 4 5 6 
#
# 1 0.019659 -0.006814 0.008154 -0.018267 0.023802 -0.026893
# 2 -0.006814 0.013652 -0.002349 -0.001575 0.004542 -0.004780
# 3 0.008154 -0.002349 0.003289 0.022355 -0.009783 0.028356
# 4 -0.018267 -0.001575 0.022355 -0.003023 0.026838 -0.027874
# 5 0.023802 0.004542 -0.009783 0.026838 0.024695 0.034010
# 6 -0.026893 -0.004780 0.028356 -0.027874 0.034010 -0.017007
#
#
# Mechanical properties :
#
#
# Convention : Reuss Voigt Hill
#
# Bulk Modulus (GPa) = 28.91694 43.74584 36.33139
# Shear Modulus (GPa) = 91.22129 23.75563 57.48846
#
# Velocity S-wave (km/s) = 6.39995 3.26597 5.08064
# Velocity P-wave (km/s) = 8.22171 5.81931 7.12253
#
# Compressibility (1/GPa) = 0.03458180
#
# Stress axis : x y z
#
# Youngs Moduli (GPa) = 50.86687 73.24885 304.03055
#
# Poissons Ratio (x) = 0.49912 -2.47903
# Poissons Ratio (y) = 0.34661 0.71423
# Poissons Ratio (z) = -0.41476 0.17208
#
# Static dielectric constant tensor:
#      x y z
#    x 1.825780 -0.021320 -0.022600 
#    y -0.021320 1.864920 -0.039930 
#    z -0.022600 -0.039930 1.855520 
# 
# From -- ./inp_files/262932.got.cif
#   From: 2010.05.17/outbox.cif.g08.bks.cpg/sg2_132_cif.got.tgz:262932.got - 2010.06.03 11:33:40.
