data_PCOD9084457
_publ_section_title
;
Structure prediction by ZEFSAII (Michael W. Deem and Ramdas Pophale) SiO2 
 PCOD9084457
Probable space group: P -1
;
_chemical_formula_sum "Si O2"
_cell_formula_units_Z 16
_cell_length_a 15.140854
_cell_length_b 15.309004
_cell_length_c 8.725724
_cell_angle_alpha 101.011155
_cell_angle_beta 108.823452
_cell_angle_gamma 140.547550
_cell_volume 829.058005
_symmetry_space_group_name_H-M "P -1"
_symmetry_group_IT_number 2
_symmetry_cell_setting 'triclinic'
loop_
_space_group_symop_operation_xyz
x,y,z
-x,-y,-z
loop_
_atom_site_type_symbol
_atom_site_label
_atom_site_fract_x
_atom_site_fract_y
_atom_site_fract_z
Si Si1 0.075430 0.016594 0.700797
Si Si2 0.311006 0.618190 0.561322
Si Si3 0.696008 0.568758 0.316382
Si Si4 0.870535 0.312715 0.273583
Si Si5 0.501825 0.651327 0.455679
Si Si6 0.703564 0.698682 0.829007
Si Si7 0.501564 0.882753 0.037851
Si Si8 0.485794 0.295791 0.867823
O O1 0.907279 0.796987 0.560526
O O2 0.296371 0.160807 0.829584
O O3 0.000000 0.000000 0.500000
O O4 0.108168 0.109274 0.893110
O O5 0.311350 0.531491 0.638694
O O6 0.433637 0.686041 0.505552
O O7 0.066116 0.434907 0.334622
O O8 0.434643 0.794895 0.797098
O O9 0.506214 0.467743 0.237615
O O10 0.671089 0.520745 0.107848
O O11 0.000000 0.500000 0.500000
O O12 0.735753 0.126692 0.238808
O O13 0.677777 0.198797 0.043512
O O14 0.666007 0.736994 0.683167
O O15 0.307332 0.412968 0.265015
O O16 0.566296 0.726882 0.343540
O O17 0.480265 0.778978 0.101102
#
# Coordination Sequence:
#
# PCOD9084457 Si02
#       8
#     2   2   2   2   2   2   2   2
#     4  11  20  32  53  75  98 137 185 223 254 292
#     4   9  18  32  52  76 102 133 168 207 251 308
#     4   9  18  34  53  73 100 136 181 221 250 290
#     4   9  17  33  59  81  97 124 168 213 252 304
#     4  10  19  35  51  72 111 145 169 210 262 304
#     4   9  20  36  51  70 104 146 182 214 251 301
#     4   9  18  34  57  79  98 128 169 211 256 304
#     4  10  20  34  52  77 108 136 170 218 261 301
#
# _framework density 19.299012999999999
#
# number of rings (size 3 to 8) (size 9 to 14) (size 15 to 20)
#    0.000    2.500    0.000    3.000    0.000    2.000 
#    0.000   16.875    0.000    6.750    0.000    0.000 
#    0.000    0.000    0.000    0.000    0.000    0.000 
#
# Total GULP energy -89104.886241 kJ/mol
# GULP energy per Si atom -5569.055390 kJ/mol
# Density = 1.925509 g / cm^3
# Si number density = 19.299013 Si / 1000 Ang^3
#
#
#
# Elastic Constant Matrix: (Units=GPa)
#
#
# Indices 1 2 3 4 5 6 
#
# 1 68.1744 13.7275 10.0802 0.3452 1.4370 -3.7485
# 2 13.7275 59.2517 32.2882 -0.7969 -9.9844 -2.9364
# 3 10.0802 32.2882 91.7121 6.6354 -19.2404 -2.7248
# 4 0.3452 -0.7969 6.6354 37.3986 -2.1737 0.4755
# 5 1.4370 -9.9844 -19.2404 -2.1737 26.0172 -0.2646
# 6 -3.7485 -2.9364 -2.7248 0.4755 -0.2646 26.0760
#
#
#
# Elastic Compliance Matrix: (Units=1/GPa)
#
#
# Indices 1 2 3 4 5 6 
#
# 1 0.015684 -0.003478 -0.001058 -0.000227 -0.002985 0.001726
# 2 -0.003478 0.022062 -0.006665 0.001895 0.003901 0.001293
# 3 -0.001058 -0.006665 0.015386 -0.002368 0.008689 0.000836
# 4 -0.000227 0.001895 -0.002368 0.027282 0.001263 -0.000551
# 5 -0.002985 0.003901 0.008689 0.001263 0.046643 0.001368
# 6 0.001726 0.001293 0.000836 -0.000551 0.001368 0.038854
#
#
# Mechanical properties :
#
#
# Convention : Reuss Voigt Hill
#
# Bulk Modulus (GPa) = 32.54159 36.81444 34.67802
# Shear Modulus (GPa) = 25.18181 28.76785 26.97483
#
# Velocity S-wave (km/s) = 3.61615 3.86507 3.74268
# Velocity P-wave (km/s) = 5.85951 6.24784 6.05679
#
# Compressibility (1/GPa) = 0.03072990
#
# Stress axis : x y z
#
# Youngs Moduli (GPa) = 63.75961 45.32711 64.99582
#
# Poissons Ratio (x) = 0.15763 0.06877
# Poissons Ratio (y) = 0.22173 0.43321
# Poissons Ratio (z) = 0.06746 0.30211
#
# Static dielectric constant tensor:
#      x y z
#    x 1.726310 -0.014340 -0.040320 
#    y -0.014340 1.633470 -0.019780 
#    z -0.040320 -0.019780 1.748580 
# 
# From -- ./inp_files/52929.got.cif
#   From: 2010.05.17/outbox.cif.g08.bks.cpg/sg2_27_cif.got.tgz:52929.got - 2010.06.03 11:33:40.
