data_PCOD9084534
_publ_section_title
;
Structure prediction by ZEFSAII (Michael W. Deem and Ramdas Pophale) SiO2 
 PCOD9084534
Probable space group: P -1
;
_chemical_formula_sum "Si O2"
_cell_formula_units_Z 16
_cell_length_a 12.143752
_cell_length_b 15.922926
_cell_length_c 23.364226
_cell_angle_alpha 21.642048
_cell_angle_beta 26.949459
_cell_angle_gamma 39.391780
_cell_volume 711.895578
_symmetry_space_group_name_H-M "P -1"
_symmetry_group_IT_number 2
_symmetry_cell_setting 'triclinic'
loop_
_space_group_symop_operation_xyz
x,y,z
-x,-y,-z
loop_
_atom_site_type_symbol
_atom_site_label
_atom_site_fract_x
_atom_site_fract_y
_atom_site_fract_z
Si Si1 0.808264 0.776113 0.650536
Si Si2 0.354572 0.194356 0.618307
Si Si3 0.098029 0.526949 0.849541
Si Si4 0.284642 0.223104 0.133803
Si Si5 0.184682 0.611248 0.397040
Si Si6 0.434375 0.950417 0.495633
Si Si7 0.238742 0.116393 0.089455
Si Si8 0.662474 0.255247 0.026438
O O1 0.596037 0.763951 0.804784
O O2 0.684768 0.859931 0.598434
O O3 0.848830 0.520865 0.786427
O O4 0.074814 0.982732 0.408120
O O5 0.207549 0.387079 0.565056
O O6 0.347100 0.077035 0.632257
O O7 0.663740 0.343760 0.386082
O O8 0.264371 0.974188 0.843447
O O9 0.834778 0.567124 0.929210
O O10 0.784288 0.310655 0.251111
O O11 0.076061 0.255768 0.043389
O O12 0.271837 0.185647 0.096166
O O13 0.563875 0.255667 0.007662
O O14 0.000000 0.500000 0.500000
O O15 0.120317 0.828630 0.319776
O O16 0.474773 0.755003 0.149848
O O17 0.500000 0.000000 0.500000
#
# Coordination Sequence:
#
# PCOD9084534 Si02
#       8
#     2   2   2   2   2   2   2   2
#     4   9  20  33  48  83 119 153 184 215 264 356
#     4   8  18  36  55  80 114 145 192 237 261 342
#     4   8  18  34  51  87 122 137 180 231 279 350
#     4  11  20  34  58  85 120 149 175 229 287 341
#     4  10  22  43  62  77 110 150 191 241 291 323
#     4   8  15  28  52  78 116 144 168 226 281 321
#     4  10  22  39  57  88 112 142 195 236 279 347
#     4  10  19  35  54  79 120 156 183 219 279 336
#
# _framework density 22.475204999999999
#
# number of rings (size 3 to 8) (size 9 to 14) (size 15 to 20)
#    0.750    2.000    1.250    0.750    1.750    3.000 
#    6.750    1.875    0.000    1.500    0.000    0.000 
#    0.000    0.000    0.000    0.000    0.000    0.000 
#
# Total GULP energy -89288.631236 kJ/mol
# GULP energy per Si atom -5580.539452 kJ/mol
# Density = 2.242405 g / cm^3
# Si number density = 22.475205 Si / 1000 Ang^3
#
#
#
# Elastic Constant Matrix: (Units=GPa)
#
#
# Indices 1 2 3 4 5 6 
#
# 1 78.5244 22.7559 19.3993 -24.0144 1.6463 -12.2907
# 2 22.7559 87.3187 47.5804 -52.1948 9.8838 -21.2523
# 3 19.3993 47.5804 64.6103 -39.6420 1.4200 -11.9748
# 4 -24.0144 -52.1948 -39.6420 46.9583 -9.1902 14.8857
# 5 1.6463 9.8838 1.4200 -9.1902 22.5548 -0.4485
# 6 -12.2907 -21.2523 -11.9748 14.8857 -0.4485 15.4258
#
#
#
# Elastic Compliance Matrix: (Units=1/GPa)
#
#
# Indices 1 2 3 4 5 6 
#
# 1 0.015946 0.003438 0.000210 0.009873 0.001500 0.008121
# 2 0.003438 0.038264 -0.005149 0.033309 -0.002740 0.019238
# 3 0.000210 -0.005149 0.035162 0.028460 0.011489 -0.006759
# 4 0.009873 0.033309 0.028460 0.097222 0.022161 -0.017325
# 5 0.001500 -0.002740 0.011489 0.022161 0.053466 -0.013492
# 6 0.008121 0.019238 -0.006759 -0.017325 -0.013492 0.108881
#
#
# Mechanical properties :
#
#
# Convention : Reuss Voigt Hill
#
# Bulk Modulus (GPa) = 11.57789 45.54717 28.56253
# Shear Modulus (GPa) = 13.13257 26.36896 19.75076
#
# Velocity S-wave (km/s) = 2.41988 3.42898 2.96764
# Velocity P-wave (km/s) = 3.60144 5.99890 4.94758
#
# Compressibility (1/GPa) = 0.08637155
#
# Stress axis : x y z
#
# Youngs Moduli (GPa) = 62.71316 26.13390 28.43955
#
# Poissons Ratio (x) = -0.08985 -0.00597
# Poissons Ratio (y) = -0.21562 0.14643
# Poissons Ratio (z) = -0.01317 0.13455
#
# Static dielectric constant tensor:
#      x y z
#    x 1.842480 0.008250 0.033190 
#    y 0.008250 1.885210 0.002860 
#    z 0.033190 0.002860 1.865170 
# 
# From -- ./inp_files/610754.got.cif
#   From: 2010.05.17/outbox.cif.g08.bks.cpg/sg2_306_cif.got.tgz:610754.got - 2010.06.03 11:33:40.
