data_PCOD9084919
_publ_section_title
;
Structure prediction by ZEFSAII (Michael W. Deem and Ramdas Pophale) SiO2 
 PCOD9084919
Probable space group: P -1
;
_chemical_formula_sum "Si O2"
_cell_formula_units_Z 16
_cell_length_a 13.052606
_cell_length_b 9.886755
_cell_length_c 9.130399
_cell_angle_alpha 75.488744
_cell_angle_beta 61.753707
_cell_angle_gamma 46.555730
_cell_volume 748.418606
_symmetry_space_group_name_H-M "P -1"
_symmetry_group_IT_number 2
_symmetry_cell_setting 'triclinic'
loop_
_space_group_symop_operation_xyz
x,y,z
-x,-y,-z
loop_
_atom_site_type_symbol
_atom_site_label
_atom_site_fract_x
_atom_site_fract_y
_atom_site_fract_z
Si Si1 0.866961 0.497741 0.934587
Si Si2 0.543414 0.685730 0.461768
Si Si3 0.481509 0.557585 0.256771
Si Si4 0.805183 0.239483 0.015105
Si Si5 0.778613 0.984057 0.291716
Si Si6 0.134796 0.829225 0.348805
Si Si7 0.222239 0.282099 0.793854
Si Si8 0.055884 0.605647 0.383875
O O1 0.037119 0.435078 0.842410
O O2 0.817292 0.528482 0.791706
O O3 0.880308 0.321433 0.010966
O O4 0.761814 0.670939 0.066520
O O5 0.554784 0.592663 0.327122
O O6 0.549879 0.568351 0.617739
O O7 0.368998 0.883679 0.539132
O O8 0.672633 0.701369 0.379513
O O9 0.619786 0.426553 0.081380
O O10 0.307867 0.748680 0.286135
O O11 0.819168 0.098816 0.156028
O O12 0.870816 0.152928 0.831476
O O13 0.733946 0.912149 0.212289
O O14 0.912402 0.801359 0.346321
O O15 0.120501 0.672890 0.427612
O O16 0.000000 0.000000 0.500000
O O17 0.000000 0.500000 0.500000
#
# Coordination Sequence:
#
# PCOD9084919 Si02
#       8
#     2   2   2   2   2   2   2   2
#     4   9  20  36  60  87 118 164 198 248 309 364
#     4  10  20  37  62  91 125 155 209 256 300 362
#     4  10  21  38  65  90 121 172 203 250 309 363
#     4  10  21  43  63  91 127 159 212 254 304 373
#     4  10  22  38  63  94 120 161 203 259 307 355
#     4  11  24  40  63  94 124 164 206 257 309 362
#     4  10  19  35  57  92 119 154 202 254 301 364
#     4  10  23  41  58  87 125 163 197 250 313 367
#
# _framework density 21.378409999999999
#
# number of rings (size 3 to 8) (size 9 to 14) (size 15 to 20)
#    0.000    2.000    1.250    1.500    3.500    5.500 
#    4.500    0.000    0.000    1.500    0.000    0.000 
#    0.000    0.000    0.000    0.000    0.000    0.000 
#
# Total GULP energy -89099.494804 kJ/mol
# GULP energy per Si atom -5568.718425 kJ/mol
# Density = 2.132975 g / cm^3
# Si number density = 21.378410 Si / 1000 Ang^3
#
#
#
# Elastic Constant Matrix: (Units=GPa)
#
#
# Indices 1 2 3 4 5 6 
#
# 1 78.8767 28.5879 34.1574 -6.6806 -30.6252 11.1757
# 2 28.5879 67.5236 45.5200 5.0510 -10.3937 9.2308
# 3 34.1574 45.5200 111.3125 16.3534 -23.7406 9.8892
# 4 -6.6806 5.0510 16.3534 41.3460 17.5947 -8.8109
# 5 -30.6252 -10.3937 -23.7406 17.5947 34.0343 -1.4826
# 6 11.1757 9.2308 9.8892 -8.8109 -1.4826 44.0897
#
#
#
# Elastic Compliance Matrix: (Units=1/GPa)
#
#
# Indices 1 2 3 4 5 6 
#
# 1 0.023959 -0.006440 0.002492 -0.008456 0.025436 -0.006118
# 2 -0.006440 0.022450 -0.008756 0.002121 -0.006181 -0.000888
# 3 0.002492 -0.008756 0.019224 -0.016355 0.021186 -0.005666
# 4 -0.008456 0.002121 -0.016355 0.050738 -0.043988 0.014028
# 5 0.025436 -0.006181 0.021186 -0.043988 0.087215 -0.015763
# 6 -0.006118 -0.000888 -0.005666 0.014028 -0.015763 0.027962
#
#
# Mechanical properties :
#
#
# Convention : Reuss Voigt Hill
#
# Bulk Modulus (GPa) = 24.85895 52.69372 38.77633
# Shear Modulus (GPa) = 18.49362 33.85717 26.17540
#
# Velocity S-wave (km/s) = 2.94438 3.98390 3.50292
# Velocity P-wave (km/s) = 4.81793 6.77226 5.87691
#
# Compressibility (1/GPa) = 0.04022696
#
# Stress axis : x y z
#
# Youngs Moduli (GPa) = 41.73715 44.54407 52.01739
#
# Poissons Ratio (x) = 0.28685 -0.12963
# Poissons Ratio (y) = 0.26877 0.45544
# Poissons Ratio (z) = -0.10401 0.39001
#
# Static dielectric constant tensor:
#      x y z
#    x 1.866200 -0.024490 0.013650 
#    y -0.024490 1.811970 0.022610 
#    z 0.013650 0.022610 1.853620 
# 
# From -- ./inp_files/243395.got.cif
#   From: 2010.05.17/outbox.cif.g08.bks.cpg/sg2_122_cif.got.tgz:243395.got - 2010.06.03 11:33:40.
