data_PCOD9084850
_publ_section_title
;
Structure prediction by ZEFSAII (Michael W. Deem and Ramdas Pophale) SiO2 
 PCOD9084850
Probable space group: P -1
;
_chemical_formula_sum "Si O2"
_cell_formula_units_Z 14
_cell_length_a 14.942319
_cell_length_b 11.677991
_cell_length_c 4.977828
_cell_angle_alpha 63.306651
_cell_angle_beta 114.890280
_cell_angle_gamma 123.529919
_cell_volume 629.261056
_symmetry_space_group_name_H-M "P -1"
_symmetry_group_IT_number 2
_symmetry_cell_setting 'triclinic'
loop_
_space_group_symop_operation_xyz
x,y,z
-x,-y,-z
loop_
_atom_site_type_symbol
_atom_site_label
_atom_site_fract_x
_atom_site_fract_y
_atom_site_fract_z
Si Si1 0.908161 0.250226 0.196802
Si Si2 0.091557 0.500830 0.820130
Si Si3 0.538653 0.436670 0.369055
Si Si4 0.243032 0.380234 0.278664
Si Si5 0.218120 0.016185 0.065815
Si Si6 0.056322 0.129067 0.644693
Si Si7 0.656681 0.827545 0.471308
O O1 0.849346 0.336051 0.169309
O O2 0.963803 0.180174 0.545928
O O3 0.840592 0.133831 0.008711
O O4 0.012954 0.381143 0.056402
O O5 0.000000 0.500000 0.500000
O O6 0.185034 0.449134 0.935767
O O7 0.500000 0.500000 0.500000
O O8 0.668544 0.503477 0.529500
O O9 0.470560 0.265488 0.505755
O O10 0.500000 0.500000 0.000000
O O11 0.149954 0.261306 0.468387
O O12 0.296062 0.289000 0.291367
O O13 0.125431 0.069959 0.971139
O O14 0.305437 0.121654 0.839959
O O15 0.284889 0.036852 0.402050
O O16 0.000000 0.000000 0.500000
#
# Coordination Sequence:
#
# PCOD9084850 Si02
#       7
#     2   2   2   2   2   2   2
#     4   9  20  36  51  77 110 147 192 227 275 326
#     4  10  21  36  55  78 112 155 195 226 263 335
#     4  10  19  35  57  85 115 142 180 235 287 337
#     4   9  19  34  53  84 113 146 184 231 280 332
#     4  10  20  34  57  82 111 144 177 235 287 333
#     4   8  15  31  49  77 107 140 174 224 275 330
#     4  10  20  34  57  85 110 138 181 231 295 332
#
# _framework density 22.248318999999999
#
# number of rings (size 3 to 8) (size 9 to 14) (size 15 to 20)
#    0.000    2.571    0.000    2.571    4.000    0.000 
#    7.714    4.286    0.000    1.714    0.000    0.000 
#    0.000    0.000    0.000    0.000    0.000    0.000 
#
# Total GULP energy -77940.285691 kJ/mol
# GULP energy per Si atom -5567.163264 kJ/mol
# Density = 2.219768 g / cm^3
# Si number density = 22.248319 Si / 1000 Ang^3
#
#
#
# Elastic Constant Matrix: (Units=GPa)
#
#
# Indices 1 2 3 4 5 6 
#
# 1 40.5354 26.6206 19.6574 -5.7328 -0.5659 6.1502
# 2 26.6206 123.8467 19.0624 9.6047 15.5057 10.0046
# 3 19.6574 19.0624 92.6334 -0.1887 -5.1922 3.7423
# 4 -5.7328 9.6047 -0.1887 41.2706 2.0794 3.6400
# 5 -0.5659 15.5057 -5.1922 2.0794 27.7510 3.1800
# 6 6.1502 10.0046 3.7423 3.6400 3.1800 31.8818
#
#
#
# Elastic Compliance Matrix: (Units=1/GPa)
#
#
# Indices 1 2 3 4 5 6 
#
# 1 0.033485 -0.006962 -0.005263 0.006484 0.003648 -0.004761
# 2 -0.006962 0.010807 -0.001052 -0.003097 -0.006034 -0.000969
# 3 -0.005263 -0.001052 0.012301 -0.000546 0.002860 -0.000321
# 4 0.006484 -0.003097 -0.000546 0.026124 0.000172 -0.003214
# 5 0.003648 -0.006034 0.002860 0.000172 0.040368 -0.003192
# 6 -0.004761 -0.000969 -0.000321 -0.003214 -0.003192 0.033311
#
#
# Mechanical properties :
#
#
# Convention : Reuss Voigt Hill
#
# Bulk Modulus (GPa) = 33.29108 43.07737 38.18422
# Shear Modulus (GPa) = 25.91171 32.95904 29.43537
#
# Velocity S-wave (km/s) = 3.41641 3.85309 3.64130
# Velocity P-wave (km/s) = 5.52796 6.26093 5.90583
#
# Compressibility (1/GPa) = 0.03003808
#
# Stress axis : x y z
#
# Youngs Moduli (GPa) = 29.86449 92.53346 81.29647
#
# Poissons Ratio (x) = 0.64425 0.42785
# Poissons Ratio (y) = 0.20793 0.08551
# Poissons Ratio (z) = 0.15717 0.09732
#
# Static dielectric constant tensor:
#      x y z
#    x 1.969590 0.043610 0.079010 
#    y 0.043610 1.902130 0.011760 
#    z 0.079010 0.011760 1.918410 
# 
# From -- ./inp_files/77084.got.cif
#   From: 2010.05.17/outbox.cif.g08.bks.cpg/sg2_39_cif.got.tgz:77084.got - 2010.06.03 11:33:40.
