data_PCOD9084445
_publ_section_title
;
Structure prediction by ZEFSAII (Michael W. Deem and Ramdas Pophale) SiO2 
 PCOD9084445
Probable space group: P -1
;
_chemical_formula_sum "Si O2"
_cell_formula_units_Z 15
_cell_length_a 15.143772
_cell_length_b 6.659866
_cell_length_c 10.704850
_cell_angle_alpha 119.983150
_cell_angle_beta 54.612820
_cell_angle_gamma 84.150985
_cell_volume 634.633344
_symmetry_space_group_name_H-M "P -1"
_symmetry_group_IT_number 2
_symmetry_cell_setting 'triclinic'
loop_
_space_group_symop_operation_xyz
x,y,z
-x,-y,-z
loop_
_atom_site_type_symbol
_atom_site_label
_atom_site_fract_x
_atom_site_fract_y
_atom_site_fract_z
Si Si1 0.745460 0.010624 0.760819
Si Si2 0.102101 0.628215 0.657209
Si Si3 0.882389 0.234244 0.586236
Si Si4 0.475929 0.303406 0.635815
Si Si5 0.417064 0.143441 0.871841
Si Si6 0.500000 0.000000 0.000000
Si Si7 0.828823 0.816064 0.899821
Si Si8 0.352454 0.499115 0.538317
O O1 0.832035 0.696069 0.535550
O O2 0.597948 0.101976 0.920077
O O3 0.796762 0.994931 0.855387
O O4 0.768381 0.200401 0.712828
O O5 0.099304 0.785641 0.582964
O O6 0.205109 0.614657 0.664126
O O7 0.950774 0.772306 0.861628
O O8 0.873588 0.510927 0.720624
O O9 0.000000 0.000000 0.500000
O O10 0.432889 0.333505 0.823254
O O11 0.377805 0.489303 0.662582
O O12 0.593666 0.341526 0.529777
O O13 0.500000 0.000000 0.500000
O O14 0.388432 0.231888 0.066060
O O15 0.549249 0.828492 0.688108
O O16 0.307684 0.093271 0.896078
#
# Coordination Sequence:
#
# PCOD9084445 Si02
#       8
#     2   2   2   2   2   1   2   2
#     4  10  19  35  49  75 121 153 189 228 277 334
#     4  11  20  34  56  84 110 149 200 237 271 340
#     4  11  19  33  54  76 118 170 192 217 285 348
#     4   9  21  42  63  83 111 149 195 242 297 344
#     4  10  21  38  58  85 122 153 184 239 292 346
#     4  10  20  32  54  86 122 148 178 240 274 340
#     4  10  21  35  52  83 120 155 188 235 284 339
#     4  10  21  39  65  85 108 151 198 247 286 335
#
# _framework density 23.635694000000001
#
# number of rings (size 3 to 8) (size 9 to 14) (size 15 to 20)
#    0.000    1.867    4.000    0.800    1.867    2.133 
#    0.000    3.333    0.000    7.200    0.000    0.000 
#    0.000    0.000    0.000    0.000    0.000    0.000 
#
# Total GULP energy -83541.468408 kJ/mol
# GULP energy per Si atom -5569.431227 kJ/mol
# Density = 2.358190 g / cm^3
# Si number density = 23.635694 Si / 1000 Ang^3
#
#
#
# Elastic Constant Matrix: (Units=GPa)
#
#
# Indices 1 2 3 4 5 6 
#
# 1 149.7769 38.8896 34.2606 -15.5416 -61.5156 7.8396
# 2 38.8896 149.6231 30.0655 -34.8778 -7.5432 2.1690
# 3 34.2606 30.0655 44.2831 -6.1086 -24.5392 7.0559
# 4 -15.5416 -34.8778 -6.1086 44.5826 10.5277 -6.7337
# 5 -61.5156 -7.5432 -24.5392 10.5277 41.3695 -5.6010
# 6 7.8396 2.1690 7.0559 -6.7337 -5.6010 25.9091
#
#
#
# Elastic Compliance Matrix: (Units=1/GPa)
#
#
# Indices 1 2 3 4 5 6 
#
# 1 0.020319 -0.006116 0.006991 -0.005069 0.034342 -0.001434
# 2 -0.006116 0.011996 -0.011218 0.009879 -0.015657 0.003084
# 3 0.006991 -0.011218 0.044887 -0.010018 0.036425 -0.008130
# 4 -0.005069 0.009879 -0.010018 0.032673 -0.018933 0.007834
# 5 0.034342 -0.015657 0.036425 -0.018933 0.098451 -0.002638
# 6 -0.001434 0.003084 -0.008130 0.007834 -0.002638 0.042452
#
#
# Mechanical properties :
#
#
# Convention : Reuss Voigt Hill
#
# Bulk Modulus (GPa) = 17.69345 61.12383 39.40864
# Shear Modulus (GPa) = 17.22347 38.40340 27.81343
#
# Velocity S-wave (km/s) = 2.70238 4.03526 3.43411
# Velocity P-wave (km/s) = 4.15203 6.90131 5.69506
#
# Compressibility (1/GPa) = 0.05651809
#
# Stress axis : x y z
#
# Youngs Moduli (GPa) = 49.21468 83.36199 22.27797
#
# Poissons Ratio (x) = 0.50982 -0.15575
# Poissons Ratio (y) = 0.30098 0.24991
# Poissons Ratio (z) = -0.34408 0.93514
#
# Static dielectric constant tensor:
#      x y z
#    x 1.814070 0.042970 -0.215100 
#    y 0.042970 1.859980 0.088870 
#    z -0.215100 0.088870 1.644790 
# 
# From -- ./inp_files/63910.got.cif
#   From: 2010.05.17/outbox.cif.g08.bks.cpg/sg2_32_cif.got.tgz:63910.got - 2010.06.03 11:33:40.
