data_PCOD9084914
_publ_section_title
;
Structure prediction by ZEFSAII (Michael W. Deem and Ramdas Pophale) SiO2 
 PCOD9084914
Probable space group: P -1
;
_chemical_formula_sum "Si O2"
_cell_formula_units_Z 14
_cell_length_a 28.394175
_cell_length_b 5.261436
_cell_length_c 13.024350
_cell_angle_alpha 60.826058
_cell_angle_beta 22.723852
_cell_angle_gamma 56.863410
_cell_volume 628.547174
_symmetry_space_group_name_H-M "P -1"
_symmetry_group_IT_number 2
_symmetry_cell_setting 'triclinic'
loop_
_space_group_symop_operation_xyz
x,y,z
-x,-y,-z
loop_
_atom_site_type_symbol
_atom_site_label
_atom_site_fract_x
_atom_site_fract_y
_atom_site_fract_z
Si Si1 0.147843 0.365369 0.200883
Si Si2 0.406801 0.287659 0.733874
Si Si3 0.157167 0.952701 0.982103
Si Si4 0.371488 0.206767 0.577099
Si Si5 0.886242 0.842413 0.380877
Si Si6 0.824978 0.207480 0.232483
Si Si7 0.882347 0.188452 0.537686
O O1 0.000000 0.500000 0.500000
O O2 0.168880 0.004172 0.237244
O O3 0.260528 0.411031 0.039037
O O4 0.154290 0.602199 0.051617
O O5 0.500000 0.500000 0.500000
O O6 0.383215 0.226000 0.673161
O O7 0.483812 0.987692 0.700545
O O8 0.158648 0.042471 0.842613
O O9 0.281014 0.997222 0.774982
O O10 0.034662 0.119810 0.261092
O O11 0.300429 0.517614 0.599563
O O12 0.835686 0.548657 0.551526
O O13 0.815587 0.066665 0.389292
O O14 0.876148 0.022318 0.473420
O O15 0.035863 0.730584 0.065160
#
# Coordination Sequence:
#
# PCOD9084914 Si02
#       7
#     2   2   2   2   2   2   2
#     4  10  21  38  60  89 126 162 197 256 314 381
#     4  11  22  38  57  90 124 158 206 251 315 373
#     4  10  19  35  57  91 118 157 202 256 316 359
#     4  11  20  34  62  85 121 155 201 262 310 364
#     4  10  22  36  59  89 125 167 211 252 313 358
#     4  10  20  34  58  88 123 156 206 268 300 358
#     4  10  22  38  56  89 129 164 203 252 309 381
#
# _framework density 22.273586999999999
#
# number of rings (size 3 to 8) (size 9 to 14) (size 15 to 20)
#    0.000    1.714    4.286    0.000    2.000    2.857 
#    0.000    4.286    0.000    1.714    0.000    0.000 
#    0.000    0.000    0.000    0.000    0.000    0.000 
#
# Total GULP energy -77936.514609 kJ/mol
# GULP energy per Si atom -5566.893901 kJ/mol
# Density = 2.222289 g / cm^3
# Si number density = 22.273587 Si / 1000 Ang^3
#
#
#
# Elastic Constant Matrix: (Units=GPa)
#
#
# Indices 1 2 3 4 5 6 
#
# 1 112.0007 50.5360 29.3516 -16.2788 -10.3925 -16.0491
# 2 50.5360 127.7987 26.8822 -10.4161 -8.5674 -22.9924
# 3 29.3516 26.8822 74.2406 2.3820 -23.8112 -8.5232
# 4 -16.2788 -10.4161 2.3820 39.9318 -6.7536 -15.3814
# 5 -10.3925 -8.5674 -23.8112 -6.7536 30.8230 2.2047
# 6 -16.0491 -22.9924 -8.5232 -15.3814 2.2047 42.3808
#
#
#
# Elastic Compliance Matrix: (Units=1/GPa)
#
#
# Indices 1 2 3 4 5 6 
#
# 1 0.013011 -0.002817 -0.002933 0.007213 0.002540 0.005295
# 2 -0.002817 0.010823 -0.001915 0.004247 0.001088 0.005905
# 3 -0.002933 -0.001915 0.019845 -0.000148 0.013700 0.001075
# 4 0.007213 0.004247 -0.000148 0.037890 0.010498 0.018212
# 5 0.002540 0.001088 0.013700 0.010498 0.046077 0.005720
# 6 0.005295 0.005905 0.001075 0.018212 0.005720 0.035332
#
#
# Mechanical properties :
#
#
# Convention : Reuss Voigt Hill
#
# Bulk Modulus (GPa) = 35.27448 58.61993 46.94721
# Shear Modulus (GPa) = 26.63006 36.44513 31.53759
#
# Velocity S-wave (km/s) = 3.46148 4.04945 3.76695
# Velocity P-wave (km/s) = 5.64332 6.94545 6.32797
#
# Compressibility (1/GPa) = 0.02834910
#
# Stress axis : x y z
#
# Youngs Moduli (GPa) = 76.85722 92.39573 50.39117
#
# Poissons Ratio (x) = 0.26031 0.14779
# Poissons Ratio (y) = 0.21654 0.09648
# Poissons Ratio (z) = 0.22541 0.17691
#
# Static dielectric constant tensor:
#      x y z
#    x 1.842130 0.042190 0.029040 
#    y 0.042190 1.955980 0.081440 
#    z 0.029040 0.081440 1.960640 
# 
# From -- ./inp_files/65655.got.cif
#   From: 2010.05.17/outbox.cif.g08.bks.cpg/sg2_33_cif.got.tgz:65655.got - 2010.06.03 11:33:40.
