data_PCOD9084130
_publ_section_title
;
Structure prediction by ZEFSAII (Michael W. Deem and Ramdas Pophale) SiO2 
 PCOD9084130
Probable space group: P -1
;
_chemical_formula_sum "Si O2"
_cell_formula_units_Z 16
_cell_length_a 7.576964
_cell_length_b 18.565534
_cell_length_c 12.137872
_cell_angle_alpha 136.457132
_cell_angle_beta 137.914678
_cell_angle_gamma 75.244583
_cell_volume 622.579548
_symmetry_space_group_name_H-M "P -1"
_symmetry_group_IT_number 2
_symmetry_cell_setting 'triclinic'
loop_
_space_group_symop_operation_xyz
x,y,z
-x,-y,-z
loop_
_atom_site_type_symbol
_atom_site_label
_atom_site_fract_x
_atom_site_fract_y
_atom_site_fract_z
Si Si1 0.734469 0.029123 0.536659
Si Si2 0.035862 0.131515 0.162890
Si Si3 0.289432 0.227587 0.170006
Si Si4 0.817340 0.208575 0.346820
Si Si5 0.713115 0.517730 0.227929
Si Si6 0.289812 0.510918 0.215181
Si Si7 0.393119 0.228619 0.760055
Si Si8 0.308892 0.771901 0.333752
O O1 0.656740 0.096110 0.481667
O O2 0.500000 0.000000 0.500000
O O3 0.708876 0.898584 0.357992
O O4 0.096289 0.157360 0.889980
O O5 0.008018 0.170736 0.071994
O O6 0.436995 0.237135 0.488472
O O7 0.828715 0.133117 0.165776
O O8 0.000000 0.000000 0.000000
O O9 0.486638 0.165438 0.205543
O O10 0.540989 0.383219 0.489655
O O11 0.941491 0.346519 0.497837
O O12 0.071311 0.219619 0.564967
O O13 0.566662 0.540312 0.290525
O O14 0.500000 0.500000 0.000000
O O15 0.666439 0.384359 0.087020
O O16 0.000000 0.500000 0.000000
O O17 0.068913 0.358733 0.983200
O O18 0.543112 0.215913 0.704372
#
# Coordination Sequence:
#
# PCOD9084130 Si02
#       8
#     2   2   2   2   2   2   2   2
#     4  10  23  43  64  88 129 182 214 251 328 396
#     4  11  22  38  64  98 129 167 214 273 317 375
#     4  12  23  39  71  95 128 170 215 272 322 380
#     4  10  20  37  60 100 129 154 219 273 321 371
#     4  10  19  34  60  92 132 161 200 277 326 369
#     4  12  20  37  64 102 126 160 219 272 325 376
#     4   9  18  36  61  87 126 170 209 255 321 380
#     4  10  21  39  62  91 130 168 214 259 324 387
#
# _framework density 25.699527
#
# number of rings (size 3 to 8) (size 9 to 14) (size 15 to 20)
#    0.000    1.500    2.500    6.000    0.000    2.500 
#    0.000    0.625    5.500    3.750    0.000    0.000 
#    0.000    0.000    0.000    0.000    0.000    0.000 
#
# Total GULP energy -89279.386828 kJ/mol
# GULP energy per Si atom -5579.961677 kJ/mol
# Density = 2.564103 g / cm^3
# Si number density = 25.699527 Si / 1000 Ang^3
#
#
#
# Elastic Constant Matrix: (Units=GPa)
#
#
# Indices 1 2 3 4 5 6 
#
# 1 93.0539 5.0609 5.2145 -7.5146 -8.8180 -14.7296
# 2 5.0609 118.0048 45.3235 32.7235 -8.7395 -20.5892
# 3 5.2145 45.3235 110.9428 25.0265 -18.2065 -8.8547
# 4 -7.5146 32.7235 25.0265 29.8727 -7.0264 -8.2050
# 5 -8.8180 -8.7395 -18.2065 -7.0264 33.5031 9.1771
# 6 -14.7296 -20.5892 -8.8547 -8.2050 9.1771 25.4294
#
#
#
# Elastic Compliance Matrix: (Units=1/GPa)
#
#
# Indices 1 2 3 4 5 6 
#
# 1 0.012970 -0.000659 -0.001074 0.007644 0.001971 0.008360
# 2 -0.000659 0.013856 -0.002857 -0.011611 -0.002459 0.006983
# 3 -0.001074 -0.002857 0.012442 -0.007136 0.004977 -0.002701
# 4 0.007644 -0.011611 -0.007136 0.057798 0.004618 0.009524
# 5 0.001971 -0.002459 0.004977 0.004618 0.036341 -0.010741
# 6 0.008360 0.006983 -0.002701 0.009524 -0.010741 0.055830
#
#
# Mechanical properties :
#
#
# Convention : Reuss Voigt Hill
#
# Bulk Modulus (GPa) = 33.23487 48.13326 40.68406
# Shear Modulus (GPa) = 23.98721 35.52122 29.75422
#
# Velocity S-wave (km/s) = 3.05843 3.72179 3.40630
# Velocity P-wave (km/s) = 5.04303 6.10237 5.59781
#
# Compressibility (1/GPa) = 0.03008888
#
# Stress axis : x y z
#
# Youngs Moduli (GPa) = 77.10144 72.17240 80.37310
#
# Poissons Ratio (x) = 0.04755 0.08632
# Poissons Ratio (y) = 0.05079 0.22959
# Poissons Ratio (z) = 0.08281 0.20616
#
# Static dielectric constant tensor:
#      x y z
#    x 1.975630 0.021660 0.031570 
#    y 0.021660 2.189510 -0.046850 
#    z 0.031570 -0.046850 2.233800 
# 
# From -- ./inp_files/507935.got.cif
#   From: 2010.05.17/outbox.cif.g08.bks.cpg/sg2_254_cif.got.tgz:507935.got - 2010.06.03 11:33:40.
