data_PCOD9084770
_publ_section_title
;
Structure prediction by ZEFSAII (Michael W. Deem and Ramdas Pophale) SiO2 
 PCOD9084770
Probable space group: P -1
;
_chemical_formula_sum "Si O2"
_cell_formula_units_Z 16
_cell_length_a 9.628309
_cell_length_b 13.839562
_cell_length_c 9.706048
_cell_angle_alpha 46.003818
_cell_angle_beta 136.800953
_cell_angle_gamma 123.509506
_cell_volume 634.151101
_symmetry_space_group_name_H-M "P -1"
_symmetry_group_IT_number 2
_symmetry_cell_setting 'triclinic'
loop_
_space_group_symop_operation_xyz
x,y,z
-x,-y,-z
loop_
_atom_site_type_symbol
_atom_site_label
_atom_site_fract_x
_atom_site_fract_y
_atom_site_fract_z
Si Si1 0.446866 0.618313 0.146698
Si Si2 0.410132 0.793205 0.206557
Si Si3 0.166284 0.514097 0.459497
Si Si4 0.422643 0.844068 0.468324
Si Si5 0.983331 0.207573 0.635642
Si Si6 0.325545 0.147966 0.112413
Si Si7 0.747450 0.499899 0.142043
Si Si8 0.163181 0.040143 0.695140
O O1 0.566773 0.741664 0.023583
O O2 0.282456 0.557914 0.977541
O O3 0.372124 0.683428 0.167834
O O4 0.606202 0.509343 0.405347
O O5 0.376635 0.764662 0.372930
O O6 0.647226 0.853078 0.315181
O O7 0.270475 0.911361 0.950917
O O8 0.063499 0.359719 0.509144
O O9 0.200329 0.535798 0.625398
O O10 0.971764 0.591584 0.193103
O O11 0.626409 0.822918 0.721165
O O12 0.255125 0.802915 0.503509
O O13 0.403329 0.003400 0.274439
O O14 0.044819 0.108077 0.662498
O O15 0.090204 0.157050 0.900115
O O16 0.500000 0.500000 0.000000
O O17 0.000000 0.000000 0.500000
#
# Coordination Sequence:
#
# PCOD9084770 Si02
#       8
#     2   2   2   2   2   2   2   2
#     4  10  19  35  57  78 111 147 182 231 276 326
#     4  11  22  38  49  83 116 146 194 231 266 329
#     4   9  18  34  54  84 108 133 184 237 274 330
#     4  11  23  32  54  77 115 156 189 226 268 319
#     4  11  21  37  54  80 112 153 189 226 271 328
#     4  10  20  35  52  74 110 152 190 224 263 320
#     4   9  18  32  57  85 106 132 178 238 288 324
#     4  11  24  34  55  77 113 156 193 230 273 317
#
# _framework density 25.230578999999999
#
# number of rings (size 3 to 8) (size 9 to 14) (size 15 to 20)
#    0.000    1.750    3.750    1.875    7.000    0.000 
#    0.000    0.000    0.000    0.750    0.000   35.875 
#    0.000    0.000    0.000    0.000    0.000    0.000 
#
# Total GULP energy -89199.152741 kJ/mol
# GULP energy per Si atom -5574.947046 kJ/mol
# Density = 2.517315 g / cm^3
# Si number density = 25.230579 Si / 1000 Ang^3
#
#
#
# Elastic Constant Matrix: (Units=GPa)
#
#
# Indices 1 2 3 4 5 6 
#
# 1 73.9049 37.1298 36.8664 10.9303 0.8437 -32.7984
# 2 37.1298 101.7941 51.0732 21.2782 1.5365 -37.9687
# 3 36.8664 51.0732 144.9631 41.9174 18.4365 -6.9202
# 4 10.9303 21.2782 41.9174 48.5863 4.1005 -7.2127
# 5 0.8437 1.5365 18.4365 4.1005 38.8510 -0.6627
# 6 -32.7984 -37.9687 -6.9202 -7.2127 -0.6627 52.3672
#
#
#
# Elastic Compliance Matrix: (Units=1/GPa)
#
#
# Indices 1 2 3 4 5 6 
#
# 1 0.022090 -0.001012 -0.005483 0.001901 0.002178 0.012666
# 2 -0.001012 0.017085 -0.005100 -0.001412 0.002102 0.010912
# 3 -0.005483 -0.005100 0.012748 -0.008094 -0.004988 -0.006625
# 4 0.001901 -0.001412 -0.008094 0.028119 0.000938 0.002982
# 5 0.002178 0.002102 -0.004988 0.000938 0.027923 0.002711
# 6 0.012666 0.010912 -0.006625 0.002982 0.002711 0.034510
#
#
# Mechanical properties :
#
#
# Convention : Reuss Voigt Hill
#
# Bulk Modulus (GPa) = 34.80390 63.42231 49.11311
# Shear Modulus (GPa) = 28.53176 41.00042 34.76609
#
# Velocity S-wave (km/s) = 3.36645 4.03554 3.71608
# Velocity P-wave (km/s) = 5.37912 6.84878 6.15795
#
# Compressibility (1/GPa) = 0.02873241
#
# Stress axis : x y z
#
# Youngs Moduli (GPa) = 45.27002 58.52955 78.44328
#
# Poissons Ratio (x) = 0.05923 0.43012
# Poissons Ratio (y) = 0.04581 0.40007
# Poissons Ratio (z) = 0.24822 0.29851
#
# Static dielectric constant tensor:
#      x y z
#    x 2.134720 0.052630 0.090190 
#    y 0.052630 2.155810 -0.185930 
#    z 0.090190 -0.185930 2.237960 
# 
# From -- ./inp_files/206562.got.cif
#   From: 2010.05.17/outbox.cif.g08.bks.cpg/sg2_104_cif.got.tgz:206562.got - 2010.06.03 11:33:40.
