data_PCOD9084414
_publ_section_title
;
Structure prediction by ZEFSAII (Michael W. Deem and Ramdas Pophale) SiO2 
 PCOD9084414
Probable space group: P -1
;
_chemical_formula_sum "Si O2"
_cell_formula_units_Z 16
_cell_length_a 8.200675
_cell_length_b 11.423523
_cell_length_c 14.355900
_cell_angle_alpha 73.277721
_cell_angle_beta 112.643612
_cell_angle_gamma 151.646792
_cell_volume 585.437946
_symmetry_space_group_name_H-M "P -1"
_symmetry_group_IT_number 2
_symmetry_cell_setting 'triclinic'
loop_
_space_group_symop_operation_xyz
x,y,z
-x,-y,-z
loop_
_atom_site_type_symbol
_atom_site_label
_atom_site_fract_x
_atom_site_fract_y
_atom_site_fract_z
Si Si1 0.639449 0.054423 0.623217
Si Si2 0.762165 0.898404 0.880809
Si Si3 0.411545 0.538117 0.388612
Si Si4 0.919727 0.466401 0.381229
Si Si5 0.014359 0.374049 0.072139
Si Si6 0.719597 0.829265 0.221674
Si Si7 0.850875 0.641619 0.080840
Si Si8 0.257661 0.914313 0.751648
O O1 0.421806 0.995234 0.668383
O O2 0.481801 0.824195 0.658130
O O3 0.500000 0.000000 0.500000
O O4 0.016577 0.349361 0.656101
O O5 0.943928 0.944665 0.821145
O O6 0.893345 0.120803 0.852660
O O7 0.349719 0.602344 0.868514
O O8 0.000000 0.000000 0.000000
O O9 0.500000 0.500000 0.500000
O O10 0.190351 0.528376 0.376189
O O11 0.740369 0.774018 0.338904
O O12 0.151003 0.305542 0.316634
O O13 0.000000 0.500000 0.500000
O O14 0.420854 0.590253 0.144358
O O15 0.786427 0.216171 0.150714
O O16 0.928178 0.243462 0.992500
O O17 0.000000 0.500000 0.000000
O O18 0.560024 0.863977 0.207877
O O19 0.500000 0.500000 0.000000
#
# Coordination Sequence:
#
# PCOD9084414 Si02
#       8
#     2   2   2   2   2   2   2   2
#     4   9  17  33  60  84 113 162 208 242 300 373
#     4  10  19  34  65  88 120 165 214 251 313 380
#     4  10  22  38  61  93 124 159 210 266 312 372
#     4   9  17  34  59  84 115 161 201 243 309 370
#     4  11  24  39  64  95 128 164 213 266 317 377
#     4  11  21  38  66  91 122 171 212 259 322 379
#     4  10  19  38  62  89 123 169 207 254 318 378
#     4  10  21  38  62  89 123 165 208 257 318 378
#
# _framework density 27.329968000000001
#
# number of rings (size 3 to 8) (size 9 to 14) (size 15 to 20)
#    0.000    2.000    3.750    1.500    1.750    1.000 
#    0.000    0.000   19.250    0.000    0.000    0.000 
#    0.000    0.000    0.000    0.000    0.000    0.000 
#
# Total GULP energy -89257.065855 kJ/mol
# GULP energy per Si atom -5578.566616 kJ/mol
# Density = 2.726776 g / cm^3
# Si number density = 27.329968 Si / 1000 Ang^3
#
#
#
# Elastic Constant Matrix: (Units=GPa)
#
#
# Indices 1 2 3 4 5 6 
#
# 1 70.7865 25.8166 51.8702 -3.9695 -26.4412 -3.5647
# 2 25.8166 184.9461 47.6861 -2.5439 -1.9009 -30.6972
# 3 51.8702 47.6861 172.7130 -26.5604 -14.9018 2.8802
# 4 -3.9695 -2.5439 -26.5604 58.0783 -2.5814 -7.7868
# 5 -26.4412 -1.9009 -14.9018 -2.5814 57.0030 -3.0599
# 6 -3.5647 -30.6972 2.8802 -7.7868 -3.0599 51.6429
#
#
#
# Elastic Compliance Matrix: (Units=1/GPa)
#
#
# Indices 1 2 3 4 5 6 
#
# 1 0.022030 -0.001297 -0.005607 -0.000524 0.008766 0.001503
# 2 -0.001297 0.006632 -0.001559 -0.000013 -0.000579 0.003903
# 3 -0.005607 -0.001559 0.008383 0.003188 -0.000388 -0.001323
# 4 -0.000524 -0.000013 0.003188 0.019079 0.001601 0.002750
# 5 0.008766 -0.000579 -0.000388 0.001601 0.021658 0.001807
# 6 0.001503 0.003903 -0.001323 0.002750 0.001807 0.022383
#
#
# Mechanical properties :
#
#
# Convention : Reuss Voigt Hill
#
# Bulk Modulus (GPa) = 49.70533 75.46573 62.58553
# Shear Modulus (GPa) = 40.38880 53.54968 46.96924
#
# Velocity S-wave (km/s) = 3.84841 4.43129 4.15010
# Velocity P-wave (km/s) = 6.16228 7.33856 6.77599
#
# Compressibility (1/GPa) = 0.02011857
#
# Stress axis : x y z
#
# Youngs Moduli (GPa) = 45.39313 150.79406 119.28803
#
# Poissons Ratio (x) = 0.19559 0.66889
# Poissons Ratio (y) = 0.05888 0.18592
# Poissons Ratio (z) = 0.25453 0.23502
#
# Static dielectric constant tensor:
#      x y z
#    x 2.364240 -0.073480 0.088120 
#    y -0.073480 2.281780 -0.124570 
#    z 0.088120 -0.124570 2.103820 
# 
# From -- ./inp_files/78542.got.cif
#   From: 2010.05.17/outbox.cif.g08.bks.cpg/sg2_40_cif.got.tgz:78542.got - 2010.06.03 11:33:40.
