data_PCOD9084208
_publ_section_title
;
Structure prediction by ZEFSAII (Michael W. Deem and Ramdas Pophale) SiO2 
 PCOD9084208
Probable space group: P -1
;
_chemical_formula_sum "Si O2"
_cell_formula_units_Z 16
_cell_length_a 10.901323
_cell_length_b 9.248474
_cell_length_c 13.578724
_cell_angle_alpha 51.666295
_cell_angle_beta 49.958046
_cell_angle_gamma 78.992472
_cell_volume 771.191203
_symmetry_space_group_name_H-M "P -1"
_symmetry_group_IT_number 2
_symmetry_cell_setting 'triclinic'
loop_
_space_group_symop_operation_xyz
x,y,z
-x,-y,-z
loop_
_atom_site_type_symbol
_atom_site_label
_atom_site_fract_x
_atom_site_fract_y
_atom_site_fract_z
Si Si1 0.210397 0.883541 0.426169
Si Si2 0.651388 0.762664 0.032505
Si Si3 0.322000 0.528671 0.189590
Si Si4 0.351583 0.886571 0.547546
Si Si5 0.792817 0.805495 0.456942
Si Si6 0.170819 0.793113 0.268485
Si Si7 0.483845 0.550270 0.599785
Si Si8 0.146092 0.277718 0.219899
O O1 0.364147 0.933241 0.403685
O O2 0.220536 0.776278 0.364172
O O3 0.042331 0.752344 0.629251
O O4 0.178590 0.080229 0.323743
O O5 0.503924 0.684322 0.058820
O O6 0.577523 0.640701 0.219230
O O7 0.809248 0.715628 0.920967
O O8 0.705056 0.994299 0.921642
O O9 0.296248 0.326621 0.346752
O O10 0.190188 0.619835 0.267225
O O11 0.275414 0.467688 0.127843
O O12 0.352096 0.665895 0.640186
O O13 0.500000 0.000000 0.500000
O O14 0.207861 0.975261 0.619304
O O15 0.669329 0.696538 0.478351
O O16 0.981035 0.798900 0.358230
O O17 0.500000 0.500000 0.500000
#
# Coordination Sequence:
#
# PCOD9084208 Si02
#       8
#     2   2   2   2   2   2   2   2
#     4  10  19  34  61  91 120 155 199 244 308 360
#     4  10  23  39  56  88 129 156 200 253 303 361
#     4  11  20  35  58  95 128 156 189 243 313 365
#     4  10  20  37  59  85 115 162 206 242 284 355
#     4  10  20  39  61  89 122 154 206 244 296 370
#     4  11  22  37  62  95 127 154 194 257 317 353
#     4  10  24  42  63  85 116 166 211 248 295 354
#     4  10  19  36  60  91 122 155 193 251 310 358
#
# _framework density 20.747125
#
# number of rings (size 3 to 8) (size 9 to 14) (size 15 to 20)
#    0.000    1.750    2.500    2.625    3.500    0.000 
#    0.000    4.375    0.000    0.000    0.000    0.000 
#    0.000    0.000    0.000    0.000    0.000    0.000 
#
# Total GULP energy -89241.228990 kJ/mol
# GULP energy per Si atom -5577.576812 kJ/mol
# Density = 2.069990 g / cm^3
# Si number density = 20.747125 Si / 1000 Ang^3
#
#
#
# Elastic Constant Matrix: (Units=GPa)
#
#
# Indices 1 2 3 4 5 6 
#
# 1 77.0543 35.2064 24.4761 4.4743 4.1903 10.8046
# 2 35.2064 99.1381 16.7434 5.4974 7.9277 13.8598
# 3 24.4761 16.7434 73.5489 -1.5899 -4.7571 7.2087
# 4 4.4743 5.4974 -1.5899 25.2132 7.7731 1.3365
# 5 4.1903 7.9277 -4.7571 7.7731 18.8107 9.5088
# 6 10.8046 13.8598 7.2087 1.3365 9.5088 37.4607
#
#
#
# Elastic Compliance Matrix: (Units=1/GPa)
#
#
# Indices 1 2 3 4 5 6 
#
# 1 0.017053 -0.004835 -0.004505 -0.001784 -0.001207 -0.001893
# 2 -0.004835 0.012624 -0.001265 -0.000912 -0.003062 -0.002223
# 3 -0.004505 -0.001265 0.016162 0.000039 0.007213 -0.003175
# 4 -0.001784 -0.000912 0.000039 0.046286 -0.020566 0.004413
# 5 -0.001207 -0.003062 0.007213 -0.020566 0.074138 -0.017992
# 6 -0.001893 -0.002223 -0.003175 0.004413 -0.017992 0.033083
#
#
# Mechanical properties :
#
#
# Convention : Reuss Voigt Hill
#
# Bulk Modulus (GPa) = 40.60312 44.73256 42.66784
# Shear Modulus (GPa) = 21.85646 27.85130 24.85388
#
# Velocity S-wave (km/s) = 3.24924 3.66788 3.46489
# Velocity P-wave (km/s) = 5.80428 6.28851 6.05124
#
# Compressibility (1/GPa) = 0.02462865
#
# Stress axis : x y z
#
# Youngs Moduli (GPa) = 58.64197 79.21572 61.87281
#
# Poissons Ratio (x) = 0.38300 0.27876
# Poissons Ratio (y) = 0.28353 0.07825
# Poissons Ratio (z) = 0.26420 0.10019
#
# Static dielectric constant tensor:
#      x y z
#    x 1.811640 -0.005680 -0.037560 
#    y -0.005680 1.770460 0.020150 
#    z -0.037560 0.020150 1.755880 
# 
# From -- ./inp_files/227574.got.cif
#   From: 2010.05.17/outbox.cif.g08.bks.cpg/sg2_114_cif.got.tgz:227574.got - 2010.06.03 11:33:40.
