data_PCOD9084435
_publ_section_title
;
Structure prediction by ZEFSAII (Michael W. Deem and Ramdas Pophale) SiO2 
 PCOD9084435
Probable space group: P -1
;
_chemical_formula_sum "Si O2"
_cell_formula_units_Z 14
_cell_length_a 17.585084
_cell_length_b 15.942658
_cell_length_c 6.923079
_cell_angle_alpha 58.074584
_cell_angle_beta 136.005647
_cell_angle_gamma 155.540097
_cell_volume 501.752871
_symmetry_space_group_name_H-M "P -1"
_symmetry_group_IT_number 2
_symmetry_cell_setting 'triclinic'
loop_
_space_group_symop_operation_xyz
x,y,z
-x,-y,-z
loop_
_atom_site_type_symbol
_atom_site_label
_atom_site_fract_x
_atom_site_fract_y
_atom_site_fract_z
Si Si1 0.479267 0.813527 0.470427
Si Si2 0.903172 0.016858 0.052365
Si Si3 0.878177 0.765542 0.235695
Si Si4 0.382028 0.342659 0.651057
Si Si5 0.728452 0.220114 0.334730
Si Si6 0.960807 0.621578 0.567880
Si Si7 0.448199 0.723303 0.074640
O O1 0.212884 0.588183 0.362507
O O2 0.438148 0.737027 0.269881
O O3 0.631384 0.040503 0.475560
O O4 0.662166 0.883459 0.823617
O O5 0.868378 0.872095 0.144796
O O6 0.130742 0.201391 0.394925
O O7 0.992766 0.125784 0.874143
O O8 0.988133 0.753711 0.542343
O O9 0.584616 0.504495 0.988926
O O10 0.500000 0.500000 0.500000
O O11 0.362313 0.213348 0.695589
O O12 0.000000 0.500000 0.500000
O O13 0.782822 0.223627 0.212645
O O14 0.541566 0.156094 0.129023
O O15 0.805739 0.516503 0.209965
#
# Coordination Sequence:
#
# PCOD9084435 Si02
#       7
#     2   2   2   2   2   2   2
#     4  12  23  41  68  96 125 173 217 263 329 388
#     4  10  19  34  66  95 128 175 213 264 330 386
#     4   9  17  36  60  91 133 170 210 268 323 385
#     4   9  18  33  63  93 125 170 211 260 328 385
#     4  10  23  43  67  90 130 170 211 273 327 377
#     4  10  23  42  66  95 130 168 216 266 324 391
#     4  10  22  41  64  94 127 167 213 267 320 382
#
# _framework density 27.902177999999999
#
# number of rings (size 3 to 8) (size 9 to 14) (size 15 to 20)
#    0.000    2.000    1.429    3.000    2.000    3.429 
#    0.000    5.714    0.000    0.000    0.000    2.000 
#    0.000    0.000    0.000    0.000    0.000    0.000 
#
# Total GULP energy -78101.763640 kJ/mol
# GULP energy per Si atom -5578.697403 kJ/mol
# Density = 2.783867 g / cm^3
# Si number density = 27.902178 Si / 1000 Ang^3
#
#
#
# Elastic Constant Matrix: (Units=GPa)
#
#
# Indices 1 2 3 4 5 6 
#
# 1 105.1234 54.3222 31.6516 -17.3999 39.8716 -12.1738
# 2 54.3222 200.4621 17.7366 -40.0320 17.5292 -13.0894
# 3 31.6516 17.7366 90.8095 -7.9883 36.4404 -11.5574
# 4 -17.3999 -40.0320 -7.9883 37.8072 -4.6650 -1.8194
# 5 39.8716 17.5292 36.4404 -4.6650 59.6710 -7.0604
# 6 -12.1738 -13.0894 -11.5574 -1.8194 -7.0604 68.4388
#
#
#
# Elastic Compliance Matrix: (Units=1/GPa)
#
#
# Indices 1 2 3 4 5 6 
#
# 1 0.014877 -0.002550 -0.000970 0.002986 -0.008221 0.001226
# 2 -0.002550 0.006986 0.000145 0.006330 0.000188 0.001095
# 3 -0.000970 0.000145 0.014989 0.001938 -0.008208 0.001591
# 4 0.002986 0.006330 0.001938 0.034825 -0.001986 0.002790
# 5 -0.008221 0.000188 -0.008208 -0.001986 0.027045 -0.000075
# 6 0.001226 0.001095 0.001591 0.002790 -0.000075 0.015374
#
#
# Mechanical properties :
#
#
# Convention : Reuss Voigt Hill
#
# Bulk Modulus (GPa) = 33.22073 67.09063 50.15568
# Shear Modulus (GPa) = 38.20341 52.69571 45.44956
#
# Velocity S-wave (km/s) = 3.70427 4.35050 4.04033
# Velocity P-wave (km/s) = 5.49795 7.02374 6.30716
#
# Compressibility (1/GPa) = 0.03010169
#
# Stress axis : x y z
#
# Youngs Moduli (GPa) = 67.21973 143.14698 66.71768
#
# Poissons Ratio (x) = 0.36507 0.06469
# Poissons Ratio (y) = 0.17143 -0.00970
# Poissons Ratio (z) = 0.06518 -0.02080
#
# Static dielectric constant tensor:
#      x y z
#    x 2.302570 -0.041400 -0.061910 
#    y -0.041400 2.187400 0.116620 
#    z -0.061910 0.116620 2.297420 
# 
# From -- ./inp_files/348372.got.cif
#   From: 2010.05.17/outbox.cif.g08.bks.cpg/sg2_175_cif.got.tgz:348372.got - 2010.06.03 11:33:40.
