data_PCOD9084941
_publ_section_title
;
Structure prediction by ZEFSAII (Michael W. Deem and Ramdas Pophale) SiO2 
 PCOD9084941
Probable space group: P -1
;
_chemical_formula_sum "Si O2"
_cell_formula_units_Z 16
_cell_length_a 15.189726
_cell_length_b 5.152051
_cell_length_c 11.847302
_cell_angle_alpha 73.758237
_cell_angle_beta 115.489190
_cell_angle_gamma 123.690632
_cell_volume 695.306433
_symmetry_space_group_name_H-M "P -1"
_symmetry_group_IT_number 2
_symmetry_cell_setting 'triclinic'
loop_
_space_group_symop_operation_xyz
x,y,z
-x,-y,-z
loop_
_atom_site_type_symbol
_atom_site_label
_atom_site_fract_x
_atom_site_fract_y
_atom_site_fract_z
Si Si1 0.781029 0.858889 0.046418
Si Si2 0.246786 0.383564 0.361305
Si Si3 0.594643 0.687660 0.123089
Si Si4 0.463856 0.650829 0.562424
Si Si5 0.983533 0.033432 0.265950
Si Si6 0.084271 0.637086 0.634446
Si Si7 0.687154 0.934287 0.753646
Si Si8 0.317368 0.730791 0.784923
O O1 0.706534 0.930231 0.083977
O O2 0.735377 0.504123 0.107762
O O3 0.744382 0.880748 0.899510
O O4 0.913018 0.068748 0.120596
O O5 0.328147 0.458880 0.505279
O O6 0.115767 0.250514 0.326579
O O7 0.262788 0.145940 0.318965
O O8 0.289076 0.713457 0.281366
O O9 0.630247 0.453422 0.227498
O O10 0.584013 0.924874 0.170776
O O11 0.500000 0.500000 0.000000
O O12 0.500000 0.500000 0.500000
O O13 0.552178 0.703546 0.703633
O O14 0.500000 0.000000 0.500000
O O15 0.927581 0.098173 0.337373
O O16 0.959491 0.682345 0.280523
O O17 0.214558 0.745528 0.667948
O O18 0.000000 0.500000 0.500000
#
# Coordination Sequence:
#
# PCOD9084941 Si02
#       8
#     2   2   2   2   2   2   2   2
#     4   9  22  33  57  80 118 148 186 221 286 333
#     4  10  21  35  56  80 113 149 186 232 276 321
#     4  10  19  35  58  78 107 149 184 224 286 333
#     4   8  16  33  51  71 102 143 183 226 274 315
#     4  11  22  38  57  82 118 147 184 235 286 334
#     4  11  21  39  61  81 106 150 193 226 283 343
#     4  10  20  34  56  82 109 151 191 224 272 337
#     4   9  19  36  54  80 110 146 178 228 288 326
#
# _framework density 23.011434999999999
#
# number of rings (size 3 to 8) (size 9 to 14) (size 15 to 20)
#    0.750    1.500    1.250    1.500    1.750    1.000 
#    0.000    2.500    0.000    0.000    0.000    0.000 
#    0.000    0.000    0.000    0.000    0.000    0.000 
#
# Total GULP energy -89156.782857 kJ/mol
# GULP energy per Si atom -5572.298929 kJ/mol
# Density = 2.295906 g / cm^3
# Si number density = 23.011435 Si / 1000 Ang^3
#
#
#
# Elastic Constant Matrix: (Units=GPa)
#
#
# Indices 1 2 3 4 5 6 
#
# 1 66.0815 8.9787 17.7843 9.5417 25.6713 -0.3905
# 2 8.9787 77.5595 -1.0866 13.0906 5.7698 -16.7365
# 3 17.7843 -1.0866 144.6211 23.3277 37.3968 12.6971
# 4 9.5417 13.0906 23.3277 22.7915 6.9635 7.2242
# 5 25.6713 5.7698 37.3968 6.9635 33.3557 14.8792
# 6 -0.3905 -16.7365 12.6971 7.2242 14.8792 38.6620
#
#
#
# Elastic Compliance Matrix: (Units=1/GPa)
#
#
# Indices 1 2 3 4 5 6 
#
# 1 0.028557 0.005982 0.006761 -0.017171 -0.034689 0.017216
# 2 0.005982 0.021224 0.006091 -0.020990 -0.018960 0.018467
# 3 0.006761 0.006091 0.013825 -0.016712 -0.022748 0.010042
# 4 -0.017171 -0.020990 -0.016712 0.080137 0.032855 -0.031389
# 5 -0.034689 -0.018960 -0.022748 0.032855 0.098784 -0.045244
# 6 0.017216 0.018467 0.010042 -0.031389 -0.045244 0.054013
#
#
# Mechanical properties :
#
#
# Convention : Reuss Voigt Hill
#
# Bulk Modulus (GPa) = 9.87398 37.73498 23.80448
# Shear Modulus (GPa) = 17.08644 36.46756 26.77700
#
# Velocity S-wave (km/s) = 2.72788 3.98522 3.41492
# Velocity P-wave (km/s) = 3.77120 6.13269 5.09077
#
# Compressibility (1/GPa) = 0.10127631
#
# Stress axis : x y z
#
# Youngs Moduli (GPa) = 35.01738 47.11611 72.33085
#
# Poissons Ratio (x) = -0.28187 -0.48905
# Poissons Ratio (y) = -0.20949 -0.44056
# Poissons Ratio (z) = -0.23676 -0.28698
#
# Static dielectric constant tensor:
#      x y z
#    x 2.026470 -0.012360 -0.051180 
#    y -0.012360 1.874540 0.013760 
#    z -0.051180 0.013760 1.933760 
# 
# From -- ./inp_files/536046.got.cif
#   From: 2010.05.17/outbox.cif.g08.bks.cpg/sg2_269_cif.got.tgz:536046.got - 2010.06.03 11:33:40.
