data_PCOD9084570
_publ_section_title
;
Structure prediction by ZEFSAII (Michael W. Deem and Ramdas Pophale) SiO2 
 PCOD9084570
Probable space group: P -1
;
_chemical_formula_sum "Si O2"
_cell_formula_units_Z 15
_cell_length_a 18.185385
_cell_length_b 15.588033
_cell_length_c 9.480217
_cell_angle_alpha 145.444861
_cell_angle_beta 30.493861
_cell_angle_gamma 156.968150
_cell_volume 527.172790
_symmetry_space_group_name_H-M "P -1"
_symmetry_group_IT_number 2
_symmetry_cell_setting 'triclinic'
loop_
_space_group_symop_operation_xyz
x,y,z
-x,-y,-z
loop_
_atom_site_type_symbol
_atom_site_label
_atom_site_fract_x
_atom_site_fract_y
_atom_site_fract_z
Si Si1 0.992967 0.817636 0.231455
Si Si2 0.000000 0.500000 0.000000
Si Si3 0.325458 0.998598 0.127643
Si Si4 0.372515 0.158663 0.736566
Si Si5 0.206189 0.590048 0.501897
Si Si6 0.059003 0.888409 0.678917
Si Si7 0.696439 0.449662 0.004307
Si Si8 0.613809 0.577759 0.706898
O O1 0.888707 0.686098 0.081061
O O2 0.815191 0.635443 0.396014
O O3 0.227212 0.950353 0.068804
O O4 0.000000 0.000000 0.500000
O O5 0.764146 0.235823 0.006515
O O6 0.040951 0.539812 0.812459
O O7 0.190781 0.992679 0.458037
O O8 0.559162 0.243418 0.060002
O O9 0.555243 0.198312 0.556288
O O10 0.473042 0.350040 0.714684
O O11 0.208292 0.933580 0.615977
O O12 0.301416 0.221020 0.060791
O O13 0.150455 0.372192 0.340299
O O14 0.214018 0.588305 0.319297
O O15 0.000000 0.000000 0.000000
O O16 0.533210 0.450326 0.205767
#
# Coordination Sequence:
#
# PCOD9084570 Si02
#       8
#     2   1   2   2   2   2   2   2
#     4  12  24  36  61  97 142 171 202 257 331 403
#     4  10  24  52  70  88 124 172 234 284 324 368
#     4  11  25  43  65  95 130 177 218 273 321 388
#     4  10  20  35  59  90 129 169 216 254 319 384
#     4  10  24  42  65  93 127 170 223 274 320 391
#     4  11  21  35  63  93 133 173 213 260 324 390
#     4  11  24  39  61  99 129 172 216 260 338 385
#     4  10  19  35  54  91 134 169 199 255 313 399
#
# _framework density 28.453669999999999
#
# number of rings (size 3 to 8) (size 9 to 14) (size 15 to 20)
#    0.000    1.333    1.333    6.000    5.600    0.533 
#    0.000    6.667    0.000    0.000    0.000    0.000 
#    0.000    0.000    0.000    0.000    0.000    0.000 
#
# Total GULP energy -83718.470175 kJ/mol
# GULP energy per Si atom -5581.231345 kJ/mol
# Density = 2.838891 g / cm^3
# Si number density = 28.453670 Si / 1000 Ang^3
#
#
#
# Elastic Constant Matrix: (Units=GPa)
#
#
# Indices 1 2 3 4 5 6 
#
# 1 90.5620 40.5772 23.8343 13.2690 17.2282 26.3746
# 2 40.5772 132.8540 40.1194 6.8277 21.8778 0.4508
# 3 23.8343 40.1194 162.9215 -21.8583 24.4603 0.0755
# 4 13.2690 6.8277 -21.8583 54.1232 -0.9780 15.7951
# 5 17.2282 21.8778 24.4603 -0.9780 48.2636 6.1969
# 6 26.3746 0.4508 0.0755 15.7951 6.1969 61.1073
#
#
#
# Elastic Compliance Matrix: (Units=1/GPa)
#
#
# Indices 1 2 3 4 5 6 
#
# 1 0.015600 -0.003847 -0.001251 -0.002170 -0.002478 -0.005891
# 2 -0.003847 0.009697 -0.001674 -0.001665 -0.002500 0.002275
# 3 -0.001251 -0.001674 0.007597 0.003575 -0.002556 -0.000122
# 4 -0.002170 -0.001665 0.003575 0.022091 0.000787 -0.004845
# 5 -0.002478 -0.002500 -0.002556 0.000787 0.024251 -0.001572
# 6 -0.005891 0.002275 -0.000122 -0.004845 -0.001572 0.020303
#
#
# Mechanical properties :
#
#
# Convention : Reuss Voigt Hill
#
# Bulk Modulus (GPa) = 51.68270 66.15549 58.91909
# Shear Modulus (GPa) = 41.82924 51.48593 46.65758
#
# Velocity S-wave (km/s) = 3.83833 4.25840 4.05381
# Velocity P-wave (km/s) = 6.15198 6.89052 6.53170
#
# Compressibility (1/GPa) = 0.01934883
#
# Stress axis : x y z
#
# Youngs Moduli (GPa) = 64.10099 103.12200 131.63393
#
# Poissons Ratio (x) = 0.39674 0.16470
# Poissons Ratio (y) = 0.24662 0.22040
# Poissons Ratio (z) = 0.08020 0.17266
#
# Static dielectric constant tensor:
#      x y z
#    x 2.580420 -0.100970 -0.348360 
#    y -0.100970 2.209600 0.105030 
#    z -0.348360 0.105030 2.210980 
# 
# From -- ./inp_files/348940.got.cif
#   From: 2010.05.17/outbox.cif.g08.bks.cpg/sg2_175_cif.got.tgz:348940.got - 2010.06.03 11:33:40.
