data_PCOD9084921
_publ_section_title
;
Structure prediction by ZEFSAII (Michael W. Deem and Ramdas Pophale) SiO2 
 PCOD9084921
Probable space group: P -1
;
_chemical_formula_sum "Si O2"
_cell_formula_units_Z 16
_cell_length_a 9.220488
_cell_length_b 11.970850
_cell_length_c 11.648784
_cell_angle_alpha 128.756681
_cell_angle_beta 59.413764
_cell_angle_gamma 83.259343
_cell_volume 656.416351
_symmetry_space_group_name_H-M "P -1"
_symmetry_group_IT_number 2
_symmetry_cell_setting 'triclinic'
loop_
_space_group_symop_operation_xyz
x,y,z
-x,-y,-z
loop_
_atom_site_type_symbol
_atom_site_label
_atom_site_fract_x
_atom_site_fract_y
_atom_site_fract_z
Si Si1 0.810489 0.529936 0.023085
Si Si2 0.840689 0.786594 0.818158
Si Si3 0.473359 0.141156 0.816121
Si Si4 0.541686 0.798899 0.503213
Si Si5 0.207304 0.782873 0.733682
Si Si6 0.327227 0.682425 0.106320
Si Si7 0.554429 0.356457 0.229750
Si Si8 0.206695 0.348385 0.459686
O O1 0.733696 0.658662 0.025546
O O2 0.605806 0.667952 0.283677
O O3 0.859338 0.338094 0.846159
O O4 0.000000 0.500000 0.000000
O O5 0.838263 0.770840 0.670553
O O6 0.965844 0.864727 0.847321
O O7 0.011067 0.567444 0.650621
O O8 0.617890 0.876967 0.038918
O O9 0.667544 0.154488 0.751206
O O10 0.527741 0.976701 0.608061
O O11 0.310772 0.868753 0.693199
O O12 0.728841 0.682062 0.452885
O O13 0.381636 0.572730 0.476351
O O14 0.239247 0.745108 0.833140
O O15 0.500000 0.500000 0.000000
O O16 0.405618 0.656647 0.927762
O O17 0.428613 0.281424 0.264472
#
# Coordination Sequence:
#
# PCOD9084921 Si02
#       8
#     2   2   2   2   2   2   2   2
#     4  11  24  42  67  87 109 154 213 248 281 347
#     4  10  19  35  57  92 121 151 207 236 286 336
#     4  11  24  39  60  89 126 155 188 249 298 358
#     4  11  22  41  59  89 123 158 190 237 317 348
#     4   9  19  31  60  85 117 156 191 245 281 348
#     4  10  21  38  58  85 114 159 199 237 289 354
#     4   9  15  33  55  83 109 153 205 233 281 340
#     4   9  19  33  59  84 120 157 195 243 280 354
#
# _framework density 24.374775
#
# number of rings (size 3 to 8) (size 9 to 14) (size 15 to 20)
#    0.000    2.000    2.500    1.875    1.750    1.000 
#    0.000    1.875    0.000    0.000    0.000    0.000 
#    0.000    0.000    0.000    0.000    0.000    0.000 
#
# Total GULP energy -89260.443919 kJ/mol
# GULP energy per Si atom -5578.777745 kJ/mol
# Density = 2.431930 g / cm^3
# Si number density = 24.374775 Si / 1000 Ang^3
#
#
#
# Elastic Constant Matrix: (Units=GPa)
#
#
# Indices 1 2 3 4 5 6 
#
# 1 116.1759 26.6757 13.5942 6.4864 17.3968 29.4271
# 2 26.6757 86.0108 16.3078 -2.6899 15.4198 14.3100
# 3 13.5942 16.3078 41.2714 3.3688 15.6013 5.0353
# 4 6.4864 -2.6899 3.3688 33.5696 -5.4102 17.0036
# 5 17.3968 15.4198 15.6013 -5.4102 29.4500 -3.9773
# 6 29.4271 14.3100 5.0353 17.0036 -3.9773 39.2968
#
#
#
# Elastic Compliance Matrix: (Units=1/GPa)
#
#
# Indices 1 2 3 4 5 6 
#
# 1 0.012638 -0.000624 0.000530 0.001566 -0.008597 -0.010852
# 2 -0.000624 0.014715 -0.002826 0.004119 -0.006016 -0.006920
# 3 0.000530 -0.002826 0.032522 -0.004753 -0.017372 -0.003237
# 4 0.001566 0.004119 -0.004753 0.040743 0.004321 -0.019256
# 5 -0.008597 -0.006016 -0.017372 0.004321 0.054135 0.014464
# 6 -0.010852 -0.006920 -0.003237 -0.019256 0.014464 0.046304
#
#
# Mechanical properties :
#
#
# Convention : Reuss Voigt Hill
#
# Bulk Modulus (GPa) = 18.50720 39.62374 29.06547
# Shear Modulus (GPa) = 22.23133 32.92197 27.57665
#
# Velocity S-wave (km/s) = 3.02331 3.67912 3.36722
# Velocity P-wave (km/s) = 4.44932 5.85997 5.20268
#
# Compressibility (1/GPa) = 0.05403302
#
# Stress axis : x y z
#
# Youngs Moduli (GPa) = 79.12854 67.95961 30.74858
#
# Poissons Ratio (x) = 0.04242 -0.01630
# Poissons Ratio (y) = 0.04940 0.08691
# Poissons Ratio (z) = -0.04194 0.19208
#
# Static dielectric constant tensor:
#      x y z
#    x 2.031060 0.040900 -0.009210 
#    y 0.040900 1.955470 0.010510 
#    z -0.009210 0.010510 2.000390 
# 
# From -- ./inp_files/308194.got.cif
#   From: 2010.05.17/outbox.cif.g08.bks.cpg/sg2_155_cif.got.tgz:308194.got - 2010.06.03 11:33:40.
