data_PCOD9084729
_publ_section_title
;
Structure prediction by ZEFSAII (Michael W. Deem and Ramdas Pophale) SiO2 
 PCOD9084729
Probable space group: P -1
;
_chemical_formula_sum "Si O2"
_cell_formula_units_Z 13
_cell_length_a 6.850985
_cell_length_b 8.640929
_cell_length_c 11.593507
_cell_angle_alpha 103.767591
_cell_angle_beta 58.913793
_cell_angle_gamma 124.526721
_cell_volume 482.778098
_symmetry_space_group_name_H-M "P -1"
_symmetry_group_IT_number 2
_symmetry_cell_setting 'triclinic'
loop_
_space_group_symop_operation_xyz
x,y,z
-x,-y,-z
loop_
_atom_site_type_symbol
_atom_site_label
_atom_site_fract_x
_atom_site_fract_y
_atom_site_fract_z
Si Si1 0.242449 0.677637 0.146749
Si Si2 0.000000 0.000000 0.000000
Si Si3 0.063393 0.743474 0.786919
Si Si4 0.196025 0.950339 0.365838
Si Si5 0.667185 0.692041 0.209573
Si Si6 0.270698 0.705603 0.482760
Si Si7 0.534769 0.724535 0.839699
O O1 0.049010 0.453861 0.150825
O O2 0.111091 0.781893 0.266888
O O3 0.536761 0.315253 0.829829
O O4 0.402361 0.763736 0.995450
O O5 0.940425 0.865566 0.109259
O O6 0.163503 0.913396 0.873363
O O7 0.807849 0.741679 0.807260
O O8 0.242849 0.748977 0.629257
O O9 0.282193 0.864952 0.427530
O O10 0.389931 0.136498 0.265003
O O11 0.000000 0.000000 0.500000
O O12 0.535722 0.705432 0.369716
O O13 0.644779 0.494948 0.177494
O O14 0.000000 0.500000 0.500000
#
# Coordination Sequence:
#
# PCOD9084729 Si02
#       7
#     2   1   2   2   2   2   2
#     4  10  19  35  56  87 110 150 186 237 280 328
#     4  12  22  36  58  86 112 158 194 224 278 338
#     4  11  20  35  61  83 116 143 194 235 276 332
#     4  11  20  30  58  92 111 139 184 244 297 322
#     4  10  20  34  60  84 114 144 194 234 279 329
#     4  11  19  37  60  89 112 143 188 246 279 332
#     4  11  18  35  56  90 112 143 188 240 282 332
#
# _framework density 26.927485000000001
#
# number of rings (size 3 to 8) (size 9 to 14) (size 15 to 20)
#    0.000    1.231    9.231    1.385    0.000    0.615 
#    0.000    0.000    0.000    9.231    0.000    0.000 
#    0.000    0.000    0.000    0.000    0.000    0.000 
#
# Total GULP energy -72600.503611 kJ/mol
# GULP energy per Si atom -5584.654124 kJ/mol
# Density = 2.686620 g / cm^3
# Si number density = 26.927485 Si / 1000 Ang^3
#
#
#
# Elastic Constant Matrix: (Units=GPa)
#
#
# Indices 1 2 3 4 5 6 
#
# 1 104.6349 26.0022 32.6195 4.0524 0.2942 -29.8279
# 2 26.0022 217.3378 76.2579 -3.3086 3.8330 -9.0749
# 3 32.6195 76.2579 292.8753 12.1710 18.8270 -10.5051
# 4 4.0524 -3.3086 12.1710 66.9123 -8.4020 1.0496
# 5 0.2942 3.8330 18.8270 -8.4020 55.4223 9.7087
# 6 -29.8279 -9.0749 -10.5051 1.0496 9.7087 28.2897
#
#
#
# Elastic Compliance Matrix: (Units=1/GPa)
#
#
# Indices 1 2 3 4 5 6 
#
# 1 0.014531 -0.000841 -0.000592 -0.001415 -0.002809 0.015848
# 2 -0.000841 0.005165 -0.001273 0.000550 0.000122 0.000235
# 3 -0.000592 -0.001273 0.003992 -0.000969 -0.001593 0.001033
# 4 -0.001415 0.000550 -0.000969 0.015698 0.003271 -0.003381
# 5 -0.002809 0.000122 -0.001593 0.003271 0.020985 -0.010837
# 6 0.015848 0.000235 0.001033 -0.003381 -0.010837 0.056361
#
#
# Mechanical properties :
#
#
# Convention : Reuss Voigt Hill
#
# Bulk Modulus (GPa) = 54.71986 98.28969 76.50478
# Shear Modulus (GPa) = 38.99090 62.12277 50.55683
#
# Velocity S-wave (km/s) = 3.80938 4.80838 4.33773
# Velocity P-wave (km/s) = 6.30189 8.21025 7.31854
#
# Compressibility (1/GPa) = 0.01827490
#
# Stress axis : x y z
#
# Youngs Moduli (GPa) = 68.81874 193.62762 250.52979
#
# Poissons Ratio (x) = 0.16288 0.14820
# Poissons Ratio (y) = 0.05789 0.31900
# Poissons Ratio (z) = 0.04071 0.24655
#
# Static dielectric constant tensor:
#      x y z
#    x 2.422990 0.216540 -0.079320 
#    y 0.216540 2.158950 -0.055120 
#    z -0.079320 -0.055120 2.085690 
# 
# From -- ./inp_files/512230.got.cif
#   From: 2010.05.17/outbox.cif.g08.bks.cpg/sg2_257_cif.got.tgz:512230.got - 2010.06.03 11:33:40.
