data_PCOD9084108
_publ_section_title
;
Structure prediction by ZEFSAII (Michael W. Deem and Ramdas Pophale) SiO2 
 PCOD9084108
Probable space group: P -1
;
_chemical_formula_sum "Si O2"
_cell_formula_units_Z 16
_cell_length_a 5.564656
_cell_length_b 7.423272
_cell_length_c 21.154088
_cell_angle_alpha 65.264700
_cell_angle_beta 64.161827
_cell_angle_gamma 58.323088
_cell_volume 648.486313
_symmetry_space_group_name_H-M "P -1"
_symmetry_group_IT_number 2
_symmetry_cell_setting 'triclinic'
loop_
_space_group_symop_operation_xyz
x,y,z
-x,-y,-z
loop_
_atom_site_type_symbol
_atom_site_label
_atom_site_fract_x
_atom_site_fract_y
_atom_site_fract_z
Si Si1 0.450998 0.803810 0.743803
Si Si2 0.749312 0.140723 0.461340
Si Si3 0.696117 0.366079 0.089088
Si Si4 0.950091 0.239235 0.301593
Si Si5 0.040752 0.644144 0.065440
Si Si6 0.832101 0.700735 0.443610
Si Si7 0.732512 0.729471 0.210401
Si Si8 0.855295 0.308249 0.721379
O O1 0.341797 0.778342 0.829489
O O2 0.705214 0.890217 0.703993
O O3 0.654889 0.553781 0.733391
O O4 0.196213 0.879896 0.709303
O O5 0.495823 0.279790 0.518494
O O6 0.795565 0.292420 0.380099
O O7 0.754512 0.941513 0.445879
O O8 0.000000 0.000000 0.500000
O O9 0.363818 0.508031 0.080061
O O10 0.862013 0.504223 0.081751
O O11 0.890169 0.256468 0.021008
O O12 0.885865 0.463104 0.238635
O O13 0.841071 0.788551 0.123617
O O14 0.000000 0.500000 0.500000
O O15 0.014015 0.666672 0.364256
O O16 0.386892 0.790816 0.238096
O O17 0.876568 0.794465 0.244401
#
# Coordination Sequence:
#
# PCOD9084108 Si02
#       8
#     2   2   2   2   2   2   2   2
#     4  10  17  33  54  85 115 162 207 254 308 372
#     4  11  28  45  65  95 128 164 218 275 324 394
#     4  10  16  25  42  75 120 161 198 249 309 366
#     4  10  20  34  57  75 118 155 198 255 313 363
#     4  10  16  25  42  74 123 159 195 255 306 364
#     4  11  26  46  67  92 125 169 213 268 334 394
#     4  10  17  32  52  85 115 159 206 252 308 370
#     4  10  20  32  56  79 112 151 205 246 306 374
#
# _framework density 24.672840999999998
#
# number of rings (size 3 to 8) (size 9 to 14) (size 15 to 20)
#    0.000    1.750    5.000    1.500    8.750    0.500 
#    0.000    0.000    0.000    0.000    0.000    0.000 
#    0.000   11.000    0.000    0.000    0.000    0.000 
#
# Total GULP energy -89317.439475 kJ/mol
# GULP energy per Si atom -5582.339967 kJ/mol
# Density = 2.461668 g / cm^3
# Si number density = 24.672841 Si / 1000 Ang^3
#
#
#
# Elastic Constant Matrix: (Units=GPa)
#
#
# Indices 1 2 3 4 5 6 
#
# 1 211.2339 14.0455 61.7546 22.1492 -1.7903 -20.8474
# 2 14.0455 48.3400 17.5924 -1.0943 -6.5000 -4.7472
# 3 61.7546 17.5924 243.4180 24.9286 2.7945 -19.6420
# 4 22.1492 -1.0943 24.9286 31.3353 -5.4806 0.6212
# 5 -1.7903 -6.5000 2.7945 -5.4806 33.7054 11.3180
# 6 -20.8474 -4.7472 -19.6420 0.6212 11.3180 49.3458
#
#
#
# Elastic Compliance Matrix: (Units=1/GPa)
#
#
# Indices 1 2 3 4 5 6 
#
# 1 0.005652 -0.001400 -0.000752 -0.003715 -0.001282 0.002295
# 2 -0.001400 0.022498 -0.001783 0.004112 0.005209 -0.000383
# 3 -0.000752 -0.001783 0.005021 -0.003937 -0.002127 0.002047
# 4 -0.003715 0.004112 -0.003937 0.039519 0.009139 -0.005335
# 5 -0.001282 0.005209 -0.002127 0.009139 0.035325 -0.009105
# 6 0.002295 -0.000383 0.002047 -0.005335 -0.009105 0.024168
#
#
# Mechanical properties :
#
#
# Convention : Reuss Voigt Hill
#
# Bulk Modulus (GPa) = 39.52327 76.64186 58.08257
# Shear Modulus (GPa) = 33.67304 50.18393 41.92849
#
# Velocity S-wave (km/s) = 3.69830 4.51485 4.12682
# Velocity P-wave (km/s) = 5.85579 7.63605 6.80439
#
# Compressibility (1/GPa) = 0.02530155
#
# Stress axis : x y z
#
# Youngs Moduli (GPa) = 176.91902 44.44795 199.17602
#
# Poissons Ratio (x) = 0.06221 0.14987
# Poissons Ratio (y) = 0.24762 0.35508
# Poissons Ratio (z) = 0.13313 0.07924
#
# Static dielectric constant tensor:
#      x y z
#    x 2.007760 0.024500 -0.021240 
#    y 0.024500 1.990810 0.081160 
#    z -0.021240 0.081160 1.912700 
# 
# From -- ./inp_files/582341.got.cif
#   From: 2010.05.17/outbox.cif.g08.bks.cpg/sg2_292_cif.got.tgz:582341.got - 2010.06.03 11:33:40.
