data_PCOD9084033
_publ_section_title
;
Structure prediction by ZEFSAII (Michael W. Deem and Ramdas Pophale) SiO2 
 PCOD9084033
Probable space group: P -1
;
_chemical_formula_sum "Si O2"
_cell_formula_units_Z 16
_cell_length_a 16.504718
_cell_length_b 12.387590
_cell_length_c 9.419851
_cell_angle_alpha 67.034788
_cell_angle_beta 137.089088
_cell_angle_gamma 144.003739
_cell_volume 664.845380
_symmetry_space_group_name_H-M "P -1"
_symmetry_group_IT_number 2
_symmetry_cell_setting 'triclinic'
loop_
_space_group_symop_operation_xyz
x,y,z
-x,-y,-z
loop_
_atom_site_type_symbol
_atom_site_label
_atom_site_fract_x
_atom_site_fract_y
_atom_site_fract_z
Si Si1 0.034587 0.322006 0.888579
Si Si2 0.501539 0.420031 0.404523
Si Si3 0.282780 0.214559 0.931478
Si Si4 0.962319 0.146257 0.622005
Si Si5 0.281979 0.548641 0.673978
Si Si6 0.511179 0.213500 0.727170
Si Si7 0.406686 0.907438 0.586960
Si Si8 0.944039 0.741999 0.729126
O O1 0.993750 0.171682 0.820107
O O2 0.838773 0.247740 0.646109
O O3 0.270192 0.566063 0.032964
O O4 0.027268 0.289158 0.062995
O O5 0.500000 0.500000 0.500000
O O6 0.497814 0.285888 0.533183
O O7 0.731146 0.647721 0.516618
O O8 0.337108 0.279983 0.135141
O O9 0.096931 0.160803 0.699645
O O10 0.525055 0.390164 0.090853
O O11 0.153997 0.990280 0.843554
O O12 0.091001 0.370300 0.631544
O O13 0.705401 0.942246 0.379625
O O14 0.399452 0.768916 0.701115
O O15 0.145003 0.421108 0.417338
O O16 0.526505 0.093760 0.752782
O O17 0.500000 0.000000 0.500000
#
# Coordination Sequence:
#
# PCOD9084033 Si02
#       8
#     2   2   2   2   2   2   2   2
#     4  10  22  40  65  93 120 157 202 251 305 359
#     4  10  19  34  59  93 123 151 199 256 298 352
#     4  11  21  38  63  87 122 167 205 248 306 361
#     4  11  24  41  60  88 127 163 201 250 306 367
#     4  11  26  41  58  91 126 160 205 254 302 360
#     4  10  22  38  61  93 124 160 203 248 306 362
#     4  11  22  41  66  90 123 158 202 256 303 360
#     4  10  21  37  59  89 118 153 205 249 297 356
#
# _framework density 24.065746000000001
#
# number of rings (size 3 to 8) (size 9 to 14) (size 15 to 20)
#    0.000    1.500    0.000    7.125    0.000    9.000 
#    0.000    1.250    0.000    0.000    0.000    0.000 
#    0.000    0.000    0.000    0.000    0.000    0.000 
#
# Total GULP energy -89274.311542 kJ/mol
# GULP energy per Si atom -5579.644471 kJ/mol
# Density = 2.401097 g / cm^3
# Si number density = 24.065746 Si / 1000 Ang^3
#
#
#
# Elastic Constant Matrix: (Units=GPa)
#
#
# Indices 1 2 3 4 5 6 
#
# 1 64.0143 10.4876 22.9585 11.4896 18.3547 6.7787
# 2 10.4876 64.2433 12.9002 23.6861 14.5964 3.9919
# 3 22.9585 12.9002 80.6782 30.0054 16.6592 4.2588
# 4 11.4896 23.6861 30.0054 42.9852 7.3414 7.5466
# 5 18.3547 14.5964 16.6592 7.3414 47.6892 11.4768
# 6 6.7787 3.9919 4.2588 7.5466 11.4768 39.3150
#
#
#
# Elastic Compliance Matrix: (Units=1/GPa)
#
#
# Indices 1 2 3 4 5 6 
#
# 1 0.018897 -0.000701 -0.003752 -0.000949 -0.005352 -0.001036
# 2 -0.000701 0.020914 0.002542 -0.012472 -0.005515 0.001726
# 3 -0.003752 0.002542 0.018715 -0.013092 -0.004374 0.002151
# 4 -0.000949 -0.012472 -0.013092 0.039888 0.004058 -0.005993
# 5 -0.005352 -0.005515 -0.004374 0.004058 0.027251 -0.006778
# 6 -0.001036 0.001726 0.002151 -0.005993 -0.006778 0.028335
#
#
# Mechanical properties :
#
#
# Convention : Reuss Voigt Hill
#
# Bulk Modulus (GPa) = 18.28074 33.51425 25.89749
# Shear Modulus (GPa) = 28.39983 36.83719 32.61851
#
# Velocity S-wave (km/s) = 3.43898 3.91665 3.68556
# Velocity P-wave (km/s) = 4.83543 5.86599 5.37547
#
# Compressibility (1/GPa) = 0.05470238
#
# Stress axis : x y z
#
# Youngs Moduli (GPa) = 52.91879 47.81491 53.43297
#
# Poissons Ratio (x) = 0.03351 0.20050
# Poissons Ratio (y) = 0.03709 -0.13580
# Poissons Ratio (z) = 0.19857 -0.12152
#
# Static dielectric constant tensor:
#      x y z
#    x 2.001950 -0.018140 -0.008270 
#    y -0.018140 1.963280 -0.013860 
#    z -0.008270 -0.013860 1.955890 
# 
# From -- ./inp_files/454828.got.cif
#   From: 2010.05.17/outbox.cif.g08.bks.cpg/sg2_228_cif.got.tgz:454828.got - 2010.06.03 11:33:40.
