data_PCOD9084007
_publ_section_title
;
Structure prediction by ZEFSAII (Michael W. Deem and Ramdas Pophale) SiO2 
 PCOD9084007
Probable space group: P -1
;
_chemical_formula_sum "Si O2"
_cell_formula_units_Z 14
_cell_length_a 5.533863
_cell_length_b 7.598242
_cell_length_c 17.616442
_cell_angle_alpha 129.653894
_cell_angle_beta 107.517556
_cell_angle_gamma 76.012413
_cell_volume 542.605991
_symmetry_space_group_name_H-M "P -1"
_symmetry_group_IT_number 2
_symmetry_cell_setting 'triclinic'
loop_
_space_group_symop_operation_xyz
x,y,z
-x,-y,-z
loop_
_atom_site_type_symbol
_atom_site_label
_atom_site_fract_x
_atom_site_fract_y
_atom_site_fract_z
Si Si1 0.846167 0.350272 0.887767
Si Si2 0.674715 0.721253 0.160349
Si Si3 0.051064 0.071500 0.641635
Si Si4 0.127367 0.192826 0.215195
Si Si5 0.566239 0.085490 0.114732
Si Si6 0.660802 0.201508 0.535836
Si Si7 0.797284 0.666774 0.571604
O O1 0.552054 0.438524 0.890304
O O2 0.029084 0.368597 0.838128
O O3 0.839528 0.083895 0.838474
O O4 0.000000 0.500000 0.000000
O O5 0.631307 0.872613 0.121715
O O6 0.688770 0.871426 0.278254
O O7 0.853306 0.259019 0.637097
O O8 0.892870 0.920993 0.640370
O O9 0.149706 0.899594 0.538061
O O10 0.198278 0.335477 0.336489
O O11 0.324398 0.215736 0.170273
O O12 0.824930 0.221911 0.176075
O O13 0.500000 0.000000 0.000000
O O14 0.452371 0.347726 0.507800
O O15 0.500000 0.000000 0.500000
O O16 0.000000 0.500000 0.500000
#
# Coordination Sequence:
#
# PCOD9084007 Si02
#       7
#     2   2   2   2   2   2   2
#     4  10  19  34  59  89 119 152 208 266 323 386
#     4  10  20  34  61  89 120 157 212 254 333 386
#     4  10  19  38  62  91 122 178 210 275 326 395
#     4  10  21  38  60  92 125 166 215 260 329 394
#     4  10  19  35  62  87 120 167 213 260 331 393
#     4   9  20  35  61  89 125 164 224 263 327 387
#     4  11  22  38  64  97 132 178 220 270 327 399
#
# _framework density 25.801407999999999
#
# number of rings (size 3 to 8) (size 9 to 14) (size 15 to 20)
#    0.000    2.000    2.857    2.571    2.000    0.571 
#    0.000    0.000    6.286    8.571    0.000    0.000 
#    0.000    0.000    0.000    0.000    0.000    0.000 
#
# Total GULP energy -78042.399520 kJ/mol
# GULP energy per Si atom -5574.457109 kJ/mol
# Density = 2.574268 g / cm^3
# Si number density = 25.801408 Si / 1000 Ang^3
#
#
#
# Elastic Constant Matrix: (Units=GPa)
#
#
# Indices 1 2 3 4 5 6 
#
# 1 227.9179 46.3177 62.5981 -31.0639 14.0805 -2.3426
# 2 46.3177 116.2628 34.3422 -22.6027 5.0728 -13.3914
# 3 62.5981 34.3422 176.1663 -41.1136 28.9759 -8.9083
# 4 -31.0639 -22.6027 -41.1136 36.4152 -1.7365 2.5436
# 5 14.0805 5.0728 28.9759 -1.7365 62.9801 -7.8202
# 6 -2.3426 -13.3914 -8.9083 2.5436 -7.8202 39.4175
#
#
#
# Elastic Compliance Matrix: (Units=1/GPa)
#
#
# Indices 1 2 3 4 5 6 
#
# 1 0.005317 -0.001377 -0.000928 0.002648 -0.000660 -0.000663
# 2 -0.001377 0.010530 -0.000303 0.004805 0.000122 0.003141
# 3 -0.000928 -0.000303 0.008669 0.008604 -0.003450 0.000561
# 4 0.002648 0.004805 0.008604 0.042220 -0.003740 0.000268
# 5 -0.000660 0.000122 -0.003450 -0.003740 0.017874 0.003010
# 6 -0.000663 0.003141 0.000561 0.000268 0.003010 0.027104
#
#
# Mechanical properties :
#
#
# Convention : Reuss Voigt Hill
#
# Bulk Modulus (GPa) = 51.81199 89.65143 70.73171
# Shear Modulus (GPa) = 40.53065 52.90182 46.71624
#
# Velocity S-wave (km/s) = 3.96772 4.53299 4.25974
# Velocity P-wave (km/s) = 6.41210 7.88793 7.18799
#
# Compressibility (1/GPa) = 0.01930055
#
# Stress axis : x y z
#
# Youngs Moduli (GPa) = 188.07125 94.96647 115.35247
#
# Poissons Ratio (x) = 0.13076 0.10702
# Poissons Ratio (y) = 0.25896 0.03497
# Poissons Ratio (z) = 0.17449 0.02879
#
# Static dielectric constant tensor:
#      x y z
#    x 2.093160 0.125830 -0.627910 
#    y 0.125830 1.968770 0.889370 
#    z -0.627910 0.889370 -0.824910 
# 
# From -- ./inp_files/548434.got.cif
#   From: 2010.05.17/outbox.cif.g08.bks.cpg/sg2_275_cif.got.tgz:548434.got - 2010.06.03 11:33:40.
