data_PCOD9084654
_publ_section_title
;
Structure prediction by ZEFSAII (Michael W. Deem and Ramdas Pophale) SiO2 
 PCOD9084654
Probable space group: P -1
;
_chemical_formula_sum "Si O2"
_cell_formula_units_Z 14
_cell_length_a 20.267921
_cell_length_b 8.881035
_cell_length_c 13.449310
_cell_angle_alpha 119.685230
_cell_angle_beta 35.274265
_cell_angle_gamma 145.323717
_cell_volume 671.416173
_symmetry_space_group_name_H-M "P -1"
_symmetry_group_IT_number 2
_symmetry_cell_setting 'triclinic'
loop_
_space_group_symop_operation_xyz
x,y,z
-x,-y,-z
loop_
_atom_site_type_symbol
_atom_site_label
_atom_site_fract_x
_atom_site_fract_y
_atom_site_fract_z
Si Si1 0.106737 0.729973 0.296731
Si Si2 0.491251 0.781160 0.930699
Si Si3 0.618173 0.852486 0.415452
Si Si4 0.047813 0.283281 0.323895
Si Si5 0.007890 0.596513 0.150750
Si Si6 0.298175 0.705693 0.720730
Si Si7 0.369999 0.283264 0.430660
O O1 0.071468 0.479986 0.283953
O O2 0.977381 0.666176 0.519220
O O3 0.049276 0.705378 0.247732
O O4 0.345003 0.074086 0.141744
O O5 0.567675 0.805608 0.739121
O O6 0.253766 0.431760 0.118903
O O7 0.500000 0.000000 0.000000
O O8 0.406421 0.692521 0.647715
O O9 0.552004 0.652921 0.337195
O O10 0.671035 0.813740 0.436383
O O11 0.820684 0.220041 0.265349
O O12 0.840681 0.923893 0.429718
O O13 0.898331 0.587212 0.203771
O O14 0.207803 0.748893 0.911624
O O15 0.500000 0.000000 0.500000
#
# Coordination Sequence:
#
# PCOD9084654 Si02
#       7
#     2   2   2   2   2   2   2
#     4   9  17  29  50  77 104 131 172 219 260 308
#     4   9  19  29  49  73 103 142 176 210 253 305
#     4  10  21  33  52  76 113 145 168 214 259 324
#     4   9  17  31  47  75 110 138 166 212 258 310
#     4  10  19  35  56  78 104 137 180 224 259 306
#     4   9  21  36  52  76 101 139 186 221 261 298
#     4  10  20  33  48  81 114 142 173 201 265 325
#
# _framework density 20.85145
#
# number of rings (size 3 to 8) (size 9 to 14) (size 15 to 20)
#    0.000    2.571    1.429    0.857    4.000    2.286 
#    0.000    2.857    0.000    3.429    0.000   38.000 
#    0.000    0.000    0.000    0.000    0.000    0.000 
#
# Total GULP energy -77934.556994 kJ/mol
# GULP energy per Si atom -5566.754071 kJ/mol
# Density = 2.080399 g / cm^3
# Si number density = 20.851450 Si / 1000 Ang^3
#
#
#
# Elastic Constant Matrix: (Units=GPa)
#
#
# Indices 1 2 3 4 5 6 
#
# 1 24.6760 4.7554 9.4833 2.4622 5.1948 18.7775
# 2 4.7554 99.6557 27.2046 -0.2008 0.8891 25.4103
# 3 9.4833 27.2046 95.2198 -10.3362 -13.8327 12.0274
# 4 2.4622 -0.2008 -10.3362 22.5031 5.4536 -0.8346
# 5 5.1948 0.8891 -13.8327 5.4536 15.1943 6.6339
# 6 18.7775 25.4103 12.0274 -0.8346 6.6339 33.1535
#
#
#
# Elastic Compliance Matrix: (Units=1/GPa)
#
#
# Indices 1 2 3 4 5 6 
#
# 1 0.084075 0.011425 -0.007767 -0.012325 -0.009360 -0.051994
# 2 0.011425 0.014685 -0.003532 -0.003488 0.000536 -0.016639
# 3 -0.007767 -0.003532 0.015220 0.003878 0.015988 -0.001516
# 4 -0.012325 -0.003488 0.003878 0.051962 -0.016297 0.012816
# 5 -0.009360 0.000536 0.015988 -0.016297 0.098576 -0.021044
# 6 -0.051994 -0.016639 -0.001516 0.012816 -0.021044 0.077448
#
#
# Mechanical properties :
#
#
# Convention : Reuss Voigt Hill
#
# Bulk Modulus (GPa) = 8.75435 33.60421 21.17928
# Shear Modulus (GPa) = 13.16512 26.04407 19.60459
#
# Velocity S-wave (km/s) = 2.51545 3.53799 3.06960
# Velocity P-wave (km/s) = 3.55587 5.73070 4.76891
#
# Compressibility (1/GPa) = 0.11422898
#
# Stress axis : x y z
#
# Youngs Moduli (GPa) = 11.89421 68.09879 65.70314
#
# Poissons Ratio (x) = -0.77801 0.51035
# Poissons Ratio (y) = -0.13589 0.23209
# Poissons Ratio (z) = 0.09239 0.24055
#
# Static dielectric constant tensor:
#      x y z
#    x 1.867320 -0.055290 -0.015400 
#    y -0.055290 1.791410 -0.023950 
#    z -0.015400 -0.023950 1.761580 
# 
# From -- ./inp_files/366082.got.cif
#   From: 2010.05.17/outbox.cif.g08.bks.cpg/sg2_184_cif.got.tgz:366082.got - 2010.06.03 11:33:40.
