data_PCOD9084515
_publ_section_title
;
Structure prediction by ZEFSAII (Michael W. Deem and Ramdas Pophale) SiO2 
 PCOD9084515
Probable space group: P -1
;
_chemical_formula_sum "Si O2"
_cell_formula_units_Z 16
_cell_length_a 12.220097
_cell_length_b 6.470657
_cell_length_c 10.106323
_cell_angle_alpha 114.593967
_cell_angle_beta 70.644390
_cell_angle_gamma 121.169546
_cell_volume 614.781670
_symmetry_space_group_name_H-M "P -1"
_symmetry_group_IT_number 2
_symmetry_cell_setting 'triclinic'
loop_
_space_group_symop_operation_xyz
x,y,z
-x,-y,-z
loop_
_atom_site_type_symbol
_atom_site_label
_atom_site_fract_x
_atom_site_fract_y
_atom_site_fract_z
Si Si1 0.254345 0.457020 0.158508
Si Si2 0.014884 0.693838 0.868581
Si Si3 0.023242 0.841569 0.199999
Si Si4 0.807279 0.984958 0.418476
Si Si5 0.711701 0.971498 0.743219
Si Si6 0.475015 0.865615 0.680347
Si Si7 0.317759 0.681172 0.455404
Si Si8 0.300959 0.139377 0.840499
O O1 0.281621 0.743973 0.186765
O O2 0.302011 0.477235 0.296282
O O3 0.099319 0.301836 0.171723
O O4 0.317457 0.355583 0.994741
O O5 0.010942 0.421550 0.779043
O O6 0.157033 0.912753 0.852828
O O7 0.975651 0.735468 0.043753
O O8 0.179936 0.985771 0.178391
O O9 0.938669 0.965215 0.331994
O O10 0.773113 0.928622 0.570831
O O11 0.806277 0.259669 0.468730
O O12 0.703667 0.807345 0.300891
O O13 0.556425 0.804840 0.742703
O O14 0.372640 0.655415 0.567896
O O15 0.400481 0.024574 0.801886
O O16 0.581808 0.056465 0.585216
#
# Coordination Sequence:
#
# PCOD9084515 Si02
#       8
#     2   2   2   2   2   2   2   2
#     4   9  17  30  49  78 107 128 164 215 261 297
#     4  10  21  33  50  79 113 131 168 215 262 305
#     4  10  19  35  54  74 103 146 170 204 255 317
#     4   9  17  31  56  79  99 129 174 212 258 300
#     4   9  19  34  54  77 106 137 175 208 248 310
#     4   8  16  32  50  75 105 135 168 214 252 297
#     4   8  16  31  52  79 106 129 167 217 258 299
#     4  11  19  31  55  82 104 134 167 219 264 296
#
# _framework density 26.025503
#
# number of rings (size 3 to 8) (size 9 to 14) (size 15 to 20)
#    0.000    3.000    1.250    1.500    0.000    2.000 
#    0.000   10.625    8.250    3.000    0.000    0.000 
#    0.000    0.000    0.000    0.000    0.000    0.000 
#
# Total GULP energy -89371.148252 kJ/mol
# GULP energy per Si atom -5585.696766 kJ/mol
# Density = 2.596627 g / cm^3
# Si number density = 26.025503 Si / 1000 Ang^3
#
#
#
# Elastic Constant Matrix: (Units=GPa)
#
#
# Indices 1 2 3 4 5 6 
#
# 1 213.8215 -1.1018 56.7982 4.7826 14.2897 -6.4272
# 2 -1.1018 30.4542 4.9192 8.2861 -2.3962 -4.4859
# 3 56.7982 4.9192 177.4626 22.3107 -1.1962 -2.5599
# 4 4.7826 8.2861 22.3107 33.7393 2.2160 4.2525
# 5 14.2897 -2.3962 -1.1962 2.2160 50.7922 -2.3090
# 6 -6.4272 -4.4859 -2.5599 4.2525 -2.3090 13.6529
#
#
#
# Elastic Compliance Matrix: (Units=1/GPa)
#
#
# Indices 1 2 3 4 5 6 
#
# 1 0.005287 0.000662 -0.001693 0.000029 -0.001400 0.002143
# 2 0.000662 0.038990 0.000547 -0.012448 0.003010 0.017611
# 3 -0.001693 0.000547 0.006798 -0.004743 0.000974 0.002299
# 4 0.000029 -0.012448 -0.004743 0.038231 -0.003166 -0.017409
# 5 -0.001400 0.003010 0.000974 -0.003166 0.020612 0.004985
# 6 0.002143 0.017611 0.002299 -0.017409 0.004985 0.086737
#
#
# Mechanical properties :
#
#
# Convention : Reuss Voigt Hill
#
# Bulk Modulus (GPa) = 19.95721 60.32994 40.14357
# Shear Modulus (GPa) = 23.32920 43.71173 33.52046
#
# Velocity S-wave (km/s) = 2.99724 4.10271 3.59274
# Velocity P-wave (km/s) = 4.43429 6.75828 5.71565
#
# Compressibility (1/GPa) = 0.05010721
#
# Stress axis : x y z
#
# Youngs Moduli (GPa) = 189.13622 25.64766 147.10976
#
# Poissons Ratio (x) = -0.01699 0.24902
# Poissons Ratio (y) = -0.12528 -0.08041
# Poissons Ratio (z) = 0.32016 -0.01402
#
# Static dielectric constant tensor:
#      x y z
#    x 2.123070 -0.073570 0.030490 
#    y -0.073570 2.156800 0.016160 
#    z 0.030490 0.016160 2.037530 
# 
# From -- ./inp_files/419981.got.cif
#   From: 2010.05.17/outbox.cif.g08.bks.cpg/sg2_210_cif.got.tgz:419981.got - 2010.06.03 11:33:40.
