data_PCOD9084980
_publ_section_title
;
Structure prediction by ZEFSAII (Michael W. Deem and Ramdas Pophale) SiO2 
 PCOD9084980
Probable space group: P -1
;
_chemical_formula_sum "Si O2"
_cell_formula_units_Z 16
_cell_length_a 19.228260
_cell_length_b 5.696101
_cell_length_c 8.889235
_cell_angle_alpha 92.853089
_cell_angle_beta 124.365127
_cell_angle_gamma 61.276557
_cell_volume 670.972971
_symmetry_space_group_name_H-M "P -1"
_symmetry_group_IT_number 2
_symmetry_cell_setting 'triclinic'
loop_
_space_group_symop_operation_xyz
x,y,z
-x,-y,-z
loop_
_atom_site_type_symbol
_atom_site_label
_atom_site_fract_x
_atom_site_fract_y
_atom_site_fract_z
Si Si1 0.613835 0.320287 0.698308
Si Si2 0.386461 0.179677 0.306452
Si Si3 0.127826 0.339649 0.783211
Si Si4 0.683025 0.720218 0.108962
Si Si5 0.611802 0.331024 0.063014
Si Si6 0.935044 0.930273 0.519997
Si Si7 0.889119 0.169798 0.788184
Si Si8 0.877555 0.698441 0.882672
O O1 0.500000 0.500000 0.500000
O O2 0.660449 0.494622 0.705655
O O3 0.657481 0.000234 0.696634
O O4 0.612658 0.322360 0.879854
O O5 0.500000 0.000000 0.500000
O O6 0.385437 0.177322 0.122892
O O7 0.203894 0.424784 0.823230
O O8 0.138879 0.105519 0.675830
O O9 0.014788 0.612023 0.663033
O O10 0.146413 0.227066 0.969559
O O11 0.662156 0.509707 0.163967
O O12 0.659151 0.009061 0.164694
O O13 0.500000 0.500000 0.000000
O O14 0.897666 0.140106 0.618631
O O15 0.000000 0.000000 0.500000
O O16 0.842957 0.491160 0.785360
O O17 0.842986 0.986867 0.766559
O O18 0.000000 0.000000 0.000000
O O19 0.000000 0.500000 0.000000
#
# Coordination Sequence:
#
# PCOD9084980 Si02
#       8
#     2   2   2   2   2   2   2   2
#     4   8  14  26  49  79  99 131 176 223 265 343
#     4   8  14  28  50  76 105 135 177 227 287 344
#     4  11  24  37  60  93 126 165 222 265 313 367
#     4  10  22  36  58  91 120 156 201 264 298 363
#     4  10  20  37  60  85 113 155 197 239 311 378
#     4  11  23  37  61  90 121 177 219 259 314 385
#     4  10  19  35  58  82 112 151 214 251 303 371
#     4  10  19  36  58  85 113 158 206 252 314 373
#
# _framework density 23.845970999999999
#
# number of rings (size 3 to 8) (size 9 to 14) (size 15 to 20)
#    0.000    2.250    2.500    1.875    3.500    0.000 
#    0.000    0.000    0.000   18.000    0.000    0.000 
#    0.000    0.000    0.000    0.000    0.000    0.000 
#
# Total GULP energy -89263.202294 kJ/mol
# GULP energy per Si atom -5578.950143 kJ/mol
# Density = 2.379170 g / cm^3
# Si number density = 23.845971 Si / 1000 Ang^3
#
#
#
# Elastic Constant Matrix: (Units=GPa)
#
#
# Indices 1 2 3 4 5 6 
#
# 1 119.4392 63.3156 23.2587 14.1840 2.6759 32.7407
# 2 63.3156 192.5798 17.4694 10.6464 -1.3800 46.5581
# 3 23.2587 17.4694 72.8079 20.9586 -6.2716 -0.6880
# 4 14.1840 10.6464 20.9586 23.1468 3.2230 6.0130
# 5 2.6759 -1.3800 -6.2716 3.2230 22.3691 -1.2117
# 6 32.7407 46.5581 -0.6880 6.0130 -1.2117 63.1804
#
#
#
# Elastic Compliance Matrix: (Units=1/GPa)
#
#
# Indices 1 2 3 4 5 6 
#
# 1 0.011647 -0.002496 -0.002733 -0.002149 -0.002224 -0.004064
# 2 -0.002496 0.007039 -0.000946 0.000132 0.000237 -0.003912
# 3 -0.002733 -0.000946 0.021335 -0.019647 0.009319 0.004395
# 4 -0.002149 0.000132 -0.019647 0.065837 -0.015041 -0.005752
# 5 -0.002224 0.000237 0.009319 -0.015041 0.049953 0.003469
# 6 -0.004064 -0.003912 0.004395 -0.005752 0.003469 0.021479
#
#
# Mechanical properties :
#
#
# Convention : Reuss Voigt Hill
#
# Bulk Modulus (GPa) = 36.13967 65.87938 51.00952
# Shear Modulus (GPa) = 25.14284 40.45813 32.80049
#
# Velocity S-wave (km/s) = 3.25065 4.12350 3.71282
# Velocity P-wave (km/s) = 5.41085 7.09634 6.31013
#
# Compressibility (1/GPa) = 0.02767043
#
# Stress axis : x y z
#
# Youngs Moduli (GPa) = 85.86007 142.05969 46.87162
#
# Poissons Ratio (x) = 0.35456 0.12811
# Poissons Ratio (y) = 0.21429 0.04435
# Poissons Ratio (z) = 0.23468 0.13442
#
# Static dielectric constant tensor:
#      x y z
#    x 1.923510 0.034730 0.057300 
#    y 0.034730 1.969340 -0.022400 
#    z 0.057300 -0.022400 1.916950 
# 
# From -- ./inp_files/339873.got.cif
#   From: 2010.05.17/outbox.cif.g08.bks.cpg/sg2_170_cif.got.tgz:339873.got - 2010.06.03 11:33:40.
