data_PCOD9084677
_publ_section_title
;
Structure prediction by ZEFSAII (Michael W. Deem and Ramdas Pophale) SiO2 
 PCOD9084677
Probable space group: P -1
;
_chemical_formula_sum "Si O2"
_cell_formula_units_Z 16
_cell_length_a 13.860501
_cell_length_b 22.764600
_cell_length_c 8.122012
_cell_angle_alpha 122.879999
_cell_angle_beta 59.585544
_cell_angle_gamma 157.752546
_cell_volume 814.782654
_symmetry_space_group_name_H-M "P -1"
_symmetry_group_IT_number 2
_symmetry_cell_setting 'triclinic'
loop_
_space_group_symop_operation_xyz
x,y,z
-x,-y,-z
loop_
_atom_site_type_symbol
_atom_site_label
_atom_site_fract_x
_atom_site_fract_y
_atom_site_fract_z
Si Si1 0.297078 0.794227 0.479017
Si Si2 0.940408 0.760497 0.021723
Si Si3 0.645591 0.482119 0.276460
Si Si4 0.511368 0.478744 0.728978
Si Si5 0.813485 0.344779 0.324035
Si Si6 0.357170 0.990981 0.786854
Si Si7 0.132744 0.753733 0.073033
Si Si8 0.827734 0.450293 0.193348
O O1 0.349999 0.787768 0.599535
O O2 0.524884 0.909597 0.328253
O O3 0.035167 0.614808 0.361228
O O4 0.270981 0.863072 0.625326
O O5 0.748814 0.689018 0.207945
O O6 0.123437 0.813832 0.051957
O O7 0.741603 0.602787 0.846509
O O8 0.127399 0.900639 0.940956
O O9 0.561976 0.465569 0.498687
O O10 0.507157 0.449847 0.205264
O O11 0.641377 0.396136 0.170021
O O12 0.940286 0.661999 0.247642
O O13 0.694932 0.326513 0.255727
O O14 0.000000 0.500000 0.500000
O O15 0.960978 0.366175 0.131638
O O16 0.597251 0.115268 0.888770
O O17 0.000000 0.500000 0.000000
#
# Coordination Sequence:
#
# PCOD9084677 Si02
#       8
#     2   2   2   2   2   2   2   2
#     4  10  21  32  48  86 116 151 179 215 309 343
#     4  10  20  34  53  80 115 148 188 228 285 347
#     4  10  19  35  56  80 117 141 192 233 280 350
#     4   9  21  36  52  79 118 154 190 234 276 332
#     4  10  21  33  49  82 121 150 182 218 289 344
#     4  11  20  33  56  83 123 150 173 241 304 348
#     4  11  20  33  55  87 122 143 179 239 298 349
#     4  11  19  35  57  83 119 149 183 235 286 340
#
# _framework density 19.637139000000001
#
# number of rings (size 3 to 8) (size 9 to 14) (size 15 to 20)
#    0.000    1.750    3.750    1.125    3.500    0.000 
#    0.000    0.000    0.000    0.000    0.000   12.250 
#    0.000    0.000    0.000    0.000    0.000    0.000 
#
# Total GULP energy -89128.471218 kJ/mol
# GULP energy per Si atom -5570.529451 kJ/mol
# Density = 1.959244 g / cm^3
# Si number density = 19.637139 Si / 1000 Ang^3
#
#
#
# Elastic Constant Matrix: (Units=GPa)
#
#
# Indices 1 2 3 4 5 6 
#
# 1 88.5402 15.3862 11.3298 -17.3620 11.4375 -23.3376
# 2 15.3862 77.4920 33.5806 -35.8113 8.9670 -9.5494
# 3 11.3298 33.5806 85.1539 -22.7022 7.8213 0.0382
# 4 -17.3620 -35.8113 -22.7022 48.6462 -9.9405 8.7764
# 5 11.4375 8.9670 7.8213 -9.9405 26.3269 -8.0453
# 6 -23.3376 -9.5494 0.0382 8.7764 -8.0453 29.6893
#
#
#
# Elastic Compliance Matrix: (Units=1/GPa)
#
#
# Indices 1 2 3 4 5 6 
#
# 1 0.014956 0.000342 -0.001222 0.002710 -0.002012 0.010521
# 2 0.000342 0.021406 -0.005040 0.012918 -0.000047 0.003329
# 3 -0.001222 -0.005040 0.014932 0.003102 -0.002281 -0.004136
# 4 0.002710 0.012918 0.003102 0.034045 0.005669 -0.002247
# 5 -0.002012 -0.000047 -0.002281 0.005669 0.044368 0.008753
# 6 0.010521 0.003329 -0.004136 -0.002247 0.008753 0.046065
#
#
# Mechanical properties :
#
#
# Convention : Reuss Voigt Hill
#
# Bulk Modulus (GPa) = 25.34675 41.30880 33.32778
# Shear Modulus (GPa) = 24.90491 33.65845 29.28168
#
# Velocity S-wave (km/s) = 3.56512 4.14456 3.86571
# Velocity P-wave (km/s) = 5.46648 6.63211 6.07731
#
# Compressibility (1/GPa) = 0.03945279
#
# Stress axis : x y z
#
# Youngs Moduli (GPa) = 66.86342 46.71518 66.96995
#
# Poissons Ratio (x) = -0.01596 0.08185
# Poissons Ratio (y) = -0.02285 0.33755
# Poissons Ratio (z) = 0.08172 0.23546
#
# Static dielectric constant tensor:
#      x y z
#    x 1.748110 -0.033030 0.019100 
#    y -0.033030 1.706100 -0.013970 
#    z 0.019100 -0.013970 1.739060 
# 
# From -- ./inp_files/266863.got.cif
#   From: 2010.05.17/outbox.cif.g08.bks.cpg/sg2_134_cif.got.tgz:266863.got - 2010.06.03 11:33:40.
