data_PCOD9084876
_publ_section_title
;
Structure prediction by ZEFSAII (Michael W. Deem and Ramdas Pophale) SiO2 
 PCOD9084876
Probable space group: P -1
;
_chemical_formula_sum "Si O2"
_cell_formula_units_Z 16
_cell_length_a 26.022597
_cell_length_b 14.263408
_cell_length_c 8.091434
_cell_angle_alpha 121.476943
_cell_angle_beta 136.063068
_cell_angle_gamma 23.379887
_cell_volume 714.144272
_symmetry_space_group_name_H-M "P -1"
_symmetry_group_IT_number 2
_symmetry_cell_setting 'triclinic'
loop_
_space_group_symop_operation_xyz
x,y,z
-x,-y,-z
loop_
_atom_site_type_symbol
_atom_site_label
_atom_site_fract_x
_atom_site_fract_y
_atom_site_fract_z
Si Si1 0.154603 0.102230 0.782802
Si Si2 0.176213 0.828439 0.536803
Si Si3 0.292884 0.450715 0.312838
Si Si4 0.915778 0.394962 0.796492
Si Si5 0.783107 0.373378 0.243662
Si Si6 0.850969 0.624611 0.354832
Si Si7 0.507904 0.119554 0.170577
Si Si8 0.335374 0.089847 0.149513
O O1 0.098404 0.178163 0.917350
O O2 0.969394 0.371641 0.489867
O O3 0.233853 0.876546 0.706702
O O4 0.280617 0.036086 0.978428
O O5 0.261445 0.622964 0.423993
O O6 0.220842 0.721620 0.725552
O O7 0.952920 0.125580 0.283579
O O8 0.106273 0.640054 0.110907
O O9 0.388928 0.298771 0.222683
O O10 0.451916 0.192061 0.569411
O O11 0.839743 0.404584 0.506526
O O12 0.792744 0.669904 0.796440
O O13 0.591281 0.664423 0.987815
O O14 0.000000 0.500000 0.500000
O O15 0.724756 0.849861 0.412254
O O16 0.713994 0.793500 0.037249
O O17 0.500000 0.000000 0.000000
#
# Coordination Sequence:
#
# PCOD9084876 Si02
#       8
#     2   2   2   2   2   2   2   2
#     4  10  21  38  61  82 116 157 191 235 286 348
#     4   9  19  38  56  83 117 155 196 227 283 344
#     4  11  23  36  59  88 119 152 192 239 282 348
#     4  10  19  35  57  87 113 144 190 238 290 333
#     4   9  19  36  61  85 118 154 190 239 281 342
#     4  10  22  38  58  84 115 149 189 240 295 340
#     4  12  22  37  61  89 115 147 193 244 296 335
#     4  11  21  36  59  87 114 147 193 244 292 337
#
# _framework density 22.404437000000001
#
# number of rings (size 3 to 8) (size 9 to 14) (size 15 to 20)
#    0.000    1.750    0.000    6.750    0.000    2.000 
#    0.000    3.750    0.000    3.750    0.000    0.000 
#    0.000    0.000    0.000    0.000    0.000    0.000 
#
# Total GULP energy -89252.929902 kJ/mol
# GULP energy per Si atom -5578.308119 kJ/mol
# Density = 2.235344 g / cm^3
# Si number density = 22.404437 Si / 1000 Ang^3
#
#
#
# Elastic Constant Matrix: (Units=GPa)
#
#
# Indices 1 2 3 4 5 6 
#
# 1 117.4915 40.2172 9.4923 8.4182 10.3227 4.7777
# 2 40.2172 160.6921 12.2252 21.6083 4.5703 6.5452
# 3 9.4923 12.2252 25.3440 -8.5669 -9.4252 8.6833
# 4 8.4182 21.6083 -8.5669 29.4476 6.7899 -2.0871
# 5 10.3227 4.5703 -9.4252 6.7899 24.3561 3.7115
# 6 4.7777 6.5452 8.6833 -2.0871 3.7115 53.3338
#
#
#
# Elastic Compliance Matrix: (Units=1/GPa)
#
#
# Indices 1 2 3 4 5 6 
#
# 1 0.010221 -0.001670 -0.006133 -0.002075 -0.005907 0.000618
# 2 -0.001670 0.008068 -0.006041 -0.006925 -0.001207 -0.000044
# 3 -0.006133 -0.006041 0.063479 0.018235 0.024746 -0.010053
# 4 -0.002075 -0.006925 0.018235 0.045761 -0.003538 0.000104
# 5 -0.005907 -0.001207 0.024746 -0.003538 0.055470 -0.007350
# 6 0.000618 -0.000044 -0.010053 0.000104 -0.007350 0.020852
#
#
# Mechanical properties :
#
#
# Convention : Reuss Voigt Hill
#
# Bulk Modulus (GPa) = 18.49070 47.48856 32.98963
# Shear Modulus (GPa) = 20.03494 37.53369 28.78431
#
# Velocity S-wave (km/s) = 2.99363 4.09746 3.58824
# Velocity P-wave (km/s) = 4.49668 6.60512 5.65012
#
# Compressibility (1/GPa) = 0.05408123
#
# Stress axis : x y z
#
# Youngs Moduli (GPa) = 97.83996 123.94872 15.75329
#
# Poissons Ratio (x) = 0.20694 0.09661
# Poissons Ratio (y) = 0.16335 0.09516
# Poissons Ratio (z) = 0.60001 0.74876
#
# Static dielectric constant tensor:
#      x y z
#    x 1.904590 -0.069310 -0.028110 
#    y -0.069310 1.859460 0.021150 
#    z -0.028110 0.021150 1.905630 
# 
# From -- ./inp_files/357415.got.cif
#   From: 2010.05.17/outbox.cif.g08.bks.cpg/sg2_179_cif.got.tgz:357415.got - 2010.06.03 11:33:40.
