data_PCOD9084297
_publ_section_title
;
Structure prediction by ZEFSAII (Michael W. Deem and Ramdas Pophale) SiO2 
 PCOD9084297
Probable space group: P -1
;
_chemical_formula_sum "Si O2"
_cell_formula_units_Z 12
_cell_length_a 11.395455
_cell_length_b 8.898990
_cell_length_c 8.649753
_cell_angle_alpha 124.708880
_cell_angle_beta 58.889301
_cell_angle_gamma 84.013445
_cell_volume 508.868583
_symmetry_space_group_name_H-M "P -1"
_symmetry_group_IT_number 2
_symmetry_cell_setting 'triclinic'
loop_
_space_group_symop_operation_xyz
x,y,z
-x,-y,-z
loop_
_atom_site_type_symbol
_atom_site_label
_atom_site_fract_x
_atom_site_fract_y
_atom_site_fract_z
Si Si1 0.033599 0.777451 0.263023
Si Si2 0.900863 0.406413 0.580345
Si Si3 0.874881 0.074185 0.985781
Si Si4 0.471485 0.403618 0.118891
Si Si5 0.338976 0.043390 0.437047
Si Si6 0.544303 0.234782 0.481655
O O1 0.128479 0.579246 0.206243
O O2 0.857150 0.820169 0.371129
O O3 0.000000 0.000000 0.500000
O O4 0.123416 0.752502 0.026157
O O5 0.722250 0.504252 0.683488
O O6 0.000000 0.500000 0.500000
O O7 0.031994 0.150155 0.305779
O O8 0.699280 0.141488 0.207338
O O9 0.000000 0.000000 0.000000
O O10 0.513154 0.517089 0.289965
O O11 0.500000 0.500000 0.000000
O O12 0.579384 0.141241 0.863424
O O13 0.387738 0.908533 0.487929
O O14 0.413261 0.190141 0.477248
#
# Coordination Sequence:
#
# PCOD9084297 Si02
#       6
#     2   2   2   2   2   2
#     4  10  21  40  66  91 122 168 213 252 314 381
#     4  11  23  40  65  91 122 166 212 259 314 372
#     4  11  18  37  65  89 124 164 205 256 316 370
#     4  10  19  37  62  89 123 166 205 254 318 370
#     4  10  20  36  64  91 125 165 208 256 314 375
#     4  10  19  34  62  93 123 166 206 253 319 372
#
# _framework density 23.581726
#
# number of rings (size 3 to 8) (size 9 to 14) (size 15 to 20)
#    0.000    1.667    3.333    4.000    0.000    0.000 
#    0.000   10.000    7.333   17.000    0.000    0.000 
#    0.000    0.000    0.000    0.000    0.000    0.000 
#
# Total GULP energy -67109.399493 kJ/mol
# GULP energy per Si atom -5592.449958 kJ/mol
# Density = 2.352805 g / cm^3
# Si number density = 23.581726 Si / 1000 Ang^3
#
#
#
# Elastic Constant Matrix: (Units=GPa)
#
#
# Indices 1 2 3 4 5 6 
#
# 1 167.1142 64.4555 49.3927 -11.3551 -32.7348 35.4795
# 2 64.4555 105.8248 41.7271 -26.9694 -4.2351 17.3961
# 3 49.3927 41.7271 117.8542 -18.6289 -17.7160 23.2761
# 4 -11.3551 -26.9694 -18.6289 36.8520 6.1344 -5.5813
# 5 -32.7348 -4.2351 -17.7160 6.1344 36.8102 -11.4401
# 6 35.4795 17.3961 23.2761 -5.5813 -11.4401 36.0706
#
#
#
# Elastic Compliance Matrix: (Units=1/GPa)
#
#
# Indices 1 2 3 4 5 6 
#
# 1 0.010962 -0.006064 -0.000785 -0.003548 0.007553 -0.005504
# 2 -0.006064 0.016578 -0.002574 0.009929 -0.006674 -0.000950
# 3 -0.000785 -0.002574 0.011341 0.002533 0.002790 -0.004027
# 4 -0.003548 0.009929 0.002533 0.035764 -0.006596 0.000509
# 5 0.007553 -0.006674 0.002790 -0.006596 0.037021 0.004710
# 6 -0.005504 -0.000950 -0.004027 0.000509 0.004710 0.037767
#
#
# Mechanical properties :
#
#
# Convention : Reuss Voigt Hill
#
# Bulk Modulus (GPa) = 49.91811 77.99374 63.95592
# Shear Modulus (GPa) = 28.57820 37.62774 33.10297
#
# Velocity S-wave (km/s) = 3.48498 3.99887 3.75074
# Velocity P-wave (km/s) = 6.11617 7.38017 6.77770
#
# Compressibility (1/GPa) = 0.02003281
#
# Stress axis : x y z
#
# Youngs Moduli (GPa) = 91.22303 60.32218 88.17773
#
# Poissons Ratio (x) = 0.36581 0.06926
# Poissons Ratio (y) = 0.55320 0.22698
# Poissons Ratio (z) = 0.07165 0.15528
#
# Static dielectric constant tensor:
#      x y z
#    x 1.875580 -0.070920 0.060080 
#    y -0.070920 2.032200 -0.014150 
#    z 0.060080 -0.014150 1.960930 
# 
# From -- ./inp_files/151787.got.cif
#   From: 2010.05.17/outbox.cif.g08.bks.cpg/sg2_76_cif.got.tgz:151787.got - 2010.06.03 11:33:40.
