data_PCOD9084461
_publ_section_title
;
Structure prediction by ZEFSAII (Michael W. Deem and Ramdas Pophale) SiO2 
 PCOD9084461
Probable space group: P -1
;
_chemical_formula_sum "Si O2"
_cell_formula_units_Z 16
_cell_length_a 8.116394
_cell_length_b 24.507883
_cell_length_c 11.748118
_cell_angle_alpha 30.994324
_cell_angle_beta 35.214762
_cell_angle_gamma 49.801428
_cell_volume 681.958520
_symmetry_space_group_name_H-M "P -1"
_symmetry_group_IT_number 2
_symmetry_cell_setting 'triclinic'
loop_
_space_group_symop_operation_xyz
x,y,z
-x,-y,-z
loop_
_atom_site_type_symbol
_atom_site_label
_atom_site_fract_x
_atom_site_fract_y
_atom_site_fract_z
Si Si1 0.772361 0.570035 0.546000
Si Si2 0.821209 0.944608 0.022178
Si Si3 0.162387 0.729294 0.435678
Si Si4 0.737867 0.703318 0.526597
Si Si5 0.748220 0.682406 0.127082
Si Si6 0.806152 0.389728 0.131584
Si Si7 0.963282 0.933171 0.522891
Si Si8 0.628786 0.027539 0.185132
O O1 0.874140 0.620583 0.519901
O O2 0.418041 0.532679 0.835158
O O3 0.000000 0.500000 0.500000
O O4 0.784394 0.658545 0.282415
O O5 0.115616 0.989848 0.845144
O O6 0.827984 0.821695 0.209298
O O7 0.810954 0.017329 0.788813
O O8 0.582419 0.942329 0.260606
O O9 0.157049 0.681313 0.650523
O O10 0.860451 0.708720 0.574399
O O11 0.403859 0.680872 0.313735
O O12 0.275371 0.857552 0.138903
O O13 0.397747 0.667772 0.753796
O O14 0.912424 0.804488 0.791127
O O15 0.879107 0.596844 0.129060
O O16 0.655384 0.961842 0.605298
O O17 0.000000 0.000000 0.500000
#
# Coordination Sequence:
#
# PCOD9084461 Si02
#       8
#     2   2   2   2   2   2   2   2
#     4   9  20  39  61  81 109 141 180 233 282 330
#     4  10  19  35  51  75 108 145 185 219 259 315
#     4   9  18  38  54  79 117 147 183 225 272 319
#     4   9  20  37  58  81 110 152 184 224 275 327
#     4  10  20  37  55  82 113 144 182 228 278 322
#     4   9  20  36  58  81 111 142 182 230 272 326
#     4  11  22  29  50  79 108 144 178 219 264 319
#     4   9  20  33  50  73 108 146 184 222 256 308
#
# _framework density 23.461836999999999
#
# number of rings (size 3 to 8) (size 9 to 14) (size 15 to 20)
#    0.750    1.750    0.000    1.875    3.500    1.000 
#    2.250    2.500    0.000    1.500    0.000    0.000 
#    0.000    0.000    0.000    0.000    0.000    0.000 
#
# Total GULP energy -89119.976052 kJ/mol
# GULP energy per Si atom -5569.998503 kJ/mol
# Density = 2.340844 g / cm^3
# Si number density = 23.461837 Si / 1000 Ang^3
#
#
#
# Elastic Constant Matrix: (Units=GPa)
#
#
# Indices 1 2 3 4 5 6 
#
# 1 64.8815 -5.6164 7.0996 4.2309 17.3059 -17.3137
# 2 -5.6164 116.6753 14.2544 18.3475 4.2684 -8.9979
# 3 7.0996 14.2544 39.1362 6.2413 9.0935 -3.3583
# 4 4.2309 18.3475 6.2413 29.5991 -0.2170 -3.7459
# 5 17.3059 4.2684 9.0935 -0.2170 19.3082 1.0938
# 6 -17.3137 -8.9979 -3.3583 -3.7459 1.0938 26.1518
#
#
#
# Elastic Compliance Matrix: (Units=1/GPa)
#
#
# Indices 1 2 3 4 5 6 
#
# 1 0.029978 0.004776 0.002657 -0.005200 -0.030501 0.022362
# 2 0.004776 0.010687 -0.001815 -0.006214 -0.006197 0.005975
# 3 0.002657 -0.001815 0.030929 -0.005260 -0.016893 0.005060
# 4 -0.005200 -0.006214 -0.005260 0.039430 0.009010 -0.000985
# 5 -0.030501 -0.006197 -0.016893 0.009010 0.090085 -0.026972
# 6 0.022362 0.005975 0.005060 -0.000985 -0.026972 0.056736
#
#
# Mechanical properties :
#
#
# Convention : Reuss Voigt Hill
#
# Bulk Modulus (GPa) = 12.07285 28.01870 20.04578
# Shear Modulus (GPa) = 18.23367 28.67550 23.45458
#
# Velocity S-wave (km/s) = 2.79079 3.49982 3.16522
# Velocity P-wave (km/s) = 3.94228 5.31976 4.68195
#
# Compressibility (1/GPa) = 0.08283048
#
# Stress axis : x y z
#
# Youngs Moduli (GPa) = 33.35831 93.57026 32.33213
#
# Poissons Ratio (x) = -0.44693 -0.08592
# Poissons Ratio (y) = -0.15933 0.05870
# Poissons Ratio (z) = -0.08865 0.16987
#
# Static dielectric constant tensor:
#      x y z
#    x 1.873250 -0.028540 -0.036270 
#    y -0.028540 1.932420 -0.001400 
#    z -0.036270 -0.001400 1.911560 
# 
# From -- ./inp_files/406474.got.cif
#   From: 2010.05.17/outbox.cif.g08.bks.cpg/sg2_204_cif.got.tgz:406474.got - 2010.06.03 11:33:40.
