data_PCOD9084430
_publ_section_title
;
Structure prediction by ZEFSAII (Michael W. Deem and Ramdas Pophale) SiO2 
 PCOD9084430
Probable space group: P -1
;
_chemical_formula_sum "Si O2"
_cell_formula_units_Z 14
_cell_length_a 15.224379
_cell_length_b 9.489881
_cell_length_c 18.608808
_cell_angle_alpha 135.014900
_cell_angle_beta 159.930065
_cell_angle_gamma 36.171570
_cell_volume 527.031739
_symmetry_space_group_name_H-M "P -1"
_symmetry_group_IT_number 2
_symmetry_cell_setting 'triclinic'
loop_
_space_group_symop_operation_xyz
x,y,z
-x,-y,-z
loop_
_atom_site_type_symbol
_atom_site_label
_atom_site_fract_x
_atom_site_fract_y
_atom_site_fract_z
Si Si1 0.803893 0.221639 0.202717
Si Si2 0.551156 0.669685 0.368899
Si Si3 0.072391 0.131367 0.701903
Si Si4 0.238861 0.338648 0.710309
Si Si5 0.355647 0.309102 0.085770
Si Si6 0.513645 0.874817 0.570650
Si Si7 0.560994 0.779792 0.730173
O O1 0.777207 0.468092 0.286927
O O2 0.130346 0.040022 0.344882
O O3 0.820007 0.080908 0.233589
O O4 0.502219 0.291896 0.951944
O O5 0.374670 0.539287 0.178043
O O6 0.408160 0.925973 0.308755
O O7 0.907913 0.469369 0.543621
O O8 0.578737 0.733789 0.495231
O O9 0.696074 0.271034 0.463568
O O10 0.294240 0.960847 0.745201
O O11 0.180459 0.288737 0.876484
O O12 0.371908 0.075183 0.686140
O O13 0.230352 0.302656 0.066485
O O14 0.657750 0.716693 0.698233
#
# Coordination Sequence:
#
# PCOD9084430 Si02
#       7
#     2   2   2   2   2   2   2
#     4   9  19  36  59  90 117 154 202 250 288 357
#     4  10  21  39  63  89 119 164 195 248 303 358
#     4  10  21  35  57  92 123 155 198 255 292 363
#     4  10  19  34  66  87 117 152 207 249 297 341
#     4  11  22  35  60  90 125 153 201 248 306 348
#     4   9  22  40  62  86 124 157 203 243 302 357
#     4  11  21  37  62  88 121 159 201 251 295 357
#
# _framework density 26.563863999999999
#
# number of rings (size 3 to 8) (size 9 to 14) (size 15 to 20)
#    0.000    2.000    2.857    0.429    2.000    2.286 
#    0.000    2.857    6.286    3.429    0.000    0.000 
#    0.000    0.000    0.000    0.000    0.000    0.000 
#
# Total GULP energy -78417.527710 kJ/mol
# GULP energy per Si atom -5601.251979 kJ/mol
# Density = 2.650340 g / cm^3
# Si number density = 26.563864 Si / 1000 Ang^3
#
#
#
# Elastic Constant Matrix: (Units=GPa)
#
#
# Indices 1 2 3 4 5 6 
#
# 1 142.0829 44.2193 20.2857 18.1752 -15.1665 -12.6022
# 2 44.2193 92.5757 21.7592 35.7320 7.7020 -4.8619
# 3 20.2857 21.7592 113.0954 38.3909 -3.6874 4.3016
# 4 18.1752 35.7320 38.3909 48.4822 11.9956 -4.6389
# 5 -15.1665 7.7020 -3.6874 11.9956 38.6891 8.2145
# 6 -12.6022 -4.8619 4.3016 -4.6389 8.2145 51.8380
#
#
#
# Elastic Compliance Matrix: (Units=1/GPa)
#
#
# Indices 1 2 3 4 5 6 
#
# 1 0.009091 -0.004167 -0.000367 -0.001050 0.004461 0.001049
# 2 -0.004167 0.017158 0.001525 -0.012069 -0.001068 -0.000441
# 3 -0.000367 0.001525 0.013441 -0.013325 0.005633 -0.003147
# 4 -0.001050 -0.012069 -0.013325 0.044596 -0.014377 0.005988
# 5 0.004461 -0.001068 0.005633 -0.014377 0.034114 -0.006176
# 6 0.001049 -0.000441 -0.003147 0.005988 -0.006176 0.021280
#
#
# Mechanical properties :
#
#
# Convention : Reuss Voigt Hill
#
# Bulk Modulus (GPa) = 29.69801 57.80916 43.75359
# Shear Modulus (GPa) = 31.86303 45.23451 38.54877
#
# Velocity S-wave (km/s) = 3.46712 4.13105 3.81356
# Velocity P-wave (km/s) = 5.21843 6.67560 5.99148
#
# Compressibility (1/GPa) = 0.03367228
#
# Stress axis : x y z
#
# Youngs Moduli (GPa) = 110.00025 58.28196 74.39967
#
# Poissons Ratio (x) = 0.24286 0.02731
# Poissons Ratio (y) = 0.45836 -0.11348
# Poissons Ratio (z) = 0.04037 -0.08889
#
# Static dielectric constant tensor:
#      x y z
#    x 2.099830 -0.007140 -0.017630 
#    y -0.007140 2.137510 -0.058080 
#    z -0.017630 -0.058080 2.143300 
# 
# From -- ./inp_files/283927.got.cif
#   From: 2010.05.17/outbox.cif.g08.bks.cpg/sg2_142_cif.got.tgz:283927.got - 2010.06.03 11:33:40.
