data_PCOD9084682
_publ_section_title
;
Structure prediction by ZEFSAII (Michael W. Deem and Ramdas Pophale) SiO2 
 PCOD9084682
Probable space group: P -1
;
_chemical_formula_sum "Si O2"
_cell_formula_units_Z 12
_cell_length_a 13.214388
_cell_length_b 8.466589
_cell_length_c 9.306950
_cell_angle_alpha 93.088925
_cell_angle_beta 132.658533
_cell_angle_gamma 104.146252
_cell_volume 706.482901
_symmetry_space_group_name_H-M "P -1"
_symmetry_group_IT_number 2
_symmetry_cell_setting 'triclinic'
loop_
_space_group_symop_operation_xyz
x,y,z
-x,-y,-z
loop_
_atom_site_type_symbol
_atom_site_label
_atom_site_fract_x
_atom_site_fract_y
_atom_site_fract_z
Si Si1 0.667018 0.484928 0.010516
Si Si2 0.323383 0.338614 0.669581
Si Si3 0.078776 0.395888 0.261475
Si Si4 0.942652 0.681013 0.088405
Si Si5 0.103993 0.960720 0.479083
Si Si6 0.124965 0.681538 0.686140
O O1 0.682333 0.610179 0.166565
O O2 0.781260 0.581038 0.999768
O O3 0.729760 0.348159 0.127004
O O4 0.495807 0.402475 0.797187
O O5 0.233912 0.425561 0.490644
O O6 0.234061 0.135607 0.566303
O O7 0.040200 0.564552 0.208659
O O8 0.953909 0.280056 0.247365
O O9 0.069489 0.310802 0.093541
O O10 0.014178 0.858758 0.249865
O O11 0.156688 0.825682 0.605181
O O12 0.000000 0.000000 0.500000
O O13 0.000000 0.500000 0.500000
#
# Coordination Sequence:
#
# PCOD9084682 Si02
#       6
#     2   2   2   2   2   2
#     4  10  20  36  54  78 108 145 173 217 267 321
#     4  11  21  33  54  82 111 135 177 224 269 305
#     4  10  19  35  56  81 102 145 180 218 256 322
#     4  10  20  35  59  77 104 144 186 209 263 319
#     4  12  19  33  57  84 103 137 180 228 256 308
#     4  11  17  36  58  76 103 142 180 219 256 315
#
# _framework density 16.985548000000001
#
# number of rings (size 3 to 8) (size 9 to 14) (size 15 to 20)
#    0.000    1.333    8.333    0.000    0.000    2.000 
#    0.000    0.000    0.000    9.000    0.000    0.000 
#    0.000    0.000    0.000    0.000    0.000    0.000 
#
# Total GULP energy -66921.796560 kJ/mol
# GULP energy per Si atom -5576.816380 kJ/mol
# Density = 1.694689 g / cm^3
# Si number density = 16.985548 Si / 1000 Ang^3
#
#
#
# Elastic Constant Matrix: (Units=GPa)
#
#
# Indices 1 2 3 4 5 6 
#
# 1 106.6026 32.5762 69.7168 10.6926 0.3536 -0.9385
# 2 32.5762 54.8168 36.2887 12.1777 10.1666 7.0063
# 3 69.7168 36.2887 103.0310 9.8615 9.8588 3.0652
# 4 10.6926 12.1777 9.8615 26.7817 -6.6251 -1.3782
# 5 0.3536 10.1666 9.8588 -6.6251 44.6905 -4.3792
# 6 -0.9385 7.0063 3.0652 -1.3782 -4.3792 18.4940
#
#
#
# Elastic Compliance Matrix: (Units=1/GPa)
#
#
# Indices 1 2 3 4 5 6 
#
# 1 0.018194 -0.005003 -0.011146 0.000413 0.004069 0.005660
# 2 -0.005003 0.031014 -0.004944 -0.013328 -0.009310 -0.014382
# 3 -0.011146 -0.004944 0.019571 -0.001554 -0.003620 -0.002909
# 4 0.000413 -0.013328 -0.001554 0.047249 0.011510 0.011574
# 5 0.004069 -0.009310 -0.003620 0.011510 0.028128 0.011852
# 6 0.005660 -0.014382 -0.002909 0.011574 0.011852 0.063958
#
#
# Mechanical properties :
#
#
# Convention : Reuss Voigt Hill
#
# Bulk Modulus (GPa) = 37.60431 60.17931 48.89181
# Shear Modulus (GPa) = 19.29274 26.38448 22.83861
#
# Velocity S-wave (km/s) = 3.37387 3.94553 3.67084
# Velocity P-wave (km/s) = 6.11264 7.50086 6.84205
#
# Compressibility (1/GPa) = 0.02659269
#
# Stress axis : x y z
#
# Youngs Moduli (GPa) = 54.96355 32.24316 51.09666
#
# Poissons Ratio (x) = 0.16132 0.56953
# Poissons Ratio (y) = 0.27500 0.25261
# Poissons Ratio (z) = 0.61263 0.15940
#
# Static dielectric constant tensor:
#      x y z
#    x 1.581600 -0.030950 -0.012930 
#    y -0.030950 1.589670 -0.011760 
#    z -0.012930 -0.011760 1.573870 
# 
# From -- ./inp_files/144658.got.cif
#   From: 2010.05.17/outbox.cif.g08.bks.cpg/sg2_73_cif.got.tgz:144658.got - 2010.06.03 11:33:40.
