data_PCOD9084657
_publ_section_title
;
Structure prediction by ZEFSAII (Michael W. Deem and Ramdas Pophale) SiO2 
 PCOD9084657
Probable space group: P -1
;
_chemical_formula_sum "Si O2"
_cell_formula_units_Z 16
_cell_length_a 18.750899
_cell_length_b 8.441630
_cell_length_c 21.504145
_cell_angle_alpha 55.359704
_cell_angle_beta 160.809129
_cell_angle_gamma 115.910412
_cell_volume 855.495874
_symmetry_space_group_name_H-M "P -1"
_symmetry_group_IT_number 2
_symmetry_cell_setting 'triclinic'
loop_
_space_group_symop_operation_xyz
x,y,z
-x,-y,-z
loop_
_atom_site_type_symbol
_atom_site_label
_atom_site_fract_x
_atom_site_fract_y
_atom_site_fract_z
Si Si1 0.414534 0.501615 0.998963
Si Si2 0.693381 0.692753 0.938314
Si Si3 0.965681 0.202199 0.251463
Si Si4 0.916864 0.839527 0.506408
Si Si5 0.973471 0.060522 0.864147
Si Si6 0.679955 0.994913 0.522980
Si Si7 0.500864 0.176150 0.913904
Si Si8 0.656389 0.257499 0.676983
O O1 0.525354 0.627784 0.107348
O O2 0.500000 0.500000 0.000000
O O3 0.426810 0.305986 0.093883
O O4 0.140369 0.629650 0.737317
O O5 0.845938 0.453239 0.100316
O O6 0.862578 0.820033 0.050781
O O7 0.495221 0.796102 0.700670
O O8 0.112761 0.112849 0.455406
O O9 0.126977 0.127110 0.341693
O O10 0.746839 0.127507 0.092678
O O11 0.701354 0.804960 0.305105
O O12 0.000000 0.000000 0.500000
O O13 0.812721 0.032392 0.683596
O O14 0.806491 0.195583 0.751197
O O15 0.149345 0.843016 0.086759
O O16 0.520045 0.865114 0.437892
O O17 0.500000 0.000000 0.000000
O O18 0.500000 0.500000 0.500000
#
# Coordination Sequence:
#
# PCOD9084657 Si02
#       8
#     2   2   2   2   2   2   2   2
#     4  10  23  36  56  87 117 153 205 259 300 352
#     4   9  22  40  54  85 125 153 200 249 294 355
#     4  10  23  37  57  85 117 155 205 248 299 360
#     4  10  19  37  57  76 111 156 196 252 301 347
#     4  10  22  40  62  91 123 157 194 243 294 358
#     4  11  23  38  63  91 119 160 195 244 301 353
#     4  10  19  35  56  78 107 152 200 244 303 355
#     4  10  22  41  65  92 123 155 193 237 296 362
#
# _framework density 18.702604000000001
#
# number of rings (size 3 to 8) (size 9 to 14) (size 15 to 20)
#    0.000    2.250    2.500    1.125    1.750    9.000 
#    0.000    0.000    0.000    0.000    0.000    0.000 
#    0.000    0.000    0.000    0.000    0.000    0.000 
#
# Total GULP energy -89203.775195 kJ/mol
# GULP energy per Si atom -5575.235950 kJ/mol
# Density = 1.866004 g / cm^3
# Si number density = 18.702604 Si / 1000 Ang^3
#
#
#
# Elastic Constant Matrix: (Units=GPa)
#
#
# Indices 1 2 3 4 5 6 
#
# 1 124.7587 53.3371 56.8255 9.0353 -11.3071 10.2990
# 2 53.3371 76.3843 70.5449 8.5120 -14.6614 14.8702
# 3 56.8255 70.5449 149.5806 13.9190 -28.2463 -8.7066
# 4 9.0353 8.5120 13.9190 47.6999 -6.7999 -5.1460
# 5 -11.3071 -14.6614 -28.2463 -6.7999 36.8190 2.7892
# 6 10.2990 14.8702 -8.7066 -5.1460 2.7892 24.6653
#
#
#
# Elastic Compliance Matrix: (Units=1/GPa)
#
#
# Indices 1 2 3 4 5 6 
#
# 1 0.011578 -0.006355 -0.001441 -0.000834 -0.000108 -0.001673
# 2 -0.006355 0.039880 -0.017311 -0.003631 0.002136 -0.028499
# 3 -0.001441 -0.017311 0.017189 0.000828 0.004735 0.016743
# 4 -0.000834 -0.003631 0.000828 0.022680 0.002571 0.007271
# 5 -0.000108 0.002136 0.004735 0.002571 0.032288 -0.002686
# 6 -0.001673 -0.028499 0.016743 0.007271 -0.002686 0.066154
#
#
# Mechanical properties :
#
#
# Convention : Reuss Voigt Hill
#
# Bulk Modulus (GPa) = 54.25658 79.12652 66.69155
# Shear Modulus (GPa) = 20.31456 33.17125 26.74291
#
# Velocity S-wave (km/s) = 3.29931 4.21600 3.78551
# Velocity P-wave (km/s) = 6.60205 8.13014 7.40562
#
# Compressibility (1/GPa) = 0.01843094
#
# Stress axis : x y z
#
# Youngs Moduli (GPa) = 86.37240 25.07502 58.17678
#
# Poissons Ratio (x) = 0.15936 0.08385
# Poissons Ratio (y) = 0.54893 1.00712
# Poissons Ratio (z) = 0.12448 0.43408
#
# Static dielectric constant tensor:
#      x y z
#    x 1.646610 0.022290 -0.006910 
#    y 0.022290 1.639850 -0.018480 
#    z -0.006910 -0.018480 1.637800 
# 
# From -- ./inp_files/577361.got.cif
#   From: 2010.05.17/outbox.cif.g08.bks.cpg/sg2_289_cif.got.tgz:577361.got - 2010.06.03 11:33:40.
