data_PCOD9084951
_publ_section_title
;
Structure prediction by ZEFSAII (Michael W. Deem and Ramdas Pophale) SiO2 
 PCOD9084951
Probable space group: P -1
;
_chemical_formula_sum "Si O2"
_cell_formula_units_Z 16
_cell_length_a 7.507867
_cell_length_b 11.191723
_cell_length_c 14.644260
_cell_angle_alpha 117.615919
_cell_angle_beta 61.036352
_cell_angle_gamma 120.783457
_cell_volume 886.009752
_symmetry_space_group_name_H-M "P -1"
_symmetry_group_IT_number 2
_symmetry_cell_setting 'triclinic'
loop_
_space_group_symop_operation_xyz
x,y,z
-x,-y,-z
loop_
_atom_site_type_symbol
_atom_site_label
_atom_site_fract_x
_atom_site_fract_y
_atom_site_fract_z
Si Si1 0.396067 0.820718 0.664547
Si Si2 0.845390 0.333661 0.147687
Si Si3 0.834422 0.834788 0.994138
Si Si4 0.929421 0.405485 0.702316
Si Si5 0.699118 0.651837 0.525554
Si Si6 0.536172 0.151429 0.795334
Si Si7 0.558245 0.159908 0.000235
Si Si8 0.950479 0.616858 0.616900
O O1 0.316174 0.751631 0.760257
O O2 0.595972 0.771525 0.571105
O O3 0.180196 0.746795 0.629129
O O4 0.471307 0.992587 0.713029
O O5 0.039473 0.272451 0.076166
O O6 0.941480 0.501860 0.210035
O O7 0.722714 0.282512 0.065246
O O8 0.687134 0.822411 0.116366
O O9 0.663646 0.808659 0.944742
O O10 0.000000 0.000000 0.000000
O O11 0.710426 0.275276 0.737585
O O12 0.876942 0.524847 0.695653
O O13 0.096014 0.348662 0.586099
O O14 0.500000 0.500000 0.500000
O O15 0.780509 0.660758 0.614095
O O16 0.632017 0.153979 0.875248
O O17 0.500000 0.000000 0.000000
O O18 0.000000 0.500000 0.500000
#
# Coordination Sequence:
#
# PCOD9084951 Si02
#       8
#     2   2   2   2   2   2   2   2
#     4  11  20  36  65  89 115 158 198 238 294 348
#     4  11  19  37  61  86 113 161 198 238 289 343
#     4  10  19  35  58  79 115 152 195 239 276 346
#     4  10  23  40  59  88 126 151 194 251 292 345
#     4  11  20  40  67  87 115 151 203 241 285 360
#     4  10  23  40  56  91 128 149 194 252 290 342
#     4  10  19  35  61  84 120 151 204 237 280 351
#     4   9  19  38  63  85 113 152 201 239 284 351
#
# _framework density 18.058491
#
# number of rings (size 3 to 8) (size 9 to 14) (size 15 to 20)
#    0.750    1.000    7.500    0.000    0.000    3.500 
#    2.250    3.750    0.000    0.000    0.000    0.000 
#    0.000    0.000    0.000    0.000    0.000    0.000 
#
# Total GULP energy -89113.164943 kJ/mol
# GULP energy per Si atom -5569.572809 kJ/mol
# Density = 1.801739 g / cm^3
# Si number density = 18.058491 Si / 1000 Ang^3
#
#
#
# Elastic Constant Matrix: (Units=GPa)
#
#
# Indices 1 2 3 4 5 6 
#
# 1 121.1300 30.2794 37.9144 6.9943 7.7149 13.7809
# 2 30.2794 107.3059 46.3409 1.1459 -0.2465 27.9351
# 3 37.9144 46.3409 85.0114 8.9968 -7.3984 14.3563
# 4 6.9943 1.1459 8.9968 29.5799 11.7670 -0.4852
# 5 7.7149 -0.2465 -7.3984 11.7670 41.9948 6.6070
# 6 13.7809 27.9351 14.3563 -0.4852 6.6070 19.8502
#
#
#
# Elastic Compliance Matrix: (Units=1/GPa)
#
#
# Indices 1 2 3 4 5 6 
#
# 1 0.010060 -0.000372 -0.003895 -0.000460 -0.001934 -0.003011
# 2 -0.000372 0.017227 -0.005434 -0.000299 0.002588 -0.020924
# 3 -0.003895 -0.005434 0.018843 -0.007484 0.007012 -0.005793
# 4 -0.000460 -0.000299 -0.007484 0.042382 -0.015029 0.012191
# 5 -0.001934 0.002588 0.007012 -0.015029 0.032551 -0.018572
# 6 -0.003011 -0.020924 -0.005793 0.012191 -0.018572 0.092583
#
#
# Mechanical properties :
#
#
# Convention : Reuss Voigt Hill
#
# Bulk Modulus (GPa) = 37.41538 60.27962 48.84750
# Shear Modulus (GPa) = 20.66464 31.54581 26.10523
#
# Velocity S-wave (km/s) = 3.38645 4.18409 3.80622
# Velocity P-wave (km/s) = 6.00455 7.53623 6.81357
#
# Compressibility (1/GPa) = 0.02672698
#
# Stress axis : x y z
#
# Youngs Moduli (GPa) = 99.40288 58.04702 53.06976
#
# Poissons Ratio (x) = 0.02162 0.20670
# Poissons Ratio (y) = 0.03702 0.28840
# Poissons Ratio (z) = 0.38717 0.31545
#
# Static dielectric constant tensor:
#      x y z
#    x 1.646820 -0.005330 0.014820 
#    y -0.005330 1.590910 -0.001940 
#    z 0.014820 -0.001940 1.659760 
# 
# From -- ./inp_files/500790.got.cif
#   From: 2010.05.17/outbox.cif.g08.bks.cpg/sg2_251_cif.got.tgz:500790.got - 2010.06.03 11:33:40.
