data_PCOD9084622
_publ_section_title
;
Structure prediction by ZEFSAII (Michael W. Deem and Ramdas Pophale) SiO2 
 PCOD9084622
Probable space group: P -1
;
_chemical_formula_sum "Si O2"
_cell_formula_units_Z 16
_cell_length_a 15.332159
_cell_length_b 15.887948
_cell_length_c 13.841380
_cell_angle_alpha 130.379854
_cell_angle_beta 50.023371
_cell_angle_gamma 161.311001
_cell_volume 817.271430
_symmetry_space_group_name_H-M "P -1"
_symmetry_group_IT_number 2
_symmetry_cell_setting 'triclinic'
loop_
_space_group_symop_operation_xyz
x,y,z
-x,-y,-z
loop_
_atom_site_type_symbol
_atom_site_label
_atom_site_fract_x
_atom_site_fract_y
_atom_site_fract_z
Si Si1 0.317843 0.389791 0.904634
Si Si2 0.071177 0.788278 0.868540
Si Si3 0.069834 0.714028 0.225632
Si Si4 0.117958 0.219907 0.543393
Si Si5 0.247798 0.139478 0.897319
Si Si6 0.435053 0.362391 0.296249
Si Si7 0.499294 0.177258 0.126550
Si Si8 0.668568 0.260984 0.854121
O O1 0.326826 0.268273 0.836655
O O2 0.423794 0.498502 0.803093
O O3 0.511461 0.622781 0.019561
O O4 0.028114 0.197497 0.980861
O O5 0.841548 0.493656 0.833675
O O6 0.136364 0.916484 0.820068
O O7 0.356402 0.983011 0.835387
O O8 0.181556 0.722824 0.227035
O O9 0.067570 0.835423 0.362558
O O10 0.761643 0.414471 0.187515
O O11 0.276422 0.897607 0.122739
O O12 0.234294 0.286431 0.406007
O O13 0.352670 0.449830 0.626275
O O14 0.000000 0.000000 0.500000
O O15 0.000000 0.000000 0.000000
O O16 0.333051 0.146322 0.213216
O O17 0.632444 0.274720 0.999593
#
# Coordination Sequence:
#
# PCOD9084622 Si02
#       8
#     2   2   2   2   2   2   2   2
#     4  10  19  35  55  84 115 143 183 221 282 341
#     4  11  20  34  52  79 112 142 177 216 276 335
#     4  11  23  36  51  75 108 147 190 233 269 318
#     4  10  21  36  53  74 111 150 194 235 268 307
#     4   9  19  33  55  82 118 141 171 226 280 348
#     4  10  20  34  56  79 107 152 185 228 277 325
#     4  11  20  34  53  74 111 141 185 231 276 324
#     4  12  22  33  53  79 108 149 184 220 277 342
#
# _framework density 19.57734
#
# number of rings (size 3 to 8) (size 9 to 14) (size 15 to 20)
#    0.000    1.500    3.750    2.250    1.750    2.000 
#    0.000    0.000    0.000    0.000    0.000    1.750 
#    0.000    0.500    0.000    0.000    0.000    0.000 
#
# Total GULP energy -89117.445651 kJ/mol
# GULP energy per Si atom -5569.840353 kJ/mol
# Density = 1.953278 g / cm^3
# Si number density = 19.577340 Si / 1000 Ang^3
#
#
#
# Elastic Constant Matrix: (Units=GPa)
#
#
# Indices 1 2 3 4 5 6 
#
# 1 80.4890 17.6190 24.3875 -8.7125 -22.3496 -8.6650
# 2 17.6190 75.1842 -1.2305 -5.7269 -2.8462 -5.6004
# 3 24.3875 -1.2305 41.8060 -9.6214 -22.5154 -4.1497
# 4 -8.7125 -5.7269 -9.6214 19.1193 -1.9881 -0.0133
# 5 -22.3496 -2.8462 -22.5154 -1.9881 25.8839 -5.1961
# 6 -8.6650 -5.6004 -4.1497 -0.0133 -5.1961 43.2047
#
#
#
# Elastic Compliance Matrix: (Units=1/GPa)
#
#
# Indices 1 2 3 4 5 6 
#
# 1 0.020342 -0.002221 0.004786 0.013508 0.023953 0.007136
# 2 -0.002221 0.015256 0.009009 0.009028 0.008988 0.003481
# 3 0.004786 0.009009 0.081023 0.054380 0.083794 0.020004
# 4 0.013508 0.009028 0.054380 0.095910 0.070871 0.017655
# 5 0.023953 0.008988 0.083794 0.070871 0.144956 0.031473
# 6 0.007136 0.003481 0.020004 0.017655 0.031473 0.030740
#
#
# Mechanical properties :
#
#
# Convention : Reuss Voigt Hill
#
# Bulk Modulus (GPa) = 7.15472 31.00350 19.07911
# Shear Modulus (GPa) = 12.14567 28.08846 20.11707
#
# Velocity S-wave (km/s) = 2.49347 3.79191 3.20905
# Velocity P-wave (km/s) = 3.45723 5.91965 4.84740
#
# Compressibility (1/GPa) = 0.13976782
#
# Stress axis : x y z
#
# Youngs Moduli (GPa) = 49.15977 65.54831 12.34215
#
# Poissons Ratio (x) = 0.14561 -0.05907
# Poissons Ratio (y) = 0.10920 -0.11119
# Poissons Ratio (z) = -0.23527 -0.59052
#
# Static dielectric constant tensor:
#      x y z
#    x 1.757430 -0.008970 0.007320 
#    y -0.008970 1.817620 0.015780 
#    z 0.007320 0.015780 1.791510 
# 
# From -- ./inp_files/82662.got.cif
#   From: 2010.05.17/outbox.cif.g08.bks.cpg/sg2_42_cif.got.tgz:82662.got - 2010.06.03 11:33:40.
