data_PCOD9084956
_publ_section_title
;
Structure prediction by ZEFSAII (Michael W. Deem and Ramdas Pophale) SiO2 
 PCOD9084956
Probable space group: P -1
;
_chemical_formula_sum "Si O2"
_cell_formula_units_Z 16
_cell_length_a 18.522628
_cell_length_b 21.688614
_cell_length_c 9.012193
_cell_angle_alpha 61.159272
_cell_angle_beta 51.320053
_cell_angle_gamma 18.637265
_cell_volume 811.001851
_symmetry_space_group_name_H-M "P -1"
_symmetry_group_IT_number 2
_symmetry_cell_setting 'triclinic'
loop_
_space_group_symop_operation_xyz
x,y,z
-x,-y,-z
loop_
_atom_site_type_symbol
_atom_site_label
_atom_site_fract_x
_atom_site_fract_y
_atom_site_fract_z
Si Si1 0.052259 0.334525 0.150741
Si Si2 0.789934 0.000038 0.813720
Si Si3 0.137931 0.618607 0.929157
Si Si4 0.317337 0.702159 0.513266
Si Si5 0.477635 0.781240 0.540609
Si Si6 0.569153 0.062024 0.761967
Si Si7 0.031281 0.991672 0.796121
Si Si8 0.470962 0.323109 0.078546
O O1 0.997379 0.342518 0.048405
O O2 0.758383 0.563224 0.339543
O O3 0.206771 0.161802 0.246316
O O4 0.265405 0.246297 0.969427
O O5 0.963319 0.815483 0.896457
O O6 0.020606 0.894191 0.593877
O O7 0.646814 0.063140 0.787885
O O8 0.571656 0.192512 0.982233
O O9 0.458446 0.401950 0.710106
O O10 0.182990 0.562465 0.105650
O O11 0.500000 0.500000 0.500000
O O12 0.213894 0.802105 0.692141
O O13 0.424715 0.902040 0.444081
O O14 0.210497 0.933772 0.633346
O O15 0.525327 0.716057 0.719740
O O16 0.000000 0.000000 0.000000
O O17 0.710417 0.212451 0.897834
#
# Coordination Sequence:
#
# PCOD9084956 Si02
#       8
#     2   2   2   2   2   2   2   2
#     4  10  21  40  60  83 110 146 197 239 281 334
#     4   9  20  35  55  82 112 142 193 236 278 331
#     4  10  19  35  58  81 111 148 190 236 279 334
#     4   9  17  31  56  82 109 149 193 235 282 340
#     4  11  21  37  58  82 116 152 188 230 290 343
#     4  10  22  38  61  84 108 148 195 243 278 332
#     4   9  19  34  52  84 122 153 187 232 289 348
#     4  10  22  35  54  84 120 152 179 229 288 347
#
# _framework density 19.728684000000001
#
# number of rings (size 3 to 8) (size 9 to 14) (size 15 to 20)
#    0.000    2.250    1.250    1.125    1.750    2.000 
#    0.000    2.500    0.000   12.000    0.000    0.000 
#    0.000    0.000    0.000    0.000    0.000    0.000 
#
# Total GULP energy -89181.269271 kJ/mol
# GULP energy per Si atom -5573.829329 kJ/mol
# Density = 1.968378 g / cm^3
# Si number density = 19.728684 Si / 1000 Ang^3
#
#
#
# Elastic Constant Matrix: (Units=GPa)
#
#
# Indices 1 2 3 4 5 6 
#
# 1 73.5691 16.3736 35.1138 -11.9005 -19.2932 -7.3534
# 2 16.3736 88.0149 40.3650 -22.4270 -2.0478 -14.4731
# 3 35.1138 40.3650 77.3258 -20.6155 -19.2352 -3.4319
# 4 -11.9005 -22.4270 -20.6155 27.7745 -4.2879 4.9531
# 5 -19.2932 -2.0478 -19.2352 -4.2879 31.7137 3.5160
# 6 -7.3534 -14.4731 -3.4319 4.9531 3.5160 23.1223
#
#
#
# Elastic Compliance Matrix: (Units=1/GPa)
#
#
# Indices 1 2 3 4 5 6 
#
# 1 0.019694 0.001211 -0.005513 0.006113 0.009153 0.003501
# 2 0.001211 0.018383 -0.008917 0.006434 -0.003696 0.009752
# 3 -0.005513 -0.008917 0.027625 0.014964 0.015830 -0.008847
# 4 0.006113 0.006434 0.014964 0.059773 0.022177 -0.007984
# 5 0.009153 -0.003696 0.015830 0.022177 0.050513 -0.009485
# 6 0.003501 0.009752 -0.008847 -0.007984 -0.009485 0.052305
#
#
# Mechanical properties :
#
#
# Convention : Reuss Voigt Hill
#
# Bulk Modulus (GPa) = 25.46921 46.95719 36.21320
# Shear Modulus (GPa) = 18.66923 26.32594 22.49758
#
# Velocity S-wave (km/s) = 3.07953 3.65691 3.38057
# Velocity P-wave (km/s) = 5.05791 6.45630 5.79941
#
# Compressibility (1/GPa) = 0.03926310
#
# Stress axis : x y z
#
# Youngs Moduli (GPa) = 50.77776 54.39766 36.19869
#
# Poissons Ratio (x) = -0.06588 0.19957
# Poissons Ratio (y) = -0.06149 0.32280
# Poissons Ratio (z) = 0.27994 0.48509
#
# Static dielectric constant tensor:
#      x y z
#    x 1.694620 -0.013360 -0.014320 
#    y -0.013360 1.735480 -0.033680 
#    z -0.014320 -0.033680 1.700190 
# 
# From -- ./inp_files/302134.got.cif
#   From: 2010.05.17/outbox.cif.g08.bks.cpg/sg2_152_cif.got.tgz:302134.got - 2010.06.03 11:33:40.
