data_PCOD9084916
_publ_section_title
;
Structure prediction by ZEFSAII (Michael W. Deem and Ramdas Pophale) SiO2 
 PCOD9084916
Probable space group: P -1
;
_chemical_formula_sum "Si O2"
_cell_formula_units_Z 13
_cell_length_a 9.487293
_cell_length_b 8.966971
_cell_length_c 9.595341
_cell_angle_alpha 42.349458
_cell_angle_beta 105.553234
_cell_angle_gamma 90.854512
_cell_volume 508.205309
_symmetry_space_group_name_H-M "P -1"
_symmetry_group_IT_number 2
_symmetry_cell_setting 'triclinic'
loop_
_space_group_symop_operation_xyz
x,y,z
-x,-y,-z
loop_
_atom_site_type_symbol
_atom_site_label
_atom_site_fract_x
_atom_site_fract_y
_atom_site_fract_z
Si Si1 0.645089 0.085409 0.516513
Si Si2 0.666101 0.412782 0.536650
Si Si3 0.114264 0.152334 0.441975
Si Si4 0.686128 0.848017 0.049967
Si Si5 0.983930 0.403836 0.718549
Si Si6 0.500000 0.500000 0.000000
Si Si7 0.626978 0.154193 0.083412
O O1 0.665614 0.192900 0.595163
O O2 0.500000 0.000000 0.500000
O O3 0.790619 0.878518 0.653588
O O4 0.625313 0.302853 0.256280
O O5 0.500000 0.500000 0.500000
O O6 0.681170 0.626569 0.296944
O O7 0.820335 0.353411 0.710185
O O8 0.028025 0.401390 0.303581
O O9 0.240242 0.035612 0.673426
O O10 0.000000 0.000000 0.500000
O O11 0.858520 0.792878 0.081925
O O12 0.642346 0.068626 0.987856
O O13 0.544480 0.850960 0.907678
O O14 0.000000 0.500000 0.500000
O O15 0.391684 0.584071 0.058678
#
# Coordination Sequence:
#
# PCOD9084916 Si02
#       7
#     2   2   2   2   2   1   2
#     4  11  24  40  64  97 129 171 219 270 330 395
#     4  11  21  37  61  90 127 168 214 270 318 385
#     4  11  21  35  62  96 127 168 219 265 329 391
#     4  10  20  37  61  90 121 162 223 263 311 388
#     4  10  19  35  57  91 119 161 223 266 305 393
#     4  10  22  38  62  94 128 164 216 262 332 386
#     4  10  20  35  59  89 123 164 208 263 314 380
#
# _framework density 25.580213000000001
#
# number of rings (size 3 to 8) (size 9 to 14) (size 15 to 20)
#    0.000    1.538    4.615    2.769    4.308    0.000 
#    0.000    0.000    0.000   11.077    0.000    0.000 
#    0.000    0.000    0.000    0.000    0.000    0.000 
#
# Total GULP energy -72460.717090 kJ/mol
# GULP energy per Si atom -5573.901315 kJ/mol
# Density = 2.552199 g / cm^3
# Si number density = 25.580213 Si / 1000 Ang^3
#
#
#
# Elastic Constant Matrix: (Units=GPa)
#
#
# Indices 1 2 3 4 5 6 
#
# 1 174.7669 73.2926 24.1025 -7.1006 43.3021 14.4630
# 2 73.2926 172.7870 13.9643 -20.9789 24.8123 -19.9055
# 3 24.1025 13.9643 90.0740 -5.0172 30.8638 2.5305
# 4 -7.1006 -20.9789 -5.0172 45.8244 2.5244 15.5493
# 5 43.3021 24.8123 30.8638 2.5244 48.4196 -7.7410
# 6 14.4630 -19.9055 2.5305 15.5493 -7.7410 51.4325
#
#
#
# Elastic Compliance Matrix: (Units=1/GPa)
#
#
# Indices 1 2 3 4 5 6 
#
# 1 0.009840 -0.003371 0.001335 0.002781 -0.009083 -0.006345
# 2 -0.003371 0.007932 -0.000126 0.001991 -0.000540 0.003341
# 3 0.001335 -0.000126 0.015057 0.003813 -0.011575 -0.004060
# 4 0.002781 0.001991 0.003813 0.027411 -0.008939 -0.009831
# 5 -0.009083 -0.000540 -0.011575 -0.008939 0.038726 0.011446
# 6 -0.006345 0.003341 -0.004060 -0.009831 0.011446 0.027415
#
#
# Mechanical properties :
#
#
# Convention : Reuss Voigt Hill
#
# Bulk Modulus (GPa) = 35.08113 73.37185 54.22649
# Shear Modulus (GPa) = 35.66196 50.88654 43.27425
#
# Velocity S-wave (km/s) = 3.73785 4.46499 4.11750
# Velocity P-wave (km/s) = 5.68969 7.43820 6.62191
#
# Compressibility (1/GPa) = 0.02850536
#
# Stress axis : x y z
#
# Youngs Moduli (GPa) = 101.62556 126.07885 66.41516
#
# Poissons Ratio (x) = 0.42499 -0.08867
# Poissons Ratio (y) = 0.34256 0.00835
# Poissons Ratio (z) = -0.13567 0.01585
#
# Static dielectric constant tensor:
#      x y z
#    x 5.409600 2.600910 -3.924900 
#    y 2.600910 4.239120 -2.940980 
#    z -3.924900 -2.940980 6.558680 
# 
# From -- ./inp_files/375461.got.cif
#   From: 2010.05.17/outbox.cif.g08.bks.cpg/sg2_188_cif.got.tgz:375461.got - 2010.06.03 11:33:40.
