data_PCOD9084263
_publ_section_title
;
Structure prediction by ZEFSAII (Michael W. Deem and Ramdas Pophale) SiO2 
 PCOD9084263
Probable space group: P -1
;
_chemical_formula_sum "Si O2"
_cell_formula_units_Z 16
_cell_length_a 11.287468
_cell_length_b 10.806941
_cell_length_c 14.249472
_cell_angle_alpha 79.039476
_cell_angle_beta 51.835684
_cell_angle_gamma 123.645450
_cell_volume 661.575791
_symmetry_space_group_name_H-M "P -1"
_symmetry_group_IT_number 2
_symmetry_cell_setting 'triclinic'
loop_
_space_group_symop_operation_xyz
x,y,z
-x,-y,-z
loop_
_atom_site_type_symbol
_atom_site_label
_atom_site_fract_x
_atom_site_fract_y
_atom_site_fract_z
Si Si1 0.149527 0.422459 0.868904
Si Si2 0.683690 0.719720 0.152570
Si Si3 0.456880 0.126429 0.854403
Si Si4 0.174460 0.887764 0.561238
Si Si5 0.993592 0.418052 0.150221
Si Si6 0.469483 0.334291 0.958178
Si Si7 0.978192 0.004025 0.620813
Si Si8 0.339899 0.985844 0.255535
O O1 0.369805 0.458543 0.755337
O O2 0.205248 0.600610 0.770051
O O3 0.059639 0.391949 0.024644
O O4 0.848251 0.152216 0.001899
O O5 0.473412 0.692914 0.262786
O O6 0.702147 0.712224 0.032256
O O7 0.000000 0.000000 0.000000
O O8 0.686257 0.177560 0.738894
O O9 0.398962 0.141130 0.983658
O O10 0.172986 0.791790 0.662763
O O11 0.191216 0.049035 0.552493
O O12 0.355408 0.993433 0.361309
O O13 0.825057 0.613933 0.736209
O O14 0.328236 0.712472 0.977162
O O15 0.337949 0.263050 0.134425
O O16 0.935966 0.124549 0.627561
O O17 0.000000 0.000000 0.500000
#
# Coordination Sequence:
#
# PCOD9084263 Si02
#       8
#     2   2   2   2   2   2   2   2
#     4   9  17  35  57  87 110 155 201 235 290 344
#     4   8  16  32  56  84 114 153 195 231 283 349
#     4   8  19  34  55  85 114 156 191 235 285 345
#     4  11  22  36  58  90 117 153 191 241 300 342
#     4  10  20  35  61  86 115 154 191 247 292 337
#     4  10  19  34  62  87 115 160 187 232 304 350
#     4  10  21  35  54  86 120 149 190 239 288 346
#     4  10  21  37  54  89 123 147 197 237 286 353
#
# _framework density 24.184683
#
# number of rings (size 3 to 8) (size 9 to 14) (size 15 to 20)
#    0.750    1.750    1.250    1.125    1.750    1.000 
#    0.000    5.625    0.000    0.750    0.000    0.000 
#    0.000    0.000    0.000    0.000    0.000    0.000 
#
# Total GULP energy -89067.790204 kJ/mol
# GULP energy per Si atom -5566.736888 kJ/mol
# Density = 2.412964 g / cm^3
# Si number density = 24.184683 Si / 1000 Ang^3
#
#
#
# Elastic Constant Matrix: (Units=GPa)
#
#
# Indices 1 2 3 4 5 6 
#
# 1 195.4722 60.9769 38.0605 4.7804 22.9401 -58.1242
# 2 60.9769 100.5275 26.6779 -15.4494 4.5443 -27.5875
# 3 38.0605 26.6779 83.1852 -13.4078 32.9846 -6.9948
# 4 4.7804 -15.4494 -13.4078 22.0484 -14.3733 -0.8400
# 5 22.9401 4.5443 32.9846 -14.3733 38.8332 -3.9583
# 6 -58.1242 -27.5875 -6.9948 -0.8400 -3.9583 70.7056
#
#
#
# Elastic Compliance Matrix: (Units=1/GPa)
#
#
# Indices 1 2 3 4 5 6 
#
# 1 0.009920 -0.005840 -0.000845 -0.012023 -0.008381 0.005181
# 2 -0.005840 0.017899 -0.004840 0.019383 0.012912 0.002657
# 3 -0.000845 -0.004840 0.020265 -0.002075 -0.017075 -0.001559
# 4 -0.012023 0.019383 -0.002075 0.085207 0.038198 0.000624
# 5 -0.008381 0.012912 -0.017075 0.038198 0.057848 0.000151
# 6 0.005181 0.002657 -0.001559 0.000624 0.000151 0.019300
#
#
# Mechanical properties :
#
#
# Convention : Reuss Voigt Hill
#
# Bulk Modulus (GPa) = 39.94692 70.06840 55.00766
# Shear Modulus (GPa) = 20.67524 43.21541 31.94533
#
# Velocity S-wave (km/s) = 2.92702 4.23175 3.63835
# Velocity P-wave (km/s) = 5.28929 7.27407 6.35959
#
# Compressibility (1/GPa) = 0.02503322
#
# Stress axis : x y z
#
# Youngs Moduli (GPa) = 100.80275 55.86912 49.34609
#
# Poissons Ratio (x) = 0.32630 0.04169
# Poissons Ratio (y) = 0.58873 0.23885
# Poissons Ratio (z) = 0.08516 0.27043
#
# Static dielectric constant tensor:
#      x y z
#    x 2.079810 -0.028100 -0.020810 
#    y -0.028100 1.944810 -0.026790 
#    z -0.020810 -0.026790 1.928640 
# 
# From -- ./inp_files/518892.got.cif
#   From: 2010.05.17/outbox.cif.g08.bks.cpg/sg2_260_cif.got.tgz:518892.got - 2010.06.03 11:33:40.
