data_PCOD9084381
_publ_section_title
;
Structure prediction by ZEFSAII (Michael W. Deem and Ramdas Pophale) SiO2 
 PCOD9084381
Probable space group: P -1
;
_chemical_formula_sum "Si O2"
_cell_formula_units_Z 16
_cell_length_a 8.095219
_cell_length_b 8.756300
_cell_length_c 14.748017
_cell_angle_alpha 125.496853
_cell_angle_beta 69.657797
_cell_angle_gamma 126.546165
_cell_volume 683.760055
_symmetry_space_group_name_H-M "P -1"
_symmetry_group_IT_number 2
_symmetry_cell_setting 'triclinic'
loop_
_space_group_symop_operation_xyz
x,y,z
-x,-y,-z
loop_
_atom_site_type_symbol
_atom_site_label
_atom_site_fract_x
_atom_site_fract_y
_atom_site_fract_z
Si Si1 0.300796 0.306295 0.420848
Si Si2 0.570532 0.671575 0.129981
Si Si3 0.246894 0.413971 0.256919
Si Si4 0.282874 0.689473 0.852577
Si Si5 0.522738 0.083936 0.285736
Si Si6 0.270814 0.042474 0.071985
Si Si7 0.091580 0.525928 0.589418
Si Si8 0.976691 0.689142 0.119036
O O1 0.500000 0.500000 0.500000
O O2 0.288829 0.368489 0.337883
O O3 0.321010 0.092645 0.352663
O O4 0.128850 0.323892 0.516047
O O5 0.444510 0.578342 0.216496
O O6 0.804335 0.732910 0.125284
O O7 0.527890 0.868107 0.185475
O O8 0.500000 0.500000 0.000000
O O9 0.169011 0.187652 0.140164
O O10 0.073051 0.476068 0.311719
O O11 0.381393 0.742599 0.755115
O O12 0.482926 0.788358 0.915797
O O13 0.120788 0.437316 0.812865
O O14 0.204061 0.855636 0.946120
O O15 0.704689 0.230761 0.371629
O O16 0.194372 0.904560 0.132931
O O17 0.000000 0.500000 0.500000
O O18 0.000000 0.500000 0.000000
#
# Coordination Sequence:
#
# PCOD9084381 Si02
#       8
#     2   2   2   2   2   2   2   2
#     4   9  19  39  66  89 115 164 224 280 334 383
#     4  12  26  39  59  98 142 174 216 264 319 405
#     4  11  20  40  63  88 129 175 208 270 333 385
#     4  10  20  37  61  90 125 171 218 265 321 398
#     4  11  21  39  64  92 128 171 214 269 336 385
#     4  10  19  34  64  86 123 168 221 254 328 384
#     4   9  21  40  64  91 119 160 223 280 336 385
#     4  10  22  38  59  84 122 174 217 258 309 379
#
# _framework density 23.400023000000001
#
# number of rings (size 3 to 8) (size 9 to 14) (size 15 to 20)
#    0.000    1.750    2.500    1.500    3.500    2.000 
#    0.000   10.625    0.000    6.000    0.000    0.000 
#    0.000    0.000    0.000    0.000    0.000    0.000 
#
# Total GULP energy -89082.639239 kJ/mol
# GULP energy per Si atom -5567.664952 kJ/mol
# Density = 2.334676 g / cm^3
# Si number density = 23.400023 Si / 1000 Ang^3
#
#
#
# Elastic Constant Matrix: (Units=GPa)
#
#
# Indices 1 2 3 4 5 6 
#
# 1 94.9369 7.7877 55.4879 5.2342 -41.2516 -6.5349
# 2 7.7877 80.1471 12.4752 -4.6955 -20.8392 3.8403
# 3 55.4879 12.4752 121.3348 14.5304 -46.9217 -5.3286
# 4 5.2342 -4.6955 14.5304 26.5376 -2.2861 -7.5573
# 5 -41.2516 -20.8392 -46.9217 -2.2861 57.8215 2.6912
# 6 -6.5349 3.8403 -5.3286 -7.5573 2.6912 23.4183
#
#
#
# Elastic Compliance Matrix: (Units=1/GPa)
#
#
# Indices 1 2 3 4 5 6 
#
# 1 0.017053 0.001270 -0.004468 0.000869 0.008903 0.002791
# 2 0.001270 0.014191 0.000006 0.002232 0.006206 -0.001964
# 3 -0.004468 0.000006 0.014136 -0.006459 0.008079 -0.001044
# 4 0.000869 0.002232 -0.006459 0.044981 -0.002654 0.013228
# 5 0.008903 0.006206 0.008079 -0.002654 0.032393 -0.001274
# 6 0.002791 -0.001964 -0.001044 0.013228 -0.001274 0.047980
#
#
# Mechanical properties :
#
#
# Convention : Reuss Voigt Hill
#
# Bulk Modulus (GPa) = 25.64245 49.76894 37.70570
# Shear Modulus (GPa) = 26.29963 36.26668 31.28315
#
# Velocity S-wave (km/s) = 3.35612 3.94109 3.66031
# Velocity P-wave (km/s) = 5.09903 6.48263 5.83201
#
# Compressibility (1/GPa) = 0.03899784
#
# Stress axis : x y z
#
# Youngs Moduli (GPa) = 58.64039 70.46687 70.73975
#
# Poissons Ratio (x) = -0.08953 0.31606
# Poissons Ratio (y) = -0.07450 -0.00043
# Poissons Ratio (z) = 0.26200 -0.00043
#
# Static dielectric constant tensor:
#      x y z
#    x 2.027350 0.002610 -0.016230 
#    y 0.002610 1.965650 0.006010 
#    z -0.016230 0.006010 1.976410 
# 
# From -- ./inp_files/196131.got.cif
#   From: 2010.05.17/outbox.cif.g08.bks.cpg/sg2_99_cif.got.tgz:196131.got - 2010.06.03 11:33:40.
