data_PCOD9084837
_publ_section_title
;
Structure prediction by ZEFSAII (Michael W. Deem and Ramdas Pophale) SiO2 
 PCOD9084837
Probable space group: P -1
;
_chemical_formula_sum "Si O2"
_cell_formula_units_Z 16
_cell_length_a 14.193863
_cell_length_b 12.034458
_cell_length_c 15.611899
_cell_angle_alpha 152.046626
_cell_angle_beta 40.279086
_cell_angle_gamma 145.079537
_cell_volume 708.125624
_symmetry_space_group_name_H-M "P -1"
_symmetry_group_IT_number 2
_symmetry_cell_setting 'triclinic'
loop_
_space_group_symop_operation_xyz
x,y,z
-x,-y,-z
loop_
_atom_site_type_symbol
_atom_site_label
_atom_site_fract_x
_atom_site_fract_y
_atom_site_fract_z
Si Si1 0.845377 0.297612 0.411113
Si Si2 0.415213 0.974146 0.133755
Si Si3 0.507419 0.737031 0.057257
Si Si4 0.662053 0.381085 0.735244
Si Si5 0.857546 0.575175 0.124661
Si Si6 0.152110 0.230755 0.905276
Si Si7 0.955830 0.454385 0.702493
Si Si8 0.817959 0.895464 0.514570
O O1 0.684215 0.246115 0.542294
O O2 0.000000 0.500000 0.500000
O O3 0.875563 0.446476 0.400225
O O4 0.860506 0.027514 0.214215
O O5 0.326096 0.145509 0.345871
O O6 0.523750 0.956585 0.125477
O O7 0.260232 0.678989 0.024261
O O8 0.500000 0.000000 0.000000
O O9 0.644125 0.640101 0.897238
O O10 0.338792 0.465637 0.959528
O O11 0.478614 0.789935 0.212334
O O12 0.826994 0.471879 0.738087
O O13 0.887100 0.814737 0.200200
O O14 0.782450 0.640264 0.305617
O O15 0.000000 0.500000 0.000000
O O16 0.023832 0.330131 0.093391
O O17 0.856441 0.155004 0.605743
O O18 0.000000 0.000000 0.500000
#
# Coordination Sequence:
#
# PCOD9084837 Si02
#       8
#     2   2   2   2   2   2   2   2
#     4  10  20  31  53  88 116 148 197 249 298 354
#     4  11  24  43  63  95 129 163 213 273 314 369
#     4   9  19  37  59  78 119 160 197 241 313 368
#     4   9  17  34  57  80 113 156 194 234 303 371
#     4  11  21  40  66  94 120 168 216 256 318 382
#     4  10  19  35  57  83 119 159 195 253 303 367
#     4  10  19  37  56  89 122 154 200 254 307 363
#     4  12  22  41  70  88 125 172 214 261 318 384
#
# _framework density 22.594861999999999
#
# number of rings (size 3 to 8) (size 9 to 14) (size 15 to 20)
#    0.000    1.750    5.000    1.875    0.000    2.000 
#    4.500    0.000    5.500    0.000    0.000    0.000 
#    0.000    0.000    0.000    0.000    0.000    0.000 
#
# Total GULP energy -89088.606242 kJ/mol
# GULP energy per Si atom -5568.037890 kJ/mol
# Density = 2.254344 g / cm^3
# Si number density = 22.594862 Si / 1000 Ang^3
#
#
#
# Elastic Constant Matrix: (Units=GPa)
#
#
# Indices 1 2 3 4 5 6 
#
# 1 80.1333 4.0483 11.5573 -16.6618 -16.3966 -8.8673
# 2 4.0483 47.5668 14.6285 -20.3334 -5.0047 -14.9931
# 3 11.5573 14.6285 131.8665 -31.6717 2.5337 -8.8935
# 4 -16.6618 -20.3334 -31.6717 36.5093 -2.3271 14.5006
# 5 -16.3966 -5.0047 2.5337 -2.3271 31.6483 0.4158
# 6 -8.8673 -14.9931 -8.8935 14.5006 0.4158 16.3695
#
#
#
# Elastic Compliance Matrix: (Units=1/GPa)
#
#
# Indices 1 2 3 4 5 6 
#
# 1 0.016793 0.005282 0.000371 0.009349 0.010120 0.005597
# 2 0.005282 0.034140 0.000305 0.013450 0.008809 0.022158
# 3 0.000371 0.000305 0.009708 0.010017 0.000241 -0.003125
# 4 0.009349 0.013450 0.010017 0.061079 0.011074 -0.031560
# 5 0.010120 0.008809 0.000241 0.011074 0.038990 0.002880
# 6 0.005597 0.022158 -0.003125 -0.031560 0.002880 0.110603
#
#
# Mechanical properties :
#
#
# Convention : Reuss Voigt Hill
#
# Bulk Modulus (GPa) = 13.78214 35.55943 24.67078
# Shear Modulus (GPa) = 17.63163 32.19426 24.91294
#
# Velocity S-wave (km/s) = 2.79648 3.77881 3.32413
# Velocity P-wave (km/s) = 4.06694 5.90010 5.06711
#
# Compressibility (1/GPa) = 0.07255767
#
# Stress axis : x y z
#
# Youngs Moduli (GPa) = 59.54912 29.29084 103.01248
#
# Poissons Ratio (x) = -0.15472 -0.03819
# Poissons Ratio (y) = -0.31456 -0.03146
# Poissons Ratio (z) = -0.02208 -0.00894
#
# Static dielectric constant tensor:
#      x y z
#    x 1.888610 -0.082140 -0.004040 
#    y -0.082140 2.065450 -0.071450 
#    z -0.004040 -0.071450 2.178500 
# 
# From -- ./inp_files/532140.got.cif
#   From: 2010.05.17/outbox.cif.g08.bks.cpg/sg2_267_cif.got.tgz:532140.got - 2010.06.03 11:33:40.
