data_PCOD9084641
_publ_section_title
;
Structure prediction by ZEFSAII (Michael W. Deem and Ramdas Pophale) SiO2 
 PCOD9084641
Probable space group: P -1
;
_chemical_formula_sum "Si O2"
_cell_formula_units_Z 16
_cell_length_a 7.537139
_cell_length_b 16.052235
_cell_length_c 8.354257
_cell_angle_alpha 142.822736
_cell_angle_beta 85.823645
_cell_angle_gamma 89.423642
_cell_volume 605.266046
_symmetry_space_group_name_H-M "P -1"
_symmetry_group_IT_number 2
_symmetry_cell_setting 'triclinic'
loop_
_space_group_symop_operation_xyz
x,y,z
-x,-y,-z
loop_
_atom_site_type_symbol
_atom_site_label
_atom_site_fract_x
_atom_site_fract_y
_atom_site_fract_z
Si Si1 0.006306 0.612686 0.812995
Si Si2 0.556006 0.266449 0.391347
Si Si3 0.579690 0.348542 0.198064
Si Si4 0.112726 0.609139 0.301902
Si Si5 0.169755 0.088582 0.644885
Si Si6 0.865073 0.867368 0.651443
Si Si7 0.382235 0.544199 0.924530
Si Si8 0.734731 0.028559 0.215562
O O1 0.214217 0.638681 0.841797
O O2 0.000000 0.500000 0.500000
O O3 0.927080 0.536364 0.850513
O O4 0.897795 0.763436 0.041780
O O5 0.554477 0.231559 0.148789
O O6 0.745597 0.334110 0.497580
O O7 0.397384 0.390588 0.610366
O O8 0.590265 0.151902 0.349587
O O9 0.500000 0.500000 0.500000
O O10 0.512153 0.349634 0.023365
O O11 0.933267 0.710312 0.451511
O O12 0.205199 0.608019 0.121792
O O13 0.218157 0.110375 0.487238
O O14 0.294579 0.015093 0.665614
O O15 0.000000 0.000000 0.500000
O O16 0.059619 0.929492 0.730550
O O17 0.749429 0.926468 0.902840
O O18 0.500000 0.500000 0.000000
#
# Coordination Sequence:
#
# PCOD9084641 Si02
#       8
#     2   2   2   2   2   2   2   2
#     4  12  23  37  66  97 131 164 205 275 326 373
#     4   9  18  35  57  84 120 162 206 247 310 379
#     4  10  21  36  57  89 123 162 209 248 315 385
#     4  10  19  35  55  89 122 151 200 261 326 357
#     4  10  22  36  55  90 126 166 213 256 317 381
#     4   9  18  32  52  82 122 157 199 262 312 371
#     4   9  19  35  55  83 126 164 200 261 316 378
#     4   9  18  33  54  80 121 164 207 254 302 375
#
# _framework density 26.434656
#
# number of rings (size 3 to 8) (size 9 to 14) (size 15 to 20)
#    0.000    2.250    1.250    1.500    5.250    3.000 
#    0.000    0.000    0.000    0.750    3.250    7.875 
#    0.000    0.000    0.000    0.000    0.000    0.000 
#
# Total GULP energy -89232.035528 kJ/mol
# GULP energy per Si atom -5577.002221 kJ/mol
# Density = 2.637449 g / cm^3
# Si number density = 26.434656 Si / 1000 Ang^3
#
#
#
# Elastic Constant Matrix: (Units=GPa)
#
#
# Indices 1 2 3 4 5 6 
#
# 1 63.8472 21.8983 2.9614 -14.5359 1.4683 9.3863
# 2 21.8983 189.1890 51.7029 -16.5824 -14.1427 4.8876
# 3 2.9614 51.7029 94.6479 -10.5268 -7.3698 3.7031
# 4 -14.5359 -16.5824 -10.5268 48.7058 -0.7710 -1.9732
# 5 1.4683 -14.1427 -7.3698 -0.7710 28.4880 -10.5332
# 6 9.3863 4.8876 3.7031 -1.9732 -10.5332 16.4130
#
#
#
# Elastic Compliance Matrix: (Units=1/GPa)
#
#
# Indices 1 2 3 4 5 6 
#
# 1 0.019869 -0.002384 0.001216 0.004654 -0.007342 -0.015080
# 2 -0.002384 0.006763 -0.003325 0.001031 0.003580 0.002521
# 3 0.001216 -0.003325 0.012702 0.001923 0.000996 -0.001701
# 4 0.004654 0.001031 0.001923 0.022722 0.001490 0.000286
# 5 -0.007342 0.003580 0.000996 0.001490 0.050737 0.035648
# 6 -0.015080 0.002521 -0.001701 0.000286 0.035648 0.092097
#
#
# Mechanical properties :
#
#
# Convention : Reuss Voigt Hill
#
# Bulk Modulus (GPa) = 32.94990 55.64547 44.29769
# Shear Modulus (GPa) = 22.32235 36.79613 29.55924
#
# Velocity S-wave (km/s) = 2.90907 3.73495 3.34758
# Velocity P-wave (km/s) = 4.87599 6.30045 5.63343
#
# Compressibility (1/GPa) = 0.03034910
#
# Stress axis : x y z
#
# Youngs Moduli (GPa) = 50.33001 147.85838 78.72935
#
# Poissons Ratio (x) = 0.35243 -0.09576
# Poissons Ratio (y) = 0.11996 0.26178
# Poissons Ratio (z) = -0.06122 0.49164
#
# Static dielectric constant tensor:
#      x y z
#    x 2.192660 -0.089400 0.031070 
#    y -0.089400 2.256140 -0.199930 
#    z 0.031070 -0.199930 2.393920 
# 
# From -- ./inp_files/282559.got.cif
#   From: 2010.05.17/outbox.cif.g08.bks.cpg/sg2_142_cif.got.tgz:282559.got - 2010.06.03 11:33:40.
