data_PCOD9084875
_publ_section_title
;
Structure prediction by ZEFSAII (Michael W. Deem and Ramdas Pophale) SiO2 
 PCOD9084875
Probable space group: P -1
;
_chemical_formula_sum "Si O2"
_cell_formula_units_Z 16
_cell_length_a 14.771498
_cell_length_b 23.157675
_cell_length_c 5.708076
_cell_angle_alpha 69.949012
_cell_angle_beta 53.777592
_cell_angle_gamma 26.457300
_cell_volume 600.314076
_symmetry_space_group_name_H-M "P -1"
_symmetry_group_IT_number 2
_symmetry_cell_setting 'triclinic'
loop_
_space_group_symop_operation_xyz
x,y,z
-x,-y,-z
loop_
_atom_site_type_symbol
_atom_site_label
_atom_site_fract_x
_atom_site_fract_y
_atom_site_fract_z
Si Si1 0.789770 0.005141 0.054983
Si Si2 0.237910 0.870046 0.623746
Si Si3 0.740373 0.535774 0.276565
Si Si4 0.627002 0.368005 0.525240
Si Si5 0.654794 0.043912 0.724013
Si Si6 0.095126 0.283996 0.403004
Si Si7 0.180016 0.353420 0.532276
Si Si8 0.212847 0.682182 0.149319
O O1 0.794146 0.970886 0.355031
O O2 0.513840 0.187670 0.256847
O O3 0.737397 0.985181 0.947015
O O4 0.052690 0.914851 0.695839
O O5 0.516609 0.694020 0.501357
O O6 0.340841 0.883702 0.353851
O O7 0.000000 0.000000 0.000000
O O8 0.605018 0.568776 0.215064
O O9 0.824386 0.442935 0.461575
O O10 0.027865 0.421702 0.917513
O O11 0.500000 0.500000 0.500000
O O12 0.792194 0.282744 0.635688
O O13 0.763583 0.292364 0.164398
O O14 0.357892 0.159752 0.002850
O O15 0.137843 0.311728 0.505693
O O16 0.028188 0.247606 0.614092
O O17 0.000000 0.500000 0.500000
O O18 0.500000 0.500000 0.000000
#
# Coordination Sequence:
#
# PCOD9084875 Si02
#       8
#     2   2   2   2   2   2   2   2
#     4  10  21  41  56  82 119 167 201 247 297 353
#     4  10  24  42  60  85 128 172 209 250 300 375
#     4  12  22  38  63  92 124 167 212 255 316 373
#     4  10  20  36  58  90 125 156 196 262 320 369
#     4  10  21  38  61  83 121 162 207 245 303 363
#     4  11  22  34  61  94 124 162 201 262 321 370
#     4  11  24  36  60  92 128 164 214 261 304 370
#     4  10  19  35  57  86 130 151 194 255 331 366
#
# _framework density 26.652715000000001
#
# number of rings (size 3 to 8) (size 9 to 14) (size 15 to 20)
#    0.000    1.500    3.750    3.375    3.500    1.000 
#    2.250    0.000    0.000    0.000    0.000   28.875 
#    0.000    0.000    0.000    0.000    0.000    0.000 
#
# Total GULP energy -89312.651786 kJ/mol
# GULP energy per Si atom -5582.040737 kJ/mol
# Density = 2.659205 g / cm^3
# Si number density = 26.652715 Si / 1000 Ang^3
#
#
#
# Elastic Constant Matrix: (Units=GPa)
#
#
# Indices 1 2 3 4 5 6 
#
# 1 104.8155 18.1822 28.7766 -2.7166 0.7243 -13.5192
# 2 18.1822 89.4295 33.2665 -15.3041 10.6438 -18.9620
# 3 28.7766 33.2665 171.0090 14.5234 -0.9000 -0.6362
# 4 -2.7166 -15.3041 14.5234 55.0414 0.4359 8.1165
# 5 0.7243 10.6438 -0.9000 0.4359 67.9451 -3.8992
# 6 -13.5192 -18.9620 -0.6362 8.1165 -3.8992 42.3496
#
#
#
# Elastic Compliance Matrix: (Units=1/GPa)
#
#
# Indices 1 2 3 4 5 6 
#
# 1 0.010517 -0.000903 -0.001605 0.000263 0.000173 0.002894
# 2 -0.000903 0.014521 -0.003007 0.004034 -0.002032 0.005208
# 3 -0.001605 -0.003007 0.006919 -0.002566 0.000527 -0.001214
# 4 0.000263 0.004034 -0.002566 0.020300 -0.000921 -0.002124
# 5 0.000173 -0.002032 0.000527 -0.000921 0.015088 0.000719
# 6 0.002894 0.005208 -0.001214 -0.002124 0.000719 0.027324
#
#
# Mechanical properties :
#
#
# Convention : Reuss Voigt Hill
#
# Bulk Modulus (GPa) = 47.78500 58.41163 53.09832
# Shear Modulus (GPa) = 44.37625 52.06913 48.22269
#
# Velocity S-wave (km/s) = 4.08484 4.42477 4.25820
# Velocity P-wave (km/s) = 6.34158 6.93312 6.64394
#
# Compressibility (1/GPa) = 0.02092707
#
# Stress axis : x y z
#
# Youngs Moduli (GPa) = 95.08663 68.86813 144.53506
#
# Poissons Ratio (x) = 0.06219 0.23194
# Poissons Ratio (y) = 0.08587 0.43457
# Poissons Ratio (z) = 0.15259 0.20706
#
# Static dielectric constant tensor:
#      x y z
#    x 2.212950 -0.044020 -0.014440 
#    y -0.044020 2.247600 0.121610 
#    z -0.014440 0.121610 2.193570 
# 
# From -- ./inp_files/101492.got.cif
#   From: 2010.05.17/outbox.cif.g08.bks.cpg/sg2_51_cif.got.tgz:101492.got - 2010.06.03 11:33:40.
