data_PCOD9084897
_publ_section_title
;
Structure prediction by ZEFSAII (Michael W. Deem and Ramdas Pophale) SiO2 
 PCOD9084897
Probable space group: P -1
;
_chemical_formula_sum "Si O2"
_cell_formula_units_Z 16
_cell_length_a 16.136343
_cell_length_b 10.476609
_cell_length_c 8.592398
_cell_angle_alpha 81.064796
_cell_angle_beta 78.861224
_cell_angle_gamma 143.733072
_cell_volume 711.764601
_symmetry_space_group_name_H-M "P -1"
_symmetry_group_IT_number 2
_symmetry_cell_setting 'triclinic'
loop_
_space_group_symop_operation_xyz
x,y,z
-x,-y,-z
loop_
_atom_site_type_symbol
_atom_site_label
_atom_site_fract_x
_atom_site_fract_y
_atom_site_fract_z
Si Si1 0.480517 0.277042 0.684204
Si Si2 0.506512 0.612422 0.676326
Si Si3 0.858427 0.246833 0.201078
Si Si4 0.967492 0.756929 0.975323
Si Si5 0.704771 0.281169 0.377943
Si Si6 0.795255 0.594402 0.563151
Si Si7 0.193982 0.191374 0.065044
Si Si8 0.145607 0.037094 0.466415
O O1 0.466798 0.409268 0.699558
O O2 0.606550 0.367468 0.732456
O O3 0.303662 0.978196 0.805341
O O4 0.381471 0.474424 0.888102
O O5 0.465159 0.644867 0.534379
O O6 0.706815 0.870776 0.572100
O O7 0.199903 0.531821 0.841806
O O8 0.794096 0.257480 0.358031
O O9 0.932550 0.199549 0.192602
O O10 0.000000 0.500000 0.000000
O O11 0.909574 0.814843 0.915901
O O12 0.098463 0.964227 0.027867
O O13 0.766828 0.456369 0.460370
O O14 0.500000 0.000000 0.500000
O O15 0.832393 0.797432 0.478963
O O16 0.948879 0.748108 0.579032
O O17 0.187518 0.132643 0.253164
#
# Coordination Sequence:
#
# PCOD9084897 Si02
#       8
#     2   2   2   2   2   2   2   2
#     4  10  19  35  57  88 122 144 202 249 289 349
#     4  10  21  33  57  90 117 156 190 250 304 349
#     4  10  21  35  55  92 120 155 190 254 291 341
#     4  10  22  35  58  94 118 151 203 248 302 341
#     4  11  20  36  62  88 118 155 204 249 282 355
#     4  10  20  36  56  89 113 156 200 238 303 345
#     4  11  20  35  60  84 125 154 193 253 302 358
#     4  10  22  36  57  87 127 153 188 254 308 356
#
# _framework density 22.479340000000001
#
# number of rings (size 3 to 8) (size 9 to 14) (size 15 to 20)
#    0.000    1.750    3.750    1.125    1.750    2.000 
#    0.000    0.000    0.000    3.750    6.500    0.000 
#    0.000    0.000    0.000    0.000    0.000    0.000 
#
# Total GULP energy -89128.136155 kJ/mol
# GULP energy per Si atom -5570.508510 kJ/mol
# Density = 2.242818 g / cm^3
# Si number density = 22.479340 Si / 1000 Ang^3
#
#
#
# Elastic Constant Matrix: (Units=GPa)
#
#
# Indices 1 2 3 4 5 6 
#
# 1 88.3468 55.2857 31.6450 7.1897 -28.0189 6.6833
# 2 55.2857 125.6919 50.2356 -10.6905 -28.1703 17.5243
# 3 31.6450 50.2356 115.3574 -17.8213 -23.7470 8.9062
# 4 7.1897 -10.6905 -17.8213 45.8273 -0.3208 -19.7914
# 5 -28.0189 -28.1703 -23.7470 -0.3208 34.2818 0.9930
# 6 6.6833 17.5243 8.9062 -19.7914 0.9930 38.0769
#
#
#
# Elastic Compliance Matrix: (Units=1/GPa)
#
#
# Indices 1 2 3 4 5 6 
#
# 1 0.019546 -0.005668 -0.001472 -0.006720 0.010358 -0.004241
# 2 -0.005668 0.013203 -0.002797 0.001226 0.004403 -0.003905
# 3 -0.001472 -0.002797 0.011916 0.004714 0.004765 0.001085
# 4 -0.006720 0.001226 0.004714 0.031965 -0.001389 0.016164
# 5 0.010358 0.004403 0.004765 -0.001389 0.044740 -0.006848
# 6 -0.004241 -0.003905 0.001085 0.016164 -0.006848 0.037131
#
#
# Mechanical properties :
#
#
# Convention : Reuss Voigt Hill
#
# Bulk Modulus (GPa) = 40.33883 67.08098 53.70991
# Shear Modulus (GPa) = 26.78978 36.45254 31.62116
#
# Velocity S-wave (km/s) = 3.45592 4.03128 3.75464
# Velocity P-wave (km/s) = 5.82308 7.18152 6.53768
#
# Compressibility (1/GPa) = 0.02479001
#
# Stress axis : x y z
#
# Youngs Moduli (GPa) = 51.16205 75.74320 83.91922
#
# Poissons Ratio (x) = 0.42929 0.12355
# Poissons Ratio (y) = 0.28997 0.23475
# Poissons Ratio (z) = 0.07532 0.21188
#
# Static dielectric constant tensor:
#      x y z
#    x 1.884150 -0.027310 -0.025830 
#    y -0.027310 1.883300 -0.000750 
#    z -0.025830 -0.000750 1.925280 
# 
# From -- ./inp_files/446067.got.cif
#   From: 2010.05.17/outbox.cif.g08.bks.cpg/sg2_224_cif.got.tgz:446067.got - 2010.06.03 11:33:40.
