data_PCOD9084327
_publ_section_title
;
Structure prediction by ZEFSAII (Michael W. Deem and Ramdas Pophale) SiO2 
 PCOD9084327
Probable space group: P -1
;
_chemical_formula_sum "Si O2"
_cell_formula_units_Z 14
_cell_length_a 22.576630
_cell_length_b 5.188881
_cell_length_c 8.742465
_cell_angle_alpha 86.903088
_cell_angle_beta 43.835254
_cell_angle_gamma 76.121764
_cell_volume 677.741899
_symmetry_space_group_name_H-M "P -1"
_symmetry_group_IT_number 2
_symmetry_cell_setting 'triclinic'
loop_
_space_group_symop_operation_xyz
x,y,z
-x,-y,-z
loop_
_atom_site_type_symbol
_atom_site_label
_atom_site_fract_x
_atom_site_fract_y
_atom_site_fract_z
Si Si1 0.004662 0.420579 0.675196
Si Si2 0.467697 0.785329 0.473778
Si Si3 0.174721 0.625003 0.824260
Si Si4 0.603865 0.975540 0.852179
Si Si5 0.065728 0.868360 0.739687
Si Si6 0.712887 0.982857 0.351557
Si Si7 0.570886 0.502391 0.002023
O O1 0.030535 0.657240 0.712967
O O2 0.000000 0.500000 0.500000
O O3 0.069233 0.122428 0.617502
O O4 0.909506 0.401215 0.918279
O O5 0.500000 0.500000 0.500000
O O6 0.519354 0.699574 0.222197
O O7 0.500000 0.000000 0.500000
O O8 0.362924 0.900389 0.636030
O O9 0.248243 0.338120 0.716124
O O10 0.211124 0.868331 0.805207
O O11 0.148876 0.694464 0.691956
O O12 0.659883 0.052946 0.608735
O O13 0.606204 0.183546 0.977138
O O14 0.500000 0.000000 0.000000
O O15 0.642084 0.654905 0.816142
O O16 0.000000 0.000000 0.000000
O O17 0.500000 0.500000 0.000000
#
# Coordination Sequence:
#
# PCOD9084327 Si02
#       7
#     2   2   2   2   2   2   2
#     4  11  22  41  73  97 135 174 203 246 316 402
#     4  12  25  39  62  90 121 171 222 262 322 394
#     4  11  23  39  67  98 127 165 217 267 321 364
#     4  10  19  34  63  84 110 153 219 254 300 369
#     4  10  20  40  68 103 127 166 220 251 292 399
#     4  12  23  39  65  92 128 163 214 280 326 363
#     4  10  19  36  62  82 108 147 223 257 294 374
#
# _framework density 20.656829999999999
#
# number of rings (size 3 to 8) (size 9 to 14) (size 15 to 20)
#    0.000    1.143    2.857    7.286    4.000    0.000 
#    0.000    0.000   31.429    0.000    0.000    0.000 
#    0.000    0.000    0.000    0.000    0.000    0.000 
#
# Total GULP energy -77951.177065 kJ/mol
# GULP energy per Si atom -5567.941219 kJ/mol
# Density = 2.060981 g / cm^3
# Si number density = 20.656830 Si / 1000 Ang^3
#
#
#
# Elastic Constant Matrix: (Units=GPa)
#
#
# Indices 1 2 3 4 5 6 
#
# 1 108.0905 51.9990 26.6588 -10.5533 22.2814 -7.2394
# 2 51.9990 190.0260 19.3206 -13.0391 21.8988 5.1595
# 3 26.6588 19.3206 57.4619 -9.2845 17.0058 -2.3461
# 4 -10.5533 -13.0391 -9.2845 32.5620 -4.1422 3.9502
# 5 22.2814 21.8988 17.0058 -4.1422 30.7256 3.4508
# 6 -7.2394 5.1595 -2.3461 3.9502 3.4508 51.5271
#
#
#
# Elastic Compliance Matrix: (Units=1/GPa)
#
#
# Indices 1 2 3 4 5 6 
#
# 1 0.012648 -0.002456 -0.003029 0.001247 -0.005822 0.002179
# 2 -0.002456 0.006348 -0.000079 0.001534 -0.002387 -0.000942
# 3 -0.003029 -0.000079 0.022396 0.004023 -0.009706 0.000944
# 4 0.001247 0.001534 0.004023 0.033231 0.000522 -0.002378
# 5 -0.005822 -0.002387 -0.009706 0.000522 0.044365 -0.004032
# 6 0.002179 -0.000942 0.000944 -0.002378 -0.004032 0.020303
#
#
# Mechanical properties :
#
#
# Convention : Reuss Voigt Hill
#
# Bulk Modulus (GPa) = 33.04176 61.28169 47.16173
# Shear Modulus (GPa) = 31.15139 40.13628 35.64384
#
# Velocity S-wave (km/s) = 3.88757 4.41273 4.15845
# Velocity P-wave (km/s) = 6.01508 7.46283 6.77772
#
# Compressibility (1/GPa) = 0.03026473
#
# Stress axis : x y z
#
# Youngs Moduli (GPa) = 79.06620 157.51878 44.65134
#
# Poissons Ratio (x) = 0.38681 0.13523
# Poissons Ratio (y) = 0.19416 0.00354
# Poissons Ratio (z) = 0.23946 0.01249
#
# Static dielectric constant tensor:
#      x y z
#    x 1.639680 0.023920 -0.173710 
#    y 0.023920 1.807680 0.147990 
#    z -0.173710 0.147990 1.584720 
# 
# From -- ./inp_files/339839.got.cif
#   From: 2010.05.17/outbox.cif.g08.bks.cpg/sg2_170_cif.got.tgz:339839.got - 2010.06.03 11:33:40.
