data_PCOD9084155
_publ_section_title
;
Structure prediction by ZEFSAII (Michael W. Deem and Ramdas Pophale) SiO2 
 PCOD9084155
Probable space group: P -1
;
_chemical_formula_sum "Si O2"
_cell_formula_units_Z 16
_cell_length_a 21.234836
_cell_length_b 14.621518
_cell_length_c 9.103669
_cell_angle_alpha 30.186533
_cell_angle_beta 145.988303
_cell_angle_gamma 154.601643
_cell_volume 594.243782
_symmetry_space_group_name_H-M "P -1"
_symmetry_group_IT_number 2
_symmetry_cell_setting 'triclinic'
loop_
_space_group_symop_operation_xyz
x,y,z
-x,-y,-z
loop_
_atom_site_type_symbol
_atom_site_label
_atom_site_fract_x
_atom_site_fract_y
_atom_site_fract_z
Si Si1 0.754808 0.668332 0.955649
Si Si2 0.960047 0.025101 0.079960
Si Si3 0.781904 0.034346 0.954187
Si Si4 0.766087 0.180828 0.027818
Si Si5 0.693157 0.312809 0.102137
Si Si6 0.507941 0.129443 0.485388
Si Si7 0.028148 0.586846 0.627347
Si Si8 0.470148 0.316886 0.569840
O O1 0.688023 0.420681 0.094722
O O2 0.625784 0.670725 0.745895
O O3 0.857022 0.765855 0.160420
O O4 0.868564 0.851397 0.789133
O O5 0.888274 0.999346 0.131655
O O6 0.952397 0.201354 0.716279
O O7 0.608509 0.835692 0.840315
O O8 0.866121 0.315621 0.681589
O O9 0.784623 0.059289 0.098767
O O10 0.913472 0.351798 0.177097
O O11 0.643277 0.955650 0.209265
O O12 0.680773 0.270648 0.674833
O O13 0.623211 0.374280 0.761263
O O14 0.585587 0.032384 0.325546
O O15 0.854159 0.422825 0.209272
O O16 0.500000 0.000000 0.500000
O O17 0.500000 0.500000 0.500000
#
# Coordination Sequence:
#
# PCOD9084155 Si02
#       8
#     2   2   2   2   2   2   2   2
#     4  10  20  36  54  84 112 151 195 234 276 345
#     4  11  21  34  61  82 116 151 196 233 287 346
#     4  11  21  37  57  87 124 153 185 245 299 344
#     4  10  22  37  57  88 121 152 194 240 296 342
#     4  10  19  34  61  85 114 145 197 241 292 334
#     4   9  19  35  57  85 120 152 187 239 302 340
#     4  12  21  36  62  95 114 150 197 246 288 349
#     4   9  19  37  60  80 115 156 193 237 287 344
#
# _framework density 26.924979
#
# number of rings (size 3 to 8) (size 9 to 14) (size 15 to 20)
#    0.000    1.750    3.750    1.500    0.000    3.000 
#    0.000    0.625    0.000   13.500    0.000    0.000 
#    0.000    0.000    0.000    0.000    0.000    0.000 
#
# Total GULP energy -89249.147868 kJ/mol
# GULP energy per Si atom -5578.071742 kJ/mol
# Density = 2.686370 g / cm^3
# Si number density = 26.924979 Si / 1000 Ang^3
#
#
#
# Elastic Constant Matrix: (Units=GPa)
#
#
# Indices 1 2 3 4 5 6 
#
# 1 138.7733 13.9562 33.4886 10.4991 -5.8496 -0.0768
# 2 13.9562 64.9827 40.7576 14.2066 -1.1394 -1.9832
# 3 33.4886 40.7576 83.5820 25.0187 12.3681 17.1274
# 4 10.4991 14.2066 25.0187 33.3353 2.5602 -5.6723
# 5 -5.8496 -1.1394 12.3681 2.5602 35.4384 10.5456
# 6 -0.0768 -1.9832 17.1274 -5.6723 10.5456 44.7299
#
#
#
# Elastic Compliance Matrix: (Units=1/GPa)
#
#
# Indices 1 2 3 4 5 6 
#
# 1 0.008293 0.001127 -0.004644 0.000409 0.002616 0.001278
# 2 0.001127 0.024150 -0.014183 0.000627 0.004203 0.005592
# 3 -0.004644 -0.014183 0.028924 -0.015767 -0.006558 -0.012166
# 4 0.000409 0.000627 -0.015767 0.043534 -0.001078 0.011841
# 5 0.002616 0.004203 -0.006558 -0.001078 0.032681 -0.005140
# 6 0.001278 0.005592 -0.012166 0.011841 -0.005140 0.029978
#
#
# Mechanical properties :
#
#
# Convention : Reuss Voigt Hill
#
# Bulk Modulus (GPa) = 38.51054 51.52699 45.01877
# Shear Modulus (GPa) = 23.62764 35.97641 29.80203
#
# Velocity S-wave (km/s) = 2.96554 3.65933 3.33055
# Velocity P-wave (km/s) = 5.10488 6.08548 5.61662
#
# Compressibility (1/GPa) = 0.02596692
#
# Stress axis : x y z
#
# Youngs Moduli (GPa) = 120.57898 41.40792 34.57302
#
# Poissons Ratio (x) = -0.04666 0.16055
# Poissons Ratio (y) = -0.13587 0.49036
# Poissons Ratio (z) = 0.55995 0.58730
#
# Static dielectric constant tensor:
#      x y z
#    x 2.110020 -0.025360 0.013850 
#    y -0.025360 2.233160 0.063300 
#    z 0.013850 0.063300 2.233540 
# 
# From -- ./inp_files/177856.got.cif
#   From: 2010.05.17/outbox.cif.g08.bks.cpg/sg2_89_cif.got.tgz:177856.got - 2010.06.03 11:33:40.
