data_PCOD9084139
_publ_section_title
;
Structure prediction by ZEFSAII (Michael W. Deem and Ramdas Pophale) SiO2 
 PCOD9084139
Probable space group: P -1
;
_chemical_formula_sum "Si O2"
_cell_formula_units_Z 12
_cell_length_a 11.499968
_cell_length_b 8.525844
_cell_length_c 7.382679
_cell_angle_alpha 53.006310
_cell_angle_beta 50.159733
_cell_angle_gamma 64.556097
_cell_volume 442.764021
_symmetry_space_group_name_H-M "P -1"
_symmetry_group_IT_number 2
_symmetry_cell_setting 'triclinic'
loop_
_space_group_symop_operation_xyz
x,y,z
-x,-y,-z
loop_
_atom_site_type_symbol
_atom_site_label
_atom_site_fract_x
_atom_site_fract_y
_atom_site_fract_z
Si Si1 0.057649 0.395923 0.696950
Si Si2 0.089207 0.244953 0.257712
Si Si3 0.620984 0.975903 0.059706
Si Si4 0.911969 0.075278 0.239673
Si Si5 0.365364 0.593144 0.322083
Si Si6 0.400696 0.714429 0.624797
O O1 0.225735 0.461623 0.515786
O O2 0.000000 0.500000 0.500000
O O3 0.938560 0.522061 0.860971
O O4 0.038375 0.168145 0.921984
O O5 0.948961 0.173774 0.331199
O O6 0.095042 0.143435 0.520926
O O7 0.238265 0.161075 0.061955
O O8 0.534039 0.863877 0.376711
O O9 0.500000 0.000000 0.000000
O O10 0.660131 0.199065 0.900757
O O11 0.753279 0.162223 0.257206
O O12 0.372930 0.641142 0.496547
O O13 0.527852 0.473499 0.206038
#
# Coordination Sequence:
#
# PCOD9084139 Si02
#       6
#     2   2   2   2   2   2
#     4  12  27  42  59  87 132 175 203 240 303 374
#     4  11  21  39  64  94 122 154 211 261 299 361
#     4  10  19  34  60  97 118 145 191 261 321 344
#     4  11  22  38  66  97 115 159 210 262 309 347
#     4  10  20  37  59  91 124 154 196 252 310 352
#     4  10  20  34  64  99 119 145 196 270 313 348
#
# _framework density 27.102471000000001
#
# number of rings (size 3 to 8) (size 9 to 14) (size 15 to 20)
#    0.000    1.333    5.000    2.500    7.000    0.667 
#    0.000    0.833    0.000    2.000    0.000    0.000 
#    0.000    0.000    0.000    0.000    0.000    0.000 
#
# Total GULP energy -67154.525597 kJ/mol
# GULP energy per Si atom -5596.210466 kJ/mol
# Density = 2.704078 g / cm^3
# Si number density = 27.102471 Si / 1000 Ang^3
#
#
#
# Elastic Constant Matrix: (Units=GPa)
#
#
# Indices 1 2 3 4 5 6 
#
# 1 104.6154 34.3626 49.4876 -4.0481 -3.3828 -30.7358
# 2 34.3626 98.1067 6.5904 -17.5680 -17.7067 -32.9900
# 3 49.4876 6.5904 109.7488 -20.5695 -4.1694 5.8734
# 4 -4.0481 -17.5680 -20.5695 46.1267 4.1771 -11.3384
# 5 -3.3828 -17.7067 -4.1694 4.1771 58.3146 2.1916
# 6 -30.7358 -32.9900 5.8734 -11.3384 2.1916 35.3233
#
#
#
# Elastic Compliance Matrix: (Units=1/GPa)
#
#
# Indices 1 2 3 4 5 6 
#
# 1 0.020121 0.001375 -0.009700 0.003252 -0.000148 0.021458
# 2 0.001375 0.021857 -0.000485 0.014184 0.004691 0.025953
# 3 -0.009700 -0.000485 0.014632 0.002877 0.000522 -0.010435
# 4 0.003252 0.014184 0.002877 0.035131 0.001177 0.026802
# 5 -0.000148 0.004691 0.000522 0.001177 0.018389 0.003402
# 6 0.021458 0.025953 -0.010435 0.026802 0.003402 0.081347
#
#
# Mechanical properties :
#
#
# Convention : Reuss Voigt Hill
#
# Bulk Modulus (GPa) = 25.64670 54.81691 40.23181
# Shear Modulus (GPa) = 22.51293 42.75495 32.63394
#
# Velocity S-wave (km/s) = 2.88524 3.97612 3.47377
# Velocity P-wave (km/s) = 4.53684 6.43033 5.56471
#
# Compressibility (1/GPa) = 0.03899137
#
# Stress axis : x y z
#
# Youngs Moduli (GPa) = 49.69923 45.75121 68.34261
#
# Poissons Ratio (x) = -0.06293 0.66292
# Poissons Ratio (y) = -0.06836 0.03315
# Poissons Ratio (z) = 0.48208 0.02219
#
# Static dielectric constant tensor:
#      x y z
#    x 2.129160 0.120880 0.022570 
#    y 0.120880 2.216600 0.037240 
#    z 0.022570 0.037240 2.116480 
# 
# From -- ./inp_files/191055.got.cif
#   From: 2010.05.17/outbox.cif.g08.bks.cpg/sg2_96_cif.got.tgz:191055.got - 2010.06.03 11:33:40.
