data_PCOD9084656
_publ_section_title
;
Structure prediction by ZEFSAII (Michael W. Deem and Ramdas Pophale) SiO2 
 PCOD9084656
Probable space group: P -1
;
_chemical_formula_sum "Si O2"
_cell_formula_units_Z 12
_cell_length_a 11.154841
_cell_length_b 17.781730
_cell_length_c 14.012748
_cell_angle_alpha 30.225724
_cell_angle_beta 42.501205
_cell_angle_gamma 26.473855
_cell_volume 615.590433
_symmetry_space_group_name_H-M "P -1"
_symmetry_group_IT_number 2
_symmetry_cell_setting 'triclinic'
loop_
_space_group_symop_operation_xyz
x,y,z
-x,-y,-z
loop_
_atom_site_type_symbol
_atom_site_label
_atom_site_fract_x
_atom_site_fract_y
_atom_site_fract_z
Si Si1 0.105467 0.839623 0.207258
Si Si2 0.665362 0.538363 0.829379
Si Si3 0.921364 0.531388 0.871028
Si Si4 0.544227 0.787527 0.989102
Si Si5 0.017008 0.313197 0.691055
Si Si6 0.723026 0.965515 0.456621
O O1 0.134354 0.656857 0.345312
O O2 0.890401 0.953801 0.292948
O O3 0.374743 0.758193 0.165587
O O4 0.000000 0.000000 0.000000
O O5 0.831848 0.507160 0.853253
O O6 0.449710 0.805328 0.632398
O O7 0.864262 0.360311 0.824363
O O8 0.500000 0.500000 0.000000
O O9 0.701417 0.633977 0.969811
O O10 0.911520 0.719567 0.663627
O O11 0.222971 0.299117 0.983397
O O12 0.323068 0.053589 0.797828
O O13 0.000000 0.500000 0.500000
O O14 0.500000 0.000000 0.500000
#
# Coordination Sequence:
#
# PCOD9084656 Si02
#       6
#     2   2   2   2   2   2
#     4  10  19  35  56  78 105 141 183 216 255 318
#     4  11  20  33  55  81 107 134 172 223 270 313
#     4  10  21  38  56  75 106 146 182 216 261 318
#     4  10  21  38  56  75 106 146 182 216 261 318
#     4  11  20  33  55  81 107 134 172 223 270 313
#     4  10  19  35  56  78 105 141 183 216 255 318
#
# _framework density 19.493479000000001
#
# number of rings (size 3 to 8) (size 9 to 14) (size 15 to 20)
#    0.000    1.667    0.000   10.000    0.000    1.333 
#    0.000    1.667    0.000    6.000    0.000    0.000 
#    0.000    0.000    0.000    0.000    0.000    0.000 
#
# Total GULP energy -66924.198945 kJ/mol
# GULP energy per Si atom -5577.016579 kJ/mol
# Density = 1.944911 g / cm^3
# Si number density = 19.493479 Si / 1000 Ang^3
#
#
#
# Elastic Constant Matrix: (Units=GPa)
#
#
# Indices 1 2 3 4 5 6 
#
# 1 57.9567 34.7712 -4.7146 1.3051 -8.0374 -0.6937
# 2 34.7712 94.0979 21.7890 17.5207 -10.1633 -8.9321
# 3 -4.7146 21.7890 70.5155 12.9517 -17.0031 -15.2582
# 4 1.3051 17.5207 12.9517 41.4593 9.9862 -2.7746
# 5 -8.0374 -10.1633 -17.0031 9.9862 29.9556 1.2046
# 6 -0.6937 -8.9321 -15.2582 -2.7746 1.2046 23.7690
#
#
#
# Elastic Compliance Matrix: (Units=1/GPa)
#
#
# Indices 1 2 3 4 5 6 
#
# 1 0.024636 -0.009699 0.006664 -0.000432 0.007209 0.000937
# 2 -0.009699 0.016783 -0.003219 -0.006364 0.003264 0.003049
# 3 0.006664 -0.003219 0.024281 -0.009742 0.017221 0.012562
# 4 -0.000432 -0.006364 -0.009742 0.034210 -0.019061 -0.003699
# 5 0.007209 0.003264 0.017221 -0.019061 0.052247 0.007619
# 6 0.000937 0.003049 0.012562 -0.003699 0.007619 0.050491
#
#
# Mechanical properties :
#
#
# Convention : Reuss Voigt Hill
#
# Bulk Modulus (GPa) = 18.79900 36.25126 27.52513
# Shear Modulus (GPa) = 21.46973 30.41842 25.94408
#
# Velocity S-wave (km/s) = 3.32231 3.95453 3.65212
# Velocity P-wave (km/s) = 4.93777 6.28395 5.65109
#
# Compressibility (1/GPa) = 0.05319433
#
# Stress axis : x y z
#
# Youngs Moduli (GPa) = 40.59159 59.58309 41.18378
#
# Poissons Ratio (x) = 0.57787 -0.27446
# Poissons Ratio (y) = 0.39368 0.13256
# Poissons Ratio (z) = -0.27051 0.19178
#
# Static dielectric constant tensor:
#      x y z
#    x 1.703130 0.002220 0.042610 
#    y 0.002220 1.720490 0.004120 
#    z 0.042610 0.004120 1.814150 
# 
# From -- ./inp_files/462734.got.cif
#   From: 2010.05.17/outbox.cif.g08.bks.cpg/sg2_232_cif.got.tgz:462734.got - 2010.06.03 11:33:40.
