data_PCOD9084101
_publ_section_title
;
Structure prediction by ZEFSAII (Michael W. Deem and Ramdas Pophale) SiO2 
 PCOD9084101
Probable space group: P -1
;
_chemical_formula_sum "Si O2"
_cell_formula_units_Z 16
_cell_length_a 12.119361
_cell_length_b 7.874979
_cell_length_c 9.903340
_cell_angle_alpha 61.820365
_cell_angle_beta 72.730349
_cell_angle_gamma 43.547699
_cell_volume 572.393169
_symmetry_space_group_name_H-M "P -1"
_symmetry_group_IT_number 2
_symmetry_cell_setting 'triclinic'
loop_
_space_group_symop_operation_xyz
x,y,z
-x,-y,-z
loop_
_atom_site_type_symbol
_atom_site_label
_atom_site_fract_x
_atom_site_fract_y
_atom_site_fract_z
Si Si1 0.803265 0.463934 0.875030
Si Si2 0.051361 0.354519 0.332760
Si Si3 0.546036 0.978608 0.263596
Si Si4 0.818063 0.037203 0.794371
Si Si5 0.222140 0.304762 0.916437
Si Si6 0.328687 0.750954 0.896608
Si Si7 0.129883 0.918386 0.647348
Si Si8 0.635536 0.480091 0.518531
O O1 0.924069 0.444017 0.745097
O O2 0.632179 0.739883 0.783974
O O3 0.824710 0.527067 0.994675
O O4 0.796026 0.241729 0.974483
O O5 0.899263 0.510661 0.230530
O O6 0.188145 0.099244 0.283539
O O7 0.067308 0.201892 0.514676
O O8 0.603747 0.836586 0.148277
O O9 0.579323 0.765306 0.431538
O O10 0.657575 0.036716 0.214570
O O11 0.678179 0.351390 0.698758
O O12 0.980229 0.973571 0.742674
O O13 0.791393 0.907175 0.965972
O O14 0.273846 0.751528 0.765852
O O15 0.500000 0.500000 0.000000
O O16 0.207478 0.730040 0.555665
O O17 0.500000 0.500000 0.500000
#
# Coordination Sequence:
#
# PCOD9084101 Si02
#       8
#     2   2   2   2   2   2   2   2
#     4  10  20  38  59  83 115 153 191 234 289 351
#     4  10  19  34  60  89 112 147 195 237 286 350
#     4  11  22  38  57  86 118 149 194 245 286 333
#     4  10  20  35  60  92 119 151 193 237 290 349
#     4  11  20  35  62  91 114 145 194 247 286 331
#     4  10  23  40  59  82 115 159 198 232 286 352
#     4  11  21  40  62  83 118 160 192 233 290 352
#     4  11  22  38  62  94 120 146 190 245 292 338
#
# _framework density 27.952814
#
# number of rings (size 3 to 8) (size 9 to 14) (size 15 to 20)
#    0.000    1.500    0.000    9.375    0.000    3.000 
#    0.000   11.875    0.000    0.000    0.000    0.000 
#    0.000    0.000    0.000    0.000    0.000    0.000 
#
# Total GULP energy -89502.732815 kJ/mol
# GULP energy per Si atom -5593.920801 kJ/mol
# Density = 2.788919 g / cm^3
# Si number density = 27.952814 Si / 1000 Ang^3
#
#
#
# Elastic Constant Matrix: (Units=GPa)
#
#
# Indices 1 2 3 4 5 6 
#
# 1 135.0716 28.8036 77.0527 -18.4856 -29.2985 12.3387
# 2 28.8036 42.1895 32.7030 -15.6360 10.1223 12.6114
# 3 77.0527 32.7030 220.9266 -45.9032 -14.9239 18.3750
# 4 -18.4856 -15.6360 -45.9032 57.9219 12.5053 -15.0238
# 5 -29.2985 10.1223 -14.9239 12.5053 63.6313 -20.6753
# 6 12.3387 12.6114 18.3750 -15.0238 -20.6753 31.2152
#
#
#
# Elastic Compliance Matrix: (Units=1/GPa)
#
#
# Indices 1 2 3 4 5 6 
#
# 1 0.012755 -0.011264 -0.003053 -0.001679 0.009481 0.006778
# 2 -0.011264 0.048147 -0.001191 0.006585 -0.022981 -0.026351
# 3 -0.003053 -0.001191 0.006591 0.003873 -0.000686 -0.000782
# 4 -0.001679 0.006585 0.003873 0.023594 -0.004140 0.004337
# 5 0.009481 -0.022981 -0.000686 -0.004140 0.032713 0.025615
# 6 0.006778 -0.026351 -0.000782 0.004337 0.025615 0.059516
#
#
# Mechanical properties :
#
#
# Convention : Reuss Voigt Hill
#
# Bulk Modulus (GPa) = 27.41519 75.03404 51.22462
# Shear Modulus (GPa) = 22.07583 47.86222 34.96902
#
# Velocity S-wave (km/s) = 2.81330 4.14242 3.54079
# Velocity P-wave (km/s) = 4.51463 7.05556 5.92296
#
# Compressibility (1/GPa) = 0.03647612
#
# Stress axis : x y z
#
# Youngs Moduli (GPa) = 78.40124 20.76964 151.72463
#
# Poissons Ratio (x) = 0.23396 0.46324
# Poissons Ratio (y) = 0.88314 0.18069
# Poissons Ratio (z) = 0.23937 0.02473
#
# Static dielectric constant tensor:
#      x y z
#    x 2.195320 0.058030 -0.006460 
#    y 0.058030 2.352840 0.020250 
#    z -0.006460 0.020250 2.206020 
# 
# From -- ./inp_files/286096.got.cif
#   From: 2010.05.17/outbox.cif.g08.bks.cpg/sg2_144_cif.got.tgz:286096.got - 2010.06.03 11:33:40.
