data_PCOD9084175
_publ_section_title
;
Structure prediction by ZEFSAII (Michael W. Deem and Ramdas Pophale) SiO2 
 PCOD9084175
Probable space group: P -1
;
_chemical_formula_sum "Si O2"
_cell_formula_units_Z 16
_cell_length_a 14.285001
_cell_length_b 8.647116
_cell_length_c 11.305393
_cell_angle_alpha 113.452020
_cell_angle_beta 137.838738
_cell_angle_gamma 90.026957
_cell_volume 754.451353
_symmetry_space_group_name_H-M "P -1"
_symmetry_group_IT_number 2
_symmetry_cell_setting 'triclinic'
loop_
_space_group_symop_operation_xyz
x,y,z
-x,-y,-z
loop_
_atom_site_type_symbol
_atom_site_label
_atom_site_fract_x
_atom_site_fract_y
_atom_site_fract_z
Si Si1 0.318293 0.882837 0.033799
Si Si2 0.605762 0.224274 0.687043
Si Si3 0.520165 0.497086 0.377789
Si Si4 0.985577 0.151876 0.360226
Si Si5 0.670286 0.258903 0.493750
Si Si6 0.378659 0.323175 0.977164
Si Si7 0.280657 0.526330 0.758687
Si Si8 0.153354 0.923039 0.536332
O O1 0.301393 0.767465 0.104573
O O2 0.491920 0.072176 0.255154
O O3 0.171531 0.922073 0.887618
O O4 0.299985 0.733757 0.867204
O O5 0.486756 0.314904 0.617562
O O6 0.699920 0.297771 0.674048
O O7 0.500000 0.000000 0.500000
O O8 0.500000 0.500000 0.500000
O O9 0.658539 0.437954 0.480717
O O10 0.372164 0.335009 0.115222
O O11 0.944207 0.171163 0.464690
O O12 0.115993 0.363103 0.503689
O O13 0.060065 0.007748 0.395934
O O14 0.789927 0.203911 0.523073
O O15 0.565112 0.440986 0.159214
O O16 0.297700 0.430724 0.867591
O O17 0.305653 0.113499 0.788939
#
# Coordination Sequence:
#
# PCOD9084175 Si02
#       8
#     2   2   2   2   2   2   2   2
#     4  11  19  37  58  88 116 157 197 243 299 349
#     4   9  20  36  60  88 119 153 195 252 295 346
#     4  10  20  35  55  91 119 146 192 249 298 339
#     4  10  23  35  56  87 126 159 189 246 307 354
#     4  10  21  36  64  87 116 155 209 244 285 353
#     4  10  19  34  61  88 115 155 197 251 283 349
#     4  10  20  33  56  87 121 151 197 242 296 348
#     4  10  21  40  57  87 122 160 196 245 298 351
#
# _framework density 21.207464000000002
#
# number of rings (size 3 to 8) (size 9 to 14) (size 15 to 20)
#    0.000    2.000    2.500    1.125    1.750    1.000 
#    0.000    0.625    0.000    5.250    0.000    0.000 
#    0.000    0.000    0.000    0.000    0.000    0.000 
#
# Total GULP energy -89183.188927 kJ/mol
# GULP energy per Si atom -5573.949308 kJ/mol
# Density = 2.115919 g / cm^3
# Si number density = 21.207464 Si / 1000 Ang^3
#
#
#
# Elastic Constant Matrix: (Units=GPa)
#
#
# Indices 1 2 3 4 5 6 
#
# 1 75.3512 46.3548 31.0604 -7.9111 6.0626 -23.6396
# 2 46.3548 123.4177 31.1674 -14.3584 -4.2275 -28.5481
# 3 31.0604 31.1674 58.8186 -18.2700 6.5724 -2.0826
# 4 -7.9111 -14.3584 -18.2700 32.6972 5.5112 -0.5550
# 5 6.0626 -4.2275 6.5724 5.5112 31.2364 5.0792
# 6 -23.6396 -28.5481 -2.0826 -0.5550 5.0792 40.5985
#
#
#
# Elastic Compliance Matrix: (Units=1/GPa)
#
#
# Indices 1 2 3 4 5 6 
#
# 1 0.023435 -0.004132 -0.009382 -0.000388 -0.004830 0.010858
# 2 -0.004132 0.012227 -0.003652 0.002105 0.001911 0.005795
# 3 -0.009382 -0.003652 0.028365 0.012891 -0.005997 -0.005649
# 4 -0.000388 0.002105 0.012891 0.040380 -0.010083 0.003729
# 5 -0.004830 0.001911 -0.005997 -0.010083 0.037321 -0.006583
# 6 0.010858 0.005795 -0.005649 0.003729 -0.006583 0.035613
#
#
# Mechanical properties :
#
#
# Convention : Reuss Voigt Hill
#
# Bulk Modulus (GPa) = 33.67470 52.75031 43.21250
# Shear Modulus (GPa) = 22.56605 30.84010 26.70308
#
# Velocity S-wave (km/s) = 3.26553 3.81755 3.55228
# Velocity P-wave (km/s) = 5.48921 6.66026 6.10289
#
# Compressibility (1/GPa) = 0.02969589
#
# Stress axis : x y z
#
# Youngs Moduli (GPa) = 42.67189 81.78377 35.25452
#
# Poissons Ratio (x) = 0.33790 0.33077
# Poissons Ratio (y) = 0.17630 0.12874
# Poissons Ratio (z) = 0.40036 0.29866
#
# Static dielectric constant tensor:
#      x y z
#    x 1.809280 0.012290 -0.028100 
#    y 0.012290 1.819840 -0.021190 
#    z -0.028100 -0.021190 1.796820 
# 
# From -- ./inp_files/270488.got.cif
#   From: 2010.05.17/outbox.cif.g08.bks.cpg/sg2_136_cif.got.tgz:270488.got - 2010.06.03 11:33:40.
