data_PCOD9084934
_publ_section_title
;
Structure prediction by ZEFSAII (Michael W. Deem and Ramdas Pophale) SiO2 
 PCOD9084934
Probable space group: P -1
;
_chemical_formula_sum "Si O2"
_cell_formula_units_Z 16
_cell_length_a 7.024493
_cell_length_b 17.551179
_cell_length_c 17.301524
_cell_angle_alpha 158.305673
_cell_angle_beta 115.217266
_cell_angle_gamma 72.634800
_cell_volume 682.421717
_symmetry_space_group_name_H-M "P -1"
_symmetry_group_IT_number 2
_symmetry_cell_setting 'triclinic'
loop_
_space_group_symop_operation_xyz
x,y,z
-x,-y,-z
loop_
_atom_site_type_symbol
_atom_site_label
_atom_site_fract_x
_atom_site_fract_y
_atom_site_fract_z
Si Si1 0.936599 0.798466 0.457812
Si Si2 0.643312 0.587811 0.340145
Si Si3 0.256100 0.487361 0.978700
Si Si4 0.162670 0.849489 0.893658
Si Si5 0.170497 0.517591 0.448362
Si Si6 0.484993 0.869989 0.466450
Si Si7 0.674582 0.813619 0.165892
Si Si8 0.436756 0.285354 0.386789
O O1 0.868949 0.679783 0.416964
O O2 0.911103 0.616257 0.215909
O O3 0.727573 0.892389 0.496193
O O4 0.154530 0.994063 0.669274
O O5 0.489625 0.720831 0.400805
O O6 0.657188 0.655958 0.494722
O O7 0.510154 0.343585 0.067680
O O8 0.212614 0.330124 0.897241
O O9 0.500000 0.500000 0.000000
O O10 0.298196 0.728002 0.244332
O O11 0.171725 0.719769 0.694126
O O12 0.066491 0.660109 0.761110
O O13 0.385364 0.029484 0.124351
O O14 0.000000 0.000000 0.000000
O O15 0.311077 0.385238 0.394750
O O16 0.305920 0.598332 0.470905
O O17 0.445164 0.081136 0.691392
#
# Coordination Sequence:
#
# PCOD9084934 Si02
#       8
#     2   2   2   2   2   2   2   2
#     4   9  20  38  53  79 110 140 184 230 271 327
#     4   9  22  39  47  81 114 135 190 226 256 337
#     4   9  17  36  54  82 111 130 187 239 261 331
#     4   9  18  34  55  81 114 133 173 228 262 321
#     4   9  19  34  56  88 101 139 190 209 276 329
#     4   8  20  37  53  80 108 140 185 225 272 334
#     4  11  19  37  59  75 110 150 176 227 282 317
#     4  10  19  35  58  75 112 146 169 234 269 307
#
# _framework density 23.445913000000001
#
# number of rings (size 3 to 8) (size 9 to 14) (size 15 to 20)
#    0.750    2.000    1.250    0.750    0.000    4.500 
#    4.500    3.750    0.000    0.000    0.000    0.000 
#    0.000    0.000    0.000    0.000    0.000    0.000 
#
# Total GULP energy -89248.856990 kJ/mol
# GULP energy per Si atom -5578.053562 kJ/mol
# Density = 2.339255 g / cm^3
# Si number density = 23.445913 Si / 1000 Ang^3
#
#
#
# Elastic Constant Matrix: (Units=GPa)
#
#
# Indices 1 2 3 4 5 6 
#
# 1 69.8442 17.6799 28.4924 11.6468 10.4251 13.0995
# 2 17.6799 71.5313 32.2746 6.7280 29.9006 27.7115
# 3 28.4924 32.2746 134.7461 10.4687 6.3785 8.6827
# 4 11.6468 6.7280 10.4687 21.2082 4.1134 0.7132
# 5 10.4251 29.9006 6.3785 4.1134 30.9248 9.9947
# 6 13.0995 27.7115 8.6827 0.7132 9.9947 26.0624
#
#
#
# Elastic Compliance Matrix: (Units=1/GPa)
#
#
# Indices 1 2 3 4 5 6 
#
# 1 0.018770 0.003442 -0.003266 -0.008557 -0.004610 -0.010003
# 2 0.003442 0.040792 -0.006720 -0.004962 -0.028247 -0.031896
# 3 -0.003266 -0.006720 0.009384 -0.001736 0.004622 0.003936
# 4 -0.008557 -0.004962 -0.001736 0.054403 -0.002279 0.009541
# 5 -0.004610 -0.028247 0.004622 -0.002279 0.057729 0.008735
# 6 -0.010003 -0.031896 0.003936 0.009541 0.008735 0.072389
#
#
# Mechanical properties :
#
#
# Convention : Reuss Voigt Hill
#
# Bulk Modulus (GPa) = 17.90285 48.11281 33.00783
# Shear Modulus (GPa) = 17.53309 28.81737 23.17523
#
# Velocity S-wave (km/s) = 2.73758 3.50966 3.14738
# Velocity P-wave (km/s) = 4.20058 6.08185 5.22655
#
# Compressibility (1/GPa) = 0.05585702
#
# Stress axis : x y z
#
# Youngs Moduli (GPa) = 53.27705 24.51451 106.56431
#
# Poissons Ratio (x) = -0.08437 0.34800
# Poissons Ratio (y) = -0.18335 0.71615
# Poissons Ratio (z) = 0.17398 0.16475
#
# Static dielectric constant tensor:
#      x y z
#    x 1.965630 -0.006370 0.041790 
#    y -0.006370 1.921650 0.026380 
#    z 0.041790 0.026380 1.867830 
# 
# From -- ./inp_files/562778.got.cif
#   From: 2010.05.17/outbox.cif.g08.bks.cpg/sg2_282_cif.got.tgz:562778.got - 2010.06.03 11:33:40.
