data_PCOD9084265
_publ_section_title
;
Structure prediction by ZEFSAII (Michael W. Deem and Ramdas Pophale) SiO2 
 PCOD9084265
Probable space group: P -1
;
_chemical_formula_sum "Si O2"
_cell_formula_units_Z 14
_cell_length_a 9.487863
_cell_length_b 9.692582
_cell_length_c 8.590589
_cell_angle_alpha 115.842676
_cell_angle_beta 112.376622
_cell_angle_gamma 75.746623
_cell_volume 654.399238
_symmetry_space_group_name_H-M "P -1"
_symmetry_group_IT_number 2
_symmetry_cell_setting 'triclinic'
loop_
_space_group_symop_operation_xyz
x,y,z
-x,-y,-z
loop_
_atom_site_type_symbol
_atom_site_label
_atom_site_fract_x
_atom_site_fract_y
_atom_site_fract_z
Si Si1 0.839597 0.072018 0.760326
Si Si2 0.803440 0.768705 0.416748
Si Si3 0.237416 0.356477 0.336398
Si Si4 0.552846 0.210963 0.284564
Si Si5 0.857024 0.301841 0.613227
Si Si6 0.177543 0.047615 0.994097
Si Si7 0.418825 0.130116 0.879689
O O1 0.830940 0.226458 0.733004
O O2 0.775888 0.939023 0.565298
O O3 0.775853 0.075509 0.910742
O O4 0.017583 0.016259 0.837482
O O5 0.793951 0.650442 0.496226
O O6 0.668391 0.762734 0.231897
O O7 0.971357 0.751336 0.400191
O O8 0.418914 0.324797 0.362127
O O9 0.168171 0.514484 0.310184
O O10 0.163318 0.212051 0.157648
O O11 0.721787 0.246235 0.420327
O O12 0.519614 0.038515 0.241842
O O13 0.522816 0.211456 0.086183
O O14 0.289464 0.072343 0.912658
#
# Coordination Sequence:
#
# PCOD9084265 Si02
#       7
#     2   2   2   2   2   2   2
#     4  10  19  34  62  88 115 144 202 246 284 329
#     4  11  21  39  65  89 111 156 203 243 282 344
#     4  10  24  39  58  85 129 155 189 231 305 357
#     4  10  22  39  61  85 120 157 191 243 294 345
#     4  12  21  38  64  89 117 155 196 243 289 348
#     4   9  19  37  56  90 116 149 191 248 286 339
#     4  10  19  39  63  85 117 152 200 243 291 337
#
# _framework density 21.39367
#
# number of rings (size 3 to 8) (size 9 to 14) (size 15 to 20)
#    0.000    1.714    2.857    2.143    0.000    1.143 
#    5.143    0.714    0.000    0.000    0.000    0.000 
#    0.000    0.000    0.000    0.000    0.000    0.000 
#
# Total GULP energy -78141.389476 kJ/mol
# GULP energy per Si atom -5581.527820 kJ/mol
# Density = 2.134498 g / cm^3
# Si number density = 21.393670 Si / 1000 Ang^3
#
#
#
# Elastic Constant Matrix: (Units=GPa)
#
#
# Indices 1 2 3 4 5 6 
#
# 1 42.1336 12.1545 15.8009 -4.2223 -6.8734 -2.6763
# 2 12.1545 115.3039 25.8140 -30.5754 -17.2935 21.1473
# 3 15.8009 25.8140 82.8335 -27.4689 13.5665 3.2809
# 4 -4.2223 -30.5754 -27.4689 26.9345 2.0508 -0.6830
# 5 -6.8734 -17.2935 13.5665 2.0508 35.9163 -8.5081
# 6 -2.6763 21.1473 3.2809 -0.6830 -8.5081 23.3135
#
#
#
# Elastic Compliance Matrix: (Units=1/GPa)
#
#
# Indices 1 2 3 4 5 6 
#
# 1 0.030628 -0.004706 -0.010777 -0.012072 0.011467 0.013132
# 2 -0.004706 0.017193 0.003008 0.021351 0.001366 -0.015435
# 3 -0.010777 0.003008 0.025592 0.028643 -0.014789 -0.012125
# 4 -0.012072 0.021351 0.028643 0.089086 -0.014436 -0.027443
# 5 0.011467 0.001366 -0.014789 -0.014436 0.041066 0.016722
# 6 0.013132 -0.015435 -0.012125 -0.027443 0.016722 0.065407
#
#
# Mechanical properties :
#
#
# Convention : Reuss Voigt Hill
#
# Bulk Modulus (GPa) = 20.63464 38.64554 29.64009
# Shear Modulus (GPa) = 16.12502 29.66631 22.89566
#
# Velocity S-wave (km/s) = 2.74839 3.72786 3.27495
# Velocity P-wave (km/s) = 4.44271 6.05248 5.30896
#
# Compressibility (1/GPa) = 0.04846219
#
# Stress axis : x y z
#
# Youngs Moduli (GPa) = 32.64962 58.16354 39.07528
#
# Poissons Ratio (x) = 0.27369 0.42113
# Poissons Ratio (y) = 0.15363 -0.11752
# Poissons Ratio (z) = 0.35188 -0.17493
#
# Static dielectric constant tensor:
#      x y z
#    x 1.850260 -0.034290 -0.006710 
#    y -0.034290 1.782040 -0.002390 
#    z -0.006710 -0.002390 1.789740 
# 
# From -- ./inp_files/159908.got.cif
#   From: 2010.05.17/outbox.cif.g08.bks.cpg/sg2_80_cif.got.tgz:159908.got - 2010.06.03 11:33:40.
