data_PCOD9084937
_publ_section_title
;
Structure prediction by ZEFSAII (Michael W. Deem and Ramdas Pophale) SiO2 
 PCOD9084937
Probable space group: P -1
;
_chemical_formula_sum "Si O2"
_cell_formula_units_Z 16
_cell_length_a 14.743737
_cell_length_b 11.597600
_cell_length_c 17.642111
_cell_angle_alpha 35.882316
_cell_angle_beta 141.285302
_cell_angle_gamma 154.080505
_cell_volume 757.058339
_symmetry_space_group_name_H-M "P -1"
_symmetry_group_IT_number 2
_symmetry_cell_setting 'triclinic'
loop_
_space_group_symop_operation_xyz
x,y,z
-x,-y,-z
loop_
_atom_site_type_symbol
_atom_site_label
_atom_site_fract_x
_atom_site_fract_y
_atom_site_fract_z
Si Si1 0.914591 0.311230 0.313634
Si Si2 0.768533 0.047135 0.199448
Si Si3 0.173657 0.168817 0.399131
Si Si4 0.340578 0.635831 0.822266
Si Si5 0.323209 0.414214 0.206562
Si Si6 0.473197 0.469034 0.876606
Si Si7 0.313820 0.695190 0.277055
Si Si8 0.890599 0.212006 0.025518
O O1 0.883843 0.484677 0.245357
O O2 0.159217 0.526468 0.337594
O O3 0.792645 0.191021 0.216521
O O4 0.835705 0.042581 0.450001
O O5 0.528287 0.740916 0.193868
O O6 0.842389 0.220766 0.076705
O O7 0.939238 0.037133 0.322405
O O8 0.242857 0.211761 0.334371
O O9 0.328592 0.488854 0.365000
O O10 0.394467 0.586133 0.805113
O O11 0.490020 0.973842 0.752004
O O12 0.385780 0.517345 0.979202
O O13 0.402238 0.381887 0.200075
O O14 0.123105 0.353563 0.088386
O O15 0.269858 0.130441 0.909494
O O16 0.189332 0.698099 0.130502
#
# Coordination Sequence:
#
# PCOD9084937 Si02
#       8
#     2   2   2   2   2   2   2   2
#     4  11  22  36  54  79 111 145 179 217 261 314
#     4   9  19  34  54  82 112 137 172 222 267 319
#     4  10  22  36  53  80 111 142 180 218 259 316
#     4  10  21  36  58  83 106 139 179 219 269 322
#     4  10  19  35  58  77 106 148 177 214 271 315
#     4   9  20  38  56  82 111 132 175 231 267 311
#     4  10  20  35  55  82 113 140 171 219 270 318
#     4   9  19  34  56  84 109 137 175 216 271 327
#
# _framework density 21.134435
#
# number of rings (size 3 to 8) (size 9 to 14) (size 15 to 20)
#    0.000    2.250    0.000    3.000    0.000    9.500 
#    0.000   13.125    0.000    7.500    0.000    0.000 
#    0.000    0.000    0.000    0.000    0.000    0.000 
#
# Total GULP energy -89377.592775 kJ/mol
# GULP energy per Si atom -5586.099548 kJ/mol
# Density = 2.108633 g / cm^3
# Si number density = 21.134435 Si / 1000 Ang^3
#
#
#
# Elastic Constant Matrix: (Units=GPa)
#
#
# Indices 1 2 3 4 5 6 
#
# 1 185.0129 9.5047 60.9174 -3.8859 5.4584 -1.6238
# 2 9.5047 28.1017 4.6027 4.7410 0.2563 9.1592
# 3 60.9174 4.6027 101.0105 -6.1071 -1.7235 -0.1232
# 4 -3.8859 4.7410 -6.1071 11.6800 4.7642 2.2179
# 5 5.4584 0.2563 -1.7235 4.7642 24.7474 -7.3942
# 6 -1.6238 9.1592 -0.1232 2.2179 -7.3942 23.0576
#
#
#
# Elastic Compliance Matrix: (Units=1/GPa)
#
#
# Indices 1 2 3 4 5 6 
#
# 1 0.006936 -0.002139 -0.004010 0.001789 -0.001979 0.000510
# 2 -0.002139 0.044864 -0.001761 -0.015666 -0.002236 -0.017191
# 3 -0.004010 -0.001761 0.012757 0.005715 0.000743 0.000174
# 4 0.001789 -0.015666 0.005715 0.107579 -0.024033 -0.011676
# 5 -0.001979 -0.002236 0.000743 -0.024033 0.051386 0.019543
# 6 0.000510 -0.017191 0.000174 -0.011676 0.019543 0.057626
#
#
# Mechanical properties :
#
#
# Convention : Reuss Voigt Hill
#
# Bulk Modulus (GPa) = 20.51849 51.57499 36.04674
# Shear Modulus (GPa) = 15.96363 27.83701 21.90032
#
# Velocity S-wave (km/s) = 2.75132 3.63318 3.22256
# Velocity P-wave (km/s) = 4.45227 6.48508 5.56233
#
# Compressibility (1/GPa) = 0.04873653
#
# Stress axis : x y z
#
# Youngs Moduli (GPa) = 144.17924 22.28982 78.38741
#
# Poissons Ratio (x) = 0.04768 0.31436
# Poissons Ratio (y) = 0.30841 0.13801
# Poissons Ratio (z) = 0.57821 0.03924
#
# Static dielectric constant tensor:
#      x y z
#    x 1.792900 0.035760 -0.003740 
#    y 0.035760 1.846940 0.011460 
#    z -0.003740 0.011460 1.737920 
# 
# From -- ./inp_files/518861.got.cif
#   From: 2010.05.17/outbox.cif.g08.bks.cpg/sg2_260_cif.got.tgz:518861.got - 2010.06.03 11:33:40.
