data_PCOD9084044
_publ_section_title
;
Structure prediction by ZEFSAII (Michael W. Deem and Ramdas Pophale) SiO2 
 PCOD9084044
Probable space group: P -1
;
_chemical_formula_sum "Si O2"
_cell_formula_units_Z 14
_cell_length_a 12.905451
_cell_length_b 10.899532
_cell_length_c 12.582709
_cell_angle_alpha 83.247379
_cell_angle_beta 156.735967
_cell_angle_gamma 92.661988
_cell_volume 685.607478
_symmetry_space_group_name_H-M "P -1"
_symmetry_group_IT_number 2
_symmetry_cell_setting 'triclinic'
loop_
_space_group_symop_operation_xyz
x,y,z
-x,-y,-z
loop_
_atom_site_type_symbol
_atom_site_label
_atom_site_fract_x
_atom_site_fract_y
_atom_site_fract_z
Si Si1 0.629100 0.694436 0.866745
Si Si2 0.529482 0.622497 0.446666
Si Si3 0.064834 0.749850 0.415256
Si Si4 0.209235 0.575800 0.745803
Si Si5 0.354696 0.885902 0.336630
Si Si6 0.106290 0.568417 0.899128
Si Si7 0.886673 0.923406 0.059346
O O1 0.323903 0.685432 0.599737
O O2 0.779551 0.577969 0.956778
O O3 0.670258 0.829939 0.850409
O O4 0.802224 0.693801 0.139035
O O5 0.500000 0.500000 0.500000
O O6 0.520073 0.749279 0.492156
O O7 0.279697 0.642644 0.129807
O O8 0.800389 0.596541 0.638371
O O9 0.149441 0.712150 0.617755
O O10 0.000041 0.888931 0.288495
O O11 0.000000 0.500000 0.500000
O O12 0.500000 0.500000 0.000000
O O13 0.162412 0.588090 0.825960
O O14 0.500000 0.000000 0.500000
O O15 0.233232 0.938000 0.102607
O O16 0.117235 0.879574 0.195998
#
# Coordination Sequence:
#
# PCOD9084044 Si02
#       7
#     2   2   2   2   2   2   2
#     4  10  19  35  61  91 127 159 207 265 315 378
#     4  12  29  43  65  95 139 176 210 270 346 386
#     4  10  19  34  59  97 123 160 215 274 315 371
#     4  12  20  36  63  97 132 176 220 268 327 392
#     4  11  24  42  68  92 125 174 231 270 317 399
#     4  12  24  41  62  95 143 169 211 271 338 394
#     4   9  22  37  66  93 121 159 229 273 314 373
#
# _framework density 20.419848000000002
#
# number of rings (size 3 to 8) (size 9 to 14) (size 15 to 20)
#    0.857    0.286    2.857    3.857    8.000    0.000 
#    0.000    0.000    0.000    1.714    0.000    0.000 
#    0.000    0.000    0.000    0.000    0.000    0.000 
#
# Total GULP energy -78038.895318 kJ/mol
# GULP energy per Si atom -5574.206808 kJ/mol
# Density = 2.037337 g / cm^3
# Si number density = 20.419848 Si / 1000 Ang^3
#
#
#
# Elastic Constant Matrix: (Units=GPa)
#
#
# Indices 1 2 3 4 5 6 
#
# 1 112.6533 41.6826 41.2389 -8.4861 -15.0275 22.0709
# 2 41.6826 82.7272 20.3064 -17.7768 -11.4065 7.7435
# 3 41.2389 20.3064 87.2406 -1.5651 -11.7341 18.8714
# 4 -8.4861 -17.7768 -1.5651 37.9069 9.0033 -8.8515
# 5 -15.0275 -11.4065 -11.7341 9.0033 46.3017 -7.0338
# 6 22.0709 7.7435 18.8714 -8.8515 -7.0338 20.3256
#
#
#
# Elastic Compliance Matrix: (Units=1/GPa)
#
#
# Indices 1 2 3 4 5 6 
#
# 1 0.014252 -0.005815 -0.002804 -0.002603 0.001264 -0.011353
# 2 -0.005815 0.016773 -0.002059 0.007498 0.001098 0.005481
# 3 -0.002804 -0.002059 0.016085 -0.004199 0.001595 -0.012381
# 4 -0.002603 0.007498 -0.004199 0.034155 -0.004070 0.017334
# 5 0.001264 0.001098 0.001595 -0.004070 0.023967 0.003251
# 6 -0.011353 0.005481 -0.012381 0.017334 0.003251 0.079608
#
#
# Mechanical properties :
#
#
# Convention : Reuss Voigt Hill
#
# Bulk Modulus (GPa) = 38.83017 54.34187 46.58602
# Shear Modulus (GPa) = 23.27969 32.86639 28.07304
#
# Velocity S-wave (km/s) = 3.38013 4.01625 3.71184
# Velocity P-wave (km/s) = 5.85584 6.94097 6.42137
#
# Compressibility (1/GPa) = 0.02575317
#
# Stress axis : x y z
#
# Youngs Moduli (GPa) = 70.16749 59.62075 62.17080
#
# Poissons Ratio (x) = 0.34669 0.17434
# Poissons Ratio (y) = 0.40802 0.12800
# Poissons Ratio (z) = 0.19676 0.12275
#
# Static dielectric constant tensor:
#      x y z
#    x 1.752420 0.059410 -0.068890 
#    y 0.059410 1.736900 -0.006970 
#    z -0.068890 -0.006970 1.796610 
# 
# From -- ./inp_files/423726.got.cif
#   From: 2010.05.17/outbox.cif.g08.bks.cpg/sg2_212_cif.got.tgz:423726.got - 2010.06.03 11:33:40.
