data_PCOD9084496
_publ_section_title
;
Structure prediction by ZEFSAII (Michael W. Deem and Ramdas Pophale) SiO2 
 PCOD9084496
Probable space group: P -1
;
_chemical_formula_sum "Si O2"
_cell_formula_units_Z 16
_cell_length_a 23.676363
_cell_length_b 17.367630
_cell_length_c 12.003253
_cell_angle_alpha 141.639720
_cell_angle_beta 157.016480
_cell_angle_gamma 22.765992
_cell_volume 673.788637
_symmetry_space_group_name_H-M "P -1"
_symmetry_group_IT_number 2
_symmetry_cell_setting 'triclinic'
loop_
_space_group_symop_operation_xyz
x,y,z
-x,-y,-z
loop_
_atom_site_type_symbol
_atom_site_label
_atom_site_fract_x
_atom_site_fract_y
_atom_site_fract_z
Si Si1 0.625325 0.382121 0.738571
Si Si2 0.951232 0.512298 0.569520
Si Si3 0.595594 0.003072 0.847050
Si Si4 0.042228 0.552718 0.245712
Si Si5 0.397189 0.886298 0.242343
Si Si6 0.589816 0.641514 0.845504
Si Si7 0.711224 0.952285 0.359305
Si Si8 0.172721 0.958022 0.131857
O O1 0.556929 0.573500 0.812973
O O2 0.408975 0.454121 0.366344
O O3 0.699735 0.263863 0.854857
O O4 0.886719 0.173061 0.904331
O O5 0.989728 0.502715 0.761938
O O6 0.032173 0.310826 0.474966
O O7 0.657512 0.754667 0.286262
O O8 0.150054 0.462147 0.811281
O O9 0.691785 0.017043 0.933447
O O10 0.488683 0.951220 0.539151
O O11 0.822475 0.810852 0.125800
O O12 0.340243 0.379937 0.591474
O O13 0.000000 0.500000 0.000000
O O14 0.202759 0.964882 0.065248
O O15 0.346886 0.899811 0.667587
O O16 0.683620 0.038287 0.526745
O O17 0.500000 0.000000 0.000000
#
# Coordination Sequence:
#
# PCOD9084496 Si02
#       8
#     2   2   2   2   2   2   2   2
#     4   9  19  32  53  76 104 145 187 220 253 312
#     4  10  19  35  53  80 119 144 166 219 276 331
#     4   9  18  32  49  79 106 140 180 210 275 331
#     4   9  19  30  53  77 107 145 176 214 278 324
#     4   9  18  32  50  77 109 137 171 231 269 314
#     4   9  18  35  50  76 111 139 183 218 263 316
#     4   9  20  33  51  76 111 151 169 205 279 335
#     4  10  19  35  53  79 115 138 179 221 268 317
#
# _framework density 23.746320000000001
#
# number of rings (size 3 to 8) (size 9 to 14) (size 15 to 20)
#    0.000    2.750    0.000    1.500   10.500    0.000 
#    4.500    1.875    0.000    0.000    0.000   35.000 
#    0.000    0.000    0.000    0.000    0.000    0.000 
#
# Total GULP energy -89369.857726 kJ/mol
# GULP energy per Si atom -5585.616108 kJ/mol
# Density = 2.369227 g / cm^3
# Si number density = 23.746320 Si / 1000 Ang^3
#
#
#
# Elastic Constant Matrix: (Units=GPa)
#
#
# Indices 1 2 3 4 5 6 
#
# 1 122.5453 35.5636 7.8587 1.0653 17.6979 10.3075
# 2 35.5636 165.6908 25.1678 -8.6016 4.2063 26.1982
# 3 7.8587 25.1678 60.8655 3.3993 0.6448 8.3229
# 4 1.0653 -8.6016 3.3993 31.2678 6.9381 -1.7063
# 5 17.6979 4.2063 0.6448 6.9381 25.6349 -0.4978
# 6 10.3075 26.1982 8.3229 -1.7063 -0.4978 38.4660
#
#
#
# Elastic Compliance Matrix: (Units=1/GPa)
#
#
# Indices 1 2 3 4 5 6 
#
# 1 0.009727 -0.001593 -0.000359 0.000664 -0.006654 -0.001501
# 2 -0.001593 0.007541 -0.002478 0.002351 -0.000791 -0.004079
# 3 -0.000359 -0.002478 0.017959 -0.002956 0.000959 -0.002221
# 4 0.000664 0.002351 -0.002956 0.035228 -0.010299 0.000290
# 5 -0.006654 -0.000791 0.000959 -0.010299 0.046540 0.002259
# 6 -0.001501 -0.004079 -0.002221 0.000290 0.002259 0.029700
#
#
# Mechanical properties :
#
#
# Convention : Reuss Voigt Hill
#
# Bulk Modulus (GPa) = 37.92373 54.03133 45.97753
# Shear Modulus (GPa) = 30.42446 37.77452 34.09949
#
# Velocity S-wave (km/s) = 3.58331 3.99275 3.79356
# Velocity P-wave (km/s) = 5.75545 6.63770 6.21225
#
# Compressibility (1/GPa) = 0.02636871
#
# Stress axis : x y z
#
# Youngs Moduli (GPa) = 102.80855 132.61653 55.68211
#
# Poissons Ratio (x) = 0.21120 0.01998
# Poissons Ratio (y) = 0.16373 0.13796
# Poissons Ratio (z) = 0.03688 0.32856
#
# Static dielectric constant tensor:
#      x y z
#    x 1.935560 -0.006380 -0.034780 
#    y -0.006380 2.001730 0.008100 
#    z -0.034780 0.008100 1.955280 
# 
# From -- ./inp_files/544301.got.cif
#   From: 2010.05.17/outbox.cif.g08.bks.cpg/sg2_273_cif.got.tgz:544301.got - 2010.06.03 11:33:40.
