data_PCOD9084889
_publ_section_title
;
Structure prediction by ZEFSAII (Michael W. Deem and Ramdas Pophale) SiO2 
 PCOD9084889
Probable space group: P -1
;
_chemical_formula_sum "Si O2"
_cell_formula_units_Z 16
_cell_length_a 9.560146
_cell_length_b 16.089200
_cell_length_c 11.248923
_cell_angle_alpha 54.796542
_cell_angle_beta 55.655448
_cell_angle_gamma 37.827808
_cell_volume 846.381162
_symmetry_space_group_name_H-M "P -1"
_symmetry_group_IT_number 2
_symmetry_cell_setting 'triclinic'
loop_
_space_group_symop_operation_xyz
x,y,z
-x,-y,-z
loop_
_atom_site_type_symbol
_atom_site_label
_atom_site_fract_x
_atom_site_fract_y
_atom_site_fract_z
Si Si1 0.644201 0.507732 0.328060
Si Si2 0.628803 0.886899 0.854322
Si Si3 0.213050 0.186963 0.885128
Si Si4 0.937076 0.939747 0.674208
Si Si5 0.717600 0.478404 0.871438
Si Si6 0.122365 0.401507 0.139479
Si Si7 0.458290 0.767000 0.314972
Si Si8 0.406309 0.654710 0.671031
O O1 0.500000 0.500000 0.500000
O O2 0.515731 0.669129 0.259783
O O3 0.638102 0.443188 0.266072
O O4 0.914948 0.425355 0.288008
O O5 0.786538 0.913712 0.704217
O O6 0.686195 0.759882 0.862887
O O7 0.363696 0.036468 0.872757
O O8 0.732413 0.839972 0.977685
O O9 0.331238 0.245076 0.745688
O O10 0.941212 0.312622 0.888145
O O11 0.174214 0.794177 0.730162
O O12 0.761652 0.069541 0.739756
O O13 0.000000 0.000000 0.500000
O O14 0.781720 0.544364 0.874572
O O15 0.632658 0.563461 0.718617
O O16 0.500000 0.500000 0.000000
O O17 0.000000 0.500000 0.000000
O O18 0.423920 0.712245 0.493720
#
# Coordination Sequence:
#
# PCOD9084889 Si02
#       8
#     2   2   2   2   2   2   2   2
#     4  10  19  35  57  88 113 149 199 240 283 341
#     4  10  19  35  61  83 110 148 200 246 279 338
#     4  10  20  36  56  85 111 148 194 239 290 345
#     4   9  17  32  57  84 112 148 192 236 282 341
#     4  12  24  37  55  86 121 154 192 242 303 350
#     4  12  21  38  62  86 117 154 202 242 286 350
#     4   9  18  34  57  83 110 151 197 234 283 342
#     4  10  20  34  55  85 119 148 188 241 296 342
#
# _framework density 18.904012000000002
#
# number of rings (size 3 to 8) (size 9 to 14) (size 15 to 20)
#    0.000    1.750    3.750    1.500    0.000    0.500 
#    0.000    1.875    0.000    6.750    0.000    0.000 
#    0.000    0.000    0.000    0.000    0.000    0.000 
#
# Total GULP energy -89139.165439 kJ/mol
# GULP energy per Si atom -5571.197840 kJ/mol
# Density = 1.886099 g / cm^3
# Si number density = 18.904012 Si / 1000 Ang^3
#
#
#
# Elastic Constant Matrix: (Units=GPa)
#
#
# Indices 1 2 3 4 5 6 
#
# 1 95.7515 61.7612 22.6549 -3.4357 -7.0334 1.8761
# 2 61.7612 196.4366 23.1123 -6.3371 -2.6459 -4.2977
# 3 22.6549 23.1123 49.1399 1.2267 -13.9094 -2.4204
# 4 -3.4357 -6.3371 1.2267 19.0820 -9.1994 -6.4295
# 5 -7.0334 -2.6459 -13.9094 -9.1994 26.0625 -1.8523
# 6 1.8761 -4.2977 -2.4204 -6.4295 -1.8523 37.4912
#
#
#
# Elastic Compliance Matrix: (Units=1/GPa)
#
#
# Indices 1 2 3 4 5 6 
#
# 1 0.014196 -0.003887 -0.004308 0.002077 0.001800 -0.000989
# 2 -0.003887 0.006553 -0.001402 0.001736 -0.000439 0.001131
# 3 -0.004308 -0.001402 0.027451 0.005734 0.015624 0.003582
# 4 0.002077 0.001736 0.005734 0.072501 0.030411 0.014401
# 5 0.001800 -0.000439 0.015624 0.030411 0.058521 0.008975
# 6 -0.000989 0.001131 0.003582 0.014401 0.008975 0.029997
#
#
# Mechanical properties :
#
#
# Convention : Reuss Voigt Hill
#
# Bulk Modulus (GPa) = 34.47411 61.82052 48.14731
# Shear Modulus (GPa) = 21.00131 32.11379 26.55755
#
# Velocity S-wave (km/s) = 3.33670 4.12610 3.75222
# Velocity P-wave (km/s) = 5.75506 7.44801 6.65559
#
# Compressibility (1/GPa) = 0.02900728
#
# Stress axis : x y z
#
# Youngs Moduli (GPa) = 70.44151 152.61231 36.42841
#
# Poissons Ratio (x) = 0.59320 0.15692
# Poissons Ratio (y) = 0.27380 0.05106
# Poissons Ratio (z) = 0.30344 0.21391
#
# Static dielectric constant tensor:
#      x y z
#    x 1.622650 -0.008830 -0.051200 
#    y -0.008830 1.727340 0.039860 
#    z -0.051200 0.039860 1.768700 
# 
# From -- ./inp_files/319042.got.cif
#   From: 2010.05.17/outbox.cif.g08.bks.cpg/sg2_160_cif.got.tgz:319042.got - 2010.06.03 11:33:40.
