data_PCOD9084602
_publ_section_title
;
Structure prediction by ZEFSAII (Michael W. Deem and Ramdas Pophale) SiO2 
 PCOD9084602
Probable space group: P -1
;
_chemical_formula_sum "Si O2"
_cell_formula_units_Z 16
_cell_length_a 11.894061
_cell_length_b 17.622552
_cell_length_c 14.189599
_cell_angle_alpha 67.631038
_cell_angle_beta 159.404319
_cell_angle_gamma 110.859087
_cell_volume 967.508070
_symmetry_space_group_name_H-M "P -1"
_symmetry_group_IT_number 2
_symmetry_cell_setting 'triclinic'
loop_
_space_group_symop_operation_xyz
x,y,z
-x,-y,-z
loop_
_atom_site_type_symbol
_atom_site_label
_atom_site_fract_x
_atom_site_fract_y
_atom_site_fract_z
Si Si1 0.488439 0.582914 0.515096
Si Si2 0.296148 0.461934 0.569452
Si Si3 0.713632 0.192333 0.047124
Si Si4 0.555762 0.436284 0.990426
Si Si5 0.937112 0.843206 0.356188
Si Si6 0.880033 0.013712 0.293412
Si Si7 0.812914 0.344543 0.929254
Si Si8 0.550392 0.249961 0.090572
O O1 0.500000 0.500000 0.500000
O O2 0.350107 0.549743 0.520573
O O3 0.277172 0.643705 0.256761
O O4 0.840938 0.618000 0.792976
O O5 0.370526 0.462696 0.738258
O O6 0.548863 0.397399 0.754565
O O7 0.938726 0.434067 0.277585
O O8 0.915069 0.108298 0.246022
O O9 0.748468 0.240347 0.151641
O O10 0.335640 0.169444 0.769975
O O11 0.788781 0.252609 0.992761
O O12 0.500000 0.500000 0.000000
O O13 0.454988 0.343937 0.981362
O O14 0.229597 0.785523 0.638681
O O15 0.020962 0.939176 0.377589
O O16 0.749609 0.809820 0.134429
O O17 0.000000 0.000000 0.500000
O O18 0.500000 0.000000 0.000000
#
# Coordination Sequence:
#
# PCOD9084602 Si02
#       8
#     2   2   2   2   2   2   2   2
#     4  10  21  30  47  67  87 118 157 190 226 272
#     4  11  20  36  49  62  94 120 153 202 235 266
#     4   9  19  24  45  59  93 118 150 181 215 252
#     4  12  23  34  50  69  88 122 163 201 236 267
#     4   9  17  27  42  60  84 125 153 171 217 268
#     4  10  16  26  38  61  87 116 160 168 209 269
#     4  11  19  30  47  70  89 121 159 183 222 276
#     4  10  18  29  43  60  85 119 151 183 224 253
#
# _framework density 16.537330000000001
#
# number of rings (size 3 to 8) (size 9 to 14) (size 15 to 20)
#    0.750    1.000    2.500    5.625    1.750    0.000 
#    0.000    0.000    0.000    0.000    0.000    0.000 
#    0.000    0.000    0.000   22.500    0.000    0.125 
#
# Total GULP energy -89089.044449 kJ/mol
# GULP energy per Si atom -5568.065278 kJ/mol
# Density = 1.649969 g / cm^3
# Si number density = 16.537330 Si / 1000 Ang^3
#
#
#
# Elastic Constant Matrix: (Units=GPa)
#
#
# Indices 1 2 3 4 5 6 
#
# 1 16.0359 18.2497 5.2351 -9.6371 -8.2611 0.5963
# 2 18.2497 107.3639 14.4993 -16.4771 -4.7082 3.7940
# 3 5.2351 14.4993 80.9126 3.1668 -22.0212 9.3674
# 4 -9.6371 -16.4771 3.1668 23.6855 6.3578 -7.8021
# 5 -8.2611 -4.7082 -22.0212 6.3578 12.9831 -6.3275
# 6 0.5963 3.7940 9.3674 -7.8021 -6.3275 19.4861
#
#
#
# Elastic Compliance Matrix: (Units=1/GPa)
#
#
# Indices 1 2 3 4 5 6 
#
# 1 0.188275 -0.027868 0.038015 0.017663 0.189961 0.050146
# 2 -0.027868 0.015511 -0.011115 0.009396 -0.038229 -0.005476
# 3 0.038015 -0.011115 0.039833 -0.023039 0.101768 0.005674
# 4 0.017663 0.009396 -0.023039 0.081029 -0.052339 0.024153
# 5 0.189961 -0.038229 0.101768 -0.052339 0.414630 0.066391
# 6 0.050146 -0.005476 0.005674 0.024153 0.066391 0.079352
#
#
# Mechanical properties :
#
#
# Convention : Reuss Voigt Hill
#
# Bulk Modulus (GPa) = 4.13761 31.14228 17.63994
# Shear Modulus (GPa) = 5.54861 22.31950 13.93405
#
# Velocity S-wave (km/s) = 1.83371 3.67773 2.90587
# Velocity P-wave (km/s) = 2.64400 6.07509 4.68495
#
# Compressibility (1/GPa) = 0.24168568
#
# Stress axis : x y z
#
# Youngs Moduli (GPa) = 5.31137 64.46997 25.10461
#
# Poissons Ratio (x) = 1.79664 -0.95436
# Poissons Ratio (y) = 0.14802 0.27903
# Poissons Ratio (z) = -0.20191 0.71656
#
# Static dielectric constant tensor:
#      x y z
#    x 1.555210 -0.001910 -0.017780 
#    y -0.001910 1.599060 0.000690 
#    z -0.017780 0.000690 1.573910 
# 
# From -- ./inp_files/523267.got.cif
#   From: 2010.05.17/outbox.cif.g08.bks.cpg/sg2_262_cif.got.tgz:523267.got - 2010.06.03 11:33:40.
