data_PCOD9084822
_publ_section_title
;
Structure prediction by ZEFSAII (Michael W. Deem and Ramdas Pophale) SiO2 
 PCOD9084822
Probable space group: P -1
;
_chemical_formula_sum "Si O2"
_cell_formula_units_Z 14
_cell_length_a 7.431506
_cell_length_b 6.503732
_cell_length_c 18.462199
_cell_angle_alpha 49.590626
_cell_angle_beta 65.663450
_cell_angle_gamma 62.119665
_cell_volume 592.656778
_symmetry_space_group_name_H-M "P -1"
_symmetry_group_IT_number 2
_symmetry_cell_setting 'triclinic'
loop_
_space_group_symop_operation_xyz
x,y,z
-x,-y,-z
loop_
_atom_site_type_symbol
_atom_site_label
_atom_site_fract_x
_atom_site_fract_y
_atom_site_fract_z
Si Si1 0.342097 0.212510 0.531257
Si Si2 0.343431 0.828660 0.040106
Si Si3 0.012282 0.219022 0.106416
Si Si4 0.728398 0.937636 0.160207
Si Si5 0.132746 0.393973 0.196869
Si Si6 0.061436 0.888065 0.595409
Si Si7 0.536182 0.659426 0.362562
O O1 0.348794 0.523849 0.434491
O O2 0.427069 0.189055 0.604329
O O3 0.500000 0.000000 0.500000
O O4 0.136870 0.117661 0.576784
O O5 0.331203 0.512433 0.129798
O O6 0.150695 0.989054 0.083481
O O7 0.500000 0.000000 0.000000
O O8 0.317067 0.886311 0.946157
O O9 0.109268 0.233525 0.164225
O O10 0.803950 0.128404 0.162893
O O11 0.000000 0.500000 0.000000
O O12 0.544633 0.839106 0.248833
O O13 0.915317 0.653044 0.175525
O O14 0.115444 0.210385 0.311463
O O15 0.257999 0.609702 0.617385
O O16 0.000000 0.000000 0.500000
#
# Coordination Sequence:
#
# PCOD9084822 Si02
#       7
#     2   2   2   2   2   2   2
#     4   9  18  36  54  79 107 142 186 227 270 324
#     4  11  23  36  53  85 120 140 175 233 285 323
#     4  11  18  36  62  79 105 152 191 220 264 334
#     4  10  19  35  57  83 106 145 187 223 271 333
#     4  10  20  38  57  79 108 148 190 224 264 337
#     4  10  21  35  56  83 110 144 186 228 274 323
#     4   9  19  35  58  79 110 143 185 230 269 323
#
# _framework density 23.622439
#
# number of rings (size 3 to 8) (size 9 to 14) (size 15 to 20)
#    0.000    2.000    2.857    1.714    0.000    2.286 
#    0.000    4.286    0.000    0.000    0.000    0.000 
#    0.000    0.000    0.000    0.000    0.000    0.000 
#
# Total GULP energy -78162.222941 kJ/mol
# GULP energy per Si atom -5583.015924 kJ/mol
# Density = 2.356867 g / cm^3
# Si number density = 23.622439 Si / 1000 Ang^3
#
#
#
# Elastic Constant Matrix: (Units=GPa)
#
#
# Indices 1 2 3 4 5 6 
#
# 1 71.3779 26.1146 47.3548 -8.0500 -13.9979 19.6762
# 2 26.1146 99.9170 40.7469 6.5684 -0.4328 28.6451
# 3 47.3548 40.7469 200.3699 5.7344 -15.1285 23.2780
# 4 -8.0500 6.5684 5.7344 26.3334 1.5107 -6.2307
# 5 -13.9979 -0.4328 -15.1285 1.5107 30.4820 -3.7801
# 6 19.6762 28.6451 23.2780 -6.2307 -3.7801 39.5149
#
#
#
# Elastic Compliance Matrix: (Units=1/GPa)
#
#
# Indices 1 2 3 4 5 6 
#
# 1 0.020709 -0.003177 -0.003408 0.006445 0.006918 -0.004323
# 2 -0.003177 0.014417 -0.001095 -0.006422 -0.002656 -0.009491
# 3 -0.003408 -0.001095 0.006388 -0.002611 0.001528 -0.001538
# 4 0.006445 -0.006422 -0.002611 0.044459 0.000616 0.010053
# 5 0.006918 -0.002656 0.001528 0.000616 0.036822 0.001200
# 6 -0.004323 -0.009491 -0.001538 0.010053 0.001200 0.036945
#
#
# Mechanical properties :
#
#
# Convention : Reuss Voigt Hill
#
# Bulk Modulus (GPa) = 38.23726 66.67748 52.45737
# Shear Modulus (GPa) = 27.20097 36.42929 31.81513
#
# Velocity S-wave (km/s) = 3.39704 3.93128 3.67388
# Velocity P-wave (km/s) = 5.62214 6.99244 6.34440
#
# Compressibility (1/GPa) = 0.02615250
#
# Stress axis : x y z
#
# Youngs Moduli (GPa) = 48.28929 69.36363 156.55156
#
# Poissons Ratio (x) = 0.22037 0.53354
# Poissons Ratio (y) = 0.15342 0.17144
# Poissons Ratio (z) = 0.16457 0.07596
#
# Static dielectric constant tensor:
#      x y z
#    x 1.999580 0.024510 -0.122520 
#    y 0.024510 1.895590 -0.094120 
#    z -0.122520 -0.094120 1.972510 
# 
# From -- ./inp_files/34984.got.cif
#   From: 2010.05.17/outbox.cif.g08.bks.cpg/sg2_18_cif.got.tgz:34984.got - 2010.06.03 11:33:40.
