data_PCOD9084081
_publ_section_title
;
Structure prediction by ZEFSAII (Michael W. Deem and Ramdas Pophale) SiO2 
 PCOD9084081
Probable space group: P -1
;
_chemical_formula_sum "Si O2"
_cell_formula_units_Z 16
_cell_length_a 8.060527
_cell_length_b 17.141824
_cell_length_c 9.642482
_cell_angle_alpha 96.242195
_cell_angle_beta 73.897289
_cell_angle_gamma 145.977113
_cell_volume 697.793995
_symmetry_space_group_name_H-M "P -1"
_symmetry_group_IT_number 2
_symmetry_cell_setting 'triclinic'
loop_
_space_group_symop_operation_xyz
x,y,z
-x,-y,-z
loop_
_atom_site_type_symbol
_atom_site_label
_atom_site_fract_x
_atom_site_fract_y
_atom_site_fract_z
Si Si1 0.370025 0.049051 0.900208
Si Si2 0.344092 0.194327 0.570678
Si Si3 0.617359 0.423756 0.368109
Si Si4 0.963474 0.160727 0.820710
Si Si5 0.320560 0.673673 0.175436
Si Si6 0.449058 0.067910 0.579202
Si Si7 0.853523 0.626112 0.589661
Si Si8 0.430972 0.543902 0.126912
O O1 0.667815 0.104082 0.855682
O O2 0.490527 0.183867 0.911797
O O3 0.272931 0.000341 0.754118
O O4 0.118682 0.927323 0.048137
O O5 0.515950 0.300352 0.422788
O O6 0.553097 0.281640 0.683563
O O7 0.293524 0.082653 0.539263
O O8 0.050756 0.138663 0.667312
O O9 0.676141 0.497285 0.507685
O O10 0.339672 0.366513 0.348495
O O11 0.948710 0.548597 0.237621
O O12 0.260096 0.327121 0.823696
O O13 0.376921 0.608988 0.088105
O O14 0.815165 0.233650 0.532896
O O15 0.500000 0.000000 0.500000
O O16 0.860040 0.589515 0.732093
O O17 0.500000 0.500000 0.000000
#
# Coordination Sequence:
#
# PCOD9084081 Si02
#       8
#     2   2   2   2   2   2   2   2
#     4  10  21  39  61  83 112 152 195 233 275 333
#     4  10  19  34  60  87 111 146 191 234 275 334
#     4  11  18  35  64  89 108 137 196 241 275 328
#     4  10  21  39  61  83 112 152 195 233 275 333
#     4  10  19  34  60  87 111 146 191 234 275 334
#     4  11  24  38  58  85 120 149 185 233 288 336
#     4  11  21  36  61  86 114 145 183 237 289 331
#     4  11  24  38  58  85 120 149 185 233 288 336
#
# _framework density 22.929406
#
# number of rings (size 3 to 8) (size 9 to 14) (size 15 to 20)
#    0.000    1.500    5.000    2.625    1.750    4.500 
#    0.000    5.000    0.000    0.000    0.000    0.000 
#    0.000    0.000    0.000    0.000    0.000    0.000 
#
# Total GULP energy -89399.252872 kJ/mol
# GULP energy per Si atom -5587.453305 kJ/mol
# Density = 2.287722 g / cm^3
# Si number density = 22.929406 Si / 1000 Ang^3
#
#
#
# Elastic Constant Matrix: (Units=GPa)
#
#
# Indices 1 2 3 4 5 6 
#
# 1 83.7693 25.3145 -5.4420 7.9385 -16.1874 -29.7819
# 2 25.3145 83.3820 38.3272 10.0955 2.8289 -43.7214
# 3 -5.4420 38.3272 51.5430 -3.6122 -3.6462 -13.0324
# 4 7.9385 10.0955 -3.6122 33.2257 -17.3433 -10.2140
# 5 -16.1874 2.8289 -3.6462 -17.3433 34.7449 -5.1834
# 6 -29.7819 -43.7214 -13.0324 -10.2140 -5.1834 45.3536
#
#
#
# Elastic Compliance Matrix: (Units=1/GPa)
#
#
# Indices 1 2 3 4 5 6 
#
# 1 0.027530 -0.007586 0.018007 0.020075 0.028900 0.023763
# 2 -0.007586 0.039906 -0.027042 -0.013717 -0.013320 0.021106
# 3 0.018007 -0.027042 0.048003 0.028331 0.031187 0.009495
# 4 0.020075 -0.013717 0.028331 0.068928 0.052264 0.029597
# 5 0.028900 -0.013320 0.031187 0.052264 0.078030 0.035787
# 6 0.023763 0.021106 0.009495 0.029597 0.035787 0.071484
#
#
# Mechanical properties :
#
#
# Convention : Reuss Voigt Hill
#
# Bulk Modulus (GPa) = 12.16568 37.23261 24.69915
# Shear Modulus (GPa) = 12.67361 33.36450 23.01906
#
# Velocity S-wave (km/s) = 2.35356 3.81871 3.17189
# Velocity P-wave (km/s) = 3.56411 5.97634 4.92034
#
# Compressibility (1/GPa) = 0.08219845
#
# Stress axis : x y z
#
# Youngs Moduli (GPa) = 36.32361 25.05902 20.83209
#
# Poissons Ratio (x) = 0.19010 -0.37513
# Poissons Ratio (y) = 0.27556 0.56333
# Poissons Ratio (z) = -0.65410 0.67764
#
# Static dielectric constant tensor:
#      x y z
#    x 1.937600 -0.011730 0.026910 
#    y -0.011730 1.870520 0.013700 
#    z 0.026910 0.013700 1.811440 
# 
# From -- ./inp_files/243036.got.cif
#   From: 2010.05.17/outbox.cif.g08.bks.cpg/sg2_122_cif.got.tgz:243036.got - 2010.06.03 11:33:40.
