data_PCOD9084078
_publ_section_title
;
Structure prediction by ZEFSAII (Michael W. Deem and Ramdas Pophale) SiO2 
 PCOD9084078
Probable space group: P -1
;
_chemical_formula_sum "Si O2"
_cell_formula_units_Z 16
_cell_length_a 16.443179
_cell_length_b 12.699898
_cell_length_c 15.696943
_cell_angle_alpha 127.052470
_cell_angle_beta 141.886482
_cell_angle_gamma 23.864969
_cell_volume 723.197946
_symmetry_space_group_name_H-M "P -1"
_symmetry_group_IT_number 2
_symmetry_cell_setting 'triclinic'
loop_
_space_group_symop_operation_xyz
x,y,z
-x,-y,-z
loop_
_atom_site_type_symbol
_atom_site_label
_atom_site_fract_x
_atom_site_fract_y
_atom_site_fract_z
Si Si1 0.581806 0.270264 0.709139
Si Si2 0.117128 0.606557 0.795500
Si Si3 0.453597 0.148762 0.153376
Si Si4 0.094620 0.488129 0.375624
Si Si5 0.788026 0.535813 0.721107
Si Si6 0.392911 0.902220 0.919870
Si Si7 0.660614 0.270660 0.592278
Si Si8 0.313422 0.604895 0.820690
O O1 0.354006 0.351431 0.552459
O O2 0.567004 0.377151 0.665475
O O3 0.501644 0.417292 0.800124
O O4 0.900056 0.917100 0.797318
O O5 0.210153 0.556558 0.751600
O O6 0.951388 0.614887 0.672955
O O7 0.407678 0.345097 0.966374
O O8 0.248969 0.372202 0.171138
O O9 0.452945 0.242290 0.115604
O O10 0.791082 0.838367 0.310602
O O11 0.390654 0.057946 0.023922
O O12 0.131233 0.441240 0.279941
O O13 0.474224 0.753669 0.546624
O O14 0.043675 0.194803 0.765169
O O15 0.500000 0.500000 0.500000
O O16 0.012177 0.952686 0.722835
O O17 0.500000 0.500000 0.000000
#
# Coordination Sequence:
#
# PCOD9084078 Si02
#       8
#     2   2   2   2   2   2   2   2
#     4  10  22  43  66  88 127 162 200 261 314 359
#     4  10  22  37  58  93 125 160 207 247 302 383
#     4   9  17  32  53  85 127 161 196 245 297 365
#     4   9  19  36  60  92 124 153 202 254 309 368
#     4  10  19  34  60  86 123 162 198 256 308 355
#     4   9  19  32  51  87 126 161 201 240 296 368
#     4  10  24  44  65  94 116 154 219 258 303 367
#     4  11  26  45  65  89 126 167 209 254 308 368
#
# _framework density 22.123956
#
# number of rings (size 3 to 8) (size 9 to 14) (size 15 to 20)
#    0.000    2.250    0.000    2.250    1.750    6.000 
#    2.250    0.000    0.000    0.000    0.000    0.000 
#    0.000    0.000    0.000    0.000    0.000    0.000 
#
# Total GULP energy -89317.487449 kJ/mol
# GULP energy per Si atom -5582.342966 kJ/mol
# Density = 2.207360 g / cm^3
# Si number density = 22.123956 Si / 1000 Ang^3
#
#
#
# Elastic Constant Matrix: (Units=GPa)
#
#
# Indices 1 2 3 4 5 6 
#
# 1 129.4848 56.4075 8.4376 9.5638 -29.1531 -5.4325
# 2 56.4075 56.0167 27.4461 -9.1622 -19.8476 -19.9045
# 3 8.4376 27.4461 84.1420 -16.1424 -8.1019 -6.8625
# 4 9.5638 -9.1622 -16.1424 35.7028 -4.4490 -10.4144
# 5 -29.1531 -19.8476 -8.1019 -4.4490 37.5767 3.6970
# 6 -5.4325 -19.9045 -6.8625 -10.4144 3.6970 44.6883
#
#
#
# Elastic Compliance Matrix: (Units=1/GPa)
#
#
# Indices 1 2 3 4 5 6 
#
# 1 0.022168 -0.032033 0.003866 -0.016687 0.000605 -0.014918
# 2 -0.032033 0.080891 -0.011412 0.037189 0.016105 0.037717
# 3 0.003866 -0.011412 0.015698 0.002764 0.000844 -0.001628
# 4 -0.016687 0.037189 0.002764 0.052285 0.010901 0.026243
# 5 0.000605 0.016105 0.000844 0.010901 0.036381 0.006907
# 6 -0.014918 0.037717 -0.001628 0.026243 0.006907 0.042658
#
#
# Mechanical properties :
#
#
# Convention : Reuss Voigt Hill
#
# Bulk Modulus (GPa) = 25.25309 50.46954 37.86131
# Shear Modulus (GPa) = 14.60107 35.41706 25.00906
#
# Velocity S-wave (km/s) = 2.57177 4.00540 3.36580
# Velocity P-wave (km/s) = 4.50087 6.65227 5.67937
#
# Compressibility (1/GPa) = 0.03959911
#
# Stress axis : x y z
#
# Youngs Moduli (GPa) = 45.10907 12.36226 63.70191
#
# Poissons Ratio (x) = 0.39600 -0.24627
# Poissons Ratio (y) = 1.44500 0.72697
# Poissons Ratio (z) = -0.17439 0.14108
#
# Static dielectric constant tensor:
#      x y z
#    x 1.883980 0.013840 0.038410 
#    y 0.013840 1.788920 -0.021830 
#    z 0.038410 -0.021830 1.893310 
# 
# From -- ./inp_files/532626.got.cif
#   From: 2010.05.17/outbox.cif.g08.bks.cpg/sg2_267_cif.got.tgz:532626.got - 2010.06.03 11:33:40.
