data_PCOD9084118
_publ_section_title
;
Structure prediction by ZEFSAII (Michael W. Deem and Ramdas Pophale) SiO2 
 PCOD9084118
Probable space group: P -1
;
_chemical_formula_sum "Si O2"
_cell_formula_units_Z 14
_cell_length_a 11.051709
_cell_length_b 16.177960
_cell_length_c 9.295594
_cell_angle_alpha 126.504389
_cell_angle_beta 135.228399
_cell_angle_gamma 32.286310
_cell_volume 625.169867
_symmetry_space_group_name_H-M "P -1"
_symmetry_group_IT_number 2
_symmetry_cell_setting 'triclinic'
loop_
_space_group_symop_operation_xyz
x,y,z
-x,-y,-z
loop_
_atom_site_type_symbol
_atom_site_label
_atom_site_fract_x
_atom_site_fract_y
_atom_site_fract_z
Si Si1 0.786163 0.353030 0.520810
Si Si2 0.797686 0.015260 0.478950
Si Si3 0.111698 0.866625 0.066753
Si Si4 0.482694 0.618325 0.905703
Si Si5 0.480205 0.793666 0.842320
Si Si6 0.340207 0.064598 0.142745
Si Si7 0.963464 0.657474 0.027868
O O1 0.500000 0.500000 0.500000
O O2 0.709298 0.384372 0.320607
O O3 0.963815 0.172193 0.515220
O O4 0.947219 0.363873 0.756309
O O5 0.847484 0.087851 0.704780
O O6 0.720901 0.095568 0.341547
O O7 0.547637 0.057137 0.360465
O O8 0.376260 0.704544 0.055950
O O9 0.899215 0.870863 0.899428
O O10 0.000000 0.000000 0.000000
O O11 0.446271 0.721237 0.856852
O O12 0.785251 0.460273 0.983209
O O13 0.756233 0.659158 0.857351
O O14 0.482538 0.897079 0.043587
O O15 0.202190 0.173875 0.999453
#
# Coordination Sequence:
#
# PCOD9084118 Si02
#       7
#     2   2   2   2   2   2   2
#     4  10  19  34  60  90 121 156 202 261 312 355
#     4  11  22  41  66  96 124 161 220 257 310 376
#     4  12  25  41  60  94 130 171 205 253 318 380
#     4  11  24  40  60  94 131 162 205 261 316 376
#     4  11  20  39  68  94 119 163 211 271 308 360
#     4  11  22  40  68  92 125 167 212 259 310 374
#     4  10  21  40  64  94 124 159 212 263 319 363
#
# _framework density 22.393913000000001
#
# number of rings (size 3 to 8) (size 9 to 14) (size 15 to 20)
#    0.000    1.143    5.714    1.286    2.000    2.286 
#    2.571    2.857    0.000    0.000    0.000    0.000 
#    0.000    0.143    0.000    0.000    0.000    0.000 
#
# Total GULP energy -78021.666220 kJ/mol
# GULP energy per Si atom -5572.976159 kJ/mol
# Density = 2.234294 g / cm^3
# Si number density = 22.393913 Si / 1000 Ang^3
#
#
#
# Elastic Constant Matrix: (Units=GPa)
#
#
# Indices 1 2 3 4 5 6 
#
# 1 79.7720 6.7608 13.6252 -4.6939 18.7500 -13.1927
# 2 6.7608 114.3756 40.0506 -6.4775 11.2537 -27.0083
# 3 13.6252 40.0506 78.0614 -7.6458 2.4820 -17.2064
# 4 -4.6939 -6.4775 -7.6458 35.8593 -11.3836 0.4619
# 5 18.7500 11.2537 2.4820 -11.3836 26.8498 2.1768
# 6 -13.1927 -27.0083 -17.2064 0.4619 2.1768 38.7553
#
#
#
# Elastic Compliance Matrix: (Units=1/GPa)
#
#
# Indices 1 2 3 4 5 6 
#
# 1 0.017350 0.003047 -0.002671 -0.002564 -0.014858 0.007709
# 2 0.003047 0.013129 -0.005277 -0.001090 -0.008280 0.008322
# 3 -0.002671 -0.005277 0.016776 0.003438 0.003772 0.002608
# 4 -0.002564 -0.001090 0.003438 0.033226 0.016131 -0.001408
# 5 -0.014858 -0.008280 0.003772 0.016131 0.058606 -0.012637
# 6 0.007709 0.008322 0.002608 -0.001408 -0.012637 0.036111
#
#
# Mechanical properties :
#
#
# Convention : Reuss Voigt Hill
#
# Bulk Modulus (GPa) = 26.70080 43.67581 35.18831
# Shear Modulus (GPa) = 25.31846 34.41103 29.86475
#
# Velocity S-wave (km/s) = 3.36608 3.92423 3.65582
# Velocity P-wave (km/s) = 5.20158 6.33076 5.79375
#
# Compressibility (1/GPa) = 0.03745206
#
# Stress axis : x y z
#
# Youngs Moduli (GPa) = 57.63662 76.16827 59.60950
#
# Poissons Ratio (x) = -0.23207 0.15923
# Poissons Ratio (y) = -0.17561 0.31456
# Poissons Ratio (z) = 0.15396 0.40194
#
# Static dielectric constant tensor:
#      x y z
#    x 1.914280 -0.026510 0.092810 
#    y -0.026510 1.879380 -0.001730 
#    z 0.092810 -0.001730 1.887010 
# 
# From -- ./inp_files/251869.got.cif
#   From: 2010.05.17/outbox.cif.g08.bks.cpg/sg2_126_cif.got.tgz:251869.got - 2010.06.03 11:33:40.
