data_PCOD9084287
_publ_section_title
;
Structure prediction by ZEFSAII (Michael W. Deem and Ramdas Pophale) SiO2 
 PCOD9084287
Probable space group: P -1
;
_chemical_formula_sum "Si O2"
_cell_formula_units_Z 16
_cell_length_a 12.266991
_cell_length_b 11.796245
_cell_length_c 19.050106
_cell_angle_alpha 134.369028
_cell_angle_beta 157.617653
_cell_angle_gamma 42.571998
_cell_volume 708.330078
_symmetry_space_group_name_H-M "P -1"
_symmetry_group_IT_number 2
_symmetry_cell_setting 'triclinic'
loop_
_space_group_symop_operation_xyz
x,y,z
-x,-y,-z
loop_
_atom_site_type_symbol
_atom_site_label
_atom_site_fract_x
_atom_site_fract_y
_atom_site_fract_z
Si Si1 0.561565 0.873804 0.916822
Si Si2 0.230469 0.662776 0.257592
Si Si3 0.646323 0.815639 0.480921
Si Si4 0.602821 0.215032 0.821103
Si Si5 0.370382 0.704872 0.512393
Si Si6 0.707107 0.943809 0.877975
Si Si7 0.865711 0.477404 0.333527
Si Si8 0.757822 0.327906 0.432506
O O1 0.610793 0.950847 0.904483
O O2 0.286634 0.802139 0.706839
O O3 0.878807 0.724101 0.055557
O O4 0.500000 0.000000 0.000000
O O5 0.428182 0.717922 0.340307
O O6 0.250129 0.749028 0.381531
O O7 0.416509 0.465562 0.292834
O O8 0.625167 0.819688 0.386300
O O9 0.983080 0.721543 0.670785
O O10 0.500000 0.000000 0.500000
O O11 0.486757 0.418734 0.840220
O O12 0.593535 0.121788 0.847546
O O13 0.931823 0.129901 0.947696
O O14 0.500000 0.500000 0.500000
O O15 0.593597 0.808223 0.709434
O O16 0.153772 0.747757 0.470240
O O17 0.024912 0.569888 0.415312
O O18 0.000000 0.500000 0.500000
#
# Coordination Sequence:
#
# PCOD9084287 Si02
#       8
#     2   2   2   2   2   2   2   2
#     4  11  23  37  58  90 122 156 211 256 305 364
#     4  10  19  37  59  87 118 157 205 248 307 370
#     4  10  19  34  62  91 124 157 201 254 304 373
#     4  10  20  38  63  88 126 166 208 248 311 382
#     4   9  19  36  61  88 116 160 216 251 306 376
#     4  10  21  39  62  90 127 171 205 255 321 365
#     4   9  20  37  58  92 114 158 206 247 307 363
#     4   9  20  38  61  83 120 160 200 256 313 364
#
# _framework density 22.588339000000001
#
# number of rings (size 3 to 8) (size 9 to 14) (size 15 to 20)
#    0.000    2.250    1.250    1.125    0.000    4.000 
#    0.000    2.500    0.000   17.250    0.000    0.000 
#    0.000    0.000    0.000    0.000    0.000    0.000 
#
# Total GULP energy -89211.498457 kJ/mol
# GULP energy per Si atom -5575.718654 kJ/mol
# Density = 2.253693 g / cm^3
# Si number density = 22.588339 Si / 1000 Ang^3
#
#
#
# Elastic Constant Matrix: (Units=GPa)
#
#
# Indices 1 2 3 4 5 6 
#
# 1 83.6279 11.5494 40.4820 -9.0047 -26.4968 1.6407
# 2 11.5494 97.1180 23.3644 -24.1176 -9.3895 -11.3314
# 3 40.4820 23.3644 53.0571 -12.4760 -20.5543 -2.6772
# 4 -9.0047 -24.1176 -12.4760 39.4102 -5.6879 -7.1171
# 5 -26.4968 -9.3895 -20.5543 -5.6879 32.1021 -0.5367
# 6 1.6407 -11.3314 -2.6772 -7.1171 -0.5367 26.6751
#
#
#
# Elastic Compliance Matrix: (Units=1/GPa)
#
#
# Indices 1 2 3 4 5 6 
#
# 1 0.021599 0.002519 -0.012096 0.004302 0.011581 -0.000092
# 2 0.002519 0.015374 -0.002662 0.011872 0.007132 0.009420
# 3 -0.012096 -0.002662 0.038437 0.011309 0.015965 0.006809
# 4 0.004302 0.011872 0.011309 0.043674 0.022304 0.018015
# 5 0.011581 0.007132 0.015965 0.022304 0.057153 0.011020
# 6 -0.000092 0.009420 0.006809 0.018015 0.011020 0.047207
#
#
# Mechanical properties :
#
#
# Convention : Reuss Voigt Hill
#
# Bulk Modulus (GPa) = 19.63416 42.73272 31.18344
# Shear Modulus (GPa) = 18.87493 30.19797 24.53645
#
# Velocity S-wave (km/s) = 2.89382 3.66031 3.29940
# Velocity P-wave (km/s) = 4.45832 6.06819 5.32445
#
# Compressibility (1/GPa) = 0.05093164
#
# Stress axis : x y z
#
# Youngs Moduli (GPa) = 46.29743 65.04301 26.01677
#
# Poissons Ratio (x) = -0.16382 0.31470
# Poissons Ratio (y) = -0.11661 0.06926
# Poissons Ratio (z) = 0.56001 0.17316
#
# Static dielectric constant tensor:
#      x y z
#    x 1.825390 -0.119340 0.026190 
#    y -0.119340 1.858630 -0.024580 
#    z 0.026190 -0.024580 1.858230 
# 
# From -- ./inp_files/199698.got.cif
#   From: 2010.05.17/outbox.cif.g08.bks.cpg/sg2_100_cif.got.tgz:199698.got - 2010.06.03 11:33:40.
