data_PCOD9084127
_publ_section_title
;
Structure prediction by ZEFSAII (Michael W. Deem and Ramdas Pophale) SiO2 
 PCOD9084127
Probable space group: P -1
;
_chemical_formula_sum "Si O2"
_cell_formula_units_Z 14
_cell_length_a 9.831586
_cell_length_b 10.194567
_cell_length_c 21.041296
_cell_angle_alpha 39.886474
_cell_angle_beta 44.772455
_cell_angle_gamma 26.872065
_cell_volume 608.923319
_symmetry_space_group_name_H-M "P -1"
_symmetry_group_IT_number 2
_symmetry_cell_setting 'triclinic'
loop_
_space_group_symop_operation_xyz
x,y,z
-x,-y,-z
loop_
_atom_site_type_symbol
_atom_site_label
_atom_site_fract_x
_atom_site_fract_y
_atom_site_fract_z
Si Si1 0.974783 0.794948 0.740367
Si Si2 0.807526 0.508646 0.624794
Si Si3 0.323192 0.163529 0.816159
Si Si4 0.203805 0.525629 0.904231
Si Si5 0.207365 0.037569 0.562153
Si Si6 0.714408 0.483910 0.899780
Si Si7 0.817014 0.167719 0.855054
O O1 0.162692 0.606868 0.813018
O O2 0.120920 0.531323 0.735160
O O3 0.636940 0.006613 0.795410
O O4 0.010274 0.998071 0.630324
O O5 0.822540 0.734913 0.554906
O O6 0.746205 0.396955 0.740782
O O7 0.113099 0.194618 0.605195
O O8 0.553511 0.694406 0.585172
O O9 0.040480 0.272767 0.903485
O O10 0.490610 0.862845 0.826587
O O11 0.550095 0.217960 0.922798
O O12 0.106902 0.805635 0.871958
O O13 0.000000 0.500000 0.000000
O O14 0.821982 0.289004 0.872686
O O15 0.500000 0.500000 0.000000
#
# Coordination Sequence:
#
# PCOD9084127 Si02
#       7
#     2   2   2   2   2   2   2
#     4  11  20  39  62  86 126 150 193 242 307 369
#     4  10  19  35  58  91 121 153 189 240 303 360
#     4  10  24  39  61  82 114 160 204 248 282 343
#     4  12  26  37  59  93 126 158 185 245 315 361
#     4  10  19  34  60  91 123 150 188 236 305 378
#     4  11  25  42  61  81 112 164 222 244 278 334
#     4  12  23  42  62  85 126 156 201 251 293 351
#
# _framework density 22.991402000000001
#
# number of rings (size 3 to 8) (size 9 to 14) (size 15 to 20)
#    0.000    1.143    2.857    3.429    6.000    0.000 
#    0.000    0.000    0.000    5.143    0.000    0.000 
#    0.000    0.000    0.000    0.000    0.000    0.000 
#
# Total GULP energy -78007.459001 kJ/mol
# GULP energy per Si atom -5571.961357 kJ/mol
# Density = 2.293907 g / cm^3
# Si number density = 22.991402 Si / 1000 Ang^3
#
#
#
# Elastic Constant Matrix: (Units=GPa)
#
#
# Indices 1 2 3 4 5 6 
#
# 1 38.3405 29.1726 35.1836 8.4720 -25.8551 -4.6111
# 2 29.1726 134.2431 21.0920 2.5882 -17.7579 4.0376
# 3 35.1836 21.0920 86.7632 -10.4184 -29.5287 12.7832
# 4 8.4720 2.5882 -10.4184 35.2150 0.2278 -20.1959
# 5 -25.8551 -17.7579 -29.5287 0.2278 26.4209 1.8819
# 6 -4.6111 4.0376 12.7832 -20.1959 1.8819 42.2819
#
#
#
# Elastic Compliance Matrix: (Units=1/GPa)
#
#
# Indices 1 2 3 4 5 6 
#
# 1 0.118772 -0.010462 -0.020078 -0.034499 0.087078 -0.000332
# 2 -0.010462 0.009217 0.001769 0.001321 -0.001947 -0.001838
# 3 -0.020078 0.001769 0.024165 0.008294 0.008911 -0.006099
# 4 -0.034499 0.001321 0.008294 0.049853 -0.025353 0.018545
# 5 0.087078 -0.001947 0.008911 -0.025353 0.132717 -0.011029
# 6 -0.000332 -0.001838 -0.006099 0.018545 -0.011029 0.034983
#
#
# Mechanical properties :
#
#
# Convention : Reuss Voigt Hill
#
# Bulk Modulus (GPa) = 10.56955 47.80479 29.18717
# Shear Modulus (GPa) = 10.89834 32.37682 21.63758
#
# Velocity S-wave (km/s) = 2.17956 3.75669 3.07109
# Velocity P-wave (km/s) = 3.30774 6.29719 5.02970
#
# Compressibility (1/GPa) = 0.09461137
#
# Stress axis : x y z
#
# Youngs Moduli (GPa) = 8.41950 108.49431 41.38247
#
# Poissons Ratio (x) = 1.13506 0.83088
# Poissons Ratio (y) = 0.08808 -0.07320
# Poissons Ratio (z) = 0.16905 -0.19190
#
# Static dielectric constant tensor:
#      x y z
#    x 1.917720 -0.010070 -0.057110 
#    y -0.010070 1.847930 -0.019920 
#    z -0.057110 -0.019920 1.905710 
# 
# From -- ./inp_files/433762.got.cif
#   From: 2010.05.17/outbox.cif.g08.bks.cpg/sg2_217_cif.got.tgz:433762.got - 2010.06.03 11:33:40.
