data_PCOD9084315
_publ_section_title
;
Structure prediction by ZEFSAII (Michael W. Deem and Ramdas Pophale) SiO2 
 PCOD9084315
Probable space group: P -1
;
_chemical_formula_sum "Si O2"
_cell_formula_units_Z 16
_cell_length_a 17.674583
_cell_length_b 8.694291
_cell_length_c 12.176900
_cell_angle_alpha 78.747496
_cell_angle_beta 36.735395
_cell_angle_gamma 105.204673
_cell_volume 768.922122
_symmetry_space_group_name_H-M "P -1"
_symmetry_group_IT_number 2
_symmetry_cell_setting 'triclinic'
loop_
_space_group_symop_operation_xyz
x,y,z
-x,-y,-z
loop_
_atom_site_type_symbol
_atom_site_label
_atom_site_fract_x
_atom_site_fract_y
_atom_site_fract_z
Si Si1 0.014211 0.942684 0.268727
Si Si2 0.742612 0.902305 0.496699
Si Si3 0.174374 0.545055 0.762235
Si Si4 0.881061 0.083245 0.073154
Si Si5 0.283387 0.729918 0.834840
Si Si6 0.001426 0.252553 0.315323
Si Si7 0.135917 0.765588 0.299547
Si Si8 0.492853 0.034039 0.254689
O O1 0.107308 0.019626 0.030235
O O2 0.055621 0.819564 0.299168
O O3 0.804212 0.799679 0.503096
O O4 0.082333 0.148495 0.234820
O O5 0.893401 0.151062 0.340585
O O6 0.560444 0.837314 0.738924
O O7 0.779313 0.929672 0.320291
O O8 0.277151 0.617063 0.748931
O O9 0.320404 0.765769 0.487566
O O10 0.082520 0.314323 0.845014
O O11 0.000000 0.500000 0.000000
O O12 0.789932 0.163326 0.125282
O O13 0.459196 0.905648 0.679845
O O14 0.144481 0.517011 0.106239
O O15 0.871128 0.162458 0.581934
O O16 0.000000 0.500000 0.500000
O O17 0.334972 0.886786 0.016269
#
# Coordination Sequence:
#
# PCOD9084315 Si02
#       8
#     2   2   2   2   2   2   2   2
#     4  10  23  41  67  93 127 181 204 266 333 379
#     4  10  22  37  64  97 134 164 206 262 335 376
#     4  10  19  34  62  98 131 162 205 269 318 375
#     4  11  18  39  66  95 131 172 207 257 327 398
#     4  11  19  35  65  98 131 160 218 260 316 377
#     4  10  22  42  64  93 131 178 208 262 326 378
#     4  12  24  44  69  92 126 174 228 263 306 383
#     4  12  22  37  65 104 124 167 221 270 310 375
#
# _framework density 20.808349
#
# number of rings (size 3 to 8) (size 9 to 14) (size 15 to 20)
#    0.750    0.500    6.250    1.875    0.000    0.500 
#    0.000    1.875    0.000    3.000    0.000    0.000 
#    0.000    0.000    0.000    0.000    0.000    0.000 
#
# Total GULP energy -89113.292870 kJ/mol
# GULP energy per Si atom -5569.580804 kJ/mol
# Density = 2.076099 g / cm^3
# Si number density = 20.808349 Si / 1000 Ang^3
#
#
#
# Elastic Constant Matrix: (Units=GPa)
#
#
# Indices 1 2 3 4 5 6 
#
# 1 79.7546 3.0923 32.6014 13.2901 -8.8777 -34.6755
# 2 3.0923 51.8362 41.5953 23.2208 -0.6850 -2.5010
# 3 32.6014 41.5953 120.7933 18.0905 0.9283 -17.1945
# 4 13.2901 23.2208 18.0905 31.6725 5.1181 -1.8871
# 5 -8.8777 -0.6850 0.9283 5.1181 28.7348 8.9723
# 6 -34.6755 -2.5010 -17.1945 -1.8871 8.9723 33.1133
#
#
#
# Elastic Compliance Matrix: (Units=1/GPa)
#
#
# Indices 1 2 3 4 5 6 
#
# 1 0.029025 0.011482 -0.005607 -0.016500 0.004154 0.026284
# 2 0.011482 0.042520 -0.012683 -0.029912 0.008882 0.004538
# 3 -0.005607 -0.012683 0.013739 0.004509 -0.003776 0.001585
# 4 -0.016500 -0.029912 0.004509 0.059402 -0.013354 -0.010193
# 5 0.004154 0.008882 -0.003776 -0.013354 0.041598 -0.008973
# 6 0.026284 0.004538 0.001585 -0.010193 -0.008973 0.060739
#
#
# Mechanical properties :
#
#
# Convention : Reuss Voigt Hill
#
# Bulk Modulus (GPa) = 13.95332 45.21802 29.58567
# Shear Modulus (GPa) = 17.57292 30.37713 23.97503
#
# Velocity S-wave (km/s) = 2.90920 3.82495 3.39806
# Velocity P-wave (km/s) = 4.24321 6.42533 5.44471
#
# Compressibility (1/GPa) = 0.07166753
#
# Stress axis : x y z
#
# Youngs Moduli (GPa) = 34.45329 23.51831 72.78705
#
# Poissons Ratio (x) = -0.27004 0.40811
# Poissons Ratio (y) = -0.39560 0.92318
# Poissons Ratio (z) = 0.19318 0.29829
#
# Static dielectric constant tensor:
#      x y z
#    x 1.806330 -0.008300 -0.009090 
#    y -0.008300 1.786590 0.034380 
#    z -0.009090 0.034380 1.760010 
# 
# From -- ./inp_files/462974.got.cif
#   From: 2010.05.17/outbox.cif.g08.bks.cpg/sg2_232_cif.got.tgz:462974.got - 2010.06.03 11:33:40.
