data_PCOD9084323
_publ_section_title
;
Structure prediction by ZEFSAII (Michael W. Deem and Ramdas Pophale) SiO2 
 PCOD9084323
Probable space group: P -1
;
_chemical_formula_sum "Si O2"
_cell_formula_units_Z 14
_cell_length_a 8.395997
_cell_length_b 13.140148
_cell_length_c 7.236126
_cell_angle_alpha 112.137681
_cell_angle_beta 82.142753
_cell_angle_gamma 54.024470
_cell_volume 525.742003
_symmetry_space_group_name_H-M "P -1"
_symmetry_group_IT_number 2
_symmetry_cell_setting 'triclinic'
loop_
_space_group_symop_operation_xyz
x,y,z
-x,-y,-z
loop_
_atom_site_type_symbol
_atom_site_label
_atom_site_fract_x
_atom_site_fract_y
_atom_site_fract_z
Si Si1 0.535983 0.382531 0.052834
Si Si2 0.620260 0.113956 0.779445
Si Si3 0.021083 0.247629 0.572237
Si Si4 0.055138 0.491687 0.202802
Si Si5 0.220244 0.751802 0.702224
Si Si6 0.184440 0.221607 0.898259
Si Si7 0.715706 0.042125 0.125290
O O1 0.684742 0.211500 0.823316
O O2 0.500000 0.500000 0.000000
O O3 0.297430 0.433293 0.146027
O O4 0.635720 0.360218 0.224639
O O5 0.390872 0.195565 0.768132
O O6 0.804925 0.935426 0.586423
O O7 0.581142 0.115708 0.007411
O O8 0.999775 0.272428 0.814191
O O9 0.094859 0.338739 0.573219
O O10 0.826748 0.302536 0.501549
O O11 0.068563 0.356481 0.161270
O O12 0.000000 0.500000 0.000000
O O13 0.975047 0.896597 0.924742
O O14 0.309486 0.829713 0.682270
O O15 0.322581 0.049858 0.822277
#
# Coordination Sequence:
#
# PCOD9084323 Si02
#       7
#     2   2   2   2   2   2   2
#     4  10  21  38  63  81 115 159 193 228 288 355
#     4   9  19  38  58  86 116 147 195 244 282 331
#     4  10  20  37  58  84 123 146 185 250 285 328
#     4   9  21  38  57  84 116 152 189 235 284 342
#     4   9  20  36  55  85 120 145 189 243 291 329
#     4  10  19  34  63  82 115 156 196 226 289 351
#     4   9  18  35  59  85 111 153 192 236 285 349
#
# _framework density 26.62903
#
# number of rings (size 3 to 8) (size 9 to 14) (size 15 to 20)
#    0.000    2.571    0.000    1.714    4.000    1.143 
#    2.571    2.857    3.143    0.000    0.000    0.000 
#    0.000    0.000    0.000    0.000    0.000    0.000 
#
# Total GULP energy -78080.880230 kJ/mol
# GULP energy per Si atom -5577.205731 kJ/mol
# Density = 2.656842 g / cm^3
# Si number density = 26.629030 Si / 1000 Ang^3
#
#
#
# Elastic Constant Matrix: (Units=GPa)
#
#
# Indices 1 2 3 4 5 6 
#
# 1 95.2448 57.8346 47.9932 -9.5793 45.2420 -16.6114
# 2 57.8346 204.3024 94.4577 14.9079 49.8294 -11.4211
# 3 47.9932 94.4577 139.8640 22.8432 63.7659 18.6673
# 4 -9.5793 14.9079 22.8432 52.1719 3.0436 15.3101
# 5 45.2420 49.8294 63.7659 3.0436 51.1516 7.1220
# 6 -16.6114 -11.4211 18.6673 15.3101 7.1220 53.0994
#
#
#
# Elastic Compliance Matrix: (Units=1/GPa)
#
#
# Indices 1 2 3 4 5 6 
#
# 1 0.022860 -0.001624 0.001846 0.002698 -0.022262 0.008361
# 2 -0.001624 0.008040 -0.004607 -0.001521 -0.001037 0.003418
# 3 0.001846 -0.004607 0.021545 -0.005455 -0.023218 -0.003301
# 4 0.002698 -0.001521 -0.005455 0.023676 0.005195 -0.005089
# 5 -0.022262 -0.001037 -0.023218 0.005195 0.070271 -0.009948
# 6 0.008361 0.003418 -0.003301 -0.005089 -0.009948 0.026145
#
#
# Mechanical properties :
#
#
# Convention : Reuss Voigt Hill
#
# Bulk Modulus (GPa) = 22.89745 93.33135 58.11440
# Shear Modulus (GPa) = 25.52775 47.22631 36.37703
#
# Velocity S-wave (km/s) = 3.09956 4.21585 3.70004
# Velocity P-wave (km/s) = 4.62893 7.66959 6.33442
#
# Compressibility (1/GPa) = 0.04367299
#
# Stress axis : x y z
#
# Youngs Moduli (GPa) = 43.74494 124.38240 46.41476
#
# Poissons Ratio (x) = 0.20205 -0.08568
# Poissons Ratio (y) = 0.07106 0.21384
# Poissons Ratio (z) = -0.08075 0.57305
#
# Static dielectric constant tensor:
#      x y z
#    x 2.151380 0.108880 -0.063000 
#    y 0.108880 2.288790 0.082590 
#    z -0.063000 0.082590 2.183170 
# 
# From -- ./inp_files/175476.got.cif
#   From: 2010.05.17/outbox.cif.g08.bks.cpg/sg2_88_cif.got.tgz:175476.got - 2010.06.03 11:33:40.
