data_PCOD9084107
_publ_section_title
;
Structure prediction by ZEFSAII (Michael W. Deem and Ramdas Pophale) SiO2 
 PCOD9084107
Probable space group: P -1
;
_chemical_formula_sum "Si O2"
_cell_formula_units_Z 16
_cell_length_a 16.801044
_cell_length_b 8.975415
_cell_length_c 14.655185
_cell_angle_alpha 41.874499
_cell_angle_beta 140.768074
_cell_angle_gamma 146.888131
_cell_volume 733.589823
_symmetry_space_group_name_H-M "P -1"
_symmetry_group_IT_number 2
_symmetry_cell_setting 'triclinic'
loop_
_space_group_symop_operation_xyz
x,y,z
-x,-y,-z
loop_
_atom_site_type_symbol
_atom_site_label
_atom_site_fract_x
_atom_site_fract_y
_atom_site_fract_z
Si Si1 0.490735 0.187650 0.553897
Si Si2 0.795212 0.674065 0.505591
Si Si3 0.070164 0.738481 0.824803
Si Si4 0.000738 0.201231 0.062658
Si Si5 0.381786 0.571203 0.246678
Si Si6 0.902134 0.599953 0.248024
Si Si7 0.815667 0.438018 0.455080
Si Si8 0.320887 0.973828 0.792453
O O1 0.651509 0.364762 0.557307
O O2 0.410575 0.338942 0.391257
O O3 0.544128 0.239279 0.682935
O O4 0.359823 0.860050 0.567979
O O5 0.954234 0.778022 0.650815
O O6 0.811104 0.633847 0.432392
O O7 0.749952 0.881717 0.387484
O O8 0.075127 0.817715 0.898093
O O9 0.241813 0.905392 0.852964
O O10 0.982989 0.400775 0.894169
O O11 0.193082 0.398841 0.154449
O O12 0.937676 0.892078 0.116044
O O13 0.489402 0.785173 0.161753
O O14 0.864032 0.561365 0.339918
O O15 0.757711 0.324473 0.190945
O O16 0.056593 0.606465 0.375714
#
# Coordination Sequence:
#
# PCOD9084107 Si02
#       8
#     2   2   2   2   2   2   2   2
#     4  10  19  34  60  89 123 155 194 250 306 349
#     4  11  22  37  62  91 126 151 201 248 305 358
#     4  11  24  40  62  87 119 170 196 245 298 357
#     4  11  24  43  62  84 124 165 206 236 294 373
#     4  10  20  37  62  88 120 158 198 249 298 353
#     4  11  23  35  62  91 120 154 199 249 300 350
#     4  11  21  34  58  96 121 151 194 254 308 343
#     4  11  23  40  64  94 120 154 199 258 303 344
#
# _framework density 21.810554
#
# number of rings (size 3 to 8) (size 9 to 14) (size 15 to 20)
#    0.000    1.250    5.000    1.500    3.500    1.000 
#    0.000    0.000    0.000    8.250    0.000    0.000 
#    0.000    0.000    0.000    0.000    0.000    0.000 
#
# Total GULP energy -89492.402301 kJ/mol
# GULP energy per Si atom -5593.275144 kJ/mol
# Density = 2.176091 g / cm^3
# Si number density = 21.810554 Si / 1000 Ang^3
#
#
#
# Elastic Constant Matrix: (Units=GPa)
#
#
# Indices 1 2 3 4 5 6 
#
# 1 100.7281 13.4693 20.1149 -5.2774 -11.4339 24.6460
# 2 13.4693 102.0128 40.5003 -34.1123 1.0951 14.6371
# 3 20.1149 40.5003 34.1796 -12.4245 9.6671 0.8243
# 4 -5.2774 -34.1123 -12.4245 29.4254 -2.0850 6.3344
# 5 -11.4339 1.0951 9.6671 -2.0850 26.2041 -6.1212
# 6 24.6460 14.6371 0.8243 6.3344 -6.1212 34.8342
#
#
#
# Elastic Compliance Matrix: (Units=1/GPa)
#
#
# Indices 1 2 3 4 5 6 
#
# 1 0.024371 0.022932 -0.038431 0.021814 0.019392 -0.026529
# 2 0.022932 0.058787 -0.070162 0.054114 0.027392 -0.044294
# 3 -0.038431 -0.070162 0.131572 -0.047858 -0.053850 0.052799
# 4 0.021814 0.054114 -0.047858 0.092704 0.020541 -0.050288
# 5 0.019392 0.027392 -0.053850 0.020541 0.063100 -0.016603
# 6 -0.026529 -0.044294 0.052799 -0.050288 -0.016603 0.071067
#
#
# Mechanical properties :
#
#
# Convention : Reuss Voigt Hill
#
# Bulk Modulus (GPa) = 23.03736 42.78774 32.91255
# Shear Modulus (GPa) = 7.96951 28.94846 18.45899
#
# Velocity S-wave (km/s) = 1.91361 3.64712 2.91234
# Velocity P-wave (km/s) = 3.93293 6.11521 5.14120
#
# Compressibility (1/GPa) = 0.04340775
#
# Stress axis : x y z
#
# Youngs Moduli (GPa) = 41.03276 17.01062 7.60042
#
# Poissons Ratio (x) = -0.39009 0.29209
# Poissons Ratio (y) = -0.94098 0.53326
# Poissons Ratio (z) = 1.57693 1.19350
#
# Static dielectric constant tensor:
#      x y z
#    x 1.813940 0.025820 -0.018730 
#    y 0.025820 1.752980 -0.035800 
#    z -0.018730 -0.035800 1.814600 
# 
# From -- ./inp_files/256871.got.cif
#   From: 2010.05.17/outbox.cif.g08.bks.cpg/sg2_129_cif.got.tgz:256871.got - 2010.06.03 11:33:40.
