data_PCOD9084252
_publ_section_title
;
Structure prediction by ZEFSAII (Michael W. Deem and Ramdas Pophale) SiO2 
 PCOD9084252
Probable space group: P -1
;
_chemical_formula_sum "Si O2"
_cell_formula_units_Z 14
_cell_length_a 12.277672
_cell_length_b 8.211441
_cell_length_c 13.123908
_cell_angle_alpha 48.026353
_cell_angle_beta 44.752589
_cell_angle_gamma 64.973919
_cell_volume 689.139092
_symmetry_space_group_name_H-M "P -1"
_symmetry_group_IT_number 2
_symmetry_cell_setting 'triclinic'
loop_
_space_group_symop_operation_xyz
x,y,z
-x,-y,-z
loop_
_atom_site_type_symbol
_atom_site_label
_atom_site_fract_x
_atom_site_fract_y
_atom_site_fract_z
Si Si1 0.458126 0.760640 0.178855
Si Si2 0.339894 0.520958 0.156003
Si Si3 0.220917 0.424315 0.927727
Si Si4 0.106926 0.637928 0.108430
Si Si5 0.100321 0.112979 0.529943
Si Si6 0.852861 0.281890 0.485487
Si Si7 0.914752 0.151692 0.163856
O O1 0.382588 0.610213 0.201274
O O2 0.614901 0.666493 0.151473
O O3 0.328575 0.748591 0.357521
O O4 0.500000 0.000000 0.000000
O O5 0.226919 0.671769 0.106901
O O6 0.239135 0.286941 0.329165
O O7 0.500000 0.500000 0.000000
O O8 0.203857 0.671290 0.795232
O O9 0.177896 0.456681 0.062282
O O10 0.085133 0.266639 0.031373
O O11 0.939284 0.521579 0.301138
O O12 0.102015 0.841220 0.949554
O O13 0.942035 0.204613 0.559338
O O14 0.110996 0.885678 0.557886
O O15 0.108763 0.066714 0.663557
#
# Coordination Sequence:
#
# PCOD9084252 Si02
#       7
#     2   2   2   2   2   2   2
#     4  12  24  36  56  87 119 146 190 249 287 322
#     4  11  21  37  57  84 116 148 191 241 282 334
#     4   9  17  34  60  83 112 148 189 226 275 337
#     4   9  18  35  62  81 113 147 192 224 276 342
#     4  10  19  34  62  84 112 153 193 227 281 347
#     4  10  20  34  58  89 113 148 194 234 280 334
#     4   9  16  35  63  86 106 155 193 222 275 355
#
# _framework density 20.315204000000001
#
# number of rings (size 3 to 8) (size 9 to 14) (size 15 to 20)
#    0.857    1.143    2.857    1.714    2.000    2.286 
#    0.000    5.714    0.000    9.429    0.000    0.000 
#    0.000    0.000    0.000    0.000    0.000    0.000 
#
# Total GULP energy -78086.956596 kJ/mol
# GULP energy per Si atom -5577.639757 kJ/mol
# Density = 2.026897 g / cm^3
# Si number density = 20.315204 Si / 1000 Ang^3
#
#
#
# Elastic Constant Matrix: (Units=GPa)
#
#
# Indices 1 2 3 4 5 6 
#
# 1 107.6658 7.0164 29.6133 -4.8798 6.9091 -26.2350
# 2 7.0164 33.2968 15.8083 11.2981 -6.6850 -15.9597
# 3 29.6133 15.8083 84.5111 12.1261 4.8556 -31.3368
# 4 -4.8798 11.2981 12.1261 22.2023 -6.8510 -10.3789
# 5 6.9091 -6.6850 4.8556 -6.8510 40.4371 1.1966
# 6 -26.2350 -15.9597 -31.3368 -10.3789 1.1966 23.2530
#
#
#
# Elastic Compliance Matrix: (Units=1/GPa)
#
#
# Indices 1 2 3 4 5 6 
#
# 1 0.017276 0.006507 0.004017 0.014866 -0.000907 0.036052
# 2 0.006507 0.051617 0.006995 -0.003778 0.004454 0.050279
# 3 0.004017 0.006995 0.025817 0.003653 -0.003370 0.045928
# 4 0.014866 -0.003778 0.003653 0.074952 0.007552 0.052169
# 5 -0.000907 0.004454 -0.003370 0.007552 0.027321 -0.000543
# 6 0.036052 0.050279 0.045928 0.052169 -0.000543 0.203398
#
#
# Mechanical properties :
#
#
# Convention : Reuss Voigt Hill
#
# Bulk Modulus (GPa) = 7.70739 36.70549 22.20644
# Shear Modulus (GPa) = 12.23711 28.71421 20.47566
#
# Velocity S-wave (km/s) = 2.45697 3.76365 3.17819
# Velocity P-wave (km/s) = 3.44254 6.08226 4.94191
#
# Compressibility (1/GPa) = 0.12974562
#
# Stress axis : x y z
#
# Youngs Moduli (GPa) = 57.88362 19.37349 38.73484
#
# Poissons Ratio (x) = -0.12606 -0.15558
# Poissons Ratio (y) = -0.37665 -0.27093
# Poissons Ratio (z) = -0.23249 -0.13551
#
# Static dielectric constant tensor:
#      x y z
#    x 1.733480 -0.000400 0.038530 
#    y -0.000400 1.768110 0.008460 
#    z 0.038530 0.008460 1.723970 
# 
# From -- ./inp_files/515014.got.cif
#   From: 2010.05.17/outbox.cif.g08.bks.cpg/sg2_258_cif.got.tgz:515014.got - 2010.06.03 11:33:40.
