data_PCOD9084059
_publ_section_title
;
Structure prediction by ZEFSAII (Michael W. Deem and Ramdas Pophale) SiO2 
 PCOD9084059
Probable space group: P -1
;
_chemical_formula_sum "Si O2"
_cell_formula_units_Z 16
_cell_length_a 21.193816
_cell_length_b 9.231841
_cell_length_c 14.423321
_cell_angle_alpha 125.784244
_cell_angle_beta 161.135009
_cell_angle_gamma 53.178943
_cell_volume 728.754269
_symmetry_space_group_name_H-M "P -1"
_symmetry_group_IT_number 2
_symmetry_cell_setting 'triclinic'
loop_
_space_group_symop_operation_xyz
x,y,z
-x,-y,-z
loop_
_atom_site_type_symbol
_atom_site_label
_atom_site_fract_x
_atom_site_fract_y
_atom_site_fract_z
Si Si1 0.237683 0.873769 0.571524
Si Si2 0.472563 0.345721 0.831491
Si Si3 0.279278 0.386535 0.298703
Si Si4 0.784923 0.994407 0.154083
Si Si5 0.318635 0.227333 0.921591
Si Si6 0.330374 0.610141 0.080145
Si Si7 0.895836 0.472309 0.696011
Si Si8 0.167096 0.016013 0.003781
O O1 0.452733 0.800067 0.801958
O O2 0.176807 0.718922 0.496145
O O3 0.061695 0.904416 0.263221
O O4 0.239025 0.069561 0.693617
O O5 0.569153 0.372957 0.875170
O O6 0.234710 0.375599 0.492574
O O7 0.500000 0.500000 0.000000
O O8 0.600238 0.159123 0.976525
O O9 0.496881 0.433472 0.618926
O O10 0.180915 0.485037 0.290274
O O11 0.132227 0.440522 0.027672
O O12 0.293099 0.171350 0.261976
O O13 0.813554 0.989697 0.082820
O O14 0.000000 0.000000 0.500000
O O15 0.713390 0.823278 0.036293
O O16 0.223541 0.437275 0.855672
O O17 0.217517 0.808208 0.025118
#
# Coordination Sequence:
#
# PCOD9084059 Si02
#       8
#     2   2   2   2   2   2   2   2
#     4  10  19  34  60  83 113 151 194 234 288 340
#     4  10  20  34  56  84 118 147 194 233 285 348
#     4   9  17  33  62  84 114 148 203 239 274 337
#     4  11  23  38  53  86 122 154 182 238 300 346
#     4  11  21  36  59  81 122 154 190 235 293 349
#     4  10  21  37  56  93 112 154 196 243 283 338
#     4   9  17  34  58  92 107 149 202 245 267 340
#     4  10  21  37  60  86 117 152 197 239 286 341
#
# _framework density 21.955273999999999
#
# number of rings (size 3 to 8) (size 9 to 14) (size 15 to 20)
#    0.000    2.000    3.750    1.125    3.500    0.500 
#    0.000    0.625    0.000    0.750    0.000    0.000 
#    0.000    0.000    0.000    0.000    0.000    0.000 
#
# Total GULP energy -89108.098297 kJ/mol
# GULP energy per Si atom -5569.256144 kJ/mol
# Density = 2.190530 g / cm^3
# Si number density = 21.955274 Si / 1000 Ang^3
#
#
#
# Elastic Constant Matrix: (Units=GPa)
#
#
# Indices 1 2 3 4 5 6 
#
# 1 15.9621 0.6216 8.0665 -0.6516 -0.6004 -2.3834
# 2 0.6216 145.8213 27.6382 3.7836 -4.1231 -10.0944
# 3 8.0665 27.6382 70.4443 -4.2961 -15.0853 -0.4380
# 4 -0.6516 3.7836 -4.2961 36.8339 0.0466 -2.1684
# 5 -0.6004 -4.1231 -15.0853 0.0466 14.9771 1.5994
# 6 -2.3834 -10.0944 -0.4380 -2.1684 1.5994 27.8376
#
#
#
# Elastic Compliance Matrix: (Units=1/GPa)
#
#
# Indices 1 2 3 4 5 6 
#
# 1 0.068458 0.001886 -0.010174 0.000243 -0.007716 0.006847
# 2 0.001886 0.007725 -0.003679 -0.001014 -0.001813 0.002930
# 3 -0.010174 -0.003679 0.021289 0.002488 0.020318 -0.002844
# 4 0.000243 -0.001014 0.002488 0.027647 0.001965 0.001733
# 5 -0.007716 -0.001813 0.020318 0.001965 0.087043 -0.005846
# 6 0.006847 0.002930 -0.002844 0.001733 -0.005846 0.037997
#
#
# Mechanical properties :
#
#
# Convention : Reuss Voigt Hill
#
# Bulk Modulus (GPa) = 13.59818 33.87560 23.73689
# Shear Modulus (GPa) = 16.74448 28.98982 22.86715
#
# Velocity S-wave (km/s) = 2.76463 3.63768 3.23078
# Velocity P-wave (km/s) = 4.04944 5.75382 4.97516
#
# Compressibility (1/GPa) = 0.07353926
#
# Stress axis : x y z
#
# Youngs Moduli (GPa) = 14.60739 129.45384 46.97279
#
# Poissons Ratio (x) = -0.24415 0.47790
# Poissons Ratio (y) = -0.02755 0.17279
# Poissons Ratio (z) = 0.14861 0.47620
#
# Static dielectric constant tensor:
#      x y z
#    x 1.794450 -0.017870 0.005800 
#    y -0.017870 1.892680 -0.031440 
#    z 0.005800 -0.031440 1.872450 
# 
# From -- ./inp_files/397481.got.cif
#   From: 2010.05.17/outbox.cif.g08.bks.cpg/sg2_199_cif.got.tgz:397481.got - 2010.06.03 11:33:40.
