data_PCOD9084532
_publ_section_title
;
Structure prediction by ZEFSAII (Michael W. Deem and Ramdas Pophale) SiO2 
 PCOD9084532
Probable space group: P -1
;
_chemical_formula_sum "Si O2"
_cell_formula_units_Z 12
_cell_length_a 7.384239
_cell_length_b 18.368995
_cell_length_c 6.650172
_cell_angle_alpha 40.048151
_cell_angle_beta 62.715964
_cell_angle_gamma 77.295930
_cell_volume 502.110172
_symmetry_space_group_name_H-M "P -1"
_symmetry_group_IT_number 2
_symmetry_cell_setting 'triclinic'
loop_
_space_group_symop_operation_xyz
x,y,z
-x,-y,-z
loop_
_atom_site_type_symbol
_atom_site_label
_atom_site_fract_x
_atom_site_fract_y
_atom_site_fract_z
Si Si1 0.132518 0.471877 0.802190
Si Si2 0.301243 0.370372 0.278750
Si Si3 0.970131 0.167874 0.739734
Si Si4 0.263463 0.592744 0.087162
Si Si5 0.472602 0.945584 0.911403
Si Si6 0.222778 0.074936 0.501941
O O1 0.228316 0.573676 0.382789
O O2 0.950189 0.387748 0.942342
O O3 0.305459 0.424984 0.935346
O O4 0.000000 0.500000 0.000000
O O5 0.089204 0.272245 0.593833
O O6 0.287632 0.467285 0.247212
O O7 0.517073 0.327395 0.265944
O O8 0.117097 0.164957 0.477437
O O9 0.734033 0.156476 0.807732
O O10 0.946424 0.047372 0.129299
O O11 0.676819 0.908626 0.801950
O O12 0.417104 0.052298 0.584228
O O13 0.500000 0.000000 0.000000
#
# Coordination Sequence:
#
# PCOD9084532 Si02
#       6
#     2   2   2   2   2   2
#     4   9  18  36  55  75 106 141 179 224 267 319
#     4  10  19  35  54  79 111 135 186 222 261 324
#     4   9  18  37  52  79 110 141 174 226 265 313
#     4   9  19  36  56  76 105 151 171 217 283 310
#     4   9  17  35  57  74 103 145 177 216 270 317
#     4   8  18  37  52  73 112 141 168 222 273 304
#
# _framework density 23.899135000000001
#
# number of rings (size 3 to 8) (size 9 to 14) (size 15 to 20)
#    1.000    2.000    0.000    0.500    0.000    0.667 
#   15.000    0.000    0.000    0.000    0.000    0.000 
#    0.000    0.000    0.000    0.000    0.000    0.000 
#
# Total GULP energy -66811.283261 kJ/mol
# GULP energy per Si atom -5567.606938 kJ/mol
# Density = 2.384474 g / cm^3
# Si number density = 23.899135 Si / 1000 Ang^3
#
#
#
# Elastic Constant Matrix: (Units=GPa)
#
#
# Indices 1 2 3 4 5 6 
#
# 1 74.5931 7.9838 16.7857 14.4346 -15.3663 4.9662
# 2 7.9838 78.5667 50.1125 9.2241 -18.2674 7.8737
# 3 16.7857 50.1125 77.2063 26.4603 -24.7961 -1.1476
# 4 14.4346 9.2241 26.4603 37.9913 -2.2477 -6.1619
# 5 -15.3663 -18.2674 -24.7961 -2.2477 40.6229 6.0304
# 6 4.9662 7.8737 -1.1476 -6.1619 6.0304 30.5624
#
#
#
# Elastic Compliance Matrix: (Units=1/GPa)
#
#
# Indices 1 2 3 4 5 6 
#
# 1 0.016574 0.001240 0.000511 -0.007478 0.007617 -0.006004
# 2 0.001240 0.023890 -0.016656 0.004402 0.002260 -0.006540
# 3 0.000511 -0.016656 0.034440 -0.019537 0.012788 -0.000961
# 4 -0.007478 0.004402 -0.019537 0.042666 -0.011944 0.010306
# 5 0.007617 0.002260 0.012788 -0.011944 0.037308 -0.011109
# 6 -0.006004 -0.006540 -0.000961 0.010306 -0.011109 0.039614
#
#
# Mechanical properties :
#
#
# Convention : Reuss Voigt Hill
#
# Bulk Modulus (GPa) = 22.17517 42.23667 32.20592
# Shear Modulus (GPa) = 20.89138 32.20093 26.54616
#
# Velocity S-wave (km/s) = 2.95981 3.67463 3.33642
# Velocity P-wave (km/s) = 4.58033 5.97622 5.32422
#
# Compressibility (1/GPa) = 0.04509548
#
# Stress axis : x y z
#
# Youngs Moduli (GPa) = 60.33515 41.85905 29.03560
#
# Poissons Ratio (x) = -0.05191 -0.01485
# Poissons Ratio (y) = -0.07483 0.48362
# Poissons Ratio (z) = -0.03086 0.69720
#
# Static dielectric constant tensor:
#      x y z
#    x 2.014370 -0.046620 0.003770 
#    y -0.046620 2.006350 -0.002210 
#    z 0.003770 -0.002210 1.979410 
# 
# From -- ./inp_files/50980.got.cif
#   From: 2010.05.17/outbox.cif.g08.bks.cpg/sg2_26_cif.got.tgz:50980.got - 2010.06.03 11:33:40.
