data_PCOD9084986
_publ_section_title
;
Structure prediction by ZEFSAII (Michael W. Deem and Ramdas Pophale) SiO2 
 PCOD9084986
Probable space group: P -1
;
_chemical_formula_sum "Si O2"
_cell_formula_units_Z 14
_cell_length_a 5.026228
_cell_length_b 29.824259
_cell_length_c 23.434666
_cell_angle_alpha 11.527902
_cell_angle_beta 96.266930
_cell_angle_gamma 95.833656
_cell_volume 697.598295
_symmetry_space_group_name_H-M "P -1"
_symmetry_group_IT_number 2
_symmetry_cell_setting 'triclinic'
loop_
_space_group_symop_operation_xyz
x,y,z
-x,-y,-z
loop_
_atom_site_type_symbol
_atom_site_label
_atom_site_fract_x
_atom_site_fract_y
_atom_site_fract_z
Si Si1 0.825685 0.318209 0.862914
Si Si2 0.415420 0.820432 0.138795
Si Si3 0.739073 0.886896 0.610469
Si Si4 0.179842 0.180975 0.746836
Si Si5 0.268322 0.339785 0.758546
Si Si6 0.798372 0.893375 0.468603
Si Si7 0.670940 0.398042 0.184443
O O1 0.921078 0.563301 0.580113
O O2 0.516955 0.328810 0.822475
O O3 0.005940 0.265365 0.877419
O O4 0.860579 0.126234 0.149616
O O5 0.574444 0.798433 0.229399
O O6 0.240402 0.597477 0.413941
O O7 0.625934 0.802011 0.115864
O O8 0.262521 0.057906 0.843821
O O9 0.733179 0.930903 0.487162
O O10 0.500000 0.000000 0.500000
O O11 0.734674 0.614715 0.953873
O O12 0.000000 0.000000 0.500000
O O13 0.000000 0.000000 0.000000
O O14 0.538084 0.781567 0.573084
O O15 0.056662 0.726115 0.675410
O O16 0.500000 0.500000 0.000000
#
# Coordination Sequence:
#
# PCOD9084986 Si02
#       7
#     2   2   2   2   2   2   2
#     4  11  23  38  58  83 120 156 201 244 307 349
#     4   9  20  34  56  83 110 147 210 254 289 343
#     4  11  21  37  65  95 117 149 197 244 291 352
#     4  10  19  35  58  82 113 159 199 244 300 356
#     4  10  21  36  58  83 109 153 202 256 289 346
#     4  11  22  40  61  88 124 164 196 246 300 366
#     4  10  20  39  65  87 116 158 201 231 287 366
#
# _framework density 20.068857000000001
#
# number of rings (size 3 to 8) (size 9 to 14) (size 15 to 20)
#    0.000    1.714    1.429    5.143    2.000    1.714 
#    0.000    4.286    3.143    0.000    0.000    0.000 
#    0.000    0.000    0.000    0.000    0.000    0.000 
#
# Total GULP energy -78108.083199 kJ/mol
# GULP energy per Si atom -5579.148800 kJ/mol
# Density = 2.002318 g / cm^3
# Si number density = 20.068857 Si / 1000 Ang^3
#
#
#
# Elastic Constant Matrix: (Units=GPa)
#
#
# Indices 1 2 3 4 5 6 
#
# 1 109.3186 31.3739 42.8160 -10.4676 -8.5806 -13.1216
# 2 31.3739 93.9363 73.4669 -18.7911 4.4359 -22.7332
# 3 42.8160 73.4669 149.6224 -14.3585 -4.7794 -23.5217
# 4 -10.4676 -18.7911 -14.3585 36.7843 -3.1505 -1.8882
# 5 -8.5806 4.4359 -4.7794 -3.1505 34.0722 -6.9791
# 6 -13.1216 -22.7332 -23.5217 -1.8882 -6.9791 33.4260
#
#
#
# Elastic Compliance Matrix: (Units=1/GPa)
#
#
# Indices 1 2 3 4 5 6 
#
# 1 0.011065 -0.001333 -0.001688 0.002275 0.003573 0.003124
# 2 -0.001333 0.020806 -0.007905 0.007425 -0.001806 0.008106
# 3 -0.001688 -0.007905 0.011608 0.000395 0.002831 0.002742
# 4 0.002275 0.007425 0.000395 0.032630 0.004524 0.009009
# 5 0.003573 -0.001806 0.002831 0.004524 0.033217 0.009357
# 6 0.003124 0.008106 0.002742 0.009009 0.009357 0.041048
#
#
# Mechanical properties :
#
#
# Convention : Reuss Voigt Hill
#
# Bulk Modulus (GPa) = 46.24238 72.02124 59.13181
# Shear Modulus (GPa) = 27.86534 34.53787 31.20160
#
# Velocity S-wave (km/s) = 3.73028 4.15296 3.94728
# Velocity P-wave (km/s) = 6.45331 7.67861 7.09247
#
# Compressibility (1/GPa) = 0.02162519
#
# Stress axis : x y z
#
# Youngs Moduli (GPa) = 90.37856 48.06380 86.14925
#
# Poissons Ratio (x) = 0.06406 0.14545
# Poissons Ratio (y) = 0.12045 0.68104
# Poissons Ratio (z) = 0.15259 0.37996
#
# Static dielectric constant tensor:
#      x y z
#    x 1.748260 0.012810 -0.011600 
#    y 0.012810 1.717510 -0.025810 
#    z -0.011600 -0.025810 1.770650 
# 
# From -- ./inp_files/115747.got.cif
#   From: 2010.05.17/outbox.cif.g08.bks.cpg/sg2_58_cif.got.tgz:115747.got - 2010.06.03 11:33:40.
