data_PCOD9084249
_publ_section_title
;
Structure prediction by ZEFSAII (Michael W. Deem and Ramdas Pophale) SiO2 
 PCOD9084249
Probable space group: P -1
;
_chemical_formula_sum "Si O2"
_cell_formula_units_Z 16
_cell_length_a 10.397866
_cell_length_b 7.117732
_cell_length_c 13.637420
_cell_angle_alpha 106.249298
_cell_angle_beta 47.863958
_cell_angle_gamma 87.832702
_cell_volume 681.536151
_symmetry_space_group_name_H-M "P -1"
_symmetry_group_IT_number 2
_symmetry_cell_setting 'triclinic'
loop_
_space_group_symop_operation_xyz
x,y,z
-x,-y,-z
loop_
_atom_site_type_symbol
_atom_site_label
_atom_site_fract_x
_atom_site_fract_y
_atom_site_fract_z
Si Si1 0.369280 0.781632 0.607976
Si Si2 0.262305 0.890012 0.343704
Si Si3 0.317520 0.475653 0.452457
Si Si4 0.103477 0.186848 0.824750
Si Si5 0.875466 0.372279 0.137131
Si Si6 0.202085 0.797816 0.155572
Si Si7 0.552242 0.474538 0.161446
Si Si8 0.983528 0.693370 0.410274
O O1 0.352363 0.688512 0.496700
O O2 0.562924 0.672586 0.544432
O O3 0.220011 0.716214 0.741683
O O4 0.301454 0.026464 0.681352
O O5 0.235128 0.938633 0.247315
O O6 0.457361 0.717295 0.227267
O O7 0.116646 0.767110 0.425349
O O8 0.193623 0.098514 0.470470
O O9 0.414047 0.400330 0.288817
O O10 0.109875 0.480117 0.555015
O O11 0.090705 0.413369 0.825931
O O12 0.955430 0.107458 0.829970
O O13 0.050443 0.214677 0.971071
O O14 0.729601 0.434381 0.132057
O O15 0.113393 0.653703 0.243911
O O16 0.382167 0.661607 0.988356
#
# Coordination Sequence:
#
# PCOD9084249 Si02
#       8
#     2   2   2   2   2   2   2   2
#     4  10  21  36  55  85 124 153 187 246 294 344
#     4   9  20  36  62  82 110 157 194 240 288 341
#     4  10  22  37  53  88 120 149 194 243 286 356
#     4  10  19  34  62  81 118 157 194 235 303 343
#     4   9  20  36  54  92 113 151 200 241 283 366
#     4   9  19  37  58  83 112 150 196 241 275 361
#     4  10  20  36  59  81 118 148 191 242 296 336
#     4   9  20  37  58  79 118 146 199 242 277 351
#
# _framework density 23.476375000000001
#
# number of rings (size 3 to 8) (size 9 to 14) (size 15 to 20)
#    0.750    1.750    0.000    1.500    3.500    0.500 
#    0.000    3.125    2.750    0.000    0.000    0.000 
#    0.000    0.000    0.000    0.000    0.000    0.000 
#
# Total GULP energy -89161.303910 kJ/mol
# GULP energy per Si atom -5572.581494 kJ/mol
# Density = 2.342294 g / cm^3
# Si number density = 23.476375 Si / 1000 Ang^3
#
#
#
# Elastic Constant Matrix: (Units=GPa)
#
#
# Indices 1 2 3 4 5 6 
#
# 1 35.5661 8.3692 9.0547 3.1866 6.7885 7.6687
# 2 8.3692 30.0589 12.3188 0.7920 13.1828 4.0785
# 3 9.0547 12.3188 119.5279 -7.6088 3.4717 -2.4673
# 4 3.1866 0.7920 -7.6088 37.6934 -9.1645 -9.7871
# 5 6.7885 13.1828 3.4717 -9.1645 22.6042 1.4928
# 6 7.6687 4.0785 -2.4673 -9.7871 1.4928 26.9662
#
#
#
# Elastic Compliance Matrix: (Units=1/GPa)
#
#
# Indices 1 2 3 4 5 6 
#
# 1 0.035322 -0.000847 -0.003133 -0.010153 -0.012879 -0.013175
# 2 -0.000847 0.052647 -0.005448 -0.013375 -0.034297 -0.011176
# 3 -0.003133 -0.005448 0.009399 0.004302 0.004161 0.003906
# 4 -0.010153 -0.013375 0.004302 0.039323 0.024930 0.018196
# 5 -0.012879 -0.034297 0.004161 0.024930 0.076651 0.014035
# 6 -0.013175 -0.011176 0.003906 0.018196 0.014035 0.048705
#
#
# Mechanical properties :
#
#
# Convention : Reuss Voigt Hill
#
# Bulk Modulus (GPa) = 12.73687 27.18203 19.95945
# Shear Modulus (GPa) = 16.28279 27.81344 22.04811
#
# Velocity S-wave (km/s) = 2.63645 3.44574 3.06790
# Velocity P-wave (km/s) = 3.83471 5.23779 4.59018
#
# Compressibility (1/GPa) = 0.07851220
#
# Stress axis : x y z
#
# Youngs Moduli (GPa) = 28.31070 18.99460 106.39823
#
# Poissons Ratio (x) = 0.01610 0.33331
# Poissons Ratio (y) = 0.02399 0.57962
# Poissons Ratio (z) = 0.08869 0.10348
#
# Static dielectric constant tensor:
#      x y z
#    x 1.949870 -0.016070 0.032890 
#    y -0.016070 1.937040 0.004670 
#    z 0.032890 0.004670 1.942540 
# 
# From -- ./inp_files/514598.got.cif
#   From: 2010.05.17/outbox.cif.g08.bks.cpg/sg2_258_cif.got.tgz:514598.got - 2010.06.03 11:33:40.
