data_PCOD9084851
_publ_section_title
;
Structure prediction by ZEFSAII (Michael W. Deem and Ramdas Pophale) SiO2 
 PCOD9084851
Probable space group: P -1
;
_chemical_formula_sum "Si O2"
_cell_formula_units_Z 14
_cell_length_a 11.686071
_cell_length_b 8.912899
_cell_length_c 21.441492
_cell_angle_alpha 26.873065
_cell_angle_beta 139.056462
_cell_angle_gamma 139.702234
_cell_volume 631.022535
_symmetry_space_group_name_H-M "P -1"
_symmetry_group_IT_number 2
_symmetry_cell_setting 'triclinic'
loop_
_space_group_symop_operation_xyz
x,y,z
-x,-y,-z
loop_
_atom_site_type_symbol
_atom_site_label
_atom_site_fract_x
_atom_site_fract_y
_atom_site_fract_z
Si Si1 0.890630 0.629267 0.853635
Si Si2 0.465951 0.250790 0.813246
Si Si3 0.033331 0.924450 0.972019
Si Si4 0.470341 0.721619 0.533072
Si Si5 0.553991 0.602840 0.055324
Si Si6 0.095309 0.715592 0.324113
Si Si7 0.301713 0.713740 0.663430
O O1 0.675726 0.455923 0.841420
O O2 0.930395 0.036231 0.721932
O O3 0.962494 0.471814 0.882449
O O4 0.000000 0.500000 0.000000
O O5 0.458910 0.368995 0.694836
O O6 0.342024 0.413499 0.746099
O O7 0.440459 0.839156 0.953401
O O8 0.237578 0.143646 0.954299
O O9 0.903581 0.051384 0.823715
O O10 0.000000 0.000000 0.000000
O O11 0.285929 0.659034 0.440524
O O12 0.500000 0.000000 0.500000
O O13 0.633843 0.920265 0.481198
O O14 0.571133 0.294609 0.221334
O O15 0.500000 0.500000 0.000000
O O16 0.911352 0.395980 0.365814
#
# Coordination Sequence:
#
# PCOD9084851 Si02
#       7
#     2   2   2   2   2   2   2
#     4   9  17  32  54  81 110 146 187 232 281 336
#     4  10  20  38  56  86 116 148 192 231 291 344
#     4   9  20  33  54  80 112 151 190 234 286 333
#     4  10  20  36  60  84 122 151 185 232 292 346
#     4  10  22  36  58  84 113 147 199 238 279 339
#     4  10  19  35  57  85 115 148 191 231 286 340
#     4  10  21  36  61  87 115 149 189 239 284 337
#
# _framework density 22.186209999999999
#
# number of rings (size 3 to 8) (size 9 to 14) (size 15 to 20)
#    0.000    2.286    2.857    1.286    2.000    3.429 
#    0.000    0.714    0.000    1.714    0.000    0.000 
#    0.000    0.000    0.000    0.000    0.000    0.000 
#
# Total GULP energy -78066.580658 kJ/mol
# GULP energy per Si atom -5576.184333 kJ/mol
# Density = 2.213571 g / cm^3
# Si number density = 22.186210 Si / 1000 Ang^3
#
#
#
# Elastic Constant Matrix: (Units=GPa)
#
#
# Indices 1 2 3 4 5 6 
#
# 1 52.8500 3.9175 -1.7469 5.8851 -9.6232 -1.5191
# 2 3.9175 56.9714 14.8829 28.3729 0.6399 10.0150
# 3 -1.7469 14.8829 61.8141 18.7668 -19.1934 8.7232
# 4 5.8851 28.3729 18.7668 25.5931 1.7113 3.0537
# 5 -9.6232 0.6399 -19.1934 1.7113 27.5608 6.3890
# 6 -1.5191 10.0150 8.7232 3.0537 6.3890 35.2791
#
#
#
# Elastic Compliance Matrix: (Units=1/GPa)
#
#
# Indices 1 2 3 4 5 6 
#
# 1 0.025626 0.008864 0.014683 -0.027170 0.022210 -0.006714
# 2 0.008864 0.050317 0.019905 -0.072009 0.024194 -0.016973
# 3 0.014683 0.019905 0.047372 -0.060895 0.046024 -0.019796
# 4 -0.027170 -0.072009 -0.060895 0.170556 -0.068212 0.031919
# 5 0.022210 0.024194 0.046024 -0.068212 0.086014 -0.026965
# 6 -0.006714 -0.016973 -0.019796 0.031919 -0.026965 0.039890
#
#
# Mechanical properties :
#
#
# Convention : Reuss Voigt Hill
#
# Bulk Modulus (GPa) = 4.75693 22.86027 13.80860
# Shear Modulus (GPa) = 12.40868 27.99207 20.20037
#
# Velocity S-wave (km/s) = 2.36751 3.55588 3.02071
# Velocity P-wave (km/s) = 3.10197 5.21394 4.28996
#
# Compressibility (1/GPa) = 0.21021957
#
# Stress axis : x y z
#
# Youngs Moduli (GPa) = 39.02219 19.87409 21.10949
#
# Poissons Ratio (x) = -0.17617 -0.30994
# Poissons Ratio (y) = -0.34590 -0.42019
# Poissons Ratio (z) = -0.57295 -0.39560
#
# Static dielectric constant tensor:
#      x y z
#    x 1.837370 -0.014710 0.028000 
#    y -0.014710 1.858640 -0.007090 
#    z 0.028000 -0.007090 1.857690 
# 
# From -- ./inp_files/198468.got.cif
#   From: 2010.05.17/outbox.cif.g08.bks.cpg/sg2_100_cif.got.tgz:198468.got - 2010.06.03 11:33:40.
