data_PCOD9084218
_publ_section_title
;
Structure prediction by ZEFSAII (Michael W. Deem and Ramdas Pophale) SiO2 
 PCOD9084218
Probable space group: P -1
;
_chemical_formula_sum "Si O2"
_cell_formula_units_Z 16
_cell_length_a 7.266024
_cell_length_b 20.368824
_cell_length_c 5.156636
_cell_angle_alpha 86.642139
_cell_angle_beta 74.449671
_cell_angle_gamma 68.028038
_cell_volume 681.100428
_symmetry_space_group_name_H-M "P -1"
_symmetry_group_IT_number 2
_symmetry_cell_setting 'triclinic'
loop_
_space_group_symop_operation_xyz
x,y,z
-x,-y,-z
loop_
_atom_site_type_symbol
_atom_site_label
_atom_site_fract_x
_atom_site_fract_y
_atom_site_fract_z
Si Si1 0.670662 0.289854 0.747949
Si Si2 0.322000 0.974258 0.486216
Si Si3 0.613704 0.177276 0.491522
Si Si4 0.094005 0.636938 0.660779
Si Si5 0.730825 0.773690 0.762578
Si Si6 0.676469 0.425045 0.901032
Si Si7 0.005011 0.071957 0.173756
Si Si8 0.914723 0.818570 0.184464
O O1 0.547658 0.244734 0.687969
O O2 0.782791 0.310741 0.455430
O O3 0.855375 0.239340 0.865713
O O4 0.575294 0.365353 0.907633
O O5 0.420294 0.892413 0.373668
O O6 0.165390 0.964913 0.769403
O O7 0.500000 0.000000 0.500000
O O8 0.186034 0.023661 0.300310
O O9 0.503991 0.201422 0.250489
O O10 0.860750 0.143573 0.368131
O O11 0.166740 0.600195 0.913910
O O12 0.856979 0.688958 0.718026
O O13 0.184782 0.581222 0.406234
O O14 0.811748 0.810462 0.492377
O O15 0.796544 0.798455 0.998778
O O16 0.500000 0.500000 0.000000
O O17 0.075448 0.105366 0.895413
#
# Coordination Sequence:
#
# PCOD9084218 Si02
#       8
#     2   2   2   2   2   2   2   2
#     4   9  21  34  60  89 123 160 214 262 314 376
#     4   9  19  38  64  93 131 175 220 269 338 396
#     4  10  21  37  63  95 128 169 221 273 330 380
#     4   9  18  35  57  88 121 163 209 257 309 382
#     4  11  21  38  62  96 127 166 216 271 323 390
#     4  10  19  34  61  92 124 162 212 259 313 386
#     4   9  20  37  64  91 129 168 220 273 330 383
#     4  11  21  40  64  89 127 171 214 269 328 377
#
# _framework density 23.491395000000001
#
# number of rings (size 3 to 8) (size 9 to 14) (size 15 to 20)
#    1.500    0.750    1.250    2.625    0.000    1.000 
#    0.000    1.250    0.000    1.500    0.000    0.000 
#    0.000    0.000    0.000    0.000    0.000    0.000 
#
# Total GULP energy -89324.307481 kJ/mol
# GULP energy per Si atom -5582.769218 kJ/mol
# Density = 2.343793 g / cm^3
# Si number density = 23.491395 Si / 1000 Ang^3
#
#
#
# Elastic Constant Matrix: (Units=GPa)
#
#
# Indices 1 2 3 4 5 6 
#
# 1 107.4020 35.9735 27.7964 -1.4623 18.6502 -4.4400
# 2 35.9735 109.9583 1.3484 21.6676 22.0898 -12.6863
# 3 27.7964 1.3484 83.8220 -3.5351 23.6570 8.3622
# 4 -1.4623 21.6676 -3.5351 35.8536 -1.6222 -0.3928
# 5 18.6502 22.0898 23.6570 -1.6222 36.2861 -3.6638
# 6 -4.4400 -12.6863 8.3622 -0.3928 -3.6638 24.5686
#
#
#
# Elastic Compliance Matrix: (Units=1/GPa)
#
#
# Indices 1 2 3 4 5 6 
#
# 1 0.011834 -0.003955 -0.003555 0.002484 -0.001126 0.001178
# 2 -0.003955 0.014280 0.002619 -0.008861 -0.008321 0.004385
# 3 -0.003555 0.002619 0.016978 -0.000651 -0.011552 -0.006802
# 4 0.002484 -0.008861 -0.000651 0.033518 0.005787 -0.002506
# 5 -0.001126 -0.008321 -0.011552 0.005787 0.041572 0.005724
# 6 0.001178 0.004385 -0.006802 -0.002506 0.005724 0.046308
#
#
# Mechanical properties :
#
#
# Convention : Reuss Voigt Hill
#
# Bulk Modulus (GPa) = 30.02160 47.93544 38.97852
# Shear Modulus (GPa) = 26.97224 35.07927 31.02575
#
# Velocity S-wave (km/s) = 3.39215 3.86849 3.63813
# Velocity P-wave (km/s) = 5.30564 6.35637 5.85463
#
# Compressibility (1/GPa) = 0.03330935
#
# Stress axis : x y z
#
# Youngs Moduli (GPa) = 84.50283 70.02823 58.89834
#
# Poissons Ratio (x) = 0.27698 0.20941
# Poissons Ratio (y) = 0.33423 -0.15427
# Poissons Ratio (z) = 0.30045 -0.18342
#
# Static dielectric constant tensor:
#      x y z
#    x 1.951410 0.030960 -0.073620 
#    y 0.030960 1.896550 0.081260 
#    z -0.073620 0.081260 1.997670 
# 
# From -- ./inp_files/51694.got.cif
#   From: 2010.05.17/outbox.cif.g08.bks.cpg/sg2_26_cif.got.tgz:51694.got - 2010.06.03 11:33:40.
