data_PCOD9084428
_publ_section_title
;
Structure prediction by ZEFSAII (Michael W. Deem and Ramdas Pophale) SiO2 
 PCOD9084428
Probable space group: P -1
;
_chemical_formula_sum "Si O2"
_cell_formula_units_Z 16
_cell_length_a 15.928514
_cell_length_b 24.213792
_cell_length_c 14.154696
_cell_angle_alpha 156.320149
_cell_angle_beta 35.969189
_cell_angle_gamma 159.161728
_cell_volume 737.384961
_symmetry_space_group_name_H-M "P -1"
_symmetry_group_IT_number 2
_symmetry_cell_setting 'triclinic'
loop_
_space_group_symop_operation_xyz
x,y,z
-x,-y,-z
loop_
_atom_site_type_symbol
_atom_site_label
_atom_site_fract_x
_atom_site_fract_y
_atom_site_fract_z
Si Si1 0.408485 0.585245 0.735680
Si Si2 0.055254 0.221419 0.625680
Si Si3 0.705699 0.251978 0.486791
Si Si4 0.470837 0.322257 0.716941
Si Si5 0.255280 0.161696 0.468119
Si Si6 0.637363 0.177832 0.741892
Si Si7 0.952305 0.414241 0.124395
Si Si8 0.600327 0.942797 0.961766
O O1 0.500000 0.500000 0.500000
O O2 0.128099 0.334884 0.634568
O O3 0.495256 0.740952 0.810935
O O4 0.465129 0.748440 0.022551
O O5 0.276217 0.299935 0.589012
O O6 0.802985 0.938219 0.406734
O O7 0.013451 0.305895 0.873604
O O8 0.654649 0.357814 0.651783
O O9 0.905125 0.421818 0.655282
O O10 0.446595 0.985172 0.350174
O O11 0.757804 0.179626 0.246097
O O12 0.465478 0.315365 0.597089
O O13 0.500000 0.500000 0.000000
O O14 0.243125 0.009471 0.185801
O O15 0.000000 0.000000 0.500000
O O16 0.921396 0.413317 0.813522
O O17 0.500000 0.000000 0.500000
O O18 0.656720 0.195945 0.060144
#
# Coordination Sequence:
#
# PCOD9084428 Si02
#       8
#     2   2   2   2   2   2   2   2
#     4  10  19  34  66 100 130 167 208 266 335 393
#     4  10  20  40  67  92 131 172 211 267 330 381
#     4  10  21  39  63  96 132 167 217 269 317 383
#     4  11  23  41  63  88 125 177 228 260 312 384
#     4  10  23  43  62  87 126 175 216 262 320 379
#     4   8  18  34  59  93 133 168 205 256 329 392
#     4  10  20  38  66  98 129 166 210 265 333 390
#     4  11  22  40  67  98 133 162 217 267 330 390
#
# _framework density 21.698301000000001
#
# number of rings (size 3 to 8) (size 9 to 14) (size 15 to 20)
#    0.000    2.000    2.500    0.750    1.750    2.000 
#    4.500    0.625    0.000    7.500    0.000    0.000 
#    0.000    0.000    0.000    0.000    0.000    0.000 
#
# Total GULP energy -89139.082703 kJ/mol
# GULP energy per Si atom -5571.192669 kJ/mol
# Density = 2.164891 g / cm^3
# Si number density = 21.698301 Si / 1000 Ang^3
#
#
#
# Elastic Constant Matrix: (Units=GPa)
#
#
# Indices 1 2 3 4 5 6 
#
# 1 92.9137 14.3694 50.1250 -14.0699 -7.1830 -1.3103
# 2 14.3694 73.1654 45.8809 -17.1026 10.2220 -4.5931
# 3 50.1250 45.8809 192.2704 -27.7466 1.7561 1.4112
# 4 -14.0699 -17.1026 -27.7466 45.0628 -4.2532 -2.5633
# 5 -7.1830 10.2220 1.7561 -4.2532 33.5874 -1.8646
# 6 -1.3103 -4.5931 1.4112 -2.5633 -1.8646 19.3226
#
#
#
# Elastic Compliance Matrix: (Units=1/GPa)
#
#
# Indices 1 2 3 4 5 6 
#
# 1 0.013125 -0.000512 -0.002984 0.002493 0.003527 0.001657
# 2 -0.000512 0.017903 -0.003510 0.004304 -0.004574 0.004607
# 3 -0.002984 -0.003510 0.007123 0.002074 0.000250 -0.001257
# 4 0.002493 0.004304 0.002074 0.026411 0.002726 0.004807
# 5 0.003527 -0.004574 0.000250 0.002726 0.032397 0.002622
# 6 0.001657 0.004607 -0.001257 0.004807 0.002622 0.053943
#
#
# Mechanical properties :
#
#
# Convention : Reuss Voigt Hill
#
# Bulk Modulus (GPa) = 41.42583 64.34445 52.88514
# Shear Modulus (GPa) = 28.90826 36.12618 32.51722
#
# Velocity S-wave (km/s) = 3.65400 4.08478 3.87538
# Velocity P-wave (km/s) = 6.07746 7.20873 6.66713
#
# Compressibility (1/GPa) = 0.02413953
#
# Stress axis : x y z
#
# Youngs Moduli (GPa) = 76.18850 55.85516 140.39645
#
# Poissons Ratio (x) = 0.02862 0.41895
# Poissons Ratio (y) = 0.03903 0.49273
# Poissons Ratio (z) = 0.22735 0.19603
#
# Static dielectric constant tensor:
#      x y z
#    x 1.885410 -0.044830 -0.036020 
#    y -0.044830 1.841440 -0.006610 
#    z -0.036020 -0.006610 1.804400 
# 
# From -- ./inp_files/207048.got.cif
#   From: 2010.05.17/outbox.cif.g08.bks.cpg/sg2_104_cif.got.tgz:207048.got - 2010.06.03 11:33:40.
