data_PCOD9084104
_publ_section_title
;
Structure prediction by ZEFSAII (Michael W. Deem and Ramdas Pophale) SiO2 
 PCOD9084104
Probable space group: P -1
;
_chemical_formula_sum "Si O2"
_cell_formula_units_Z 16
_cell_length_a 12.188847
_cell_length_b 8.341394
_cell_length_c 11.727601
_cell_angle_alpha 67.083322
_cell_angle_beta 131.860193
_cell_angle_gamma 103.843325
_cell_volume 817.586756
_symmetry_space_group_name_H-M "P -1"
_symmetry_group_IT_number 2
_symmetry_cell_setting 'triclinic'
loop_
_space_group_symop_operation_xyz
x,y,z
-x,-y,-z
loop_
_atom_site_type_symbol
_atom_site_label
_atom_site_fract_x
_atom_site_fract_y
_atom_site_fract_z
Si Si1 0.922364 0.537270 0.259713
Si Si2 0.403936 0.869630 0.399738
Si Si3 0.181358 0.344792 0.592265
Si Si4 0.389200 0.381648 0.025123
Si Si5 0.523993 0.456003 0.324697
Si Si6 0.698389 0.226198 0.870998
Si Si7 0.662740 0.938656 0.091687
Si Si8 0.913541 0.170297 0.846680
O O1 0.766142 0.511569 0.097680
O O2 0.046907 0.384361 0.401208
O O3 0.993237 0.700155 0.199367
O O4 0.876261 0.588075 0.342902
O O5 0.456158 0.673187 0.520350
O O6 0.399393 0.885582 0.255574
O O7 0.230898 0.886382 0.307682
O O8 0.500000 0.000000 0.500000
O O9 0.244450 0.150738 0.716472
O O10 0.321144 0.456871 0.621072
O O11 0.500000 0.500000 0.000000
O O12 0.467044 0.344587 0.209203
O O13 0.356643 0.212445 0.974652
O O14 0.401216 0.607316 0.213802
O O15 0.735495 0.102266 0.036801
O O16 0.839658 0.264853 0.880264
O O17 0.500000 0.000000 0.000000
O O18 0.000000 0.000000 0.000000
#
# Coordination Sequence:
#
# PCOD9084104 Si02
#       8
#     2   2   2   2   2   2   2   2
#     4  10  20  36  56  88 120 160 199 244 302 362
#     4  10  23  38  62  91 117 154 203 251 296 355
#     4  10  19  34  60  89 114 157 197 243 299 354
#     4  11  21  35  60  92 119 155 204 251 298 358
#     4  12  20  40  63  89 121 156 209 249 296 363
#     4  10  22  38  61  89 122 160 202 246 305 357
#     4  11  19  35  60  91 121 154 201 249 302 355
#     4  10  21  37  60  83 121 161 201 240 306 361
#
# _framework density 19.569787999999999
#
# number of rings (size 3 to 8) (size 9 to 14) (size 15 to 20)
#    0.750    0.750    5.000    2.625    1.750    0.000 
#    0.000    0.625    2.750    3.000    0.000    0.000 
#    0.000    0.000    0.000    0.000    0.000    0.000 
#
# Total GULP energy -89145.336808 kJ/mol
# GULP energy per Si atom -5571.583551 kJ/mol
# Density = 1.952525 g / cm^3
# Si number density = 19.569788 Si / 1000 Ang^3
#
#
#
# Elastic Constant Matrix: (Units=GPa)
#
#
# Indices 1 2 3 4 5 6 
#
# 1 82.1089 18.3045 13.6284 -10.7400 15.5650 12.2769
# 2 18.3045 47.8956 23.1293 -14.4476 7.6203 5.5250
# 3 13.6284 23.1293 120.6409 -23.6581 20.9307 12.2592
# 4 -10.7400 -14.4476 -23.6581 35.3173 2.0916 0.3128
# 5 15.5650 7.6203 20.9307 2.0916 35.3759 -4.2802
# 6 12.2769 5.5250 12.2592 0.3128 -4.2802 27.5659
#
#
#
# Elastic Compliance Matrix: (Units=1/GPa)
#
#
# Indices 1 2 3 4 5 6 
#
# 1 0.016464 -0.003068 0.002546 0.006108 -0.009588 -0.009408
# 2 -0.003068 0.026842 -0.001858 0.009095 -0.004350 -0.003966
# 3 0.002546 -0.001858 0.012645 0.009131 -0.009709 -0.007996
# 4 0.006108 0.009095 0.009131 0.040927 -0.013826 -0.011215
# 5 -0.009588 -0.004350 -0.009709 -0.013826 0.041937 0.016129
# 6 -0.009408 -0.003966 -0.007996 -0.011215 0.016129 0.047449
#
#
# Mechanical properties :
#
#
# Convention : Reuss Voigt Hill
#
# Bulk Modulus (GPa) = 19.53521 40.08552 29.81036
# Shear Modulus (GPa) = 24.02827 32.69071 28.35949
#
# Velocity S-wave (km/s) = 3.50783 4.09157 3.81090
# Velocity P-wave (km/s) = 5.13912 6.54592 5.88471
#
# Compressibility (1/GPa) = 0.05118962
#
# Stress axis : x y z
#
# Youngs Moduli (GPa) = 60.74019 37.25532 79.08102
#
# Poissons Ratio (x) = 0.11430 -0.20132
# Poissons Ratio (y) = 0.18636 0.14694
# Poissons Ratio (z) = -0.15463 0.06922
#
# Static dielectric constant tensor:
#      x y z
#    x 1.669180 -0.035090 0.042520 
#    y -0.035090 1.663670 0.014960 
#    z 0.042520 0.014960 1.691020 
# 
# From -- ./inp_files/419220.got.cif
#   From: 2010.05.17/outbox.cif.g08.bks.cpg/sg2_210_cif.got.tgz:419220.got - 2010.06.03 11:33:40.
