data_PCOD9084145
_publ_section_title
;
Structure prediction by ZEFSAII (Michael W. Deem and Ramdas Pophale) SiO2 
 PCOD9084145
Probable space group: P -1
;
_chemical_formula_sum "Si O2"
_cell_formula_units_Z 13
_cell_length_a 7.351404
_cell_length_b 8.393274
_cell_length_c 7.997729
_cell_angle_alpha 87.046323
_cell_angle_beta 105.940421
_cell_angle_gamma 79.992024
_cell_volume 464.708868
_symmetry_space_group_name_H-M "P -1"
_symmetry_group_IT_number 2
_symmetry_cell_setting 'triclinic'
loop_
_space_group_symop_operation_xyz
x,y,z
-x,-y,-z
loop_
_atom_site_type_symbol
_atom_site_label
_atom_site_fract_x
_atom_site_fract_y
_atom_site_fract_z
Si Si1 0.674379 0.635584 0.207988
Si Si2 0.879723 0.802080 0.705378
Si Si3 0.776861 0.530323 0.880452
Si Si4 0.619936 0.958110 0.362327
Si Si5 0.709504 0.283574 0.313784
Si Si6 0.000000 0.000000 0.000000
Si Si7 0.928493 0.266847 0.710410
O O1 0.576370 0.809863 0.248513
O O2 0.614547 0.474579 0.279067
O O3 0.904686 0.631689 0.297046
O O4 0.658404 0.607698 0.006804
O O5 0.763705 0.658669 0.718209
O O6 0.824641 0.885328 0.509315
O O7 0.108876 0.731962 0.764816
O O8 0.850146 0.916059 0.853476
O O9 0.782716 0.354236 0.813328
O O10 0.000000 0.500000 0.000000
O O11 0.500000 0.000000 0.500000
O O12 0.615804 0.128337 0.261067
O O13 0.796849 0.251304 0.522059
O O14 0.037049 0.104151 0.835861
#
# Coordination Sequence:
#
# PCOD9084145 Si02
#       7
#     2   2   2   2   2   1   2
#     4  11  21  40  65  95 134 161 213 273 322 379
#     4  12  21  39  65  98 125 162 213 271 326 374
#     4  10  19  34  61 100 129 152 196 278 338 366
#     4  12  28  44  61  92 135 180 219 254 313 394
#     4  12  22  39  71  96 121 168 219 274 324 366
#     4  12  20  30  60  96 130 156 196 274 326 370
#     4  11  19  35  59 101 127 152 205 271 330 373
#
# _framework density 27.974502000000001
#
# number of rings (size 3 to 8) (size 9 to 14) (size 15 to 20)
#    0.000    0.615    9.231    2.769    0.000    0.615 
#    0.000    0.769    0.000    1.846    0.000    0.000 
#    0.000    0.000    0.000    0.000    0.000    0.000 
#
# Total GULP energy -72519.249545 kJ/mol
# GULP energy per Si atom -5578.403811 kJ/mol
# Density = 2.791083 g / cm^3
# Si number density = 27.974502 Si / 1000 Ang^3
#
#
#
# Elastic Constant Matrix: (Units=GPa)
#
#
# Indices 1 2 3 4 5 6 
#
# 1 56.8299 41.0349 4.8323 17.8911 -10.0099 2.5778
# 2 41.0349 166.8964 62.2785 24.6912 -20.4792 22.2031
# 3 4.8323 62.2785 134.3451 8.4273 -3.1163 5.7177
# 4 17.8911 24.6912 8.4273 61.6417 -1.0976 -8.2481
# 5 -10.0099 -20.4792 -3.1163 -1.0976 40.3585 3.6638
# 6 2.5778 22.2031 5.7177 -8.2481 3.6638 54.8689
#
#
#
# Elastic Compliance Matrix: (Units=1/GPa)
#
#
# Indices 1 2 3 4 5 6 
#
# 1 0.023407 -0.005413 0.002046 -0.004858 0.003090 -0.000059
# 2 -0.005413 0.010242 -0.004137 -0.002444 0.003839 -0.004083
# 3 0.002046 -0.004137 0.009246 -0.000130 -0.000941 0.000658
# 4 -0.004858 -0.002444 -0.000130 0.019159 -0.002321 0.004266
# 5 0.003090 0.003839 -0.000941 -0.002321 0.027702 -0.003799
# 6 -0.000059 -0.004083 0.000658 0.004266 -0.003799 0.020707
#
#
# Mechanical properties :
#
#
# Convention : Reuss Voigt Hill
#
# Bulk Modulus (GPa) = 35.85766 63.81808 49.83787
# Shear Modulus (GPa) = 37.10107 48.03551 42.56829
#
# Velocity S-wave (km/s) = 3.64572 4.14831 3.90511
# Velocity P-wave (km/s) = 5.52879 6.76809 6.17959
#
# Compressibility (1/GPa) = 0.02788805
#
# Stress axis : x y z
#
# Youngs Moduli (GPa) = 42.72159 97.63401 108.15372
#
# Poissons Ratio (x) = 0.52849 -0.22132
# Poissons Ratio (y) = 0.23125 0.44745
# Poissons Ratio (z) = -0.08742 0.40393
#
# Static dielectric constant tensor:
#      x y z
#    x 2.474780 -0.143940 -0.043070 
#    y -0.143940 2.408270 0.008770 
#    z -0.043070 0.008770 2.089850 
# 
# From -- ./inp_files/154596.got.cif
#   From: 2010.05.17/outbox.cif.g08.bks.cpg/sg2_78_cif.got.tgz:154596.got - 2010.06.03 11:33:40.
