data_PCOD9084346
_publ_section_title
;
Structure prediction by ZEFSAII (Michael W. Deem and Ramdas Pophale) SiO2 
 PCOD9084346
Probable space group: P -1
;
_chemical_formula_sum "Si O2"
_cell_formula_units_Z 16
_cell_length_a 9.497036
_cell_length_b 15.814523
_cell_length_c 8.769880
_cell_angle_alpha 57.502829
_cell_angle_beta 96.816745
_cell_angle_gamma 125.791215
_cell_volume 863.541896
_symmetry_space_group_name_H-M "P -1"
_symmetry_group_IT_number 2
_symmetry_cell_setting 'triclinic'
loop_
_space_group_symop_operation_xyz
x,y,z
-x,-y,-z
loop_
_atom_site_type_symbol
_atom_site_label
_atom_site_fract_x
_atom_site_fract_y
_atom_site_fract_z
Si Si1 0.870536 0.214604 0.239312
Si Si2 0.347340 0.980275 0.833139
Si Si3 0.760399 0.483570 0.554849
Si Si4 0.994654 0.568720 0.198813
Si Si5 0.108413 0.261723 0.507178
Si Si6 0.753525 0.142937 0.744751
Si Si7 0.582615 0.762739 0.410387
Si Si8 0.291556 0.709388 0.630449
O O1 0.773935 0.079949 0.273815
O O2 0.722232 0.211980 0.320356
O O3 0.027558 0.254677 0.338558
O O4 0.942649 0.317143 0.015345
O O5 0.548590 0.026215 0.779652
O O6 0.372250 0.105526 0.770948
O O7 0.260351 0.877532 0.057406
O O8 0.879689 0.550488 0.350963
O O9 0.784157 0.596270 0.544141
O O10 0.561896 0.361047 0.592697
O O11 0.845844 0.431697 0.716718
O O12 0.858022 0.438611 0.211325
O O13 0.240748 0.225986 0.557001
O O14 0.926549 0.163139 0.679701
O O15 0.772773 0.263641 0.561705
O O16 0.479200 0.741417 0.577558
#
# Coordination Sequence:
#
# PCOD9084346 Si02
#       8
#     2   2   2   2   2   2   2   2
#     4  11  22  34  61  86 116 144 188 236 278 338
#     4  10  22  37  58  87 110 149 192 236 273 328
#     4  10  20  36  63  86 111 143 189 245 276 326
#     4  10  19  34  63  91 106 140 193 241 284 316
#     4  11  22  39  58  84 117 152 183 229 288 340
#     4   9  19  37  59  82 111 141 196 235 272 320
#     4  10  23  38  58  80 119 155 188 221 284 336
#     4   9  19  37  56  87 111 147 185 240 280 324
#
# _framework density 18.528341000000001
#
# number of rings (size 3 to 8) (size 9 to 14) (size 15 to 20)
#    0.000    2.000    2.500    1.500    8.750    5.500 
#    0.000    2.500    5.500    0.000    0.000    0.000 
#    0.000    0.000    0.000    0.000    0.000    0.000 
#
# Total GULP energy -89174.638618 kJ/mol
# GULP energy per Si atom -5573.414914 kJ/mol
# Density = 1.848617 g / cm^3
# Si number density = 18.528341 Si / 1000 Ang^3
#
#
#
# Elastic Constant Matrix: (Units=GPa)
#
#
# Indices 1 2 3 4 5 6 
#
# 1 139.6304 34.7195 32.3524 -3.4009 -8.0761 8.5646
# 2 34.7195 93.3834 40.4827 6.3192 2.5769 0.3633
# 3 32.3524 40.4827 78.8139 -8.8387 -6.8545 12.4939
# 4 -3.4009 6.3192 -8.8387 14.6076 2.9267 2.0282
# 5 -8.0761 2.5769 -6.8545 2.9267 10.9103 -2.9795
# 6 8.5646 0.3633 12.4939 2.0282 -2.9795 12.9620
#
#
#
# Elastic Compliance Matrix: (Units=1/GPa)
#
#
# Indices 1 2 3 4 5 6 
#
# 1 0.008738 -0.003438 -0.000306 0.002987 0.005003 -0.004700
# 2 -0.003438 0.019290 -0.013712 -0.018458 -0.006288 0.016391
# 3 -0.000306 -0.013712 0.027800 0.025543 0.005737 -0.028888
# 4 0.002987 -0.018458 0.025543 0.102500 -0.017476 -0.046132
# 5 0.005003 -0.006288 0.005737 -0.017476 0.110454 0.019464
# 6 -0.004700 0.016391 -0.028888 -0.046132 0.019464 0.119332
#
#
# Mechanical properties :
#
#
# Convention : Reuss Voigt Hill
#
# Bulk Modulus (GPa) = 47.81120 58.54854 53.17987
# Shear Modulus (GPa) = 11.62799 21.31417 16.47108
#
# Velocity S-wave (km/s) = 2.50787 3.39537 2.98479
# Velocity P-wave (km/s) = 5.85203 6.85853 6.37517
#
# Compressibility (1/GPa) = 0.02091560
#
# Stress axis : x y z
#
# Youngs Moduli (GPa) = 114.44405 51.84039 35.97146
#
# Poissons Ratio (x) = 0.17823 0.01100
# Poissons Ratio (y) = 0.39346 0.49325
# Poissons Ratio (z) = 0.03499 0.71085
#
# Static dielectric constant tensor:
#      x y z
#    x 1.628100 -0.000090 -0.019110 
#    y -0.000090 1.685660 -0.006050 
#    z -0.019110 -0.006050 1.639770 
# 
# From -- ./inp_files/205943.got.cif
#   From: 2010.05.17/outbox.cif.g08.bks.cpg/sg2_103_cif.got.tgz:205943.got - 2010.06.03 11:33:40.
