data_PCOD9084360
_publ_section_title
;
Structure prediction by ZEFSAII (Michael W. Deem and Ramdas Pophale) SiO2 
 PCOD9084360
Probable space group: P -1
;
_chemical_formula_sum "Si O2"
_cell_formula_units_Z 16
_cell_length_a 13.460253
_cell_length_b 7.996924
_cell_length_c 22.009454
_cell_angle_alpha 108.555900
_cell_angle_beta 159.163074
_cell_angle_gamma 62.786143
_cell_volume 703.385130
_symmetry_space_group_name_H-M "P -1"
_symmetry_group_IT_number 2
_symmetry_cell_setting 'triclinic'
loop_
_space_group_symop_operation_xyz
x,y,z
-x,-y,-z
loop_
_atom_site_type_symbol
_atom_site_label
_atom_site_fract_x
_atom_site_fract_y
_atom_site_fract_z
Si Si1 0.773017 0.459737 0.819876
Si Si2 0.180220 0.431967 0.454475
Si Si3 0.714620 0.610928 0.625759
Si Si4 0.666128 0.830090 0.318558
Si Si5 0.239222 0.271479 0.961471
Si Si6 0.273572 0.576872 0.709120
Si Si7 0.428178 0.879482 0.602307
Si Si8 0.225780 0.095442 0.742084
O O1 0.487724 0.408842 0.665275
O O2 0.585152 0.670177 0.703025
O O3 0.000000 0.500000 0.000000
O O4 0.986831 0.302754 0.872960
O O5 0.286819 0.332055 0.438261
O O6 0.965368 0.367161 0.363740
O O7 0.946105 0.664395 0.329967
O O8 0.500000 0.500000 0.500000
O O9 0.577092 0.807480 0.612748
O O10 0.053892 0.430645 0.820990
O O11 0.552933 0.664975 0.223123
O O12 0.663566 0.951596 0.270955
O O13 0.036646 0.685654 0.530490
O O14 0.506664 0.971387 0.301210
O O15 0.473755 0.347235 0.131992
O O16 0.467096 0.034700 0.056334
O O17 0.052614 0.952477 0.400944
#
# Coordination Sequence:
#
# PCOD9084360 Si02
#       8
#     2   2   2   2   2   2   2   2
#     4  10  21  33  60  89 124 157 201 242 306 366
#     4  10  22  43  61  87 127 170 197 251 311 354
#     4  11  21  43  61  85 125 166 207 249 297 365
#     4  10  20  36  59  89 134 154 193 248 323 360
#     4  11  22  36  65  95 116 157 214 255 295 361
#     4  10  23  36  62  95 122 161 201 253 317 359
#     4  10  19  35  61  87 119 163 198 251 299 356
#     4  10  19  34  63  93 122 152 206 257 299 354
#
# _framework density 22.747140000000002
#
# number of rings (size 3 to 8) (size 9 to 14) (size 15 to 20)
#    0.000    1.750    5.000    1.125    7.000    1.000 
#    0.000    3.125   11.000    0.000    0.000    0.000 
#    0.000    0.000    0.000    0.000    0.000    0.000 
#
# Total GULP energy -89255.459472 kJ/mol
# GULP energy per Si atom -5578.466217 kJ/mol
# Density = 2.269537 g / cm^3
# Si number density = 22.747140 Si / 1000 Ang^3
#
#
#
# Elastic Constant Matrix: (Units=GPa)
#
#
# Indices 1 2 3 4 5 6 
#
# 1 132.9582 39.5443 14.2059 -2.2246 -0.2704 -22.9676
# 2 39.5443 61.4821 15.6778 -8.1069 6.6602 -0.3881
# 3 14.2059 15.6778 91.0571 -22.2172 1.6419 -3.0508
# 4 -2.2246 -8.1069 -22.2172 21.6358 -0.3578 -0.2718
# 5 -0.2704 6.6602 1.6419 -0.3578 26.8876 2.8173
# 6 -22.9676 -0.3881 -3.0508 -0.2718 2.8173 34.2495
#
#
#
# Elastic Compliance Matrix: (Units=1/GPa)
#
#
# Indices 1 2 3 4 5 6 
#
# 1 0.010938 -0.007215 -0.000811 -0.002303 0.001176 0.007066
# 2 -0.007215 0.022580 -0.001285 0.006263 -0.005061 -0.004231
# 3 -0.000811 -0.001285 0.014989 0.014830 -0.000506 0.000936
# 4 -0.002303 0.006263 0.014830 0.063536 -0.001686 0.000491
# 5 0.001176 -0.005061 -0.000506 -0.001686 0.038729 -0.002513
# 6 0.007066 -0.004231 0.000936 0.000491 -0.002513 0.034182
#
#
# Mechanical properties :
#
#
# Convention : Reuss Voigt Hill
#
# Bulk Modulus (GPa) = 33.45935 47.15037 40.30486
# Shear Modulus (GPa) = 23.41511 30.95919 27.18715
#
# Velocity S-wave (km/s) = 3.21185 3.69320 3.46090
# Velocity P-wave (km/s) = 5.33815 6.24174 5.80754
#
# Compressibility (1/GPa) = 0.02988701
#
# Stress axis : x y z
#
# Youngs Moduli (GPa) = 91.42349 44.28633 66.71698
#
# Poissons Ratio (x) = 0.31952 0.05408
# Poissons Ratio (y) = 0.65961 0.08570
# Poissons Ratio (z) = 0.07410 0.05689
#
# Static dielectric constant tensor:
#      x y z
#    x 1.897550 -0.060810 -0.009210 
#    y -0.060810 1.922130 -0.011150 
#    z -0.009210 -0.011150 1.879940 
# 
# From -- ./inp_files/177368.got.cif
#   From: 2010.05.17/outbox.cif.g08.bks.cpg/sg2_89_cif.got.tgz:177368.got - 2010.06.03 11:33:40.
