data_PCOD9084452
_publ_section_title
;
Structure prediction by ZEFSAII (Michael W. Deem and Ramdas Pophale) SiO2 
 PCOD9084452
Probable space group: P -1
;
_chemical_formula_sum "Si O2"
_cell_formula_units_Z 16
_cell_length_a 16.859054
_cell_length_b 12.432688
_cell_length_c 5.318051
_cell_angle_alpha 119.173596
_cell_angle_beta 59.084739
_cell_angle_gamma 89.907043
_cell_volume 786.313237
_symmetry_space_group_name_H-M "P -1"
_symmetry_group_IT_number 2
_symmetry_cell_setting 'triclinic'
loop_
_space_group_symop_operation_xyz
x,y,z
-x,-y,-z
loop_
_atom_site_type_symbol
_atom_site_label
_atom_site_fract_x
_atom_site_fract_y
_atom_site_fract_z
Si Si1 0.315885 0.917760 0.250412
Si Si2 0.237592 0.284700 0.308559
Si Si3 0.147927 0.140088 0.902825
Si Si4 0.391141 0.007201 0.754742
Si Si5 0.197879 0.725095 0.247547
Si Si6 0.033805 0.331741 0.946217
Si Si7 0.004448 0.104784 0.411013
Si Si8 0.184892 0.563255 0.582997
O O1 0.348564 0.956912 0.515446
O O2 0.282856 0.790833 0.178824
O O3 0.218181 0.042046 0.481255
O O4 0.386959 0.919825 0.905926
O O5 0.142498 0.335621 0.710231
O O6 0.255721 0.414719 0.334477
O O7 0.201947 0.221683 0.057343
O O8 0.329107 0.159573 0.100410
O O9 0.052393 0.248121 0.072809
O O10 0.107995 0.050816 0.042531
O O11 0.500000 0.000000 0.500000
O O12 0.093945 0.843081 0.529902
O O13 0.200184 0.638643 0.394436
O O14 0.198938 0.640932 0.896754
O O15 0.014083 0.233865 0.668208
O O16 0.927846 0.443625 0.260876
O O17 0.000000 0.000000 0.500000
#
# Coordination Sequence:
#
# PCOD9084452 Si02
#       8
#     2   2   2   2   2   2   2   2
#     4  11  23  40  65  91 124 151 197 255 308 367
#     4  10  23  38  59  87 119 160 207 251 302 353
#     4  10  20  34  57  84 123 163 206 254 297 339
#     4  11  24  44  70  95 115 147 196 264 324 360
#     4  11  24  38  57  88 124 169 200 237 296 352
#     4  10  19  35  50  85 120 167 205 243 289 338
#     4  10  21  31  51  82 126 170 209 244 285 349
#     4  11  24  38  57  86 129 171 204 235 279 363
#
# _framework density 20.348123000000001
#
# number of rings (size 3 to 8) (size 9 to 14) (size 15 to 20)
#    0.000    1.500    2.500    2.250    8.750    1.500 
#    0.000    0.000    0.000    4.500    0.000    0.000 
#    0.000    0.000    0.000    0.000    0.000    0.000 
#
# Total GULP energy -89138.552369 kJ/mol
# GULP energy per Si atom -5571.159523 kJ/mol
# Density = 2.030181 g / cm^3
# Si number density = 20.348123 Si / 1000 Ang^3
#
#
#
# Elastic Constant Matrix: (Units=GPa)
#
#
# Indices 1 2 3 4 5 6 
#
# 1 52.4981 35.4879 20.8540 -3.2165 5.5650 6.6010
# 2 35.4879 127.4449 54.5541 -12.8027 -5.4992 2.5007
# 3 20.8540 54.5541 65.4224 -18.3997 -0.2479 5.4173
# 4 -3.2165 -12.8027 -18.3997 23.9695 2.5426 1.8733
# 5 5.5650 -5.4992 -0.2479 2.5426 32.5968 -6.7943
# 6 6.6010 2.5007 5.4173 1.8733 -6.7943 23.2784
#
#
#
# Elastic Compliance Matrix: (Units=1/GPa)
#
#
# Indices 1 2 3 4 5 6 
#
# 1 0.026140 -0.006433 -0.002417 -0.000369 -0.007257 -0.008247
# 2 -0.006433 0.014091 -0.010703 -0.002363 0.004474 0.004297
# 3 -0.002417 -0.010703 0.030922 0.018790 -0.004319 -0.008134
# 4 -0.000369 -0.002363 0.018790 0.056374 -0.006785 -0.010531
# 5 -0.007257 0.004474 -0.004319 -0.006785 0.036011 0.013639
# 6 -0.008247 0.004297 -0.008134 -0.010531 0.013639 0.051556
#
#
# Mechanical properties :
#
#
# Convention : Reuss Voigt Hill
#
# Bulk Modulus (GPa) = 31.20278 51.90637 41.55458
# Shear Modulus (GPa) = 18.87638 24.93357 21.90497
#
# Velocity S-wave (km/s) = 3.04907 3.50430 3.28458
# Velocity P-wave (km/s) = 5.26912 6.47596 5.90346
#
# Compressibility (1/GPa) = 0.03204843
#
# Stress axis : x y z
#
# Youngs Moduli (GPa) = 38.25496 70.96957 32.33945
#
# Poissons Ratio (x) = 0.45654 0.07815
# Poissons Ratio (y) = 0.24609 0.34612
# Poissons Ratio (z) = 0.09245 0.75957
#
# Static dielectric constant tensor:
#      x y z
#    x 1.669930 -0.016030 -0.069950 
#    y -0.016030 1.767500 -0.042900 
#    z -0.069950 -0.042900 1.738930 
# 
# From -- ./inp_files/76210.got.cif
#   From: 2010.05.17/outbox.cif.g08.bks.cpg/sg2_39_cif.got.tgz:76210.got - 2010.06.03 11:33:40.
