data_PCOD9084987
_publ_section_title
;
Structure prediction by ZEFSAII (Michael W. Deem and Ramdas Pophale) SiO2 
 PCOD9084987
Probable space group: P -1
;
_chemical_formula_sum "Si O2"
_cell_formula_units_Z 14
_cell_length_a 12.909987
_cell_length_b 6.891738
_cell_length_c 9.545206
_cell_angle_alpha 92.762638
_cell_angle_beta 79.149685
_cell_angle_gamma 47.235564
_cell_volume 593.812386
_symmetry_space_group_name_H-M "P -1"
_symmetry_group_IT_number 2
_symmetry_cell_setting 'triclinic'
loop_
_space_group_symop_operation_xyz
x,y,z
-x,-y,-z
loop_
_atom_site_type_symbol
_atom_site_label
_atom_site_fract_x
_atom_site_fract_y
_atom_site_fract_z
Si Si1 0.851253 0.622984 0.969979
Si Si2 0.185737 0.795482 0.775187
Si Si3 0.335545 0.975219 0.731334
Si Si4 0.574540 0.626313 0.863230
Si Si5 0.499629 0.291026 0.574225
Si Si6 0.631395 0.009899 0.818942
Si Si7 0.864678 0.154500 0.883260
O O1 0.732397 0.787643 0.132019
O O2 0.871264 0.380258 0.904423
O O3 0.000000 0.500000 0.000000
O O4 0.783513 0.832787 0.864852
O O5 0.211470 0.980389 0.715273
O O6 0.329811 0.492547 0.676627
O O7 0.172250 0.855384 0.947990
O O8 0.030590 0.889273 0.784392
O O9 0.453499 0.707000 0.789205
O O10 0.427172 0.932346 0.575932
O O11 0.723538 0.310342 0.825469
O O12 0.608578 0.804212 0.814359
O O13 0.497819 0.741307 0.038178
O O14 0.500000 0.500000 0.500000
O O15 0.605243 0.124341 0.675450
#
# Coordination Sequence:
#
# PCOD9084987 Si02
#       7
#     2   2   2   2   2   2   2
#     4  10  19  37  61  87 109 139 201 247 273 325
#     4  10  20  35  55  81 115 156 178 230 286 341
#     4  10  21  35  57  86 109 148 192 232 274 342
#     4   9  18  34  58  86 106 141 201 243 270 322
#     4  10  21  38  53  82 122 157 181 222 291 350
#     4   9  18  35  58  83 114 148 187 238 284 326
#     4  10  19  35  58  82 114 144 186 240 292 314
#
# _framework density 23.576467999999998
#
# number of rings (size 3 to 8) (size 9 to 14) (size 15 to 20)
#    0.000    2.286    2.857    0.857    0.000    1.143 
#    2.571    1.429    0.000    0.000    0.000    0.000 
#    0.000    0.000    0.000    0.000    0.000    0.000 
#
# Total GULP energy -78173.859504 kJ/mol
# GULP energy per Si atom -5583.847107 kJ/mol
# Density = 2.352281 g / cm^3
# Si number density = 23.576468 Si / 1000 Ang^3
#
#
#
# Elastic Constant Matrix: (Units=GPa)
#
#
# Indices 1 2 3 4 5 6 
#
# 1 54.8191 34.8292 21.6518 -3.9383 -12.7017 -28.1654
# 2 34.8292 126.7073 64.0277 -4.8714 -8.5900 -31.5430
# 3 21.6518 64.0277 146.3023 -5.0836 -7.6371 -23.6565
# 4 -3.9383 -4.8714 -5.0836 47.4813 -0.5779 -5.3468
# 5 -12.7017 -8.5900 -7.6371 -0.5779 34.8656 1.0607
# 6 -28.1654 -31.5430 -23.6565 -5.3468 1.0607 51.7222
#
#
#
# Elastic Compliance Matrix: (Units=1/GPa)
#
#
# Indices 1 2 3 4 5 6 
#
# 1 0.030848 -0.004162 0.000267 0.003923 0.009893 0.014585
# 2 -0.004162 0.011946 -0.004034 0.000820 0.000458 0.003249
# 3 0.000267 -0.004034 0.008938 0.000784 0.001018 0.001833
# 4 0.003923 0.000820 0.000784 0.022170 0.002011 0.005246
# 5 0.009893 0.000458 0.001018 0.002011 0.032482 0.005674
# 6 0.014585 0.003249 0.001833 0.005246 0.005674 0.030522
#
#
# Mechanical properties :
#
#
# Convention : Reuss Voigt Hill
#
# Bulk Modulus (GPa) = 27.87539 63.20511 45.54025
# Shear Modulus (GPa) = 30.35383 40.63514 35.49449
#
# Velocity S-wave (km/s) = 3.59202 4.15607 3.88429
# Velocity P-wave (km/s) = 5.39004 7.06380 6.28290
#
# Compressibility (1/GPa) = 0.03587394
#
# Stress axis : x y z
#
# Youngs Moduli (GPa) = 32.41666 83.70688 111.88047
#
# Poissons Ratio (x) = 0.34841 -0.02991
# Poissons Ratio (y) = 0.13493 0.45138
# Poissons Ratio (z) = -0.00867 0.33771
#
# Static dielectric constant tensor:
#      x y z
#    x 2.040570 0.038920 -0.010460 
#    y 0.038920 1.982920 0.019060 
#    z -0.010460 0.019060 1.860370 
# 
# From -- ./inp_files/206912.got.cif
#   From: 2010.05.17/outbox.cif.g08.bks.cpg/sg2_104_cif.got.tgz:206912.got - 2010.06.03 11:33:40.
