data_PCOD9084765
_publ_section_title
;
Structure prediction by ZEFSAII (Michael W. Deem and Ramdas Pophale) SiO2 
 PCOD9084765
Probable space group: P -1
;
_chemical_formula_sum "Si O2"
_cell_formula_units_Z 16
_cell_length_a 5.698348
_cell_length_b 25.080679
_cell_length_c 5.241479
_cell_angle_alpha 110.604188
_cell_angle_beta 89.922593
_cell_angle_gamma 124.505591
_cell_volume 558.466443
_symmetry_space_group_name_H-M "P -1"
_symmetry_group_IT_number 2
_symmetry_cell_setting 'triclinic'
loop_
_space_group_symop_operation_xyz
x,y,z
-x,-y,-z
loop_
_atom_site_type_symbol
_atom_site_label
_atom_site_fract_x
_atom_site_fract_y
_atom_site_fract_z
Si Si1 0.819390 0.026966 0.927115
Si Si2 0.447251 0.528801 0.797990
Si Si3 0.137186 0.725903 0.680823
Si Si4 0.532024 0.782740 0.276028
Si Si5 0.123979 0.602855 0.378555
Si Si6 0.508202 0.659301 0.973319
Si Si7 0.455056 0.095176 0.615232
Si Si8 0.849349 0.151965 0.207869
O O1 0.733701 0.988442 0.587128
O O2 0.500000 0.000000 0.000000
O O3 0.995214 0.112096 0.090799
O O4 0.000000 0.000000 0.000000
O O5 0.500000 0.500000 0.500000
O O6 0.742290 0.374793 0.864993
O O7 0.628882 0.613878 0.941314
O O8 0.500000 0.500000 0.000000
O O9 0.390605 0.762123 0.522485
O O10 0.973937 0.642579 0.497320
O O11 0.983073 0.763906 0.695130
O O12 0.277921 0.746726 0.997314
O O13 0.699030 0.866456 0.369916
O O14 0.681937 0.743706 0.159189
O O15 0.370286 0.636789 0.654546
O O16 0.907688 0.518365 0.275135
O O17 0.704177 0.131125 0.452946
O O18 0.596807 0.116600 0.928822
#
# Coordination Sequence:
#
# PCOD9084765 Si02
#       8
#     2   2   2   2   2   2   2   2
#     4  10  21  38  60  88 122 162 206 254 306 364
#     4  12  24  36  50  76 112 144 176 232 290 338
#     4   8  15  28  52  79 104 135 181 232 281 335
#     4   8  15  28  52  79 104 135 181 232 281 335
#     4  10  19  35  57  78 100 140 188 228 273 342
#     4  10  19  35  57  78 100 140 188 228 273 342
#     4   9  17  33  55  83 114 149 188 239 297 357
#     4   9  17  33  55  83 114 149 188 239 297 357
#
# _framework density 28.649889000000002
#
# number of rings (size 3 to 8) (size 9 to 14) (size 15 to 20)
#    0.000    2.500    0.000    2.625    0.000    0.000 
#    0.000   11.250    0.000    9.000    0.000    0.000 
#    0.000    0.000    0.000    0.000    0.000    0.000 
#
# Total GULP energy -89546.197681 kJ/mol
# GULP energy per Si atom -5596.637355 kJ/mol
# Density = 2.858468 g / cm^3
# Si number density = 28.649889 Si / 1000 Ang^3
#
#
#
# Elastic Constant Matrix: (Units=GPa)
#
#
# Indices 1 2 3 4 5 6 
#
# 1 85.5054 46.8328 68.8584 -9.0731 -15.5822 1.5827
# 2 46.8328 200.7204 68.6778 33.5016 -7.1014 -42.3319
# 3 68.8584 68.6778 158.7299 -6.3811 -11.6295 -4.7843
# 4 -9.0731 33.5016 -6.3811 69.9647 -11.1666 -12.0022
# 5 -15.5822 -7.1014 -11.6295 -11.1666 57.2453 -11.6099
# 6 1.5827 -42.3319 -4.7843 -12.0022 -11.6099 48.1804
#
#
#
# Elastic Compliance Matrix: (Units=1/GPa)
#
#
# Indices 1 2 3 4 5 6 
#
# 1 0.020344 -0.003357 -0.007002 0.003826 0.003957 -0.002407
# 2 -0.003357 0.008473 -0.002127 -0.003506 0.000350 0.006555
# 3 -0.007002 -0.002127 0.010290 0.000994 0.000042 -0.000360
# 4 0.003826 -0.003506 0.000994 0.017742 0.004768 0.002461
# 5 0.003957 0.000350 0.000042 0.004768 0.020823 0.006388
# 6 -0.002407 0.006555 -0.000360 0.002461 0.006388 0.028710
#
#
# Mechanical properties :
#
#
# Convention : Reuss Voigt Hill
#
# Bulk Modulus (GPa) = 70.74763 90.41041 80.57902
# Shear Modulus (GPa) = 36.74646 52.45053 44.59849
#
# Velocity S-wave (km/s) = 3.58523 4.28336 3.94975
# Velocity P-wave (km/s) = 6.47194 7.48922 6.99908
#
# Compressibility (1/GPa) = 0.01413475
#
# Stress axis : x y z
#
# Youngs Moduli (GPa) = 49.15411 118.01703 97.18088
#
# Poissons Ratio (x) = 0.39621 0.68043
# Poissons Ratio (y) = 0.16502 0.20675
# Poissons Ratio (z) = 0.34416 0.25108
#
# Static dielectric constant tensor:
#      x y z
#    x 2.263260 -0.044680 0.011800 
#    y -0.044680 2.285400 0.043170 
#    z 0.011800 0.043170 2.158690 
# 
# From -- ./inp_files/12437.got.cif
#   From: 2010.05.17/outbox.cif.g08.bks.cpg/sg2_7_cif.got.tgz:12437.got - 2010.06.03 11:33:40.
