data_PCOD9084771
_publ_section_title
;
Structure prediction by ZEFSAII (Michael W. Deem and Ramdas Pophale) SiO2 
 PCOD9084771
Probable space group: P -1
;
_chemical_formula_sum "Si O2"
_cell_formula_units_Z 16
_cell_length_a 12.432748
_cell_length_b 18.273331
_cell_length_c 12.340854
_cell_angle_alpha 155.128576
_cell_angle_beta 146.713593
_cell_angle_gamma 39.730850
_cell_volume 646.477043
_symmetry_space_group_name_H-M "P -1"
_symmetry_group_IT_number 2
_symmetry_cell_setting 'triclinic'
loop_
_space_group_symop_operation_xyz
x,y,z
-x,-y,-z
loop_
_atom_site_type_symbol
_atom_site_label
_atom_site_fract_x
_atom_site_fract_y
_atom_site_fract_z
Si Si1 0.428861 0.513550 0.082893
Si Si2 0.102438 0.802842 0.594161
Si Si3 0.847073 0.591689 0.805715
Si Si4 0.047544 0.596878 0.779184
Si Si5 0.665039 0.024360 0.816158
Si Si6 0.675738 0.717973 0.034865
Si Si7 0.339209 0.801441 0.171686
Si Si8 0.274931 0.673285 0.360113
O O1 0.198822 0.477647 0.820547
O O2 0.581006 0.365876 0.055871
O O3 0.500000 0.500000 0.000000
O O4 0.407211 0.675760 0.365992
O O5 0.148642 0.614167 0.438512
O O6 0.246108 0.804154 0.611853
O O7 0.877122 0.795675 0.355287
O O8 0.153814 0.955976 0.925016
O O9 0.861427 0.632409 0.745824
O O10 0.686406 0.693107 0.880458
O O11 0.050089 0.663651 0.118514
O O12 0.000000 0.500000 0.500000
O O13 0.174283 0.755567 0.057399
O O14 0.504774 0.165338 0.918310
O O15 0.720149 0.062892 0.789796
O O16 0.533989 0.857986 0.473921
O O17 0.672447 0.520439 0.810108
#
# Coordination Sequence:
#
# PCOD9084771 Si02
#       8
#     2   2   2   2   2   2   2   2
#     4   9  17  33  54  72 105 139 166 226 268 297
#     4   9  18  32  54  84 105 137 178 224 271 315
#     4   8  16  30  54  80 105 135 175 234 271 300
#     4  10  19  35  57  79 103 137 186 225 263 318
#     4  11  21  36  53  80 115 144 180 212 262 339
#     4   9  17  33  53  78 109 141 172 226 274 300
#     4  10  22  37  50  78 113 144 176 218 267 319
#     4   8  14  29  52  77 104 130 176 225 269 303
#
# _framework density 24.749525999999999
#
# number of rings (size 3 to 8) (size 9 to 14) (size 15 to 20)
#    0.000    2.750    1.250    2.250    0.000    2.000 
#    6.750    1.875    0.000   12.000    0.000    0.000 
#    0.000    0.000    0.000    0.000    0.000    0.000 
#
# Total GULP energy -89164.009314 kJ/mol
# GULP energy per Si atom -5572.750582 kJ/mol
# Density = 2.469320 g / cm^3
# Si number density = 24.749526 Si / 1000 Ang^3
#
#
#
# Elastic Constant Matrix: (Units=GPa)
#
#
# Indices 1 2 3 4 5 6 
#
# 1 182.8206 24.6178 31.1761 -5.1716 -13.7139 21.0000
# 2 24.6178 34.4802 9.9632 -11.3507 6.6345 -9.0522
# 3 31.1761 9.9632 113.3754 -23.9092 -1.9047 15.6393
# 4 -5.1716 -11.3507 -23.9092 24.3833 0.5255 3.0838
# 5 -13.7139 6.6345 -1.9047 0.5255 24.8922 -7.9041
# 6 21.0000 -9.0522 15.6393 3.0838 -7.9041 37.3098
#
#
#
# Elastic Compliance Matrix: (Units=1/GPa)
#
#
# Indices 1 2 3 4 5 6 
#
# 1 0.007574 -0.008116 -0.001317 -0.003013 0.004904 -0.004393
# 2 -0.008116 0.046593 0.000425 0.019264 -0.013708 0.011198
# 3 -0.001317 0.000425 0.012724 0.013200 -0.002054 -0.006016
# 4 -0.003013 0.019264 0.013200 0.063281 -0.009130 -0.006328
# 5 0.004904 -0.013708 -0.002054 -0.009130 0.048401 0.005783
# 6 -0.004393 0.011198 -0.006016 -0.006328 0.005783 0.036262
#
#
# Mechanical properties :
#
#
# Convention : Reuss Voigt Hill
#
# Bulk Modulus (GPa) = 20.46012 51.35450 35.90731
# Shear Modulus (GPa) = 20.06880 34.97834 27.52357
#
# Velocity S-wave (km/s) = 2.85068 3.76346 3.33841
# Velocity P-wave (km/s) = 4.37264 6.29917 5.42215
#
# Compressibility (1/GPa) = 0.04887557
#
# Stress axis : x y z
#
# Youngs Moduli (GPa) = 132.02238 21.46231 78.59152
#
# Poissons Ratio (x) = 0.17419 0.10348
# Poissons Ratio (y) = 1.07151 -0.03338
# Poissons Ratio (z) = 0.17383 -0.00912
#
# Static dielectric constant tensor:
#      x y z
#    x 2.047100 0.008390 -0.006930 
#    y 0.008390 2.110730 0.005270 
#    z -0.006930 0.005270 2.016010 
# 
# From -- ./inp_files/269003.got.cif
#   From: 2010.05.17/outbox.cif.g08.bks.cpg/sg2_135_cif.got.tgz:269003.got - 2010.06.03 11:33:40.
