data_PCOD9084367
_publ_section_title
;
Structure prediction by ZEFSAII (Michael W. Deem and Ramdas Pophale) SiO2 
 PCOD9084367
Probable space group: P -1
;
_chemical_formula_sum "Si O2"
_cell_formula_units_Z 16
_cell_length_a 20.802346
_cell_length_b 12.694190
_cell_length_c 11.436926
_cell_angle_alpha 122.110786
_cell_angle_beta 40.578350
_cell_angle_gamma 154.843149
_cell_volume 689.713444
_symmetry_space_group_name_H-M "P -1"
_symmetry_group_IT_number 2
_symmetry_cell_setting 'triclinic'
loop_
_space_group_symop_operation_xyz
x,y,z
-x,-y,-z
loop_
_atom_site_type_symbol
_atom_site_label
_atom_site_fract_x
_atom_site_fract_y
_atom_site_fract_z
Si Si1 0.219719 0.284532 0.022319
Si Si2 0.399742 0.957294 0.224393
Si Si3 0.660565 0.859167 0.655154
Si Si4 0.775047 0.903926 0.284606
Si Si5 0.908336 0.545917 0.970775
Si Si6 0.700848 0.397420 0.399834
Si Si7 0.769188 0.292256 0.442258
Si Si8 0.084966 0.092263 0.569401
O O1 0.434639 0.625696 0.912997
O O2 0.312404 0.280607 0.809036
O O3 0.982973 0.067562 0.162016
O O4 0.144159 0.152926 0.174944
O O5 0.240039 0.890430 0.363246
O O6 0.273998 0.745256 0.381834
O O7 0.648981 0.288499 0.132306
O O8 0.500000 0.000000 0.000000
O O9 0.604053 0.749224 0.534318
O O10 0.813332 0.927446 0.547542
O O11 0.904012 0.163939 0.194837
O O12 0.984297 0.491826 0.808119
O O13 0.892538 0.561634 0.138589
O O14 0.748429 0.396545 0.461978
O O15 0.736600 0.587355 0.461647
O O16 0.445072 0.044823 0.508388
O O17 0.000000 0.000000 0.500000
#
# Coordination Sequence:
#
# PCOD9084367 Si02
#       8
#     2   2   2   2   2   2   2   2
#     4  10  21  37  61  94 125 159 194 257 312 368
#     4  11  25  41  62  96 128 163 208 257 316 379
#     4  11  23  40  62  92 124 161 207 256 318 374
#     4  10  19  34  63  95 121 152 198 254 312 365
#     4  11  20  39  66  93 122 160 209 258 310 366
#     4  10  23  43  63  93 127 165 219 258 305 373
#     4  10  23  42  68  93 124 170 211 263 310 363
#     4  11  26  42  62  92 128 171 210 255 314 381
#
# _framework density 23.198039999999999
#
# number of rings (size 3 to 8) (size 9 to 14) (size 15 to 20)
#    0.000    1.500    3.750    0.750    1.750    3.000 
#    0.000    0.000    0.000    0.000    0.000    0.000 
#    0.000    0.000    0.000    0.000    0.000    0.000 
#
# Total GULP energy -89283.685699 kJ/mol
# GULP energy per Si atom -5580.230356 kJ/mol
# Density = 2.314524 g / cm^3
# Si number density = 23.198040 Si / 1000 Ang^3
#
#
#
# Elastic Constant Matrix: (Units=GPa)
#
#
# Indices 1 2 3 4 5 6 
#
# 1 150.2241 30.3353 76.6419 11.8930 33.8652 -24.0793
# 2 30.3353 23.2670 22.2787 -1.0996 14.9677 -7.8100
# 3 76.6419 22.2787 127.8059 7.5591 24.1942 -8.7122
# 4 11.8930 -1.0996 7.5591 36.6522 -4.4130 -0.9578
# 5 33.8652 14.9677 24.1942 -4.4130 45.2412 -0.8765
# 6 -24.0793 -7.8100 -8.7122 -0.9578 -0.8765 23.1794
#
#
#
# Elastic Compliance Matrix: (Units=1/GPa)
#
#
# Indices 1 2 3 4 5 6 
#
# 1 0.013706 -0.006173 -0.005166 -0.003991 -0.005653 0.009838
# 2 -0.006173 0.071061 -0.004908 0.003666 -0.015612 0.015247
# 3 -0.005166 -0.004908 0.011854 -0.001106 -0.001007 -0.002649
# 4 -0.003991 0.003666 -0.001106 0.029493 0.005206 -0.001911
# 5 -0.005653 -0.015612 -0.001007 0.005206 0.032352 -0.010073
# 6 0.009838 0.015247 -0.002649 -0.001911 -0.010073 0.057044
#
#
# Mechanical properties :
#
#
# Convention : Reuss Voigt Hill
#
# Bulk Modulus (GPa) = 15.59395 62.20099 38.89747
# Shear Modulus (GPa) = 18.56123 32.48397 25.52260
#
# Velocity S-wave (km/s) = 2.83171 3.74610 3.32053
# Velocity P-wave (km/s) = 4.17470 6.75147 5.61295
#
# Compressibility (1/GPa) = 0.06412744
#
# Stress axis : x y z
#
# Youngs Moduli (GPa) = 72.95865 14.07249 84.36285
#
# Poissons Ratio (x) = 0.08686 0.43586
# Poissons Ratio (y) = 0.45034 0.41401
# Poissons Ratio (z) = 0.37694 0.06906
#
# Static dielectric constant tensor:
#      x y z
#    x 1.898400 -0.016700 -0.020130 
#    y -0.016700 2.025840 0.025750 
#    z -0.020130 0.025750 1.858870 
# 
# From -- ./inp_files/456020.got.cif
#   From: 2010.05.17/outbox.cif.g08.bks.cpg/sg2_229_cif.got.tgz:456020.got - 2010.06.03 11:33:40.
