data_PCOD9084418
_publ_section_title
;
Structure prediction by ZEFSAII (Michael W. Deem and Ramdas Pophale) SiO2 
 PCOD9084418
Probable space group: P -1
;
_chemical_formula_sum "Si O2"
_cell_formula_units_Z 15
_cell_length_a 11.113573
_cell_length_b 14.827106
_cell_length_c 8.544708
_cell_angle_alpha 46.254672
_cell_angle_beta 38.059600
_cell_angle_gamma 59.376627
_cell_volume 625.127612
_symmetry_space_group_name_H-M "P -1"
_symmetry_group_IT_number 2
_symmetry_cell_setting 'triclinic'
loop_
_space_group_symop_operation_xyz
x,y,z
-x,-y,-z
loop_
_atom_site_type_symbol
_atom_site_label
_atom_site_fract_x
_atom_site_fract_y
_atom_site_fract_z
Si Si1 0.425325 0.149194 0.095522
Si Si2 0.224264 0.205323 0.912687
Si Si3 0.717992 0.034329 0.305707
Si Si4 0.102477 0.689698 0.728408
Si Si5 0.396290 0.570952 0.378955
Si Si6 0.500000 0.500000 0.000000
Si Si7 0.158766 0.943402 0.185929
Si Si8 0.368970 0.723324 0.715417
O O1 0.265141 0.080458 0.455800
O O2 0.338151 0.167610 0.994476
O O3 0.505779 0.285795 0.908492
O O4 0.608526 0.063631 0.002121
O O5 0.394764 0.243436 0.568614
O O6 0.093818 0.317910 0.957381
O O7 0.100598 0.078568 0.138207
O O8 0.720442 0.161240 0.247952
O O9 0.500000 0.000000 0.500000
O O10 0.849292 0.056630 0.992435
O O11 0.177669 0.592547 0.642431
O O12 0.075355 0.817938 0.506945
O O13 0.275933 0.707707 0.657463
O O14 0.500000 0.500000 0.500000
O O15 0.437219 0.511285 0.241394
O O16 0.659848 0.401471 0.004085
#
# Coordination Sequence:
#
# PCOD9084418 Si02
#       8
#     2   2   2   2   2   1   2   2
#     4  10  19  36  63  94 124 170 214 264 324 384
#     4  12  21  38  66  95 130 174 213 267 333 386
#     4  10  19  34  65  92 126 171 216 269 326 385
#     4  11  24  40  63  98 129 169 222 268 322 401
#     4  11  22  44  69  94 129 174 219 269 328 384
#     4  12  24  42  78  92 122 184 216 268 338 388
#     4  10  19  36  60  94 134 171 215 263 329 391
#     4  12  22  42  66  93 129 174 218 270 330 388
#
# _framework density 23.995100000000001
#
# number of rings (size 3 to 8) (size 9 to 14) (size 15 to 20)
#    0.000    1.067    6.667    4.000    0.000    0.000 
#    0.000    7.333    0.000    0.000    0.000    0.000 
#    0.000    0.000    0.000    0.000    0.000    0.000 
#
# Total GULP energy -83583.018310 kJ/mol
# GULP energy per Si atom -5572.201221 kJ/mol
# Density = 2.394049 g / cm^3
# Si number density = 23.995100 Si / 1000 Ang^3
#
#
#
# Elastic Constant Matrix: (Units=GPa)
#
#
# Indices 1 2 3 4 5 6 
#
# 1 70.5240 36.3745 18.0843 5.7215 25.4901 -7.4265
# 2 36.3745 152.0002 31.8637 7.9991 10.9220 7.1130
# 3 18.0843 31.8637 64.8904 27.2351 13.3418 2.5129
# 4 5.7215 7.9991 27.2351 43.4049 -4.1073 2.5687
# 5 25.4901 10.9220 13.3418 -4.1073 30.1006 6.2116
# 6 -7.4265 7.1130 2.5129 2.5687 6.2116 36.7514
#
#
#
# Elastic Compliance Matrix: (Units=1/GPa)
#
#
# Indices 1 2 3 4 5 6 
#
# 1 0.027427 -0.005490 0.003234 -0.007770 -0.026066 0.011332
# 2 -0.005490 0.008545 -0.004626 0.002696 0.004673 -0.003425
# 3 0.003234 -0.004626 0.028091 -0.019024 -0.016894 0.003813
# 4 -0.007770 0.002696 -0.019024 0.037865 0.020629 -0.006924
# 5 -0.026066 0.004673 -0.016894 0.020629 0.067593 -0.017883
# 6 0.011332 -0.003425 0.003813 -0.006924 -0.017883 0.033409
#
#
# Mechanical properties :
#
#
# Convention : Reuss Voigt Hill
#
# Bulk Modulus (GPa) = 19.88110 51.11773 35.49942
# Shear Modulus (GPa) = 21.41692 35.45750 28.43721
#
# Velocity S-wave (km/s) = 2.99080 3.84825 3.44630
# Velocity P-wave (km/s) = 4.49778 6.41054 5.53738
#
# Compressibility (1/GPa) = 0.05029904
#
# Stress axis : x y z
#
# Youngs Moduli (GPa) = 36.46074 117.02805 35.59802
#
# Poissons Ratio (x) = 0.64245 -0.11511
# Poissons Ratio (y) = 0.20016 0.16467
# Poissons Ratio (z) = -0.11790 0.54137
#
# Static dielectric constant tensor:
#      x y z
#    x 1.916830 -0.013600 -0.046920 
#    y -0.013600 1.972950 -0.007140 
#    z -0.046920 -0.007140 2.058560 
# 
# From -- ./inp_files/271700.got.cif
#   From: 2010.05.17/outbox.cif.g08.bks.cpg/sg2_136_cif.got.tgz:271700.got - 2010.06.03 11:33:40.
