data_PCOD9084176
_publ_section_title
;
Structure prediction by ZEFSAII (Michael W. Deem and Ramdas Pophale) SiO2 
 PCOD9084176
Probable space group: P -1
;
_chemical_formula_sum "Si O2"
_cell_formula_units_Z 12
_cell_length_a 7.021964
_cell_length_b 10.794269
_cell_length_c 8.793973
_cell_angle_alpha 95.822598
_cell_angle_beta 54.925890
_cell_angle_gamma 109.732944
_cell_volume 509.760821
_symmetry_space_group_name_H-M "P -1"
_symmetry_group_IT_number 2
_symmetry_cell_setting 'triclinic'
loop_
_space_group_symop_operation_xyz
x,y,z
-x,-y,-z
loop_
_atom_site_type_symbol
_atom_site_label
_atom_site_fract_x
_atom_site_fract_y
_atom_site_fract_z
Si Si1 0.985345 0.543316 0.682415
Si Si2 0.862061 0.656497 0.192250
Si Si3 0.278047 0.009549 0.330319
Si Si4 0.526425 0.419762 0.134355
Si Si5 0.374779 0.817191 0.058220
Si Si6 0.479896 0.742816 0.571451
O O1 0.068466 0.438794 0.730652
O O2 0.198345 0.681926 0.640900
O O3 0.000000 0.500000 0.500000
O O4 0.718019 0.557406 0.803963
O O5 0.747322 0.555506 0.095076
O O6 0.657799 0.711476 0.361510
O O7 0.120805 0.777630 0.068836
O O8 0.440667 0.104519 0.397348
O O9 0.313659 0.871033 0.253855
O O10 0.389368 0.084546 0.128841
O O11 0.000000 0.000000 0.500000
O O12 0.486025 0.336378 0.301702
O O13 0.575432 0.319568 0.978835
#
# Coordination Sequence:
#
# PCOD9084176 Si02
#       6
#     2   2   2   2   2   2
#     4  11  19  33  59  92 120 158 193 229 301 355
#     4  11  19  34  59  90 121 150 192 245 289 349
#     4  10  20  39  63  85 113 159 202 239 290 348
#     4  10  20  36  57  88 125 152 188 242 293 350
#     4  10  22  36  60  91 116 153 200 242 292 345
#     4  10  19  34  61  88 115 155 201 237 284 351
#
# _framework density 23.540451999999998
#
# number of rings (size 3 to 8) (size 9 to 14) (size 15 to 20)
#    0.000    1.667    5.000    1.500    0.000    0.667 
#    0.000    0.833    0.000   13.000    0.000    0.000 
#    0.000    0.000    0.000    0.000    0.000    0.000 
#
# Total GULP energy -67002.017895 kJ/mol
# GULP energy per Si atom -5583.501491 kJ/mol
# Density = 2.348687 g / cm^3
# Si number density = 23.540452 Si / 1000 Ang^3
#
#
#
# Elastic Constant Matrix: (Units=GPa)
#
#
# Indices 1 2 3 4 5 6 
#
# 1 135.4282 49.5186 50.6663 6.9765 -10.8027 22.4702
# 2 49.5186 126.7858 65.4431 41.2228 -13.4243 34.1778
# 3 50.6663 65.4431 123.1959 29.9716 -29.3147 5.5643
# 4 6.9765 41.2228 29.9716 51.7122 2.3324 -7.4497
# 5 -10.8027 -13.4243 -29.3147 2.3324 50.3055 -1.7258
# 6 22.4702 34.1778 5.5643 -7.4497 -1.7258 34.2900
#
#
#
# Elastic Compliance Matrix: (Units=1/GPa)
#
#
# Indices 1 2 3 4 5 6 
#
# 1 0.009800 -0.001179 -0.003584 0.001075 -0.000501 -0.004457
# 2 -0.001179 0.027638 -0.006524 -0.022630 0.003325 -0.030465
# 3 -0.003584 -0.006524 0.014886 -0.002335 0.006487 0.006255
# 4 0.001075 -0.022630 -0.002335 0.043456 -0.008111 0.031263
# 5 -0.000501 0.003325 0.006487 -0.008111 0.024658 -0.004559
# 6 -0.004457 -0.030465 0.006255 0.031263 -0.004559 0.067997
#
#
# Mechanical properties :
#
#
# Convention : Reuss Voigt Hill
#
# Bulk Modulus (GPa) = 33.61338 79.62955 56.62146
# Shear Modulus (GPa) = 22.63223 41.91366 32.27294
#
# Velocity S-wave (km/s) = 3.10404 4.22417 3.70666
# Velocity P-wave (km/s) = 5.21121 7.59550 6.51338
#
# Compressibility (1/GPa) = 0.02975006
#
# Stress axis : x y z
#
# Youngs Moduli (GPa) = 102.04191 36.18220 67.17879
#
# Poissons Ratio (x) = 0.04266 0.24074
# Poissons Ratio (y) = 0.12032 0.43827
# Poissons Ratio (z) = 0.36568 0.23605
#
# Static dielectric constant tensor:
#      x y z
#    x 1.831730 0.022530 -0.006860 
#    y 0.022530 2.041830 -0.111770 
#    z -0.006860 -0.111770 2.039720 
# 
# From -- ./inp_files/131708.got.cif
#   From: 2010.05.17/outbox.cif.g08.bks.cpg/sg2_66_cif.got.tgz:131708.got - 2010.06.03 11:33:40.
