data_PCOD9084305
_publ_section_title
;
Structure prediction by ZEFSAII (Michael W. Deem and Ramdas Pophale) SiO2 
 PCOD9084305
Probable space group: P -1
;
_chemical_formula_sum "Si O2"
_cell_formula_units_Z 16
_cell_length_a 12.012566
_cell_length_b 10.725549
_cell_length_c 8.623743
_cell_angle_alpha 66.160671
_cell_angle_beta 52.950284
_cell_angle_gamma 86.977292
_cell_volume 782.931632
_symmetry_space_group_name_H-M "P -1"
_symmetry_group_IT_number 2
_symmetry_cell_setting 'triclinic'
loop_
_space_group_symop_operation_xyz
x,y,z
-x,-y,-z
loop_
_atom_site_type_symbol
_atom_site_label
_atom_site_fract_x
_atom_site_fract_y
_atom_site_fract_z
Si Si1 0.767716 0.786085 0.715357
Si Si2 0.422896 0.567294 0.395214
Si Si3 0.114695 0.427692 0.640748
Si Si4 0.177322 0.503271 0.187870
Si Si5 0.892319 0.892562 0.254811
Si Si6 0.499000 0.352843 0.221183
Si Si7 0.400355 0.084682 0.619410
Si Si8 0.415183 0.106296 0.947677
O O1 0.811322 0.648148 0.811102
O O2 0.894332 0.869672 0.450750
O O3 0.622274 0.722181 0.764380
O O4 0.717263 0.878181 0.841923
O O5 0.500000 0.500000 0.500000
O O6 0.249185 0.518221 0.581583
O O7 0.459976 0.492789 0.244336
O O8 0.483595 0.734308 0.238579
O O9 0.146519 0.477246 0.410167
O O10 0.120413 0.264790 0.721716
O O11 0.955864 0.446910 0.797978
O O12 0.334493 0.611360 0.984365
O O13 0.748665 0.943816 0.329703
O O14 0.000000 0.000000 0.000000
O O15 0.475897 0.248147 0.439766
O O16 0.369817 0.053838 0.839545
O O17 0.500000 0.000000 0.500000
O O18 0.500000 0.000000 0.000000
#
# Coordination Sequence:
#
# PCOD9084305 Si02
#       8
#     2   2   2   2   2   2   2   2
#     4  10  20  39  65  92 130 165 220 260 322 390
#     4  12  21  41  69  88 132 171 217 268 320 388
#     4  10  21  37  59  98 128 162 218 262 325 380
#     4  10  19  34  62  94 125 158 208 268 319 375
#     4  10  21  41  61  90 130 177 213 257 316 388
#     4  11  19  38  65  94 117 174 214 264 314 388
#     4  11  24  42  65  92 124 166 224 263 326 394
#     4  12  24  40  65 100 127 163 218 278 325 376
#
# _framework density 20.436012000000002
#
# number of rings (size 3 to 8) (size 9 to 14) (size 15 to 20)
#    0.000    1.250    6.250    2.625    1.750    0.000 
#    4.500    1.250    2.750    0.000    0.000    0.000 
#    0.000    0.000    0.000    0.000    0.000    0.000 
#
# Total GULP energy -89272.227816 kJ/mol
# GULP energy per Si atom -5579.514239 kJ/mol
# Density = 2.038950 g / cm^3
# Si number density = 20.436012 Si / 1000 Ang^3
#
#
#
# Elastic Constant Matrix: (Units=GPa)
#
#
# Indices 1 2 3 4 5 6 
#
# 1 64.1162 11.7111 2.8160 4.2334 -11.3135 -25.0474
# 2 11.7111 73.4734 10.5929 15.3688 0.2398 -20.1231
# 3 2.8160 10.5929 101.2016 -3.3793 -13.9248 -6.3744
# 4 4.2334 15.3688 -3.3793 37.6706 -4.5192 0.1527
# 5 -11.3135 0.2398 -13.9248 -4.5192 38.1696 9.3261
# 6 -25.0474 -20.1231 -6.3744 0.1527 9.3261 32.5178
#
#
#
# Elastic Compliance Matrix: (Units=1/GPa)
#
#
# Indices 1 2 3 4 5 6 
#
# 1 0.023001 0.001968 0.000500 -0.003165 0.002106 0.018444
# 2 0.001968 0.019526 -0.002163 -0.009038 -0.004977 0.014645
# 3 0.000500 -0.002163 0.010768 0.002320 0.004392 -0.000113
# 4 -0.003165 -0.009038 0.002320 0.031556 0.006009 -0.009448
# 5 0.002106 -0.004977 0.004392 0.006009 0.031530 -0.009667
# 6 0.018444 0.014645 -0.000113 -0.009448 -0.009667 0.056817
#
#
# Mechanical properties :
#
#
# Convention : Reuss Voigt Hill
#
# Bulk Modulus (GPa) = 18.55061 32.11459 25.33260
# Shear Modulus (GPa) = 26.23886 35.91635 31.07760
#
# Velocity S-wave (km/s) = 3.58712 4.19681 3.90388
# Velocity P-wave (km/s) = 5.12383 6.26363 5.72218
#
# Compressibility (1/GPa) = 0.05390658
#
# Stress axis : x y z
#
# Youngs Moduli (GPa) = 43.47643 51.21296 92.86398
#
# Poissons Ratio (x) = -0.10080 -0.04641
# Poissons Ratio (y) = -0.08558 0.20084
# Poissons Ratio (z) = -0.02173 0.11076
#
# Static dielectric constant tensor:
#      x y z
#    x 1.854160 0.003400 0.174180 
#    y 0.003400 1.766490 -0.041910 
#    z 0.174180 -0.041910 2.053900 
# 
# From -- ./inp_files/256644.got.cif
#   From: 2010.05.17/outbox.cif.g08.bks.cpg/sg2_129_cif.got.tgz:256644.got - 2010.06.03 11:33:40.
