data_PCOD9084092
_publ_section_title
;
Structure prediction by ZEFSAII (Michael W. Deem and Ramdas Pophale) SiO2 
 PCOD9084092
Probable space group: P -1
;
_chemical_formula_sum "Si O2"
_cell_formula_units_Z 16
_cell_length_a 7.967627
_cell_length_b 16.638672
_cell_length_c 8.357806
_cell_angle_alpha 130.322172
_cell_angle_beta 108.837533
_cell_angle_gamma 107.099101
_cell_volume 573.288279
_symmetry_space_group_name_H-M "P -1"
_symmetry_group_IT_number 2
_symmetry_cell_setting 'triclinic'
loop_
_space_group_symop_operation_xyz
x,y,z
-x,-y,-z
loop_
_atom_site_type_symbol
_atom_site_label
_atom_site_fract_x
_atom_site_fract_y
_atom_site_fract_z
Si Si1 0.173651 0.998605 0.217353
Si Si2 0.265067 0.049771 0.654470
Si Si3 0.902191 0.328681 0.430111
Si Si4 0.392298 0.446648 0.160180
Si Si5 0.116391 0.906436 0.749936
Si Si6 0.710105 0.360810 0.695678
Si Si7 0.889163 0.692996 0.807912
Si Si8 0.399528 0.662389 0.033586
O O1 0.285906 0.005490 0.429089
O O2 0.271543 0.001379 0.079658
O O3 0.088680 0.085111 0.303297
O O4 0.914903 0.823420 0.925658
O O5 0.260561 0.979280 0.721185
O O6 0.475182 0.225905 0.931982
O O7 0.000000 0.000000 0.500000
O O8 0.894980 0.280578 0.184333
O O9 0.122084 0.505892 0.723261
O O10 0.969509 0.249095 0.446939
O O11 0.697242 0.296152 0.439270
O O12 0.392892 0.564933 0.254933
O O13 0.639714 0.538564 0.461858
O O14 0.149659 0.329297 0.043591
O O15 0.429959 0.371513 0.946767
O O16 0.598862 0.271877 0.714032
O O17 0.000000 0.500000 0.000000
#
# Coordination Sequence:
#
# PCOD9084092 Si02
#       8
#     2   2   2   2   2   2   2   2
#     4   9  18  32  54  86 115 148 200 247 301 356
#     4  10  20  33  56  88 120 152 193 253 309 356
#     4   9  20  39  58  84 119 159 200 241 303 367
#     4  10  19  34  60  88 116 151 201 256 306 353
#     4   9  18  34  56  78 115 158 192 241 296 354
#     4  10  22  36  55  85 123 159 196 246 304 368
#     4   9  19  35  59  88 115 151 202 258 302 356
#     4  10  21  37  58  88 117 150 204 256 298 352
#
# _framework density 27.909171000000001
#
# number of rings (size 3 to 8) (size 9 to 14) (size 15 to 20)
#    0.000    2.500    0.000    1.875    0.000   13.500 
#    0.000    0.625    0.000    6.750    0.000    0.000 
#    0.000    0.000    0.000    0.000    0.000    0.000 
#
# Total GULP energy -89409.547500 kJ/mol
# GULP energy per Si atom -5588.096719 kJ/mol
# Density = 2.784565 g / cm^3
# Si number density = 27.909171 Si / 1000 Ang^3
#
#
#
# Elastic Constant Matrix: (Units=GPa)
#
#
# Indices 1 2 3 4 5 6 
#
# 1 111.0633 42.8115 18.1341 -6.5065 -11.4141 17.2905
# 2 42.8115 183.1427 32.1603 6.9735 -6.4187 47.1301
# 3 18.1341 32.1603 91.7570 -1.4497 -18.7954 6.7046
# 4 -6.5065 6.9735 -1.4497 55.2950 15.8238 -8.4414
# 5 -11.4141 -6.4187 -18.7954 15.8238 24.0480 -5.0728
# 6 17.2905 47.1301 6.7046 -8.4414 -5.0728 49.7326
#
#
#
# Elastic Compliance Matrix: (Units=1/GPa)
#
#
# Indices 1 2 3 4 5 6 
#
# 1 0.010408 -0.001862 -0.000570 0.000214 0.003567 -0.001378
# 2 -0.001862 0.008212 -0.002081 -0.002329 -0.000322 -0.007283
# 3 -0.000570 -0.002081 0.014135 -0.002788 0.012276 0.001044
# 4 0.000214 -0.002329 -0.002788 0.024081 -0.017531 0.004808
# 5 0.003567 -0.000322 0.012276 -0.017531 0.064535 0.001017
# 6 -0.001378 -0.007283 0.001044 0.004808 0.001017 0.028268
#
#
# Mechanical properties :
#
#
# Convention : Reuss Voigt Hill
#
# Bulk Modulus (GPa) = 42.14059 63.57501 52.85780
# Shear Modulus (GPa) = 30.01671 45.33891 37.67781
#
# Velocity S-wave (km/s) = 3.28306 4.03490 3.67824
# Velocity P-wave (km/s) = 5.43169 6.67353 6.08437
#
# Compressibility (1/GPa) = 0.02373009
#
# Stress axis : x y z
#
# Youngs Moduli (GPa) = 96.07986 121.76620 70.74816
#
# Poissons Ratio (x) = 0.22667 0.04032
# Poissons Ratio (y) = 0.17886 0.14723
# Poissons Ratio (z) = 0.05475 0.25341
#
# Static dielectric constant tensor:
#      x y z
#    x 2.158590 0.029530 0.001790 
#    y 0.029530 2.164030 -0.032080 
#    z 0.001790 -0.032080 2.312200 
# 
# From -- ./inp_files/209075.got.cif
#   From: 2010.05.17/outbox.cif.g08.bks.cpg/sg2_105_cif.got.tgz:209075.got - 2010.06.03 11:33:40.
