data_PCOD9084839
_publ_section_title
;
Structure prediction by ZEFSAII (Michael W. Deem and Ramdas Pophale) SiO2 
 PCOD9084839
Probable space group: P -1
;
_chemical_formula_sum "Si O2"
_cell_formula_units_Z 14
_cell_length_a 15.570793
_cell_length_b 13.706078
_cell_length_c 7.170470
_cell_angle_alpha 117.615984
_cell_angle_beta 129.432031
_cell_angle_gamma 28.792196
_cell_volume 551.157114
_symmetry_space_group_name_H-M "P -1"
_symmetry_group_IT_number 2
_symmetry_cell_setting 'triclinic'
loop_
_space_group_symop_operation_xyz
x,y,z
-x,-y,-z
loop_
_atom_site_type_symbol
_atom_site_label
_atom_site_fract_x
_atom_site_fract_y
_atom_site_fract_z
Si Si1 0.800146 0.211109 0.091434
Si Si2 0.174898 0.470855 0.365790
Si Si3 0.405205 0.651811 0.706835
Si Si4 0.735610 0.444255 0.759212
Si Si5 0.285770 0.169218 0.977853
Si Si6 0.905937 0.892013 0.763191
Si Si7 0.428766 0.935427 0.309649
O O1 0.756355 0.194263 0.215772
O O2 0.967532 0.171673 0.300280
O O3 0.599648 0.432084 0.898776
O O4 0.853672 0.056940 0.914857
O O5 0.214494 0.540114 0.349569
O O6 0.231079 0.322724 0.166839
O O7 0.357773 0.314305 0.633111
O O8 0.937899 0.660121 0.284990
O O9 0.510106 0.659618 0.736260
O O10 0.294738 0.658687 0.422027
O O11 0.918137 0.310765 0.040313
O O12 0.307441 0.049846 0.048930
O O13 0.500000 0.000000 0.000000
O O14 0.699734 0.996464 0.625178
O O15 0.500000 0.000000 0.500000
#
# Coordination Sequence:
#
# PCOD9084839 Si02
#       7
#     2   2   2   2   2   2   2
#     4   9  19  35  56  85 116 155 198 251 298 358
#     4  10  21  40  63  84 124 161 189 257 307 349
#     4   9  19  35  55  85 116 152 202 239 303 367
#     4  10  19  35  57  83 120 157 192 248 304 358
#     4  10  22  41  63  91 117 152 212 250 298 366
#     4  10  19  35  58  82 121 157 199 250 301 356
#     4  10  21  39  61  86 121 162 200 247 307 361
#
# _framework density 25.401105999999999
#
# number of rings (size 3 to 8) (size 9 to 14) (size 15 to 20)
#    0.000    2.286    1.429    0.857    0.000    3.429 
#    5.143    1.429    0.000    0.000    0.000    0.000 
#    0.000    0.000    0.000    0.000    0.000    0.000 
#
# Total GULP energy -78061.181414 kJ/mol
# GULP energy per Si atom -5575.798672 kJ/mol
# Density = 2.534329 g / cm^3
# Si number density = 25.401106 Si / 1000 Ang^3
#
#
#
# Elastic Constant Matrix: (Units=GPa)
#
#
# Indices 1 2 3 4 5 6 
#
# 1 137.3366 31.8375 17.2728 -20.7617 26.7261 -23.5874
# 2 31.8375 54.2746 13.4215 -14.0531 6.3728 -21.6677
# 3 17.2728 13.4215 64.4930 -27.2885 17.4586 -10.9255
# 4 -20.7617 -14.0531 -27.2885 36.1390 -7.3222 5.2516
# 5 26.7261 6.3728 17.4586 -7.3222 36.2986 -3.0568
# 6 -23.5874 -21.6677 -10.9255 5.2516 -3.0568 34.8250
#
#
#
# Elastic Compliance Matrix: (Units=1/GPa)
#
#
# Indices 1 2 3 4 5 6 
#
# 1 0.010548 -0.002819 0.002499 0.004705 -0.007117 0.004840
# 2 -0.002819 0.027609 0.000715 0.007494 -0.000397 0.014328
# 3 0.002499 0.000715 0.026544 0.018671 -0.010399 0.006737
# 4 0.004705 0.007494 0.018671 0.045633 -0.004010 0.006473
# 5 -0.007117 -0.000397 -0.010399 -0.004010 0.036672 -0.004506
# 6 0.004840 0.014328 0.006737 0.006473 -0.004506 0.041649
#
#
# Mechanical properties :
#
#
# Convention : Reuss Voigt Hill
#
# Bulk Modulus (GPa) = 15.26957 42.35198 28.81078
# Shear Modulus (GPa) = 23.84399 34.35734 29.10066
#
# Velocity S-wave (km/s) = 3.06714 3.68175 3.38841
# Velocity P-wave (km/s) = 4.30901 5.89773 5.16482
#
# Compressibility (1/GPa) = 0.06548973
#
# Stress axis : x y z
#
# Youngs Moduli (GPa) = 94.80306 36.22041 37.67357
#
# Poissons Ratio (x) = 0.10212 -0.09415
# Poissons Ratio (y) = 0.26729 -0.02693
# Poissons Ratio (z) = -0.23692 -0.02589
#
# Static dielectric constant tensor:
#      x y z
#    x 2.071660 -0.065790 0.102970 
#    y -0.065790 2.003390 -0.161660 
#    z 0.102970 -0.161660 2.055570 
# 
# From -- ./inp_files/196660.got.cif
#   From: 2010.05.17/outbox.cif.g08.bks.cpg/sg2_99_cif.got.tgz:196660.got - 2010.06.03 11:33:40.
