data_PCOD9084649
_publ_section_title
;
Structure prediction by ZEFSAII (Michael W. Deem and Ramdas Pophale) SiO2 
 PCOD9084649
Probable space group: P -1
;
_chemical_formula_sum "Si O2"
_cell_formula_units_Z 12
_cell_length_a 9.258845
_cell_length_b 12.757916
_cell_length_c 9.471915
_cell_angle_alpha 70.837657
_cell_angle_beta 83.639795
_cell_angle_gamma 29.989368
_cell_volume 491.292284
_symmetry_space_group_name_H-M "P -1"
_symmetry_group_IT_number 2
_symmetry_cell_setting 'triclinic'
loop_
_space_group_symop_operation_xyz
x,y,z
-x,-y,-z
loop_
_atom_site_type_symbol
_atom_site_label
_atom_site_fract_x
_atom_site_fract_y
_atom_site_fract_z
Si Si1 0.540301 0.069803 0.664143
Si Si2 0.970865 0.805998 0.983659
Si Si3 0.533822 0.642138 0.421348
Si Si4 0.830629 0.130399 0.237250
Si Si5 0.246276 0.590939 0.778749
Si Si6 0.122988 0.144566 0.700124
O O1 0.373151 0.299443 0.555108
O O2 0.339601 0.098132 0.645712
O O3 0.649227 0.004029 0.846138
O O4 0.883269 0.835030 0.660775
O O5 0.211589 0.577833 0.953284
O O6 0.086055 0.854620 0.919977
O O7 0.928250 0.809139 0.147386
O O8 0.168483 0.885713 0.381968
O O9 0.565900 0.606543 0.263992
O O10 0.779287 0.388899 0.564396
O O11 0.724011 0.078001 0.249368
O O12 0.655874 0.345169 0.248664
#
# Coordination Sequence:
#
# PCOD9084649 Si02
#       6
#     2   2   2   2   2   2
#     4   8  20  35  55  71 109 134 166 208 260 298
#     4   7  18  36  54  71 104 136 170 203 258 300
#     4  10  19  35  56  71 108 137 167 206 254 304
#     4   8  20  35  55  71 109 134 166 208 260 298
#     4   7  18  38  52  69 108 138 164 203 264 294
#     4  12  17  31  60  81  94 137 175 210 250 300
#
# _framework density 24.425379
#
# number of rings (size 3 to 8) (size 9 to 14) (size 15 to 20)
#    2.000    1.333    0.000    2.000    0.000    1.333 
#    0.000    3.333   14.667    0.000    0.000    0.000 
#    0.000    0.000    0.000    0.000    0.000    0.000 
#
# Total GULP energy -66875.618855 kJ/mol
# GULP energy per Si atom -5572.968238 kJ/mol
# Density = 2.436979 g / cm^3
# Si number density = 24.425379 Si / 1000 Ang^3
#
#
#
# Elastic Constant Matrix: (Units=GPa)
#
#
# Indices 1 2 3 4 5 6 
#
# 1 105.8612 40.9054 -13.1668 0.8807 -4.2509 26.2016
# 2 40.9054 113.5362 8.8136 1.9437 -5.7402 10.2290
# 3 -13.1668 8.8136 56.9617 4.0413 1.9941 1.8077
# 4 0.8807 1.9437 4.0413 36.2341 3.5295 -1.3949
# 5 -4.2509 -5.7402 1.9941 3.5295 25.5764 -5.2410
# 6 26.2016 10.2290 1.8077 -1.3949 -5.2410 26.5755
#
#
#
# Elastic Compliance Matrix: (Units=1/GPa)
#
#
# Indices 1 2 3 4 5 6 
#
# 1 0.015243 -0.004674 0.004819 -0.001037 -0.001602 -0.013928
# 2 -0.004674 0.010727 -0.002826 -0.000311 0.002114 0.001073
# 3 0.004819 -0.002826 0.019511 -0.002141 -0.002193 -0.005535
# 4 -0.001037 -0.000311 -0.002141 0.028305 -0.003557 0.002072
# 5 -0.001602 0.002114 -0.002193 -0.003557 0.041807 0.008973
# 6 -0.013928 0.001073 -0.005535 0.002072 0.008973 0.053203
#
#
# Mechanical properties :
#
#
# Convention : Reuss Voigt Hill
#
# Bulk Modulus (GPa) = 24.92702 38.82926 31.87814
# Shear Modulus (GPa) = 26.66193 33.66433 30.16313
#
# Velocity S-wave (km/s) = 3.30747 3.71651 3.51794
# Velocity P-wave (km/s) = 4.98130 5.86073 5.43882
#
# Compressibility (1/GPa) = 0.04011711
#
# Stress axis : x y z
#
# Youngs Moduli (GPa) = 65.60183 93.22401 51.25287
#
# Poissons Ratio (x) = 0.43577 -0.24696
# Poissons Ratio (y) = 0.30665 0.14485
# Poissons Ratio (z) = -0.31610 0.26347
#
# Static dielectric constant tensor:
#      x y z
#    x 1.948450 -0.027350 0.025550 
#    y -0.027350 1.900520 -0.002770 
#    z 0.025550 -0.002770 2.018970 
# 
# From -- ./inp_files/389756.got.cif
#   From: 2010.05.17/outbox.cif.g08.bks.cpg/sg2_195_cif.got.tgz:389756.got - 2010.06.03 11:33:40.
