data_PCOD9084481
_publ_section_title
;
Structure prediction by ZEFSAII (Michael W. Deem and Ramdas Pophale) SiO2 
 PCOD9084481
Probable space group: P -1
;
_chemical_formula_sum "Si O2"
_cell_formula_units_Z 16
_cell_length_a 24.686698
_cell_length_b 9.213478
_cell_length_c 6.875564
_cell_angle_alpha 88.544714
_cell_angle_beta 104.677818
_cell_angle_gamma 152.892412
_cell_volume 614.170698
_symmetry_space_group_name_H-M "P -1"
_symmetry_group_IT_number 2
_symmetry_cell_setting 'triclinic'
loop_
_space_group_symop_operation_xyz
x,y,z
-x,-y,-z
loop_
_atom_site_type_symbol
_atom_site_label
_atom_site_fract_x
_atom_site_fract_y
_atom_site_fract_z
Si Si1 0.409778 0.113154 0.710064
Si Si2 0.689473 0.832757 0.417102
Si Si3 0.801601 0.527462 0.167606
Si Si4 0.305915 0.688693 0.316164
Si Si5 0.843993 0.155819 0.940616
Si Si6 0.475607 0.962094 0.751346
Si Si7 0.794503 0.841437 0.273854
Si Si8 0.916449 0.518235 0.330676
O O1 0.434230 0.343194 0.717531
O O2 0.328386 0.869037 0.838889
O O3 0.315567 0.859788 0.440725
O O4 0.515049 0.229538 0.759782
O O5 0.736411 0.910031 0.674996
O O6 0.677444 0.657245 0.285793
O O7 0.817491 0.220769 0.417987
O O8 0.921986 0.704387 0.333742
O O9 0.788797 0.658075 0.232187
O O10 0.809492 0.568210 0.941086
O O11 0.328295 0.624245 0.512181
O O12 0.431355 0.931056 0.283678
O O13 0.814444 0.961742 0.078323
O O14 0.848938 0.311458 0.072931
O O15 0.000000 0.500000 0.000000
O O16 0.500000 0.000000 0.000000
O O17 0.933102 0.190836 0.514150
#
# Coordination Sequence:
#
# PCOD9084481 Si02
#       8
#     2   2   2   2   2   2   2   2
#     4   9  19  32  55  82 101 129 171 217 257 300
#     4  10  19  35  53  73 100 138 183 219 246 300
#     4  11  21  33  50  78 114 133 167 219 264 310
#     4   9  17  32  52  81 106 129 165 208 260 313
#     4  11  18  35  55  66  96 141 190 219 245 294
#     4   9  16  32  56  82 105 129 162 215 261 308
#     4  11  22  34  49  75 106 148 174 209 267 302
#     4  10  20  35  52  72 101 142 184 219 249 296
#
# _framework density 26.051390000000001
#
# number of rings (size 3 to 8) (size 9 to 14) (size 15 to 20)
#    0.750    1.250    3.750    1.875    0.000    1.000 
#    0.000    0.625    0.000    0.750    0.000    3.500 
#    0.000    0.000    0.000    0.000    0.000    0.000 
#
# Total GULP energy -89198.639780 kJ/mol
# GULP energy per Si atom -5574.914986 kJ/mol
# Density = 2.599210 g / cm^3
# Si number density = 26.051390 Si / 1000 Ang^3
#
#
#
# Elastic Constant Matrix: (Units=GPa)
#
#
# Indices 1 2 3 4 5 6 
#
# 1 139.9212 30.7835 39.4431 -17.0495 0.3720 -40.8566
# 2 30.7835 46.8980 33.2009 -2.2639 1.4665 -20.5963
# 3 39.4431 33.2009 190.3282 -15.4685 -17.3787 -22.3645
# 4 -17.0495 -2.2639 -15.4685 24.0401 -2.4278 7.2104
# 5 0.3720 1.4665 -17.3787 -2.4278 45.1376 -7.6764
# 6 -40.8566 -20.5963 -22.3645 7.2104 -7.6764 40.9567
#
#
#
# Elastic Compliance Matrix: (Units=1/GPa)
#
#
# Indices 1 2 3 4 5 6 
#
# 1 0.011049 -0.003076 -0.000154 0.004970 0.001720 0.008838
# 2 -0.003076 0.030730 -0.003938 -0.005207 -0.000902 0.010982
# 3 -0.000154 -0.003938 0.006741 0.003733 0.003178 0.001486
# 4 0.004970 -0.005207 0.003733 0.048439 0.003579 -0.003479
# 5 0.001720 -0.000902 0.003178 0.003579 0.024778 0.007012
# 6 0.008838 0.010982 0.001486 -0.003479 0.007012 0.041494
#
#
# Mechanical properties :
#
#
# Convention : Reuss Voigt Hill
#
# Bulk Modulus (GPa) = 29.25306 64.88917 47.07112
# Shear Modulus (GPa) = 26.46066 40.27488 33.36777
#
# Velocity S-wave (km/s) = 3.19048 3.93616 3.58277
# Velocity P-wave (km/s) = 4.98253 6.75426 5.93488
#
# Compressibility (1/GPa) = 0.03418446
#
# Stress axis : x y z
#
# Youngs Moduli (GPa) = 90.50807 32.54179 148.34484
#
# Poissons Ratio (x) = 0.10009 0.02278
# Poissons Ratio (y) = 0.27839 0.58420
# Poissons Ratio (z) = 0.01390 0.12815
#
# Static dielectric constant tensor:
#      x y z
#    x 2.088730 0.009050 0.019570 
#    y 0.009050 2.216720 0.019460 
#    z 0.019570 0.019460 2.043640 
# 
# From -- ./inp_files/126422.got.cif
#   From: 2010.05.17/outbox.cif.g08.bks.cpg/sg2_64_cif.got.tgz:126422.got - 2010.06.03 11:33:40.
