data_PCOD9084925
_publ_section_title
;
Structure prediction by ZEFSAII (Michael W. Deem and Ramdas Pophale) SiO2 
 PCOD9084925
Probable space group: P -1
;
_chemical_formula_sum "Si O2"
_cell_formula_units_Z 16
_cell_length_a 9.249285
_cell_length_b 8.638954
_cell_length_c 12.161627
_cell_angle_alpha 84.674929
_cell_angle_beta 62.587670
_cell_angle_gamma 62.934785
_cell_volume 759.768417
_symmetry_space_group_name_H-M "P -1"
_symmetry_group_IT_number 2
_symmetry_cell_setting 'triclinic'
loop_
_space_group_symop_operation_xyz
x,y,z
-x,-y,-z
loop_
_atom_site_type_symbol
_atom_site_label
_atom_site_fract_x
_atom_site_fract_y
_atom_site_fract_z
Si Si1 0.607855 0.329860 0.340069
Si Si2 0.215564 0.492657 0.003587
Si Si3 0.209802 0.068535 0.788743
Si Si4 0.215861 0.753202 0.130969
Si Si5 0.544737 0.826835 0.421771
Si Si6 0.441965 0.697536 0.256976
Si Si7 0.674898 0.993449 0.999848
Si Si8 0.035993 0.682963 0.844064
O O1 0.490216 0.308698 0.482311
O O2 0.485079 0.508020 0.304866
O O3 0.796786 0.345903 0.292772
O O4 0.682954 0.138092 0.268514
O O5 0.384781 0.348301 0.883643
O O6 0.127505 0.653129 0.935772
O O7 0.276364 0.555868 0.085901
O O8 0.059680 0.442728 0.102010
O O9 0.262012 0.199956 0.692512
O O10 0.273836 0.073873 0.889829
O O11 0.996580 0.134580 0.835430
O O12 0.263299 0.768291 0.238933
O O13 0.335574 0.817726 0.012704
O O14 0.435729 0.827861 0.347782
O O15 0.500000 0.000000 0.500000
O O16 0.859686 0.868829 0.875844
O O17 0.500000 0.000000 0.000000
#
# Coordination Sequence:
#
# PCOD9084925 Si02
#       8
#     2   2   2   2   2   2   2   2
#     4  10  22  41  66  87 124 169 218 260 311 372
#     4  10  21  35  61  93 133 164 201 254 323 382
#     4  11  22  41  65  93 127 168 213 256 321 377
#     4  12  23  38  63 100 136 164 202 261 321 384
#     4  10  23  44  69  90 118 173 221 270 309 367
#     4  11  23  41  64  96 129 166 213 259 320 377
#     4  12  22  36  62  95 131 166 206 255 316 387
#     4  10  19  35  57  93 122 166 210 254 310 380
#
# _framework density 21.059048000000001
#
# number of rings (size 3 to 8) (size 9 to 14) (size 15 to 20)
#    0.000    1.250    2.500    4.875    3.500    1.000 
#    0.000    3.125    2.750    0.000    0.000    0.000 
#    0.000    0.000    0.000    0.000    0.000    0.000 
#
# Total GULP energy -89102.036095 kJ/mol
# GULP energy per Si atom -5568.877256 kJ/mol
# Density = 2.101112 g / cm^3
# Si number density = 21.059048 Si / 1000 Ang^3
#
#
#
# Elastic Constant Matrix: (Units=GPa)
#
#
# Indices 1 2 3 4 5 6 
#
# 1 158.2653 47.6602 66.1181 -11.9068 6.0424 9.2702
# 2 47.6602 75.2697 41.8231 -11.6428 -1.2649 6.8198
# 3 66.1181 41.8231 97.6561 -14.3349 -3.5045 14.1340
# 4 -11.9068 -11.6428 -14.3349 34.8654 21.7118 -7.1790
# 5 6.0424 -1.2649 -3.5045 21.7118 37.3237 -5.3866
# 6 9.2702 6.8198 14.1340 -7.1790 -5.3866 41.7847
#
#
#
# Elastic Compliance Matrix: (Units=1/GPa)
#
#
# Indices 1 2 3 4 5 6 
#
# 1 0.009632 -0.003000 -0.005007 0.002442 -0.003551 0.000008
# 2 -0.003000 0.018849 -0.005491 0.004115 -0.001796 -0.000078
# 3 -0.005007 -0.005491 0.016831 0.002557 0.000254 -0.003214
# 4 0.002442 0.004115 0.002557 0.050622 -0.029049 0.002874
# 5 -0.003551 -0.001796 0.000254 -0.029049 0.044479 0.001738
# 6 0.000008 -0.000078 -0.003214 0.002874 0.001738 0.025748
#
#
# Mechanical properties :
#
#
# Convention : Reuss Voigt Hill
#
# Bulk Modulus (GPa) = 54.59161 71.37709 62.98435
# Shear Modulus (GPa) = 25.09236 34.50075 29.79656
#
# Velocity S-wave (km/s) = 3.45559 4.05197 3.76560
# Velocity P-wave (km/s) = 6.47309 7.47386 6.99140
#
# Compressibility (1/GPa) = 0.01831783
#
# Stress axis : x y z
#
# Youngs Moduli (GPa) = 103.81591 53.05256 59.41350
#
# Poissons Ratio (x) = 0.15914 0.29749
# Poissons Ratio (y) = 0.31142 0.32622
# Poissons Ratio (z) = 0.51982 0.29130
#
# Static dielectric constant tensor:
#      x y z
#    x 1.753310 0.033250 -0.004800 
#    y 0.033250 1.865570 0.016290 
#    z -0.004800 0.016290 1.819920 
# 
# From -- ./inp_files/282889.got.cif
#   From: 2010.05.17/outbox.cif.g08.bks.cpg/sg2_142_cif.got.tgz:282889.got - 2010.06.03 11:33:40.
