data_PCOD9084074
_publ_section_title
;
Structure prediction by ZEFSAII (Michael W. Deem and Ramdas Pophale) SiO2 
 PCOD9084074
Probable space group: P -1
;
_chemical_formula_sum "Si O2"
_cell_formula_units_Z 16
_cell_length_a 12.638444
_cell_length_b 10.414174
_cell_length_c 9.644486
_cell_angle_alpha 42.058173
_cell_angle_beta 70.563406
_cell_angle_gamma 98.969082
_cell_volume 617.549844
_symmetry_space_group_name_H-M "P -1"
_symmetry_group_IT_number 2
_symmetry_cell_setting 'triclinic'
loop_
_space_group_symop_operation_xyz
x,y,z
-x,-y,-z
loop_
_atom_site_type_symbol
_atom_site_label
_atom_site_fract_x
_atom_site_fract_y
_atom_site_fract_z
Si Si1 0.898788 0.209780 0.651604
Si Si2 0.883325 0.605258 0.006264
Si Si3 0.593036 0.904939 0.542666
Si Si4 0.246874 0.276708 0.802519
Si Si5 0.620679 0.094866 0.987957
Si Si6 0.211633 0.612621 0.075273
Si Si7 0.466777 0.400044 0.422671
Si Si8 0.827799 0.095715 0.476613
O O1 0.773103 0.220451 0.740970
O O2 0.851959 0.054356 0.653965
O O3 0.059311 0.456120 0.349377
O O4 0.878880 0.018093 0.924270
O O5 0.809208 0.535467 0.938900
O O6 0.047406 0.860260 0.708623
O O7 0.810866 0.618101 0.161703
O O8 0.874910 0.371053 0.234919
O O9 0.661443 0.915609 0.648318
O O10 0.500000 0.000000 0.500000
O O11 0.520827 0.651322 0.698946
O O12 0.741025 0.130791 0.215128
O O13 0.331204 0.388050 0.531347
O O14 0.386509 0.360099 0.768093
O O15 0.663871 0.284664 0.944697
O O16 0.500000 0.000000 0.000000
O O17 0.564674 0.842614 0.295851
#
# Coordination Sequence:
#
# PCOD9084074 Si02
#       8
#     2   2   2   2   2   2   2   2
#     4  10  21  36  58  85 119 149 189 243 287 341
#     4   9  18  35  59  80 112 155 188 235 284 341
#     4  10  19  34  60  86 116 150 192 244 292 334
#     4  10  20  37  60  76 117 165 184 223 300 355
#     4  10  21  34  59  88 113 144 193 251 287 327
#     4   9  19  35  56  87 110 146 193 236 288 341
#     4   9  20  37  56  79 113 158 196 222 288 369
#     4   9  19  33  56  89 108 137 204 245 273 332
#
# _framework density 25.908837999999999
#
# number of rings (size 3 to 8) (size 9 to 14) (size 15 to 20)
#    0.000    2.500    0.000    2.625    5.250    2.000 
#    0.000    1.250   13.750    0.000    0.000    0.000 
#    0.000    0.000    0.000    0.000    0.000    0.000 
#
# Total GULP energy -89199.970889 kJ/mol
# GULP energy per Si atom -5574.998181 kJ/mol
# Density = 2.584987 g / cm^3
# Si number density = 25.908838 Si / 1000 Ang^3
#
#
#
# Elastic Constant Matrix: (Units=GPa)
#
#
# Indices 1 2 3 4 5 6 
#
# 1 66.9123 38.8803 19.9869 2.5937 -9.9873 13.1369
# 2 38.8803 84.7761 -7.3164 -3.0803 -21.0029 -4.1420
# 3 19.9869 -7.3164 127.1048 2.9604 -9.1999 -9.8102
# 4 2.5937 -3.0803 2.9604 32.4353 -2.9731 -18.2777
# 5 -9.9873 -21.0029 -9.1999 -2.9731 29.9292 4.8468
# 6 13.1369 -4.1420 -9.8102 -18.2777 4.8468 40.4473
#
#
#
# Elastic Compliance Matrix: (Units=1/GPa)
#
#
# Indices 1 2 3 4 5 6 
#
# 1 0.031195 -0.016935 -0.007226 -0.014978 -0.001919 -0.020157
# 2 -0.016935 0.024097 0.005665 0.011646 0.012026 0.013164
# 3 -0.007226 0.005665 0.010047 0.004451 0.003977 0.006898
# 4 -0.014978 0.011646 0.004451 0.049459 0.004773 0.028915
# 5 -0.001919 0.012026 0.003977 0.004773 0.042935 -0.000169
# 6 -0.020157 0.013164 0.006898 0.028915 -0.000169 0.047378
#
#
# Mechanical properties :
#
#
# Convention : Reuss Voigt Hill
#
# Bulk Modulus (GPa) = 35.27677 42.43274 38.85475
# Shear Modulus (GPa) = 19.87662 35.71185 27.79424
#
# Velocity S-wave (km/s) = 2.77280 3.71666 3.27887
# Velocity P-wave (km/s) = 4.88840 5.90181 5.41885
#
# Compressibility (1/GPa) = 0.02834727
#
# Stress axis : x y z
#
# Youngs Moduli (GPa) = 32.05619 41.49886 99.53658
#
# Poissons Ratio (x) = 0.70278 0.71925
# Poissons Ratio (y) = 0.54287 -0.56390
# Poissons Ratio (z) = 0.23164 -0.23510
#
# Static dielectric constant tensor:
#      x y z
#    x 2.091040 0.032620 -0.005170 
#    y 0.032620 2.147850 0.054380 
#    z -0.005170 0.054380 2.163180 
# 
# From -- ./inp_files/451089.got.cif
#   From: 2010.05.17/outbox.cif.g08.bks.cpg/sg2_226_cif.got.tgz:451089.got - 2010.06.03 11:33:40.
