data_PCOD9084923
_publ_section_title
;
Structure prediction by ZEFSAII (Michael W. Deem and Ramdas Pophale) SiO2 
 PCOD9084923
Probable space group: P -1
;
_chemical_formula_sum "Si O2"
_cell_formula_units_Z 14
_cell_length_a 32.822583
_cell_length_b 32.827065
_cell_length_c 12.651003
_cell_angle_alpha 160.549426
_cell_angle_beta 160.554546
_cell_angle_gamma 9.255072
_cell_volume 710.486953
_symmetry_space_group_name_H-M "P -1"
_symmetry_group_IT_number 2
_symmetry_cell_setting 'triclinic'
loop_
_space_group_symop_operation_xyz
x,y,z
-x,-y,-z
loop_
_atom_site_type_symbol
_atom_site_label
_atom_site_fract_x
_atom_site_fract_y
_atom_site_fract_z
Si Si1 0.708498 0.708720 0.775434
Si Si2 0.325567 0.324057 0.166381
Si Si3 0.350016 0.351340 0.747784
Si Si4 0.783506 0.781952 0.851436
Si Si5 0.455427 0.452285 0.674651
Si Si6 0.073426 0.072559 0.821453
Si Si7 0.917698 0.914520 0.377497
O O1 0.659694 0.660806 0.636960
O O2 0.676940 0.676921 0.506439
O O3 0.000000 0.500000 0.000000
O O4 0.500000 0.000000 0.000000
O O5 0.388002 0.385650 0.402448
O O6 0.038892 0.539969 0.956224
O O7 0.541134 0.037619 0.955882
O O8 0.290524 0.292243 0.541119
O O9 0.141433 0.642405 0.965218
O O10 0.640899 0.143260 0.966384
O O11 0.843716 0.841450 0.062617
O O12 0.201212 0.703904 0.598854
O O13 0.708864 0.196721 0.600912
O O14 0.500000 0.500000 0.000000
O O15 0.081035 0.081381 0.735073
O O16 0.000000 0.000000 0.500000
#
# Coordination Sequence:
#
# PCOD9084923 Si02
#       7
#     2   2   2   2   2   2   2
#     4  12  21  36  61  95 129 159 195 254 322 378
#     4  10  19  35  57  92 130 155 186 263 312 371
#     4  12  24  41  68  93 124 173 214 255 323 378
#     4  10  20  38  64  92 120 153 207 256 323 369
#     4  10  21  38  65  93 120 162 210 253 313 376
#     4  12  28  46  62  89 130 173 221 261 297 378
#     4  10  23  42  64  88 129 163 202 273 312 357
#
# _framework density 19.704795000000001
#
# number of rings (size 3 to 8) (size 9 to 14) (size 15 to 20)
#    0.000    1.143    2.857    3.429    0.000    3.429 
#    0.000    0.000    0.000    0.000    0.000    0.000 
#    0.000    0.000    0.000    0.000    0.000    0.000 
#
# Total GULP energy -78095.598306 kJ/mol
# GULP energy per Si atom -5578.257022 kJ/mol
# Density = 1.965995 g / cm^3
# Si number density = 19.704795 Si / 1000 Ang^3
#
#
#
# Elastic Constant Matrix: (Units=GPa)
#
#
# Indices 1 2 3 4 5 6 
#
# 1 140.2547 63.8349 45.7141 1.8876 -24.9106 5.3022
# 2 63.8349 218.3295 86.9680 -2.1055 -22.0862 -9.4705
# 3 45.7141 86.9680 120.8418 0.2756 -14.4253 -2.8523
# 4 1.8876 -2.1055 0.2756 25.4775 -0.3614 -15.2883
# 5 -24.9106 -22.0862 -14.4253 -0.3614 28.9618 0.6732
# 6 5.3022 -9.4705 -2.8523 -15.2883 0.6732 15.7907
#
#
#
# Elastic Compliance Matrix: (Units=1/GPa)
#
#
# Indices 1 2 3 4 5 6 
#
# 1 0.010806 -0.002552 -0.001803 -0.010404 0.006689 -0.015843
# 2 -0.002552 0.007806 -0.004182 0.008909 0.001476 0.013346
# 3 -0.001803 -0.004182 0.012118 -0.000444 0.001295 -0.000199
# 4 -0.010404 0.008909 -0.000444 0.109919 -0.003685 0.115336
# 5 0.006689 0.001476 0.001295 -0.003685 0.042157 -0.006492
# 6 -0.015843 0.013346 -0.000199 0.115336 -0.006492 0.188560
#
#
# Mechanical properties :
#
#
# Convention : Reuss Voigt Hill
#
# Bulk Modulus (GPa) = 73.22546 96.94001 85.08274
# Shear Modulus (GPa) = 12.72291 32.90660 22.81476
#
# Velocity S-wave (km/s) = 2.54377 4.09097 3.40638
# Velocity P-wave (km/s) = 6.77271 8.46272 7.66444
#
# Compressibility (1/GPa) = 0.01365645
#
# Stress axis : x y z
#
# Youngs Moduli (GPa) = 92.54081 128.10166 82.52389
#
# Poissons Ratio (x) = 0.32695 0.14878
# Poissons Ratio (y) = 0.23619 0.34509
# Poissons Ratio (z) = 0.16684 0.53568
#
# Static dielectric constant tensor:
#      x y z
#    x 1.695140 0.021310 0.014870 
#    y 0.021310 1.459550 -0.000180 
#    z 0.014870 -0.000180 1.827660 
# 
# From -- ./inp_files/83450.got.cif
#   From: 2010.05.17/outbox.cif.g08.bks.cpg/sg2_42_cif.got.tgz:83450.got - 2010.06.03 11:33:40.
