data_PCOD9084241
_publ_section_title
;
Structure prediction by ZEFSAII (Michael W. Deem and Ramdas Pophale) SiO2 
 PCOD9084241
Probable space group: P -1
;
_chemical_formula_sum "Si O2"
_cell_formula_units_Z 16
_cell_length_a 10.972467
_cell_length_b 12.860857
_cell_length_c 9.388400
_cell_angle_alpha 112.826119
_cell_angle_beta 53.145786
_cell_angle_gamma 71.310881
_cell_volume 646.298274
_symmetry_space_group_name_H-M "P -1"
_symmetry_group_IT_number 2
_symmetry_cell_setting 'triclinic'
loop_
_space_group_symop_operation_xyz
x,y,z
-x,-y,-z
loop_
_atom_site_type_symbol
_atom_site_label
_atom_site_fract_x
_atom_site_fract_y
_atom_site_fract_z
Si Si1 0.217074 0.438513 0.237892
Si Si2 0.349066 0.808214 0.682228
Si Si3 0.338192 0.076629 0.786881
Si Si4 0.834916 0.315841 0.258803
Si Si5 0.169854 0.476010 0.965286
Si Si6 0.433126 0.931933 0.111961
Si Si7 0.079745 0.732530 0.336000
Si Si8 0.627800 0.322337 0.130063
O O1 0.653156 0.198983 0.147777
O O2 0.000000 0.500000 0.500000
O O3 0.239769 0.391225 0.028866
O O4 0.432032 0.263712 0.080464
O O5 0.311305 0.957276 0.755174
O O6 0.178875 0.806227 0.739171
O O7 0.595778 0.640650 0.350178
O O8 0.500000 0.000000 0.500000
O O9 0.477034 0.061997 0.803052
O O10 0.068271 0.255344 0.067161
O O11 0.758725 0.333805 0.158969
O O12 0.635636 0.493958 0.572754
O O13 0.033141 0.662944 0.211803
O O14 0.000000 0.500000 0.000000
O O15 0.158590 0.072578 0.364944
O O16 0.500000 0.000000 0.000000
O O17 0.170951 0.599999 0.329940
O O18 0.262838 0.712337 0.118842
#
# Coordination Sequence:
#
# PCOD9084241 Si02
#       8
#     2   2   2   2   2   2   2   2
#     4  10  22  40  61  92 125 174 208 265 332 382
#     4  10  20  36  57  92 135 168 200 264 333 381
#     4  12  25  37  61 104 128 165 223 277 324 391
#     4   9  18  38  56  87 139 164 209 257 339 384
#     4  10  19  34  61  98 129 161 210 271 323 380
#     4  12  24  43  64  95 133 173 217 278 332 388
#     4  10  20  39  64  89 127 165 224 253 328 391
#     4   9  18  35  61  88 126 177 203 262 331 393
#
# _framework density 24.756373
#
# number of rings (size 3 to 8) (size 9 to 14) (size 15 to 20)
#    1.500    0.250    2.500    2.625    0.000    3.000 
#    2.250    0.000    0.000    1.500    3.250    0.000 
#    0.000    0.000    0.000    0.000    0.000    0.000 
#
# Total GULP energy -89179.814257 kJ/mol
# GULP energy per Si atom -5573.738391 kJ/mol
# Density = 2.470003 g / cm^3
# Si number density = 24.756373 Si / 1000 Ang^3
#
#
#
# Elastic Constant Matrix: (Units=GPa)
#
#
# Indices 1 2 3 4 5 6 
#
# 1 51.2769 22.0492 17.1820 -0.0640 -13.2248 5.4437
# 2 22.0492 153.3263 86.4138 -12.1422 -30.3583 15.3935
# 3 17.1820 86.4138 138.0812 -2.7872 -28.0642 15.9622
# 4 -0.0640 -12.1422 -2.7872 49.5318 9.3499 7.1511
# 5 -13.2248 -30.3583 -28.0642 9.3499 31.5886 -9.0312
# 6 5.4437 15.3935 15.9622 7.1511 -9.0312 46.9879
#
#
#
# Elastic Compliance Matrix: (Units=1/GPa)
#
#
# Indices 1 2 3 4 5 6 
#
# 1 0.022383 -0.001683 -0.000087 -0.001916 0.008202 -0.000144
# 2 -0.001683 0.011021 -0.005727 0.001762 0.004000 -0.000969
# 3 -0.000087 -0.005727 0.011993 -0.001602 0.005326 -0.000921
# 4 -0.001916 0.001762 -0.001602 0.022894 -0.008730 -0.004973
# 5 0.008202 0.004000 0.005326 -0.008730 0.048111 0.006506
# 6 -0.000144 -0.000969 -0.000921 -0.004973 0.006506 0.023936
#
#
# Mechanical properties :
#
#
# Convention : Reuss Voigt Hill
#
# Bulk Modulus (GPa) = 32.89095 65.99714 49.44404
# Shear Modulus (GPa) = 30.21752 40.09095 35.15423
#
# Velocity S-wave (km/s) = 3.49749 4.02857 3.77239
# Velocity P-wave (km/s) = 5.44285 6.95382 6.24421
#
# Compressibility (1/GPa) = 0.03040350
#
# Stress axis : x y z
#
# Youngs Moduli (GPa) = 44.67651 90.73961 83.37885
#
# Poissons Ratio (x) = 0.15273 0.00724
# Poissons Ratio (y) = 0.07520 0.47749
# Poissons Ratio (z) = 0.00388 0.51965
#
# Static dielectric constant tensor:
#      x y z
#    x 1.791250 -0.125370 -0.138970 
#    y -0.125370 2.008240 -0.009750 
#    z -0.138970 -0.009750 1.913270 
# 
# From -- ./inp_files/279598.got.cif
#   From: 2010.05.17/outbox.cif.g08.bks.cpg/sg2_140_cif.got.tgz:279598.got - 2010.06.03 11:33:40.
