data_PCOD9084281
_publ_section_title
;
Structure prediction by ZEFSAII (Michael W. Deem and Ramdas Pophale) SiO2 
 PCOD9084281
Probable space group: P -1
;
_chemical_formula_sum "Si O2"
_cell_formula_units_Z 16
_cell_length_a 8.169730
_cell_length_b 7.766910
_cell_length_c 16.914432
_cell_angle_alpha 89.545349
_cell_angle_beta 140.077440
_cell_angle_gamma 103.422639
_cell_volume 644.614070
_symmetry_space_group_name_H-M "P -1"
_symmetry_group_IT_number 2
_symmetry_cell_setting 'triclinic'
loop_
_space_group_symop_operation_xyz
x,y,z
-x,-y,-z
loop_
_atom_site_type_symbol
_atom_site_label
_atom_site_fract_x
_atom_site_fract_y
_atom_site_fract_z
Si Si1 0.705803 0.708658 0.083037
Si Si2 0.889669 0.470432 0.563668
Si Si3 0.312404 0.800264 0.633825
Si Si4 0.254371 0.506375 0.146597
Si Si5 0.293308 0.147576 0.087392
Si Si6 0.793381 0.421056 0.702191
Si Si7 0.676948 0.932692 0.499998
Si Si8 0.757182 0.799383 0.273614
O O1 0.641542 0.779733 0.142151
O O2 0.007586 0.696090 0.205404
O O3 0.500000 0.500000 0.000000
O O4 0.681646 0.824371 0.997391
O O5 0.640882 0.336610 0.418205
O O6 0.860645 0.521916 0.643140
O O7 0.041045 0.652830 0.570152
O O8 0.075579 0.341044 0.646571
O O9 0.492329 0.892833 0.776094
O O10 0.314547 0.967708 0.580635
O O11 0.342417 0.351106 0.139222
O O12 0.173884 0.461696 0.207502
O O13 0.492110 0.704766 0.229201
O O14 0.000000 0.500000 0.000000
O O15 0.000000 0.000000 0.000000
O O16 0.490448 0.279303 0.575249
O O17 0.997549 0.004947 0.636969
O O18 0.500000 0.000000 0.500000
#
# Coordination Sequence:
#
# PCOD9084281 Si02
#       8
#     2   2   2   2   2   2   2   2
#     4  11  18  36  64  92 116 169 218 245 291 377
#     4   9  18  36  64  90 116 166 204 259 298 374
#     4  10  19  34  62  90 123 148 216 255 306 345
#     4  12  24  41  61  93 134 166 203 256 318 376
#     4  12  24  36  62  95 119 162 208 260 301 368
#     4  11  21  37  63  90 125 160 210 254 313 360
#     4  11  20  37  67  96 117 159 214 268 294 371
#     4  10  20  37  64  92 121 163 218 247 304 375
#
# _framework density 24.821052999999999
#
# number of rings (size 3 to 8) (size 9 to 14) (size 15 to 20)
#    0.000    1.250    7.500    1.500    0.000    0.500 
#    0.000    0.625    2.750    2.250    0.000    0.000 
#    0.000    0.000    0.000    0.000    0.000    0.000 
#
# Total GULP energy -89338.293686 kJ/mol
# GULP energy per Si atom -5583.643355 kJ/mol
# Density = 2.476456 g / cm^3
# Si number density = 24.821053 Si / 1000 Ang^3
#
#
#
# Elastic Constant Matrix: (Units=GPa)
#
#
# Indices 1 2 3 4 5 6 
#
# 1 48.5567 7.2083 30.0171 -15.6543 -15.9254 18.5643
# 2 7.2083 93.8190 41.0359 -4.3693 -15.8084 30.3616
# 3 30.0171 41.0359 153.4941 -7.3359 -16.9594 29.0340
# 4 -15.6543 -4.3693 -7.3359 58.6476 22.8769 -12.1762
# 5 -15.9254 -15.8084 -16.9594 22.8769 46.9172 -9.9776
# 6 18.5643 30.3616 29.0340 -12.1762 -9.9776 38.9466
#
#
#
# Elastic Compliance Matrix: (Units=1/GPa)
#
#
# Indices 1 2 3 4 5 6 
#
# 1 0.030117 0.004668 -0.003927 0.002818 0.006330 -0.012564
# 2 0.004668 0.016066 -0.002457 -0.002222 0.004546 -0.012447
# 3 -0.003927 -0.002457 0.008485 -0.001054 0.000857 -0.002648
# 4 0.002818 -0.002222 -0.001054 0.022575 -0.009973 0.005678
# 5 0.006330 0.004546 0.000857 -0.009973 0.029585 -0.002739
# 6 -0.012564 -0.012447 -0.002648 0.005678 -0.002739 0.044416
#
#
# Mechanical properties :
#
#
# Convention : Reuss Voigt Hill
#
# Bulk Modulus (GPa) = 19.51807 50.26582 34.89194
# Shear Modulus (GPa) = 29.11121 43.40951 36.26036
#
# Velocity S-wave (km/s) = 3.42840 4.18652 3.82628
# Velocity P-wave (km/s) = 4.85309 6.60791 5.79728
#
# Compressibility (1/GPa) = 0.05123458
#
# Stress axis : x y z
#
# Youngs Moduli (GPa) = 33.20356 62.24442 117.85541
#
# Poissons Ratio (x) = -0.29053 0.46280
# Poissons Ratio (y) = -0.15498 0.28961
# Poissons Ratio (z) = 0.13039 0.15296
#
# Static dielectric constant tensor:
#      x y z
#    x 2.123410 -0.010080 -0.073110 
#    y -0.010080 1.858010 0.114220 
#    z -0.073110 0.114220 1.806110 
# 
# From -- ./inp_files/444735.got.cif
#   From: 2010.05.17/outbox.cif.g08.bks.cpg/sg2_223_cif.got.tgz:444735.got - 2010.06.03 11:33:40.
