data_PCOD9084932
_publ_section_title
;
Structure prediction by ZEFSAII (Michael W. Deem and Ramdas Pophale) SiO2 
 PCOD9084932
Probable space group: P -1
;
_chemical_formula_sum "Si O2"
_cell_formula_units_Z 16
_cell_length_a 13.467015
_cell_length_b 9.289276
_cell_length_c 14.604365
_cell_angle_alpha 138.287880
_cell_angle_beta 46.554942
_cell_angle_gamma 149.135052
_cell_volume 617.742151
_symmetry_space_group_name_H-M "P -1"
_symmetry_group_IT_number 2
_symmetry_cell_setting 'triclinic'
loop_
_space_group_symop_operation_xyz
x,y,z
-x,-y,-z
loop_
_atom_site_type_symbol
_atom_site_label
_atom_site_fract_x
_atom_site_fract_y
_atom_site_fract_z
Si Si1 0.359919 0.021853 0.388874
Si Si2 0.997942 0.592396 0.148665
Si Si3 0.798012 0.718704 0.642310
Si Si4 0.322435 0.644790 0.971906
Si Si5 0.311362 0.226715 0.905164
Si Si6 0.246715 0.708672 0.665071
Si Si7 0.413120 0.476447 0.678206
Si Si8 0.254095 0.448095 0.194187
O O1 0.527863 0.112067 0.391547
O O2 0.291131 0.155935 0.550458
O O3 0.465777 0.242227 0.337610
O O4 0.224428 0.663405 0.287111
O O5 0.814885 0.364883 0.223856
O O6 0.074301 0.921010 0.268657
O O7 0.158299 0.612666 0.099634
O O8 0.000000 0.500000 0.000000
O O9 0.852862 0.587888 0.474867
O O10 0.580748 0.557439 0.673756
O O11 0.796686 0.635608 0.707656
O O12 0.367450 0.504755 0.946537
O O13 0.275756 0.468061 0.823203
O O14 0.500000 0.000000 0.000000
O O15 0.512854 0.341172 0.863508
O O16 0.221458 0.931983 0.760877
O O17 0.175865 0.166803 0.044794
#
# Coordination Sequence:
#
# PCOD9084932 Si02
#       8
#     2   2   2   2   2   2   2   2
#     4   9  20  34  61  90 130 157 200 263 309 368
#     4  12  25  42  64  90 128 167 207 255 316 376
#     4  11  22  39  66  89 121 165 216 255 305 373
#     4  12  22  38  66  93 123 159 213 260 305 368
#     4  10  21  36  61  92 130 160 208 257 314 367
#     4  10  23  40  61  89 124 169 209 247 313 380
#     4  10  19  35  57  97 120 157 206 260 311 352
#     4  10  19  35  60  95 126 161 202 262 314 355
#
# _framework density 25.900777000000001
#
# number of rings (size 3 to 8) (size 9 to 14) (size 15 to 20)
#    0.000    1.500    2.500    2.625    1.750    4.000 
#    0.000    0.000    0.000    1.500    0.000    0.000 
#    0.000    0.000    0.000    0.000    0.000    0.000 
#
# Total GULP energy -89466.748993 kJ/mol
# GULP energy per Si atom -5591.671812 kJ/mol
# Density = 2.584183 g / cm^3
# Si number density = 25.900777 Si / 1000 Ang^3
#
#
#
# Elastic Constant Matrix: (Units=GPa)
#
#
# Indices 1 2 3 4 5 6 
#
# 1 66.8569 26.5796 53.0101 13.6352 -3.5976 -17.1068
# 2 26.5796 70.2137 47.8589 19.9138 -9.5715 -22.1992
# 3 53.0101 47.8589 208.8920 29.8365 -21.2533 -24.4644
# 4 13.6352 19.9138 29.8365 40.7639 -1.5200 -2.7884
# 5 -3.5976 -9.5715 -21.2533 -1.5200 33.0367 0.7414
# 6 -17.1068 -22.1992 -24.4644 -2.7884 0.7414 46.3382
#
#
#
# Elastic Compliance Matrix: (Units=1/GPa)
#
#
# Indices 1 2 3 4 5 6 
#
# 1 0.020777 -0.003635 -0.003833 -0.002163 -0.001441 0.003798
# 2 -0.003635 0.021964 -0.001670 -0.007597 0.004369 0.007772
# 3 -0.003833 -0.001670 0.007053 -0.002847 0.003476 0.001282
# 4 -0.002163 -0.007597 -0.002847 0.030670 -0.002766 -0.004051
# 5 -0.001441 0.004369 0.003476 -0.002766 0.033427 0.002695
# 6 0.003798 0.007772 0.001282 -0.004051 0.002695 0.027096
#
#
# Mechanical properties :
#
#
# Convention : Reuss Voigt Hill
#
# Bulk Modulus (GPa) = 31.72708 66.76220 49.24464
# Shear Modulus (GPa) = 29.45221 38.59535 34.02378
#
# Velocity S-wave (km/s) = 3.37577 3.86440 3.62832
# Velocity P-wave (km/s) = 5.24123 6.76340 6.05038
#
# Compressibility (1/GPa) = 0.03151882
#
# Stress axis : x y z
#
# Youngs Moduli (GPa) = 48.13114 45.52935 141.78807
#
# Poissons Ratio (x) = 0.16549 0.54340
# Poissons Ratio (y) = 0.17495 0.23676
# Poissons Ratio (z) = 0.18446 0.07603
#
# Static dielectric constant tensor:
#      x y z
#    x 2.102130 -0.011070 0.077260 
#    y -0.011070 2.070310 0.045200 
#    z 0.077260 0.045200 2.101320 
# 
# From -- ./inp_files/389277.got.cif
#   From: 2010.05.17/outbox.cif.g08.bks.cpg/sg2_195_cif.got.tgz:389277.got - 2010.06.03 11:33:40.
