data_PCOD9084712
_publ_section_title
;
Structure prediction by ZEFSAII (Michael W. Deem and Ramdas Pophale) SiO2 
 PCOD9084712
Probable space group: P -1
;
_chemical_formula_sum "Si O2"
_cell_formula_units_Z 16
_cell_length_a 8.212434
_cell_length_b 7.569864
_cell_length_c 13.984360
_cell_angle_alpha 76.196685
_cell_angle_beta 101.628645
_cell_angle_gamma 124.510697
_cell_volume 693.288093
_symmetry_space_group_name_H-M "P -1"
_symmetry_group_IT_number 2
_symmetry_cell_setting 'triclinic'
loop_
_space_group_symop_operation_xyz
x,y,z
-x,-y,-z
loop_
_atom_site_type_symbol
_atom_site_label
_atom_site_fract_x
_atom_site_fract_y
_atom_site_fract_z
Si Si1 0.663561 0.778146 0.038100
Si Si2 0.762622 0.557630 0.667429
Si Si3 0.998519 0.199716 0.047505
Si Si4 0.440611 0.213823 0.335981
Si Si5 0.977628 0.026783 0.606295
Si Si6 0.595861 0.331782 0.139743
Si Si7 0.801453 0.497593 0.461627
Si Si8 0.056569 0.553174 0.149904
O O1 0.589597 0.549024 0.106582
O O2 0.811607 0.980060 0.095840
O O3 0.488260 0.772774 0.961004
O O4 0.819102 0.809413 0.968609
O O5 0.592338 0.586488 0.683952
O O6 0.727566 0.503347 0.558633
O O7 0.955786 0.807929 0.672487
O O8 0.804914 0.399968 0.749803
O O9 0.083317 0.397294 0.103817
O O10 0.912985 0.254110 0.937473
O O11 0.472327 0.186385 0.233160
O O12 0.636354 0.291923 0.409685
O O13 0.237906 0.020829 0.383698
O O14 0.137032 0.277370 0.613780
O O15 0.000000 0.000000 0.500000
O O16 0.825503 0.421274 0.167581
O O17 0.000000 0.500000 0.500000
#
# Coordination Sequence:
#
# PCOD9084712 Si02
#       8
#     2   2   2   2   2   2   2   2
#     4   9  19  37  56  80 114 154 190 231 288 345
#     4   9  20  38  56  79 116 151 189 231 284 345
#     4   9  19  35  59  79 111 154 191 230 290 345
#     4  10  21  38  62  83 117 155 193 232 287 346
#     4   8  20  38  60  82 110 155 189 236 283 351
#     4  10  20  35  56  84 117 148 192 241 284 340
#     4  11  21  38  62  87 114 149 190 243 290 338
#     4  10  19  35  56  85 115 148 188 245 285 328
#
# _framework density 23.078427999999999
#
# number of rings (size 3 to 8) (size 9 to 14) (size 15 to 20)
#    0.750    1.750    0.000    1.875    0.000    3.000 
#    6.750    1.250    0.000    0.000    0.000    0.000 
#    0.000    0.000    0.000    0.000    0.000    0.000 
#
# Total GULP energy -89208.082557 kJ/mol
# GULP energy per Si atom -5575.505160 kJ/mol
# Density = 2.302590 g / cm^3
# Si number density = 23.078428 Si / 1000 Ang^3
#
#
#
# Elastic Constant Matrix: (Units=GPa)
#
#
# Indices 1 2 3 4 5 6 
#
# 1 51.4741 -14.5541 14.2294 0.7598 -1.3194 7.7694
# 2 -14.5541 65.9900 8.0880 -3.8541 -4.3266 9.9428
# 3 14.2294 8.0880 71.9147 -6.1043 6.4278 9.3489
# 4 0.7598 -3.8541 -6.1043 16.0946 5.9358 -1.5040
# 5 -1.3194 -4.3266 6.4278 5.9358 31.6371 0.4671
# 6 7.7694 9.9428 9.3489 -1.5040 0.4671 28.4419
#
#
#
# Elastic Compliance Matrix: (Units=1/GPa)
#
#
# Indices 1 2 3 4 5 6 
#
# 1 0.024214 0.007181 -0.005248 -0.003544 0.003836 -0.007650
# 2 0.007181 0.018486 -0.002717 0.001146 0.003276 -0.007524
# 3 -0.005248 -0.002717 0.016724 0.007684 -0.005391 -0.002619
# 4 -0.003544 0.001146 0.007684 0.071190 -0.014939 0.002052
# 5 0.003836 0.003276 -0.005391 -0.014939 0.036141 -0.001804
# 6 -0.007650 -0.007524 -0.002619 0.002052 -0.001804 0.040878
#
#
# Mechanical properties :
#
#
# Convention : Reuss Voigt Hill
#
# Bulk Modulus (GPa) = 17.28470 22.76725 20.02597
# Shear Modulus (GPa) = 21.88312 27.34241 24.61276
#
# Velocity S-wave (km/s) = 3.08264 3.44577 3.26925
# Velocity P-wave (km/s) = 4.49177 5.07126 4.79029
#
# Compressibility (1/GPa) = 0.05785465
#
# Stress axis : x y z
#
# Youngs Moduli (GPa) = 41.29922 54.09531 59.79489
#
# Poissons Ratio (x) = -0.38844 0.31379
# Poissons Ratio (y) = -0.29656 0.16248
# Poissons Ratio (z) = 0.21673 0.14699
#
# Static dielectric constant tensor:
#      x y z
#    x 1.878990 -0.011100 0.015710 
#    y -0.011100 1.922460 -0.015100 
#    z 0.015710 -0.015100 1.900080 
# 
# From -- ./inp_files/492565.got.cif
#   From: 2010.05.17/outbox.cif.g08.bks.cpg/sg2_247_cif.got.tgz:492565.got - 2010.06.03 11:33:40.
