data_PCOD9084429
_publ_section_title
;
Structure prediction by ZEFSAII (Michael W. Deem and Ramdas Pophale) SiO2 
 PCOD9084429
Probable space group: P -1
;
_chemical_formula_sum "Si O2"
_cell_formula_units_Z 16
_cell_length_a 17.098195
_cell_length_b 12.596984
_cell_length_c 14.103018
_cell_angle_alpha 53.027840
_cell_angle_beta 149.331418
_cell_angle_gamma 148.321923
_cell_volume 710.465709
_symmetry_space_group_name_H-M "P -1"
_symmetry_group_IT_number 2
_symmetry_cell_setting 'triclinic'
loop_
_space_group_symop_operation_xyz
x,y,z
-x,-y,-z
loop_
_atom_site_type_symbol
_atom_site_label
_atom_site_fract_x
_atom_site_fract_y
_atom_site_fract_z
Si Si1 0.137040 0.329675 0.225317
Si Si2 0.480816 0.907858 0.126641
Si Si3 0.228395 0.765705 0.565077
Si Si4 0.361200 0.268244 0.603916
Si Si5 0.684973 0.049981 0.755162
Si Si6 0.455678 0.381295 0.268898
Si Si7 0.086258 0.920641 0.215068
Si Si8 0.143861 0.532803 0.296107
O O1 0.134251 0.191148 0.356275
O O2 0.384749 0.523831 0.309626
O O3 0.166371 0.470297 0.254489
O O4 0.878759 0.154960 0.987045
O O5 0.659567 0.902214 0.313960
O O6 0.578253 0.060568 0.237587
O O7 0.166916 0.648316 0.933848
O O8 0.500000 0.000000 0.000000
O O9 0.119584 0.830271 0.376534
O O10 0.000000 0.500000 0.500000
O O11 0.394912 0.820755 0.621701
O O12 0.430378 0.395295 0.703593
O O13 0.818726 0.076019 0.788948
O O14 0.697748 0.217995 0.664691
O O15 0.713950 0.468727 0.481099
O O16 0.290281 0.190523 0.285463
O O17 0.215959 0.237943 0.022052
#
# Coordination Sequence:
#
# PCOD9084429 Si02
#       8
#     2   2   2   2   2   2   2   2
#     4  10  19  34  66 102 128 156 218 295 336 374
#     4  12  27  45  71  98 136 183 228 285 344 405
#     4  12  29  44  65 101 147 182 223 277 348 418
#     4  10  21  37  66 101 132 163 221 289 342 386
#     4  12  21  41  71 101 135 179 233 282 330 403
#     4  10  22  38  67 105 134 170 229 291 332 403
#     4  11  24  41  66 102 141 184 223 272 350 411
#     4  11  21  39  68 104 127 166 243 291 325 381
#
# _framework density 22.520441000000002
#
# number of rings (size 3 to 8) (size 9 to 14) (size 15 to 20)
#    0.000    1.000    5.000    1.500    7.000    0.000 
#    0.000    3.750    0.000    4.500    0.000    0.000 
#    0.000    0.000    0.000    0.000    0.000    0.000 
#
# Total GULP energy -89305.356672 kJ/mol
# GULP energy per Si atom -5581.584792 kJ/mol
# Density = 2.246918 g / cm^3
# Si number density = 22.520441 Si / 1000 Ang^3
#
#
#
# Elastic Constant Matrix: (Units=GPa)
#
#
# Indices 1 2 3 4 5 6 
#
# 1 77.5378 41.8676 20.4276 -9.1062 -10.6921 -19.1380
# 2 41.8676 83.6798 4.1427 -8.2754 -6.7101 -4.3802
# 3 20.4276 4.1427 93.9204 -10.6136 -16.0993 7.1733
# 4 -9.1062 -8.2754 -10.6136 33.8414 1.3497 2.6235
# 5 -10.6921 -6.7101 -16.0993 1.3497 23.7733 -5.0681
# 6 -19.1380 -4.3802 7.1733 2.6235 -5.0681 30.8739
#
#
#
# Elastic Compliance Matrix: (Units=1/GPa)
#
#
# Indices 1 2 3 4 5 6 
#
# 1 0.025400 -0.010802 -0.004710 0.001080 0.008671 0.016638
# 2 -0.010802 0.017251 0.002302 0.002400 0.000384 -0.004924
# 3 -0.004710 0.002302 0.013456 0.003648 0.006374 -0.004983
# 4 0.001080 0.002400 0.003648 0.031697 0.001341 -0.002311
# 5 0.008671 0.000384 0.006374 0.001341 0.052984 0.012532
# 6 0.016638 -0.004924 -0.004983 -0.002311 0.012532 0.045416
#
#
# Mechanical properties :
#
#
# Convention : Reuss Voigt Hill
#
# Bulk Modulus (GPa) = 33.68704 43.11262 38.39983
# Shear Modulus (GPa) = 22.46988 30.27775 26.37381
#
# Velocity S-wave (km/s) = 3.16215 3.67066 3.42585
# Velocity P-wave (km/s) = 5.32195 6.09511 5.72160
#
# Compressibility (1/GPa) = 0.02968501
#
# Stress axis : x y z
#
# Youngs Moduli (GPa) = 39.37037 57.96648 74.31806
#
# Poissons Ratio (x) = 0.62616 0.35007
# Poissons Ratio (y) = 0.42528 -0.17105
# Poissons Ratio (z) = 0.18545 -0.13341
#
# Static dielectric constant tensor:
#      x y z
#    x 1.850170 0.013560 0.038370 
#    y 0.013560 1.835140 -0.015810 
#    z 0.038370 -0.015810 1.881180 
# 
# From -- ./inp_files/538422.got.cif
#   From: 2010.05.17/outbox.cif.g08.bks.cpg/sg2_270_cif.got.tgz:538422.got - 2010.06.03 11:33:40.
