data_PCOD9084474
_publ_section_title
;
Structure prediction by ZEFSAII (Michael W. Deem and Ramdas Pophale) SiO2 
 PCOD9084474
Probable space group: P -1
;
_chemical_formula_sum "Si O2"
_cell_formula_units_Z 16
_cell_length_a 28.213481
_cell_length_b 28.222482
_cell_length_c 13.383239
_cell_angle_alpha 154.810754
_cell_angle_beta 154.484044
_cell_angle_gamma 10.394889
_cell_volume 807.588526
_symmetry_space_group_name_H-M "P -1"
_symmetry_group_IT_number 2
_symmetry_cell_setting 'triclinic'
loop_
_space_group_symop_operation_xyz
x,y,z
-x,-y,-z
loop_
_atom_site_type_symbol
_atom_site_label
_atom_site_fract_x
_atom_site_fract_y
_atom_site_fract_z
Si Si1 0.073133 0.259330 0.388432
Si Si2 0.230076 0.755479 0.181435
Si Si3 0.471911 0.402844 0.712548
Si Si4 0.522007 0.676923 0.066501
Si Si5 0.739739 0.728502 0.372199
Si Si6 0.996237 0.081847 0.551004
Si Si7 0.945903 0.855946 0.677837
Si Si8 0.545193 0.659142 0.844508
O O1 0.205262 0.249150 0.579274
O O2 0.777566 0.518300 0.275699
O O3 0.058037 0.247410 0.454693
O O4 0.256934 0.990090 0.181332
O O5 0.401127 0.695854 0.342780
O O6 0.056526 0.956203 0.327112
O O7 0.429400 0.475727 0.064882
O O8 0.044192 0.867529 0.958358
O O9 0.168376 0.646274 0.614461
O O10 0.500000 0.500000 0.000000
O O11 0.660777 0.147497 0.647484
O O12 0.532645 0.635926 0.892828
O O13 0.000000 0.500000 0.500000
O O14 0.500000 0.000000 0.500000
O O15 0.673198 0.663021 0.094399
O O16 0.727248 0.400100 0.642785
O O17 0.247480 0.932332 0.758052
O O18 0.000000 0.000000 0.500000
#
# Coordination Sequence:
#
# PCOD9084474 Si02
#       8
#     2   2   2   2   2   2   2   2
#     4  11  20  35  55  86 107 145 177 231 299 332
#     4  10  22  35  57  79 115 157 182 223 280 326
#     4  10  19  35  52  82 110 140 182 235 279 329
#     4  11  21  33  56  79 113 148 190 219 269 336
#     4  12  22  37  60  82 110 147 189 237 293 330
#     4  12  26  39  54  80 117 162 196 219 260 335
#     4  10  21  34  56  82 111 137 184 235 281 340
#     4  12  24  39  53  81 116 149 198 231 259 332
#
# _framework density 19.812069999999999
#
# number of rings (size 3 to 8) (size 9 to 14) (size 15 to 20)
#    0.000    1.000    3.750    5.625    1.750    4.000 
#    0.000    0.000    0.000    0.000    0.000    5.250 
#    0.000    0.000    0.000    0.000    0.000    0.000 
#
# Total GULP energy -89492.282884 kJ/mol
# GULP energy per Si atom -5593.267680 kJ/mol
# Density = 1.976698 g / cm^3
# Si number density = 19.812070 Si / 1000 Ang^3
#
#
#
# Elastic Constant Matrix: (Units=GPa)
#
#
# Indices 1 2 3 4 5 6 
#
# 1 99.7330 4.0120 17.7325 8.9082 8.4068 -17.5168
# 2 4.0120 68.5320 1.1166 2.2313 4.5051 -14.5616
# 3 17.7325 1.1166 45.2310 0.9822 9.9417 -6.8918
# 4 8.9082 2.2313 0.9822 26.9622 -7.4460 -3.3368
# 5 8.4068 4.5051 9.9417 -7.4460 27.0969 1.2715
# 6 -17.5168 -14.5616 -6.8918 -3.3368 1.2715 29.0948
#
#
#
# Elastic Compliance Matrix: (Units=1/GPa)
#
#
# Indices 1 2 3 4 5 6 
#
# 1 0.012530 0.001306 -0.002710 -0.004552 -0.004701 0.007239
# 2 0.001306 0.016916 0.001642 -0.002035 -0.004831 0.009619
# 3 -0.002710 0.001642 0.026211 -0.002247 -0.009928 0.005575
# 4 -0.004552 -0.002035 -0.002247 0.042801 0.014337 -0.000009
# 5 -0.004701 -0.004831 -0.009928 0.014337 0.047125 -0.008015
# 6 0.007239 0.009619 0.005575 -0.000009 -0.008015 0.045213
#
#
# Mechanical properties :
#
#
# Convention : Reuss Voigt Hill
#
# Bulk Modulus (GPa) = 17.81434 28.80204 23.30819
# Shear Modulus (GPa) = 23.91990 29.33977 26.62983
#
# Velocity S-wave (km/s) = 3.47845 3.85243 3.67020
# Velocity P-wave (km/s) = 5.01438 5.86152 5.45442
#
# Compressibility (1/GPa) = 0.05613454
#
# Stress axis : x y z
#
# Youngs Moduli (GPa) = 79.80667 59.11479 38.15198
#
# Poissons Ratio (x) = -0.07720 0.10337
# Poissons Ratio (y) = -0.10423 -0.06265
# Poissons Ratio (z) = 0.21624 -0.09707
#
# Static dielectric constant tensor:
#      x y z
#    x 1.754170 -0.030440 -0.001240 
#    y -0.030440 1.727180 -0.013810 
#    z -0.001240 -0.013810 1.679760 
# 
# From -- ./inp_files/477241.got.cif
#   From: 2010.05.17/outbox.cif.g08.bks.cpg/sg2_239_cif.got.tgz:477241.got - 2010.06.03 11:33:40.
