data_PCOD9084684
_publ_section_title
;
Structure prediction by ZEFSAII (Michael W. Deem and Ramdas Pophale) SiO2 
 PCOD9084684
Probable space group: P -1
;
_chemical_formula_sum "Si O2"
_cell_formula_units_Z 16
_cell_length_a 11.748480
_cell_length_b 10.288883
_cell_length_c 8.448392
_cell_angle_alpha 93.246146
_cell_angle_beta 127.708530
_cell_angle_gamma 111.425793
_cell_volume 695.591861
_symmetry_space_group_name_H-M "P -1"
_symmetry_group_IT_number 2
_symmetry_cell_setting 'triclinic'
loop_
_space_group_symop_operation_xyz
x,y,z
-x,-y,-z
loop_
_atom_site_type_symbol
_atom_site_label
_atom_site_fract_x
_atom_site_fract_y
_atom_site_fract_z
Si Si1 0.349940 0.915564 0.988019
Si Si2 0.281364 0.899655 0.256922
Si Si3 0.192730 0.133143 0.193915
Si Si4 0.368090 0.646743 0.872491
Si Si5 0.085247 0.318021 0.636066
Si Si6 0.938397 0.680263 0.759752
Si Si7 0.197787 0.653039 0.411755
Si Si8 0.740969 0.843085 0.111885
O O1 0.300665 0.742774 0.914184
O O2 0.406464 0.956498 0.219989
O O3 0.500000 0.000000 0.000000
O O4 0.237514 0.990326 0.853864
O O5 0.289374 0.787522 0.377008
O O6 0.275966 0.042402 0.331891
O O7 0.107771 0.793184 0.004255
O O8 0.190164 0.264018 0.299563
O O9 0.265895 0.189370 0.084570
O O10 0.000000 0.000000 0.000000
O O11 0.261048 0.474318 0.824194
O O12 0.319039 0.654636 0.650192
O O13 0.568170 0.731143 0.047957
O O14 0.047630 0.316301 0.418128
O O15 0.944728 0.325764 0.620708
O O16 0.114352 0.181970 0.698935
O O17 0.880133 0.510013 0.746721
#
# Coordination Sequence:
#
# PCOD9084684 Si02
#       8
#     2   2   2   2   2   2   2   2
#     4   9  19  37  58  79 110 147 184 225 275 331
#     4  10  19  35  56  81 110 145 183 229 276 324
#     4   9  19  36  55  79 113 145 182 230 279 327
#     4  10  21  39  57  82 115 147 184 230 275 330
#     4  11  21  36  58  84 111 147 187 228 276 329
#     4  10  20  35  55  83 113 142 183 232 273 326
#     4  11  22  36  58  85 111 146 187 229 277 328
#     4  10  21  38  58  81 112 147 184 229 279 329
#
# _framework density 23.001995000000001
#
# number of rings (size 3 to 8) (size 9 to 14) (size 15 to 20)
#    0.000    2.000    0.000    5.250    0.000    2.000 
#    0.000   17.500    0.000    0.000    0.000    0.000 
#    0.000    0.000    0.000    0.000    0.000    0.000 
#
# Total GULP energy -89378.683473 kJ/mol
# GULP energy per Si atom -5586.167717 kJ/mol
# Density = 2.294964 g / cm^3
# Si number density = 23.001995 Si / 1000 Ang^3
#
#
#
# Elastic Constant Matrix: (Units=GPa)
#
#
# Indices 1 2 3 4 5 6 
#
# 1 96.3891 51.8160 2.3785 4.3219 -9.1361 -15.7503
# 2 51.8160 138.3276 36.8646 -14.6276 -7.0118 -24.7325
# 3 2.3785 36.8646 28.5579 0.2393 9.6592 -5.2641
# 4 4.3219 -14.6276 0.2393 36.0906 1.5471 -5.9273
# 5 -9.1361 -7.0118 9.6592 1.5471 22.9120 -2.8816
# 6 -15.7503 -24.7325 -5.2641 -5.9273 -2.8816 42.3243
#
#
#
# Elastic Compliance Matrix: (Units=1/GPa)
#
#
# Indices 1 2 3 4 5 6 
#
# 1 0.015319 -0.009117 0.010990 -0.005415 -0.000833 0.000925
# 2 -0.009117 0.023531 -0.034272 0.011541 0.018362 0.008962
# 3 0.010990 -0.034272 0.091908 -0.015486 -0.045032 -0.009741
# 4 -0.005415 0.011541 -0.015486 0.034174 0.006605 0.008039
# 5 -0.000833 0.018362 -0.045032 0.006605 0.068782 0.010427
# 6 0.000925 0.008962 -0.009741 0.008039 0.010427 0.029833
#
#
# Mechanical properties :
#
#
# Convention : Reuss Voigt Hill
#
# Bulk Modulus (GPa) = 15.16044 49.48808 32.32426
# Shear Modulus (GPa) = 14.27217 31.74643 23.00930
#
# Velocity S-wave (km/s) = 2.49364 3.71908 3.16621
# Velocity P-wave (km/s) = 3.85956 6.32483 5.23926
#
# Compressibility (1/GPa) = 0.06596114
#
# Stress axis : x y z
#
# Youngs Moduli (GPa) = 65.27679 42.49637 10.88046
#
# Poissons Ratio (x) = 0.38743 -0.11958
# Poissons Ratio (y) = 0.59511 0.37290
# Poissons Ratio (z) = -0.71741 1.45645
#
# Static dielectric constant tensor:
#      x y z
#    x 1.936130 -0.004500 0.045750 
#    y -0.004500 1.870050 0.042940 
#    z 0.045750 0.042940 1.891090 
# 
# From -- ./inp_files/177873.got.cif
#   From: 2010.05.17/outbox.cif.g08.bks.cpg/sg2_89_cif.got.tgz:177873.got - 2010.06.03 11:33:40.
