data_PCOD9084326
_publ_section_title
;
Structure prediction by ZEFSAII (Michael W. Deem and Ramdas Pophale) SiO2 
 PCOD9084326
Probable space group: P -1
;
_chemical_formula_sum "Si O2"
_cell_formula_units_Z 16
_cell_length_a 11.719912
_cell_length_b 10.761822
_cell_length_c 8.309406
_cell_angle_alpha 41.581998
_cell_angle_beta 105.910140
_cell_angle_gamma 105.279443
_cell_volume 666.119597
_symmetry_space_group_name_H-M "P -1"
_symmetry_group_IT_number 2
_symmetry_cell_setting 'triclinic'
loop_
_space_group_symop_operation_xyz
x,y,z
-x,-y,-z
loop_
_atom_site_type_symbol
_atom_site_label
_atom_site_fract_x
_atom_site_fract_y
_atom_site_fract_z
Si Si1 0.264027 0.026839 0.339830
Si Si2 0.819863 0.640948 0.446238
Si Si3 0.482395 0.219860 0.324380
Si Si4 0.950667 0.417588 0.257380
Si Si5 0.043479 0.188317 0.982460
Si Si6 0.294597 0.689387 0.880477
Si Si7 0.595328 0.591917 0.570590
Si Si8 0.813722 0.237341 0.689359
O O1 0.350876 0.217847 0.192722
O O2 0.281498 0.910165 0.623700
O O3 0.283645 0.901180 0.308067
O O4 0.125891 0.058680 0.236203
O O5 0.877274 0.731016 0.217955
O O6 0.699733 0.712597 0.396855
O O7 0.785646 0.418637 0.604445
O O8 0.921717 0.663089 0.602157
O O9 0.597782 0.337523 0.180691
O O10 0.462299 0.285749 0.433315
O O11 0.500000 0.000000 0.500000
O O12 0.975972 0.638381 0.078052
O O13 0.842924 0.387997 0.120360
O O14 0.886673 0.337257 0.472836
O O15 0.910732 0.124826 0.930473
O O16 0.345068 0.580867 0.153158
O O17 0.500000 0.500000 0.500000
#
# Coordination Sequence:
#
# PCOD9084326 Si02
#       8
#     2   2   2   2   2   2   2   2
#     4  10  19  34  63  83 123 162 213 249 289 373
#     4   9  20  36  58  97 128 151 204 261 327 344
#     4  10  24  43  64  89 119 169 214 246 306 377
#     4   8  16  34  64  85 122 164 209 255 290 382
#     4   9  16  30  60  97 122 160 204 255 308 368
#     4  10  22  41  62  89 121 170 217 242 307 375
#     4  12  27  40  65  93 128 161 206 269 314 364
#     4   8  16  32  59  94 124 161 203 255 304 369
#
# _framework density 24.019711000000001
#
# number of rings (size 3 to 8) (size 9 to 14) (size 15 to 20)
#    0.000    2.500    0.000    3.000    8.750    0.500 
#    0.000    5.000    0.000   15.000    0.000    0.000 
#    0.000    0.000    0.000    0.000    0.000    0.000 
#
# Total GULP energy -89082.012122 kJ/mol
# GULP energy per Si atom -5567.625758 kJ/mol
# Density = 2.396504 g / cm^3
# Si number density = 24.019711 Si / 1000 Ang^3
#
#
#
# Elastic Constant Matrix: (Units=GPa)
#
#
# Indices 1 2 3 4 5 6 
#
# 1 78.0819 43.5878 -9.2061 20.3728 -8.2199 2.9009
# 2 43.5878 119.5178 12.6573 5.6669 1.9843 23.5366
# 3 -9.2061 12.6573 61.4318 2.9307 21.6240 4.5254
# 4 20.3728 5.6669 2.9307 30.1237 4.0668 8.4267
# 5 -8.2199 1.9843 21.6240 4.0668 33.8547 11.2048
# 6 2.9009 23.5366 4.5254 8.4267 11.2048 38.7026
#
#
#
# Elastic Compliance Matrix: (Units=1/GPa)
#
#
# Indices 1 2 3 4 5 6 
#
# 1 0.022900 -0.009307 0.004576 -0.016297 0.003139 0.006048
# 2 -0.009307 0.013702 -0.004599 0.006426 0.002118 -0.009110
# 3 0.004576 -0.004599 0.022770 -0.003850 -0.014277 0.004763
# 4 -0.016297 0.006426 -0.003850 0.047080 -0.003757 -0.011399
# 5 0.003139 0.002118 -0.014277 -0.003757 0.043605 -0.011660
# 6 0.006048 -0.009110 0.004763 -0.011399 -0.011660 0.036225
#
#
# Mechanical properties :
#
#
# Convention : Reuss Voigt Hill
#
# Bulk Modulus (GPa) = 24.56157 39.23439 31.89798
# Shear Modulus (GPa) = 22.88210 34.66903 28.77557
#
# Velocity S-wave (km/s) = 3.08983 3.80328 3.46497
# Velocity P-wave (km/s) = 4.79345 5.97129 5.41449
#
# Compressibility (1/GPa) = 0.04071402
#
# Stress axis : x y z
#
# Youngs Moduli (GPa) = 43.66862 72.98110 43.91783
#
# Poissons Ratio (x) = 0.67920 -0.20099
# Poissons Ratio (y) = 0.40640 0.20197
# Poissons Ratio (z) = -0.19985 0.33562
#
# Static dielectric constant tensor:
#      x y z
#    x 2.019470 0.015020 0.054560 
#    y 0.015020 2.011500 -0.032340 
#    z 0.054560 -0.032340 2.010450 
# 
# From -- ./inp_files/251715.got.cif
#   From: 2010.05.17/outbox.cif.g08.bks.cpg/sg2_126_cif.got.tgz:251715.got - 2010.06.03 11:33:40.
