data_PCOD9084063
_publ_section_title
;
Structure prediction by ZEFSAII (Michael W. Deem and Ramdas Pophale) SiO2 
 PCOD9084063
Probable space group: P -1
;
_chemical_formula_sum "Si O2"
_cell_formula_units_Z 12
_cell_length_a 8.288088
_cell_length_b 8.178354
_cell_length_c 12.074500
_cell_angle_alpha 127.878045
_cell_angle_beta 62.291753
_cell_angle_gamma 123.824366
_cell_volume 527.118109
_symmetry_space_group_name_H-M "P -1"
_symmetry_group_IT_number 2
_symmetry_cell_setting 'triclinic'
loop_
_space_group_symop_operation_xyz
x,y,z
-x,-y,-z
loop_
_atom_site_type_symbol
_atom_site_label
_atom_site_fract_x
_atom_site_fract_y
_atom_site_fract_z
Si Si1 0.126255 0.439649 0.342897
Si Si2 0.721682 0.612496 0.356953
Si Si3 0.648119 0.810334 0.690268
Si Si4 0.121580 0.999781 0.851171
Si Si5 0.487468 0.184471 0.667658
Si Si6 0.059188 0.736197 0.145528
O O1 0.248442 0.308979 0.309390
O O2 0.288474 0.645887 0.313755
O O3 0.000000 0.500000 0.500000
O O4 0.957432 0.264053 0.252008
O O5 0.717198 0.761272 0.526519
O O6 0.584736 0.348472 0.304454
O O7 0.618217 0.687972 0.320130
O O8 0.941572 0.669368 0.270338
O O9 0.724650 0.070800 0.812446
O O10 0.354508 0.099142 0.784910
O O11 0.034373 0.123537 0.841491
O O12 0.000000 0.000000 0.000000
O O13 0.500000 0.000000 0.500000
O O14 0.000000 0.500000 0.000000
#
# Coordination Sequence:
#
# PCOD9084063 Si02
#       6
#     2   2   2   2   2   2
#     4  10  19  34  60  84 112 148 184 235 285 331
#     4   9  19  36  58  82 110 141 186 236 278 327
#     4   9  19  36  57  82 111 142 186 234 277 331
#     4  10  22  39  55  82 118 151 186 231 282 337
#     4  10  19  36  59  84 112 143 188 234 280 331
#     4  10  21  37  55  80 115 151 182 228 280 335
#
# _framework density 22.765295999999999
#
# number of rings (size 3 to 8) (size 9 to 14) (size 15 to 20)
#    0.000    2.333    1.667    0.500    0.000    2.667 
#    6.000    0.000    0.000    0.000    0.000    0.000 
#    0.000    0.000    0.000    0.000    0.000    0.000 
#
# Total GULP energy -66825.838660 kJ/mol
# GULP energy per Si atom -5568.819888 kJ/mol
# Density = 2.271348 g / cm^3
# Si number density = 22.765296 Si / 1000 Ang^3
#
#
#
# Elastic Constant Matrix: (Units=GPa)
#
#
# Indices 1 2 3 4 5 6 
#
# 1 65.7296 41.1544 -1.4458 -0.2700 -0.8674 9.6288
# 2 41.1544 184.4817 93.2170 -3.3412 -3.0126 43.9239
# 3 -1.4458 93.2170 120.8586 -3.9406 -1.9959 30.6734
# 4 -0.2700 -3.3412 -3.9406 55.1556 5.6252 0.4256
# 5 -0.8674 -3.0126 -1.9959 5.6252 16.0585 -3.7237
# 6 9.6288 43.9239 30.6734 0.4256 -3.7237 32.9738
#
#
#
# Elastic Compliance Matrix: (Units=1/GPa)
#
#
# Indices 1 2 3 4 5 6 
#
# 1 0.020171 -0.007168 0.006345 0.000139 -0.000037 -0.002250
# 2 -0.007168 0.012950 -0.008123 0.000317 -0.000864 -0.007702
# 3 0.006345 -0.008123 0.016206 0.000837 -0.000903 -0.006221
# 4 0.000139 0.000317 0.000837 0.018941 -0.006991 -0.002275
# 5 -0.000037 -0.000864 -0.000903 -0.006991 0.066676 0.009622
# 6 -0.002250 -0.007702 -0.006221 -0.002275 0.009622 0.048147
#
#
# Mechanical properties :
#
#
# Convention : Reuss Voigt Hill
#
# Bulk Modulus (GPa) = 31.81156 70.76902 51.29029
# Shear Modulus (GPa) = 23.64498 36.71389 30.17944
#
# Velocity S-wave (km/s) = 3.22629 4.02022 3.64494
# Velocity P-wave (km/s) = 5.28040 7.25971 6.34768
#
# Compressibility (1/GPa) = 0.03143512
#
# Stress axis : x y z
#
# Youngs Moduli (GPa) = 49.57534 77.22274 61.70440
#
# Poissons Ratio (x) = 0.55356 -0.39152
# Poissons Ratio (y) = 0.35538 0.50121
# Poissons Ratio (z) = -0.31456 0.62726
#
# Static dielectric constant tensor:
#      x y z
#    x 1.867050 -0.010070 0.045110 
#    y -0.010070 1.901160 0.018730 
#    z 0.045110 0.018730 1.819200 
# 
# From -- ./inp_files/174249.got.cif
#   From: 2010.05.17/outbox.cif.g08.bks.cpg/sg2_88_cif.got.tgz:174249.got - 2010.06.03 11:33:40.
