data_PCOD9084971
_publ_section_title
;
Structure prediction by ZEFSAII (Michael W. Deem and Ramdas Pophale) SiO2 
 PCOD9084971
Probable space group: P -1
;
_chemical_formula_sum "Si O2"
_cell_formula_units_Z 14
_cell_length_a 11.729696
_cell_length_b 9.281676
_cell_length_c 19.101106
_cell_angle_alpha 137.908783
_cell_angle_beta 37.241168
_cell_angle_gamma 111.110139
_cell_volume 694.016930
_symmetry_space_group_name_H-M "P -1"
_symmetry_group_IT_number 2
_symmetry_cell_setting 'triclinic'
loop_
_space_group_symop_operation_xyz
x,y,z
-x,-y,-z
loop_
_atom_site_type_symbol
_atom_site_label
_atom_site_fract_x
_atom_site_fract_y
_atom_site_fract_z
Si Si1 0.841281 0.406492 0.777959
Si Si2 0.635102 0.337864 0.531385
Si Si3 0.449609 0.770307 0.201548
Si Si4 0.153402 0.592678 0.812850
Si Si5 0.749229 0.675136 0.529891
Si Si6 0.761970 0.965641 0.463744
Si Si7 0.716033 0.129050 0.258874
O O1 0.672641 0.380704 0.801932
O O2 0.005523 0.468233 0.680180
O O3 0.017118 0.131644 0.631467
O O4 0.690189 0.604110 0.984852
O O5 0.359651 0.530307 0.741029
O O6 0.741707 0.506032 0.533609
O O7 0.680973 0.201066 0.383497
O O8 0.733828 0.127208 0.467982
O O9 0.306605 0.040801 0.325307
O O10 0.441265 0.850450 0.315391
O O11 0.202120 0.308853 0.672741
O O12 0.187563 0.721458 0.774066
O O13 0.906185 0.821450 0.044982
O O14 0.526153 0.759192 0.621070
#
# Coordination Sequence:
#
# PCOD9084971 Si02
#       7
#     2   2   2   2   2   2   2
#     4  10  21  39  61  79 100 138 186 230 271 321
#     4  11  22  33  53  85 117 145 175 216 271 320
#     4  10  21  39  61  79  99 138 188 229 269 322
#     4  10  21  36  54  78 113 153 187 214 249 315
#     4  10  19  35  58  82 108 142 183 223 263 316
#     4  11  21  35  56  83 113 142 176 223 273 320
#     4  10  20  35  55  80 110 149 189 217 252 311
#
# _framework density 20.172418
#
# number of rings (size 3 to 8) (size 9 to 14) (size 15 to 20)
#    0.000    1.714    0.000    8.143    0.000    4.000 
#    0.000    2.857    0.000    6.857    0.000    0.000 
#    0.000    0.000    0.000    0.000    0.000    0.000 
#
# Total GULP energy -78051.086329 kJ/mol
# GULP energy per Si atom -5575.077595 kJ/mol
# Density = 2.012650 g / cm^3
# Si number density = 20.172418 Si / 1000 Ang^3
#
#
#
# Elastic Constant Matrix: (Units=GPa)
#
#
# Indices 1 2 3 4 5 6 
#
# 1 27.2931 32.5357 13.4789 -1.3987 -1.2150 9.7860
# 2 32.5357 143.9697 40.2259 5.0034 -0.9332 -5.3079
# 3 13.4789 40.2259 134.4663 -13.2302 0.3351 7.1518
# 4 -1.3987 5.0034 -13.2302 23.4366 7.5082 -5.9590
# 5 -1.2150 -0.9332 0.3351 7.5082 25.3300 -1.6272
# 6 9.7860 -5.3079 7.1518 -5.9590 -1.6272 36.0209
#
#
#
# Elastic Compliance Matrix: (Units=1/GPa)
#
#
# Indices 1 2 3 4 5 6 
#
# 1 0.060507 -0.014181 -0.000728 0.001356 0.000823 -0.018122
# 2 -0.014181 0.011212 -0.002591 -0.003703 0.001216 0.005461
# 3 -0.000728 -0.002591 0.008932 0.005947 -0.002080 -0.001068
# 4 0.001356 -0.003703 0.005947 0.053430 -0.015599 0.006039
# 5 0.000823 0.001216 -0.002080 -0.015599 0.044201 -0.000216
# 6 -0.018122 0.005461 -0.001068 0.006039 -0.000216 0.034691
#
#
# Mechanical properties :
#
#
# Convention : Reuss Voigt Hill
#
# Bulk Modulus (GPa) = 21.90428 53.13448 37.51938
# Shear Modulus (GPa) = 18.99779 31.59007 25.29393
#
# Velocity S-wave (km/s) = 3.07216 3.96157 3.54487
# Velocity P-wave (km/s) = 4.84420 6.87915 5.94933
#
# Compressibility (1/GPa) = 0.04565318
#
# Stress axis : x y z
#
# Youngs Moduli (GPa) = 16.52698 89.18751 111.95959
#
# Poissons Ratio (x) = 1.26473 0.08149
# Poissons Ratio (y) = 0.23436 0.29004
# Poissons Ratio (z) = 0.01203 0.23105
#
# Static dielectric constant tensor:
#      x y z
#    x 1.747310 0.062630 0.010680 
#    y 0.062630 1.743440 -0.016720 
#    z 0.010680 -0.016720 1.775190 
# 
# From -- ./inp_files/566916.got.cif
#   From: 2010.05.17/outbox.cif.g08.bks.cpg/sg2_284_cif.got.tgz:566916.got - 2010.06.03 11:33:40.
