data_PCOD9084917
_publ_section_title
;
Structure prediction by ZEFSAII (Michael W. Deem and Ramdas Pophale) SiO2 
 PCOD9084917
Probable space group: P -1
;
_chemical_formula_sum "Si O2"
_cell_formula_units_Z 14
_cell_length_a 9.275086
_cell_length_b 11.739039
_cell_length_c 7.328497
_cell_angle_alpha 67.951948
_cell_angle_beta 82.453695
_cell_angle_gamma 55.763130
_cell_volume 608.092420
_symmetry_space_group_name_H-M "P -1"
_symmetry_group_IT_number 2
_symmetry_cell_setting 'triclinic'
loop_
_space_group_symop_operation_xyz
x,y,z
-x,-y,-z
loop_
_atom_site_type_symbol
_atom_site_label
_atom_site_fract_x
_atom_site_fract_y
_atom_site_fract_z
Si Si1 0.340251 0.064856 0.129472
Si Si2 0.837071 0.636441 0.226283
Si Si3 0.926494 0.916645 0.454592
Si Si4 0.451293 0.855054 0.558758
Si Si5 0.169603 0.889445 0.154138
Si Si6 0.843973 0.686147 0.623839
Si Si7 0.499266 0.640256 0.357799
O O1 0.439894 0.979448 0.351527
O O2 0.224665 0.997632 0.153905
O O3 0.222599 0.236878 0.989482
O O4 0.500000 0.000000 0.000000
O O5 0.844764 0.691655 0.396564
O O6 0.686509 0.604156 0.288908
O O7 0.020294 0.483979 0.246783
O O8 0.901511 0.793879 0.618379
O O9 0.080340 0.830675 0.335562
O O10 0.727374 0.050405 0.350705
O O11 0.000000 0.000000 0.500000
O O12 0.643875 0.751665 0.672824
O O13 0.441007 0.746027 0.483390
O O14 0.355779 0.740847 0.165490
O O15 0.000000 0.000000 0.000000
O O16 0.500000 0.500000 0.500000
#
# Coordination Sequence:
#
# PCOD9084917 Si02
#       7
#     2   2   2   2   2   2   2
#     4  11  18  37  57  85 122 151 197 245 298 350
#     4  10  20  35  61  88 119 154 202 256 289 350
#     4  12  22  40  60  90 125 161 200 245 308 361
#     4  10  22  38  61  86 120 163 200 248 294 362
#     4  11  23  36  62  91 115 156 205 253 291 353
#     4  10  21  37  60  88 116 159 206 244 294 354
#     4  10  19  35  57  91 123 155 198 249 305 347
#
# _framework density 23.022815000000001
#
# number of rings (size 3 to 8) (size 9 to 14) (size 15 to 20)
#    0.000    1.429    7.143    2.143    0.000    2.286 
#    0.000    0.714    0.000    5.143    0.000    0.000 
#    0.000    0.000    0.000    0.000    0.000    0.000 
#
# Total GULP energy -78059.731885 kJ/mol
# GULP energy per Si atom -5575.695135 kJ/mol
# Density = 2.297041 g / cm^3
# Si number density = 23.022815 Si / 1000 Ang^3
#
#
#
# Elastic Constant Matrix: (Units=GPa)
#
#
# Indices 1 2 3 4 5 6 
#
# 1 170.6018 51.1418 49.1420 -26.1253 0.1572 -22.9401
# 2 51.1418 118.3923 26.9601 -45.8405 7.8709 -13.6666
# 3 49.1420 26.9601 97.2191 -39.0471 6.9686 3.4787
# 4 -26.1253 -45.8405 -39.0471 45.4015 -5.1316 -0.9205
# 5 0.1572 7.8709 6.9686 -5.1316 42.8218 -8.9852
# 6 -22.9401 -13.6666 3.4787 -0.9205 -8.9852 45.0546
#
#
#
# Elastic Compliance Matrix: (Units=1/GPa)
#
#
# Indices 1 2 3 4 5 6 
#
# 1 0.008244 -0.002824 -0.004252 -0.001474 0.001845 0.004007
# 2 -0.002824 0.016291 0.004261 0.018473 -0.000750 0.003403
# 3 -0.004252 0.004261 0.018519 0.017488 -0.002185 -0.002381
# 4 -0.001474 0.018473 0.017488 0.055126 0.001400 0.004908
# 5 0.001845 -0.000750 -0.002185 0.001400 0.025255 0.005946
# 6 0.004007 0.003403 -0.002381 0.004908 0.005946 0.026738
#
#
# Mechanical properties :
#
#
# Convention : Reuss Voigt Hill
#
# Bulk Modulus (GPa) = 26.72026 71.18899 48.95463
# Shear Modulus (GPa) = 29.71277 43.92020 36.81648
#
# Velocity S-wave (km/s) = 3.59636 4.37244 4.00325
# Velocity P-wave (km/s) = 5.37366 7.51526 6.53282
#
# Compressibility (1/GPa) = 0.03742479
#
# Stress axis : x y z
#
# Youngs Moduli (GPa) = 121.29618 61.38320 53.99794
#
# Poissons Ratio (x) = 0.17334 0.22960
# Poissons Ratio (y) = 0.34254 -0.23009
# Poissons Ratio (z) = 0.51575 -0.26156
#
# Static dielectric constant tensor:
#      x y z
#    x 1.436140 0.324150 -0.296450 
#    y 0.324150 1.739760 0.342020 
#    z -0.296450 0.342020 1.777130 
# 
# From -- ./inp_files/182636.got.cif
#   From: 2010.05.17/outbox.cif.g08.bks.cpg/sg2_92_cif.got.tgz:182636.got - 2010.06.03 11:33:40.
