data_PCOD9084803
_publ_section_title
;
Structure prediction by ZEFSAII (Michael W. Deem and Ramdas Pophale) SiO2 
 PCOD9084803
Probable space group: P -1
;
_chemical_formula_sum "Si O2"
_cell_formula_units_Z 12
_cell_length_a 10.039706
_cell_length_b 8.985930
_cell_length_c 9.873274
_cell_angle_alpha 103.383486
_cell_angle_beta 85.091015
_cell_angle_gamma 141.592114
_cell_volume 531.534991
_symmetry_space_group_name_H-M "P -1"
_symmetry_group_IT_number 2
_symmetry_cell_setting 'triclinic'
loop_
_space_group_symop_operation_xyz
x,y,z
-x,-y,-z
loop_
_atom_site_type_symbol
_atom_site_label
_atom_site_fract_x
_atom_site_fract_y
_atom_site_fract_z
Si Si1 0.890202 0.842532 0.804307
Si Si2 0.611140 0.323981 0.646189
Si Si3 0.106976 0.205067 0.643966
Si Si4 0.276187 0.912152 0.375299
Si Si5 0.496425 0.269873 0.207111
Si Si6 0.358075 0.523973 0.041020
O O1 0.778990 0.613670 0.668103
O O2 0.718939 0.826602 0.822747
O O3 0.873672 0.741355 0.929723
O O4 0.093196 0.096986 0.763437
O O5 0.406536 0.124461 0.523621
O O6 0.544501 0.296153 0.801940
O O7 0.732617 0.270902 0.617902
O O8 0.349264 0.481742 0.664448
O O9 0.952345 0.214747 0.661115
O O10 0.000000 0.000000 0.500000
O O11 0.423593 0.061556 0.258776
O O12 0.625628 0.366415 0.075473
O O13 0.500000 0.500000 0.000000
#
# Coordination Sequence:
#
# PCOD9084803 Si02
#       6
#     2   2   2   2   2   2
#     4   8  18  36  54  76 107 139 176 225 253 310
#     4   9  18  37  57  75 112 142 174 219 272 307
#     4  11  21  32  55  83 107 140 181 219 264 316
#     4  10  21  36  56  79 112 141 171 227 264 315
#     4  10  19  35  57  82 104 140 183 215 266 316
#     4   8  17  34  59  79 102 143 180 215 263 317
#
# _framework density 22.576124
#
# number of rings (size 3 to 8) (size 9 to 14) (size 15 to 20)
#    1.000    1.667    0.000    2.000    0.000    4.000 
#    0.000   10.000    0.000    0.000    0.000    0.000 
#    0.000    0.000    0.000    0.000    0.000    0.000 
#
# Total GULP energy -66878.683045 kJ/mol
# GULP energy per Si atom -5573.223587 kJ/mol
# Density = 2.252474 g / cm^3
# Si number density = 22.576124 Si / 1000 Ang^3
#
#
#
# Elastic Constant Matrix: (Units=GPa)
#
#
# Indices 1 2 3 4 5 6 
#
# 1 50.1797 12.0025 6.0743 9.8892 6.5992 0.8671
# 2 12.0025 45.9478 -5.9438 -6.4707 4.6900 -0.0670
# 3 6.0743 -5.9438 92.8874 -4.4017 6.5575 -0.3161
# 4 9.8892 -6.4707 -4.4017 25.7626 -2.1445 3.0831
# 5 6.5992 4.6900 6.5575 -2.1445 23.4488 2.9953
# 6 0.8671 -0.0670 -0.3161 3.0831 2.9953 18.1686
#
#
#
# Elastic Compliance Matrix: (Units=1/GPa)
#
#
# Indices 1 2 3 4 5 6 
#
# 1 0.025528 -0.008156 -0.002354 -0.013012 -0.006336 0.001963
# 2 -0.008156 0.025945 0.002854 0.009997 -0.002686 -0.000719
# 3 -0.002354 0.002854 0.011461 0.003315 -0.002839 0.000228
# 4 -0.013012 0.009997 0.003315 0.048430 0.006255 -0.008534
# 5 -0.006336 -0.002686 -0.002839 0.006255 0.047436 -0.008639
# 6 0.001963 -0.000719 0.000228 -0.008534 -0.008639 0.057820
#
#
# Mechanical properties :
#
#
# Convention : Reuss Voigt Hill
#
# Bulk Modulus (GPa) = 20.99853 23.69787 22.34820
# Shear Modulus (GPa) = 20.17727 25.26811 22.72269
#
# Velocity S-wave (km/s) = 2.99280 3.34913 3.17597
# Velocity P-wave (km/s) = 4.61127 5.04730 4.83421
#
# Compressibility (1/GPa) = 0.04762239
#
# Stress axis : x y z
#
# Youngs Moduli (GPa) = 39.17305 38.54376 87.25528
#
# Poissons Ratio (x) = 0.31435 0.20539
# Poissons Ratio (y) = 0.31949 -0.24906
# Poissons Ratio (z) = 0.09221 -0.11002
#
# Static dielectric constant tensor:
#      x y z
#    x 1.782960 0.013620 0.001480 
#    y 0.013620 1.893250 -0.027730 
#    z 0.001480 -0.027730 1.968490 
# 
# From -- ./inp_files/62317.got.cif
#   From: 2010.05.17/outbox.cif.g08.bks.cpg/sg2_32_cif.got.tgz:62317.got - 2010.06.03 11:33:40.
