data_PCOD9084187
_publ_section_title
;
Structure prediction by ZEFSAII (Michael W. Deem and Ramdas Pophale) SiO2 
 PCOD9084187
Probable space group: P -1
;
_chemical_formula_sum "Si O2"
_cell_formula_units_Z 16
_cell_length_a 11.764383
_cell_length_b 8.259971
_cell_length_c 12.838944
_cell_angle_alpha 104.225801
_cell_angle_beta 142.394919
_cell_angle_gamma 63.164337
_cell_volume 664.819176
_symmetry_space_group_name_H-M "P -1"
_symmetry_group_IT_number 2
_symmetry_cell_setting 'triclinic'
loop_
_space_group_symop_operation_xyz
x,y,z
-x,-y,-z
loop_
_atom_site_type_symbol
_atom_site_label
_atom_site_fract_x
_atom_site_fract_y
_atom_site_fract_z
Si Si1 0.499150 0.035418 0.882471
Si Si2 0.725249 0.556491 0.269613
Si Si3 0.170172 0.658486 0.246883
Si Si4 0.164563 0.973990 0.005464
Si Si5 0.547619 0.162270 0.603818
Si Si6 0.781211 0.451629 0.513504
Si Si7 0.752879 0.396472 0.045569
Si Si8 0.398946 0.345467 0.210121
O O1 0.709334 0.051035 0.013194
O O2 0.521522 0.868708 0.795294
O O3 0.317940 0.230880 0.747203
O O4 0.500000 0.000000 0.000000
O O5 0.852645 0.450711 0.446904
O O6 0.806776 0.446229 0.204760
O O7 0.488395 0.575261 0.118174
O O8 0.339790 0.744234 0.374414
O O9 0.099480 0.649275 0.311913
O O10 0.266427 0.455856 0.231511
O O11 0.989320 0.811926 0.072345
O O12 0.309424 0.912149 0.201679
O O13 0.094399 0.810091 0.913682
O O14 0.335644 0.331243 0.510761
O O15 0.500000 0.000000 0.500000
O O16 0.601044 0.382537 0.366556
O O17 0.738480 0.542014 0.969988
#
# Coordination Sequence:
#
# PCOD9084187 Si02
#       8
#     2   2   2   2   2   2   2   2
#     4  11  21  35  62  96 120 151 219 268 297 353
#     4   9  17  33  57  86 115 158 211 258 293 358
#     4  11  24  40  60  92 134 166 198 247 322 378
#     4  11  23  40  61  94 127 163 204 257 316 365
#     4  11  22  39  63  91 120 162 213 254 301 370
#     4  10  21  37  59  86 125 167 206 247 306 377
#     4   9  16  33  58  84 115 158 207 247 306 353
#     4  10  19  34  61  89 120 162 206 250 304 372
#
# _framework density 24.066696
#
# number of rings (size 3 to 8) (size 9 to 14) (size 15 to 20)
#    0.000    1.750    6.250    1.875    5.250    0.500 
#    0.000    0.625    0.000    0.750    0.000    0.000 
#    0.000    0.000    0.000    0.000    0.000    0.000 
#
# Total GULP energy -89342.047848 kJ/mol
# GULP energy per Si atom -5583.877991 kJ/mol
# Density = 2.401192 g / cm^3
# Si number density = 24.066696 Si / 1000 Ang^3
#
#
#
# Elastic Constant Matrix: (Units=GPa)
#
#
# Indices 1 2 3 4 5 6 
#
# 1 80.2411 3.4835 47.0052 -3.3838 -40.4111 -0.9899
# 2 3.4835 157.7308 63.9203 5.5054 -15.7482 -1.2311
# 3 47.0052 63.9203 115.4405 -7.8476 -44.0886 0.5107
# 4 -3.3838 5.5054 -7.8476 36.9215 2.0541 0.8778
# 5 -40.4111 -15.7482 -44.0886 2.0541 52.4079 -1.1072
# 6 -0.9899 -1.2311 0.5107 0.8778 -1.1072 21.3615
#
#
#
# Elastic Compliance Matrix: (Units=1/GPa)
#
#
# Indices 1 2 3 4 5 6 
#
# 1 0.022573 0.003267 -0.005887 -0.000470 0.013498 0.002094
# 2 0.003267 0.008997 -0.006547 -0.002446 -0.000170 0.000918
# 3 -0.005887 -0.006547 0.018272 0.003855 0.008697 -0.000795
# 4 -0.000470 -0.002446 0.003855 0.028202 0.001012 -0.001361
# 5 0.013498 -0.000170 0.008697 0.001012 0.036763 0.002272
# 6 0.002094 0.000918 -0.000795 -0.001361 0.002272 0.047156
#
#
# Mechanical properties :
#
#
# Convention : Reuss Voigt Hill
#
# Bulk Modulus (GPa) = 31.73724 64.69227 48.21476
# Shear Modulus (GPa) = 26.20593 38.07172 32.13882
#
# Velocity S-wave (km/s) = 3.30341 3.98166 3.65829
# Velocity P-wave (km/s) = 5.26933 6.93375 6.15803
#
# Compressibility (1/GPa) = 0.03150872
#
# Stress axis : x y z
#
# Youngs Moduli (GPa) = 44.30097 111.15408 54.72996
#
# Poissons Ratio (x) = -0.36319 0.32217
# Poissons Ratio (y) = -0.14475 0.35832
# Poissons Ratio (z) = 0.26078 0.72772
#
# Static dielectric constant tensor:
#      x y z
#    x 2.039770 0.037510 0.045130 
#    y 0.037510 1.947300 -0.000160 
#    z 0.045130 -0.000160 1.925970 
# 
# From -- ./inp_files/279639.got.cif
#   From: 2010.05.17/outbox.cif.g08.bks.cpg/sg2_140_cif.got.tgz:279639.got - 2010.06.03 11:33:40.
