data_PCOD9084753
_publ_section_title
;
Structure prediction by ZEFSAII (Michael W. Deem and Ramdas Pophale) SiO2 
 PCOD9084753
Probable space group: P -1
;
_chemical_formula_sum "Si O2"
_cell_formula_units_Z 16
_cell_length_a 15.174108
_cell_length_b 11.125986
_cell_length_c 7.402284
_cell_angle_alpha 130.690256
_cell_angle_beta 47.989552
_cell_angle_gamma 115.431335
_cell_volume 704.022532
_symmetry_space_group_name_H-M "P -1"
_symmetry_group_IT_number 2
_symmetry_cell_setting 'triclinic'
loop_
_space_group_symop_operation_xyz
x,y,z
-x,-y,-z
loop_
_atom_site_type_symbol
_atom_site_label
_atom_site_fract_x
_atom_site_fract_y
_atom_site_fract_z
Si Si1 0.659491 0.840186 0.041287
Si Si2 0.982571 0.589837 0.875545
Si Si3 0.340321 0.840781 0.129029
Si Si4 0.152445 0.330506 0.204047
Si Si5 0.631890 0.485311 0.083547
Si Si6 0.840167 0.323875 0.012073
Si Si7 0.368128 0.476146 0.447228
Si Si8 0.504904 0.898363 0.650368
O O1 0.564626 0.825472 0.320074
O O2 0.605578 0.990044 0.154246
O O3 0.791915 0.826209 0.931889
O O4 0.661414 0.693910 0.758333
O O5 0.929281 0.687572 0.877861
O O6 0.077049 0.454045 0.549512
O O7 0.048066 0.702686 0.038258
O O8 0.882257 0.478178 0.990825
O O9 0.387011 0.001188 0.310648
O O10 0.343568 0.703034 0.138369
O O11 0.215094 0.813483 0.171678
O O12 0.445225 0.802899 0.801818
O O13 0.268724 0.422747 0.068072
O O14 0.498166 0.512447 0.233775
O O15 0.634128 0.529073 0.336661
O O16 0.728248 0.391203 0.344634
#
# Coordination Sequence:
#
# PCOD9084753 Si02
#       8
#     2   2   2   2   2   2   2   2
#     4  11  23  38  53  90 123 162 197 241 291 370
#     4  10  21  38  59  97 118 160 193 241 328 346
#     4  10  20  41  59  84 118 162 203 246 285 363
#     4  11  22  36  60  92 128 154 187 256 311 356
#     4  10  21  34  59  96 121 149 191 253 330 361
#     4  10  20  38  63  92 121 152 199 253 308 357
#     4  10  19  35  56  91 124 149 186 255 318 360
#     4  10  24  40  59  82 125 173 201 233 293 356
#
# _framework density 22.726547
#
# number of rings (size 3 to 8) (size 9 to 14) (size 15 to 20)
#    0.000    1.750    5.000    0.000    5.250    1.500 
#    0.000    0.000    0.000    4.500    0.000    0.000 
#    0.000    0.000    0.000    0.000    0.000    0.000 
#
# Total GULP energy -89251.628760 kJ/mol
# GULP energy per Si atom -5578.226797 kJ/mol
# Density = 2.267482 g / cm^3
# Si number density = 22.726547 Si / 1000 Ang^3
#
#
#
# Elastic Constant Matrix: (Units=GPa)
#
#
# Indices 1 2 3 4 5 6 
#
# 1 142.1567 25.7648 11.7699 3.9553 -19.8574 14.0134
# 2 25.7648 51.9545 4.3253 -3.5974 -0.6239 13.4368
# 3 11.7699 4.3253 45.7361 -5.6615 -10.3178 1.9005
# 4 3.9553 -3.5974 -5.6615 23.9831 -1.6794 -7.5832
# 5 -19.8574 -0.6239 -10.3178 -1.6794 34.5934 1.9090
# 6 14.0134 13.4368 1.9005 -7.5832 1.9090 27.9394
#
#
#
# Elastic Compliance Matrix: (Units=1/GPa)
#
#
# Indices 1 2 3 4 5 6 
#
# 1 0.008894 -0.003471 -0.001111 -0.003148 0.004774 -0.003896
# 2 -0.003471 0.023472 -0.001152 0.000833 -0.001367 -0.009150
# 3 -0.001111 -0.001152 0.024608 0.006540 0.006958 0.000737
# 4 -0.003148 0.000833 0.006540 0.048350 0.001748 0.013737
# 5 0.004774 -0.001367 0.006958 0.001748 0.034007 -0.004059
# 6 -0.003896 -0.009150 0.000737 0.013737 -0.004059 0.046102
#
#
# Mechanical properties :
#
#
# Convention : Reuss Voigt Hill
#
# Bulk Modulus (GPa) = 21.97505 35.95193 28.96349
# Shear Modulus (GPa) = 23.57708 30.50233 27.03970
#
# Velocity S-wave (km/s) = 3.22440 3.66750 3.45307
# Velocity P-wave (km/s) = 4.85311 5.81273 5.35446
#
# Compressibility (1/GPa) = 0.04550616
#
# Stress axis : x y z
#
# Youngs Moduli (GPa) = 112.43422 42.60312 40.63715
#
# Poissons Ratio (x) = 0.14788 0.04516
# Poissons Ratio (y) = 0.39026 0.04680
# Poissons Ratio (z) = 0.12496 0.04907
#
# Static dielectric constant tensor:
#      x y z
#    x 1.964190 -0.018850 0.010230 
#    y -0.018850 1.851340 0.029390 
#    z 0.010230 0.029390 1.845040 
# 
# From -- ./inp_files/335545.got.cif
#   From: 2010.05.17/outbox.cif.g08.bks.cpg/sg2_168_cif.got.tgz:335545.got - 2010.06.03 11:33:40.
