data_PCOD9084259
_publ_section_title
;
Structure prediction by ZEFSAII (Michael W. Deem and Ramdas Pophale) SiO2 
 PCOD9084259
Probable space group: P -1
;
_chemical_formula_sum "Si O2"
_cell_formula_units_Z 12
_cell_length_a 10.220506
_cell_length_b 9.649141
_cell_length_c 15.512295
_cell_angle_alpha 118.544858
_cell_angle_beta 143.413585
_cell_angle_gamma 42.263192
_cell_volume 586.811841
_symmetry_space_group_name_H-M "P -1"
_symmetry_group_IT_number 2
_symmetry_cell_setting 'triclinic'
loop_
_space_group_symop_operation_xyz
x,y,z
-x,-y,-z
loop_
_atom_site_type_symbol
_atom_site_label
_atom_site_fract_x
_atom_site_fract_y
_atom_site_fract_z
Si Si1 0.734884 0.057348 0.932364
Si Si2 0.155970 0.563406 0.272632
Si Si3 0.489413 0.274701 0.036723
Si Si4 0.849922 0.402268 0.905574
Si Si5 0.067597 0.021380 0.667446
Si Si6 0.414372 0.931698 0.652812
O O1 0.512046 0.064795 0.756251
O O2 0.593857 0.243238 0.984022
O O3 0.000000 0.000000 0.000000
O O4 0.890341 0.845550 0.009060
O O5 0.283569 0.564060 0.248843
O O6 0.317032 0.319235 0.305962
O O7 0.149824 0.719114 0.376209
O O8 0.800947 0.696503 0.115760
O O9 0.369024 0.477729 0.092701
O O10 0.752921 0.076670 0.177561
O O11 0.000000 0.500000 0.000000
O O12 0.861678 0.970078 0.526937
O O13 0.300603 0.928705 0.685537
#
# Coordination Sequence:
#
# PCOD9084259 Si02
#       6
#     2   2   2   2   2   2
#     4  12  24  39  59  85 120 161 200 234 281 355
#     4  11  18  34  63  89 115 148 196 242 290 347
#     4  11  20  35  60  85 113 158 196 232 292 345
#     4  10  19  34  62  86 110 142 203 244 276 334
#     4  11  21  33  62  90 121 146 188 254 303 332
#     4  11  22  37  53  96 121 146 191 251 294 338
#
# _framework density 20.449486
#
# number of rings (size 3 to 8) (size 9 to 14) (size 15 to 20)
#    0.000    1.000    8.333    2.000    0.000    0.667 
#    0.000    0.833    0.000    1.000    0.000    0.000 
#    0.000    0.000    0.000    0.000    0.000    0.000 
#
# Total GULP energy -66871.463096 kJ/mol
# GULP energy per Si atom -5572.621925 kJ/mol
# Density = 2.040294 g / cm^3
# Si number density = 20.449486 Si / 1000 Ang^3
#
#
#
# Elastic Constant Matrix: (Units=GPa)
#
#
# Indices 1 2 3 4 5 6 
#
# 1 79.9074 8.9335 39.1731 14.4041 9.0154 -26.8488
# 2 8.9335 53.4219 8.4052 0.1017 -2.4572 -28.8964
# 3 39.1731 8.4052 94.1476 12.0597 16.0808 -4.8704
# 4 14.4041 0.1017 12.0597 20.1481 0.0311 -4.0465
# 5 9.0154 -2.4572 16.0808 0.0311 17.9494 1.8218
# 6 -26.8488 -28.8964 -4.8704 -4.0465 1.8218 32.7833
#
#
#
# Elastic Compliance Matrix: (Units=1/GPa)
#
#
# Indices 1 2 3 4 5 6 
#
# 1 0.030345 0.016110 -0.009669 -0.008542 -0.008115 0.037012
# 2 0.016110 0.046077 -0.008710 0.004104 0.000634 0.052985
# 3 -0.009669 -0.008710 0.017305 -0.006033 -0.010490 -0.013187
# 4 -0.008542 0.004104 -0.006033 0.059828 0.009894 0.002561
# 5 -0.008115 0.000634 -0.010490 0.009894 0.070304 -0.010331
# 6 0.037012 0.052985 -0.013187 0.002561 -0.010331 0.106449
#
#
# Mechanical properties :
#
#
# Convention : Reuss Voigt Hill
#
# Bulk Modulus (GPa) = 11.21225 37.83339 24.52282
# Shear Modulus (GPa) = 13.71458 25.57383 19.64421
#
# Velocity S-wave (km/s) = 2.59251 3.54020 3.10275
# Velocity P-wave (km/s) = 3.80214 5.93732 4.98538
#
# Compressibility (1/GPa) = 0.08918816
#
# Stress axis : x y z
#
# Youngs Moduli (GPa) = 32.95456 21.70301 57.78727
#
# Poissons Ratio (x) = -0.34964 0.55876
# Poissons Ratio (y) = -0.53090 0.50331
# Poissons Ratio (z) = 0.31865 0.18903
#
# Static dielectric constant tensor:
#      x y z
#    x 1.721840 -0.062250 -0.021350 
#    y -0.062250 1.789250 0.014890 
#    z -0.021350 0.014890 1.813150 
# 
# From -- ./inp_files/293482.got.cif
#   From: 2010.05.17/outbox.cif.g08.bks.cpg/sg2_147_cif.got.tgz:293482.got - 2010.06.03 11:33:40.
