data_PCOD9084562
_publ_section_title
;
Structure prediction by ZEFSAII (Michael W. Deem and Ramdas Pophale) SiO2 
 PCOD9084562
Probable space group: P -1
;
_chemical_formula_sum "Si O2"
_cell_formula_units_Z 16
_cell_length_a 11.827715
_cell_length_b 8.296257
_cell_length_c 11.856225
_cell_angle_alpha 39.144019
_cell_angle_beta 58.038341
_cell_angle_gamma 65.692674
_cell_volume 623.084506
_symmetry_space_group_name_H-M "P -1"
_symmetry_group_IT_number 2
_symmetry_cell_setting 'triclinic'
loop_
_space_group_symop_operation_xyz
x,y,z
-x,-y,-z
loop_
_atom_site_type_symbol
_atom_site_label
_atom_site_fract_x
_atom_site_fract_y
_atom_site_fract_z
Si Si1 0.473068 0.350970 0.410516
Si Si2 0.927904 0.265400 0.812318
Si Si3 0.843845 0.549651 0.928410
Si Si4 0.847648 0.712675 0.078287
Si Si5 0.554964 0.675499 0.970160
Si Si6 0.812025 0.692245 0.500619
Si Si7 0.233107 0.811339 0.640627
Si Si8 0.538590 0.838702 0.177511
O O1 0.515667 0.517229 0.188337
O O2 0.329464 0.240874 0.518606
O O3 0.606227 0.194629 0.454347
O O4 0.449989 0.590312 0.376456
O O5 0.917065 0.416864 0.855438
O O6 0.821021 0.416121 0.706491
O O7 0.069937 0.301983 0.655990
O O8 0.898332 0.960483 0.985728
O O9 0.901573 0.710119 0.919797
O O10 0.714156 0.702977 0.872454
O O11 0.792099 0.303552 0.158535
O O12 0.840342 0.406480 0.278184
O O13 0.690168 0.762264 0.128008
O O14 0.500000 0.500000 0.000000
O O15 0.483167 0.942949 0.840213
O O16 0.827596 0.907547 0.472541
O O17 0.500000 0.000000 0.000000
#
# Coordination Sequence:
#
# PCOD9084562 Si02
#       8
#     2   2   2   2   2   2   2   2
#     4   9  17  31  54  77 109 145 180 222 285 343
#     4  11  23  37  59  83 116 153 187 230 277 334
#     4   9  19  36  57  83 108 144 198 232 267 329
#     4   9  18  36  59  80 111 144 194 235 270 332
#     4  10  16  25  52  85 106 135 185 242 277 314
#     4  11  22  35  55  86 119 150 182 227 289 342
#     4   8  19  37  62  83 107 147 191 237 283 323
#     4   9  13  26  49  79 102 136 180 229 277 314
#
# _framework density 25.678698000000001
#
# number of rings (size 3 to 8) (size 9 to 14) (size 15 to 20)
#    0.750    1.750    2.500    3.375    0.000    1.000 
#    0.000    2.500    5.500    0.000    0.000    8.750 
#    0.000    0.000    0.000    0.000    0.000    0.000 
#
# Total GULP energy -89185.028349 kJ/mol
# GULP energy per Si atom -5574.064272 kJ/mol
# Density = 2.562025 g / cm^3
# Si number density = 25.678698 Si / 1000 Ang^3
#
#
#
# Elastic Constant Matrix: (Units=GPa)
#
#
# Indices 1 2 3 4 5 6 
#
# 1 75.5474 37.7702 7.9945 1.5805 -27.9713 7.1356
# 2 37.7702 175.4046 28.3989 -19.5872 -16.3512 8.6786
# 3 7.9945 28.3989 61.4223 15.4965 -0.3250 12.7094
# 4 1.5805 -19.5872 15.4965 39.1100 6.1767 -3.9435
# 5 -27.9713 -16.3512 -0.3250 6.1767 31.8341 -2.1198
# 6 7.1356 8.6786 12.7094 -3.9435 -2.1198 48.6719
#
#
#
# Elastic Compliance Matrix: (Units=1/GPa)
#
#
# Indices 1 2 3 4 5 6 
#
# 1 0.022380 -0.003854 0.001152 -0.006521 0.018789 -0.002605
# 2 -0.003854 0.007937 -0.004943 0.006264 -0.000513 0.000925
# 3 0.001152 -0.004943 0.022805 -0.012291 0.000678 -0.006209
# 4 -0.006521 0.006264 -0.012291 0.035856 -0.009226 0.005552
# 5 0.018789 -0.000513 0.000678 -0.009226 0.049359 -0.001438
# 6 -0.002605 0.000925 -0.006209 0.005552 -0.001438 0.022771
#
#
# Mechanical properties :
#
#
# Convention : Reuss Voigt Hill
#
# Bulk Modulus (GPa) = 26.43045 51.18906 38.80976
# Shear Modulus (GPa) = 26.45380 39.80391 33.12885
#
# Velocity S-wave (km/s) = 3.21313 3.94137 3.59573
# Velocity P-wave (km/s) = 4.90721 6.37889 5.69082
#
# Compressibility (1/GPa) = 0.03783515
#
# Stress axis : x y z
#
# Youngs Moduli (GPa) = 44.68191 125.99339 43.84946
#
# Poissons Ratio (x) = 0.48553 -0.05053
# Poissons Ratio (y) = 0.17219 0.21673
# Poissons Ratio (z) = -0.05149 0.62273
#
# Static dielectric constant tensor:
#      x y z
#    x 2.115850 0.110050 0.035220 
#    y 0.110050 2.233320 0.024730 
#    z 0.035220 0.024730 1.984800 
# 
# From -- ./inp_files/528075.got.cif
#   From: 2010.05.17/outbox.cif.g08.bks.cpg/sg2_265_cif.got.tgz:528075.got - 2010.06.03 11:33:40.
