data_PCOD9084828
_publ_section_title
;
Structure prediction by ZEFSAII (Michael W. Deem and Ramdas Pophale) SiO2 
 PCOD9084828
Probable space group: P -1
;
_chemical_formula_sum "Si O2"
_cell_formula_units_Z 16
_cell_length_a 11.818549
_cell_length_b 15.962172
_cell_length_c 9.502036
_cell_angle_alpha 141.370880
_cell_angle_beta 125.047642
_cell_angle_gamma 84.493911
_cell_volume 663.083933
_symmetry_space_group_name_H-M "P -1"
_symmetry_group_IT_number 2
_symmetry_cell_setting 'triclinic'
loop_
_space_group_symop_operation_xyz
x,y,z
-x,-y,-z
loop_
_atom_site_type_symbol
_atom_site_label
_atom_site_fract_x
_atom_site_fract_y
_atom_site_fract_z
Si Si1 0.051624 0.477227 0.655564
Si Si2 0.032132 0.163338 0.809580
Si Si3 0.867631 0.303639 0.564230
Si Si4 0.403311 0.027168 0.347118
Si Si5 0.800869 0.676650 0.137769
Si Si6 0.686627 0.131630 0.481616
Si Si7 0.599278 0.435617 0.928488
Si Si8 0.075802 0.976777 0.163064
O O1 0.000000 0.500000 0.500000
O O2 0.873516 0.349443 0.465940
O O3 0.194631 0.675618 0.095883
O O4 0.186261 0.437677 0.691499
O O5 0.827152 0.100473 0.567341
O O6 0.193006 0.331480 0.039123
O O7 0.070176 0.169153 0.009779
O O8 0.000000 0.000000 0.500000
O O9 0.697867 0.174135 0.381967
O O10 0.991657 0.249127 0.579869
O O11 0.000000 0.500000 0.000000
O O12 0.477905 0.997966 0.223936
O O13 0.479285 0.228188 0.624898
O O14 0.198795 0.931639 0.139098
O O15 0.500000 0.000000 0.500000
O O16 0.802861 0.827016 0.405459
O O17 0.641855 0.483934 0.854967
O O18 0.500000 0.500000 0.000000
O O19 0.000000 0.000000 0.000000
#
# Coordination Sequence:
#
# PCOD9084828 Si02
#       8
#     2   2   2   2   2   2   2   2
#     4   9  18  30  52  86 116 140 180 238 290 332
#     4   9  18  33  56  82 109 152 198 234 274 347
#     4   8  15  30  52  79 109 146 189 231 279 344
#     4  11  21  37  58  85 118 155 197 238 294 353
#     4   9  18  35  59  84 110 151 202 236 279 352
#     4   9  17  32  55  78 106 151 191 228 275 343
#     4  10  19  35  57  83 114 153 192 236 287 344
#     4  11  22  36  59  88 121 154 191 244 295 349
#
# _framework density 24.129677000000001
#
# number of rings (size 3 to 8) (size 9 to 14) (size 15 to 20)
#    0.000    2.500    2.500    0.750    0.000    2.000 
#    0.000    0.000    2.750    7.500    0.000    0.000 
#    0.000    0.000    0.000    0.000    0.000    0.000 
#
# Total GULP energy -89169.866875 kJ/mol
# GULP energy per Si atom -5573.116680 kJ/mol
# Density = 2.407476 g / cm^3
# Si number density = 24.129677 Si / 1000 Ang^3
#
#
#
# Elastic Constant Matrix: (Units=GPa)
#
#
# Indices 1 2 3 4 5 6 
#
# 1 201.9703 82.5770 36.0745 -14.2380 -6.3623 20.6617
# 2 82.5770 190.3126 27.4716 -28.1373 -5.3117 52.0600
# 3 36.0745 27.4716 50.2628 -4.9632 -0.8670 14.4443
# 4 -14.2380 -28.1373 -4.9632 37.5166 15.9391 -11.8618
# 5 -6.3623 -5.3117 -0.8670 15.9391 29.9112 6.2947
# 6 20.6617 52.0600 14.4443 -11.8618 6.2947 74.3369
#
#
#
# Elastic Compliance Matrix: (Units=1/GPa)
#
#
# Indices 1 2 3 4 5 6 
#
# 1 0.006551 -0.002455 -0.003494 0.000040 0.000725 0.000522
# 2 -0.002455 0.008194 -0.001134 0.003850 -0.000268 -0.004198
# 3 -0.003494 -0.001134 0.023859 -0.000130 0.000432 -0.002928
# 4 0.000040 0.003850 -0.000130 0.040803 -0.022257 0.005713
# 5 0.000725 -0.000268 0.000432 -0.022257 0.047018 -0.007631
# 6 0.000522 -0.004198 -0.002928 0.005713 -0.007631 0.018374
#
#
# Mechanical properties :
#
#
# Convention : Reuss Voigt Hill
#
# Bulk Modulus (GPa) = 40.92017 81.64355 61.28186
# Shear Modulus (GPa) = 29.92037 48.11444 39.01740
#
# Velocity S-wave (km/s) = 3.52516 4.47026 4.02554
# Velocity P-wave (km/s) = 5.79347 7.78159 6.85993
#
# Compressibility (1/GPa) = 0.02443783
#
# Stress axis : x y z
#
# Youngs Moduli (GPa) = 152.64331 122.04527 41.91297
#
# Poissons Ratio (x) = 0.29962 0.14643
# Poissons Ratio (y) = 0.37474 0.04754
# Poissons Ratio (z) = 0.53330 0.13843
#
# Static dielectric constant tensor:
#      x y z
#    x 1.939260 0.212630 0.100390 
#    y 0.212630 1.558740 0.123830 
#    z 0.100390 0.123830 2.289100 
# 
# From -- ./inp_files/269057.got.cif
#   From: 2010.05.17/outbox.cif.g08.bks.cpg/sg2_135_cif.got.tgz:269057.got - 2010.06.03 11:33:40.
