data_PCOD9084289
_publ_section_title
;
Structure prediction by ZEFSAII (Michael W. Deem and Ramdas Pophale) SiO2 
 PCOD9084289
Probable space group: P -1
;
_chemical_formula_sum "Si O2"
_cell_formula_units_Z 14
_cell_length_a 9.360080
_cell_length_b 31.179141
_cell_length_c 31.850385
_cell_angle_alpha 9.400965
_cell_angle_beta 31.618380
_cell_angle_gamma 31.106388
_cell_volume 781.810346
_symmetry_space_group_name_H-M "P -1"
_symmetry_group_IT_number 2
_symmetry_cell_setting 'triclinic'
loop_
_space_group_symop_operation_xyz
x,y,z
-x,-y,-z
loop_
_atom_site_type_symbol
_atom_site_label
_atom_site_fract_x
_atom_site_fract_y
_atom_site_fract_z
Si Si1 0.147356 0.454422 0.962684
Si Si2 0.441378 0.962968 0.001295
Si Si3 0.287006 0.470363 0.277195
Si Si4 0.546513 0.276970 0.522454
Si Si5 0.207414 0.872211 0.479831
Si Si6 0.288834 0.635568 0.509304
Si Si7 0.803157 0.194902 0.939571
O O1 0.106603 0.181005 0.215485
O O2 0.479908 0.442090 0.895412
O O3 0.058364 0.694572 0.719817
O O4 0.000000 0.500000 0.000000
O O5 0.517482 0.650029 0.273777
O O6 0.500000 0.000000 0.000000
O O7 0.624287 0.133597 0.763969
O O8 0.119769 0.081444 0.958161
O O9 0.469814 0.214976 0.501832
O O10 0.203957 0.690443 0.121839
O O11 0.020959 0.401706 0.388024
O O12 0.778586 0.216103 0.486578
O O13 0.672910 0.296430 0.517631
O O14 0.342393 0.554588 0.293897
O O15 0.374854 0.037317 0.795072
#
# Coordination Sequence:
#
# PCOD9084289 Si02
#       7
#     2   2   2   2   2   2   2
#     4  10  19  34  62  92 108 140 193 235 277 340
#     4  12  26  38  59  85 116 155 201 253 282 325
#     4   9  22  35  62  83 114 152 191 230 287 340
#     4  11  22  40  59  85 115 158 194 236 288 350
#     4   9  19  35  59  83 112 151 179 235 282 339
#     4  12  26  38  59  88 116 154 200 241 289 335
#     4  11  22  40  61  77 118 159 198 233 293 337
#
# _framework density 17.907154999999999
#
# number of rings (size 3 to 8) (size 9 to 14) (size 15 to 20)
#    0.857    0.571    2.857    2.571    6.000    3.429 
#    0.000    0.000    0.000    1.714    0.000    0.000 
#    0.000    0.000    0.000    0.000    0.000    0.000 
#
# Total GULP energy -78105.235422 kJ/mol
# GULP energy per Si atom -5578.945387 kJ/mol
# Density = 1.786640 g / cm^3
# Si number density = 17.907155 Si / 1000 Ang^3
#
#
#
# Elastic Constant Matrix: (Units=GPa)
#
#
# Indices 1 2 3 4 5 6 
#
# 1 100.6968 30.8324 23.6823 14.9773 -2.7193 33.6035
# 2 30.8324 52.9276 -9.8034 18.5730 3.7375 19.4145
# 3 23.6823 -9.8034 87.2165 13.1784 3.2288 11.4836
# 4 14.9773 18.5730 13.1784 21.5172 2.3766 6.2555
# 5 -2.7193 3.7375 3.2288 2.3766 19.6859 1.2735
# 6 33.6035 19.4145 11.4836 6.2555 1.2735 27.2695
#
#
#
# Elastic Compliance Matrix: (Units=1/GPa)
#
#
# Indices 1 2 3 4 5 6 
#
# 1 0.018517 -0.003766 -0.002732 -0.003170 0.005301 -0.018507
# 2 -0.003766 0.049304 0.016693 -0.041462 -0.005821 -0.027707
# 3 -0.002732 0.016693 0.018804 -0.020265 -0.003432 -0.011628
# 4 -0.003170 -0.041462 -0.020265 0.090898 -0.001586 0.021181
# 5 0.005301 -0.005821 -0.003432 -0.001586 0.053589 -0.003081
# 6 -0.018507 -0.027707 -0.011628 0.021181 -0.003081 0.079384
#
#
# Mechanical properties :
#
#
# Convention : Reuss Voigt Hill
#
# Bulk Modulus (GPa) = 9.34454 36.69596 23.02025
# Shear Modulus (GPa) = 15.34789 26.76982 21.05885
#
# Velocity S-wave (km/s) = 2.93077 3.87062 3.43301
# Velocity P-wave (km/s) = 4.08439 6.36494 5.34765
#
# Compressibility (1/GPa) = 0.10701438
#
# Stress axis : x y z
#
# Youngs Moduli (GPa) = 54.00446 20.28244 53.18026
#
# Poissons Ratio (x) = 0.07639 0.14528
# Poissons Ratio (y) = 0.20340 -0.88775
# Poissons Ratio (z) = 0.14753 -0.33858
#
# Static dielectric constant tensor:
#      x y z
#    x 1.584870 0.004690 0.015350 
#    y 0.004690 1.612960 0.003380 
#    z 0.015350 0.003380 1.620490 
# 
# From -- ./inp_files/44431.got.cif
#   From: 2010.05.17/outbox.cif.g08.bks.cpg/sg2_23_cif.got.tgz:44431.got - 2010.06.03 11:33:40.
