data_PCOD9084378
_publ_section_title
;
Structure prediction by ZEFSAII (Michael W. Deem and Ramdas Pophale) SiO2 
 PCOD9084378
Probable space group: P -1
;
_chemical_formula_sum "Si O2"
_cell_formula_units_Z 15
_cell_length_a 13.383889
_cell_length_b 23.852271
_cell_length_c 16.468228
_cell_angle_alpha 157.857157
_cell_angle_beta 152.385351
_cell_angle_gamma 18.319445
_cell_volume 621.808435
_symmetry_space_group_name_H-M "P -1"
_symmetry_group_IT_number 2
_symmetry_cell_setting 'triclinic'
loop_
_space_group_symop_operation_xyz
x,y,z
-x,-y,-z
loop_
_atom_site_type_symbol
_atom_site_label
_atom_site_fract_x
_atom_site_fract_y
_atom_site_fract_z
Si Si1 0.166802 0.101113 0.598559
Si Si2 0.784135 0.778425 0.494687
Si Si3 0.282121 0.282292 0.210252
Si Si4 0.550194 0.964546 0.845849
Si Si5 0.259838 0.628267 0.868881
Si Si6 0.444739 0.803051 0.129522
Si Si7 0.171674 0.777079 0.185916
Si Si8 0.000000 0.500000 0.000000
O O1 0.483602 0.914561 0.521972
O O2 0.282162 0.104221 0.772934
O O3 0.016480 0.018249 0.397940
O O4 0.961254 0.338355 0.733436
O O5 0.674656 0.758766 0.304867
O O6 0.091090 0.530916 0.410515
O O7 0.825332 0.934408 0.723571
O O8 0.453224 0.158085 0.251231
O O9 0.022997 0.276049 0.008047
O O10 0.501858 0.139976 0.099249
O O11 0.892831 0.769462 0.789298
O O12 0.531909 0.368565 0.733194
O O13 0.336039 0.702196 0.951669
O O14 0.277564 0.704244 0.070701
O O15 0.649758 0.681311 0.033549
#
# Coordination Sequence:
#
# PCOD9084378 Si02
#       8
#     2   2   2   2   2   2   2   1
#     4  11  21  38  60  92 114 160 195 255 284 363
#     4  10  19  34  64  84 113 153 210 232 296 341
#     4  10  20  40  58  89 120 166 186 254 285 362
#     4  10  23  36  60  84 135 147 193 241 324 326
#     4  10  19  38  60  92 117 160 190 251 285 365
#     4  10  19  37  61  89 111 160 198 250 280 353
#     4  10  19  34  65  88 116 152 215 230 289 351
#     4  10  24  38  60  88 122 146 208 246 294 338
#
# _framework density 24.123183999999998
#
# number of rings (size 3 to 8) (size 9 to 14) (size 15 to 20)
#    0.000    1.867    2.667    2.400    0.000    2.667 
#    0.000    3.333    8.800    0.000    0.000    0.000 
#    0.000    0.000    0.000    0.000    0.000    0.000 
#
# Total GULP energy -83526.283339 kJ/mol
# GULP energy per Si atom -5568.418889 kJ/mol
# Density = 2.406828 g / cm^3
# Si number density = 24.123184 Si / 1000 Ang^3
#
#
#
# Elastic Constant Matrix: (Units=GPa)
#
#
# Indices 1 2 3 4 5 6 
#
# 1 56.9558 19.2552 22.3885 6.5587 12.5971 1.2539
# 2 19.2552 25.6176 13.5423 20.2990 -5.7616 -10.7757
# 3 22.3885 13.5423 84.6839 25.8929 8.9574 3.6125
# 4 6.5587 20.2990 25.8929 45.2335 9.5838 6.0398
# 5 12.5971 -5.7616 8.9574 9.5838 37.7934 -4.9466
# 6 1.2539 -10.7757 3.6125 6.0398 -4.9466 12.5683
#
#
#
# Elastic Compliance Matrix: (Units=1/GPa)
#
#
# Indices 1 2 3 4 5 6 
#
# 1 0.009535 0.025045 -0.003821 -0.017155 0.010337 0.033932
# 2 0.025045 -0.054744 -0.003127 0.041794 -0.037461 -0.083364
# 3 -0.003821 -0.003127 0.015530 -0.005874 -0.002014 -0.004733
# 4 -0.017155 0.041794 -0.005874 -0.001447 0.020110 0.047843
# 5 0.010337 -0.037461 -0.002014 0.020110 0.007541 -0.039267
# 6 0.033932 -0.083364 -0.004733 0.047843 -0.039267 -0.032379
#
#
# Mechanical properties :
#
#
# Convention : Reuss Voigt Hill
#
# Bulk Modulus (GPa) = 153.53311 30.84770 92.19041
# Shear Modulus (GPa) = -55.56480 26.59047 -14.48717
#
# Velocity S-wave (km/s) = -4.80456 3.32366 -2.45327
# Velocity P-wave (km/s) = 5.74502 5.24827 5.50225
#
# Compressibility (1/GPa) = 0.00651325
#
# Stress axis : x y z
#
# Youngs Moduli (GPa) = 104.87760 -18.26696 64.39232
#
# Poissons Ratio (x) = 0.45749 0.24607
# Poissons Ratio (y) = -2.62661 0.20136
# Poissons Ratio (z) = 0.40078 -0.05712
#
# Static dielectric constant tensor:
#      x y z
#    x 2.056640 -0.176610 -0.041140 
#    y -0.176610 2.351690 0.156100 
#    z -0.041140 0.156100 2.004730 
# 
# From -- ./inp_files/574459.got.cif
#   From: 2010.05.17/outbox.cif.g08.bks.cpg/sg2_288_cif.got.tgz:574459.got - 2010.06.03 11:33:40.
