data_PCOD9084872
_publ_section_title
;
Structure prediction by ZEFSAII (Michael W. Deem and Ramdas Pophale) SiO2 
 PCOD9084872
Probable space group: P -1
;
_chemical_formula_sum "Si O2"
_cell_formula_units_Z 16
_cell_length_a 15.726120
_cell_length_b 10.067032
_cell_length_c 9.121650
_cell_angle_alpha 86.691582
_cell_angle_beta 55.737996
_cell_angle_gamma 130.879345
_cell_volume 659.984405
_symmetry_space_group_name_H-M "P -1"
_symmetry_group_IT_number 2
_symmetry_cell_setting 'triclinic'
loop_
_space_group_symop_operation_xyz
x,y,z
-x,-y,-z
loop_
_atom_site_type_symbol
_atom_site_label
_atom_site_fract_x
_atom_site_fract_y
_atom_site_fract_z
Si Si1 0.750825 0.276568 0.902362
Si Si2 0.175158 0.771872 0.483241
Si Si3 0.254806 0.986709 0.904026
Si Si4 0.475309 0.700371 0.869117
Si Si5 0.232391 0.138395 0.652324
Si Si6 0.437327 0.560691 0.232999
Si Si7 0.815365 0.495594 0.360815
Si Si8 0.800365 0.651597 0.099891
O O1 0.775933 0.219382 0.731510
O O2 0.604904 0.236211 0.027073
O O3 0.954509 0.557998 0.716769
O O4 0.700932 0.117790 0.088577
O O5 0.212288 0.685822 0.556972
O O6 0.306851 0.033927 0.383792
O O7 0.298089 0.084514 0.692238
O O8 0.366856 0.197588 0.895853
O O9 0.033604 0.762542 0.152943
O O10 0.448195 0.585973 0.048270
O O11 0.341622 0.504933 0.884229
O O12 0.352588 0.335331 0.395563
O O13 0.233849 0.259605 0.766234
O O14 0.017213 0.890686 0.832579
O O15 0.303955 0.537055 0.418566
O O16 0.770120 0.487976 0.239610
#
# Coordination Sequence:
#
# PCOD9084872 Si02
#       8
#     2   2   2   2   2   2   2   2
#     4  10  20  35  59  91 120 151 183 232 294 349
#     4  10  19  35  57  86 122 157 183 223 294 355
#     4  10  19  36  62  86 109 153 200 233 271 352
#     4  12  22  35  59  96 119 141 191 248 287 337
#     4   9  20  42  60  77 111 164 199 229 285 345
#     4  11  20  33  62  88 110 150 197 238 283 336
#     4   9  19  37  58  80 117 159 187 226 284 351
#     4   9  21  40  60  83 115 155 195 240 289 333
#
# _framework density 24.242996000000002
#
# number of rings (size 3 to 8) (size 9 to 14) (size 15 to 20)
#    0.000    2.000    2.500    2.250    0.000    1.000 
#    0.000   12.500    0.000    0.000    0.000    0.000 
#    0.000    0.000    0.000    0.000    0.000    0.000 
#
# Total GULP energy -89669.544198 kJ/mol
# GULP energy per Si atom -5604.346512 kJ/mol
# Density = 2.418782 g / cm^3
# Si number density = 24.242996 Si / 1000 Ang^3
#
#
#
# Elastic Constant Matrix: (Units=GPa)
#
#
# Indices 1 2 3 4 5 6 
#
# 1 136.2287 44.0825 73.5530 -17.8118 30.3144 21.2585
# 2 44.0825 143.3064 67.9790 -29.0792 20.6798 34.2684
# 3 73.5530 67.9790 147.2712 -16.4981 40.9945 26.4206
# 4 -17.8118 -29.0792 -16.4981 35.6074 -2.7817 5.2666
# 5 30.3144 20.6798 40.9945 -2.7817 44.2192 5.5575
# 6 21.2585 34.2684 26.4206 5.2666 5.5575 44.5367
#
#
#
# Elastic Compliance Matrix: (Units=1/GPa)
#
#
# Indices 1 2 3 4 5 6 
#
# 1 0.011123 0.000712 -0.003601 0.004739 -0.003844 -0.003802
# 2 0.000712 0.012878 -0.002795 0.010843 -0.002029 -0.009620
# 3 -0.003601 -0.002795 0.012671 0.001631 -0.007504 -0.002904
# 4 0.004739 0.010843 0.001631 0.042010 -0.005191 -0.015892
# 5 -0.003844 -0.002029 -0.007504 -0.005191 0.032271 0.004434
# 6 -0.003802 -0.009620 -0.002904 -0.015892 0.004434 0.034719
#
#
# Mechanical properties :
#
#
# Convention : Reuss Voigt Hill
#
# Bulk Modulus (GPa) = 39.51885 88.67058 64.09471
# Shear Modulus (GPa) = 30.21629 40.95210 35.58420
#
# Velocity S-wave (km/s) = 3.53426 4.11449 3.83536
# Velocity P-wave (km/s) = 5.74379 7.69592 6.79037
#
# Compressibility (1/GPa) = 0.02530438
#
# Stress axis : x y z
#
# Youngs Moduli (GPa) = 89.90719 77.65181 78.91949
#
# Poissons Ratio (x) = -0.05529 0.28418
# Poissons Ratio (y) = -0.06402 0.22057
# Poissons Ratio (z) = 0.32374 0.21703
#
# Static dielectric constant tensor:
#      x y z
#    x 1.929710 -0.069370 -0.032000 
#    y -0.069370 1.951960 0.056120 
#    z -0.032000 0.056120 1.950990 
# 
# From -- ./inp_files/331929.got.cif
#   From: 2010.05.17/outbox.cif.g08.bks.cpg/sg2_166_cif.got.tgz:331929.got - 2010.06.03 11:33:40.
