data_PCOD9084791
_publ_section_title
;
Structure prediction by ZEFSAII (Michael W. Deem and Ramdas Pophale) SiO2 
 PCOD9084791
Probable space group: P -1
;
_chemical_formula_sum "Si O2"
_cell_formula_units_Z 16
_cell_length_a 9.485714
_cell_length_b 14.460386
_cell_length_c 20.981812
_cell_angle_alpha 20.148905
_cell_angle_beta 131.600930
_cell_angle_gamma 128.884320
_cell_volume 741.219049
_symmetry_space_group_name_H-M "P -1"
_symmetry_group_IT_number 2
_symmetry_cell_setting 'triclinic'
loop_
_space_group_symop_operation_xyz
x,y,z
-x,-y,-z
loop_
_atom_site_type_symbol
_atom_site_label
_atom_site_fract_x
_atom_site_fract_y
_atom_site_fract_z
Si Si1 0.756325 0.972560 0.371916
Si Si2 0.067085 0.748633 0.142055
Si Si3 0.890159 0.537374 0.347456
Si Si4 0.158910 0.153669 0.750813
Si Si5 0.691348 0.155161 0.463484
Si Si6 0.046925 0.806502 0.834073
Si Si7 0.877017 0.353744 0.264187
Si Si8 0.527328 0.465921 0.606029
O O1 0.807043 0.056852 0.260646
O O2 0.774903 0.251425 0.236189
O O3 0.577540 0.767511 0.452276
O O4 0.924225 0.796973 0.567263
O O5 0.284289 0.709044 0.216669
O O6 0.019658 0.537686 0.322737
O O7 0.933081 0.659754 0.100513
O O8 0.000000 0.000000 0.000000
O O9 0.862913 0.809069 0.203646
O O10 0.694167 0.412257 0.344580
O O11 0.989003 0.327522 0.558790
O O12 0.350709 0.311821 0.684931
O O13 0.130273 0.872261 0.887027
O O14 0.744427 0.252284 0.346500
O O15 0.500000 0.000000 0.500000
O O16 0.851976 0.959472 0.664175
O O17 0.000000 0.500000 0.000000
O O18 0.500000 0.500000 0.500000
#
# Coordination Sequence:
#
# PCOD9084791 Si02
#       8
#     2   2   2   2   2   2   2   2
#     4   9  17  32  55  78 100 133 178 217 254 303
#     4  10  20  36  54  77 112 143 167 215 274 312
#     4   9  19  35  55  77 107 139 176 218 262 309
#     4  10  19  35  57  81 103 139 183 218 258 313
#     4   9  18  34  53  75  99 135 176 209 252 309
#     4  10  20  35  52  75 110 139 164 213 269 310
#     4   8  17  33  52  74 101 136 175 209 252 310
#     4  11  18  34  60  81 100 136 188 222 248 312
#
# _framework density 21.586062999999999
#
# number of rings (size 3 to 8) (size 9 to 14) (size 15 to 20)
#    0.000    2.500    2.500    1.500    1.750    1.000 
#    4.500    0.625    0.000    1.500    0.000    0.000 
#    0.000    0.000    0.000    0.000    0.000    0.000 
#
# Total GULP energy -89087.605366 kJ/mol
# GULP energy per Si atom -5567.975335 kJ/mol
# Density = 2.153693 g / cm^3
# Si number density = 21.586063 Si / 1000 Ang^3
#
#
#
# Elastic Constant Matrix: (Units=GPa)
#
#
# Indices 1 2 3 4 5 6 
#
# 1 70.1039 52.3650 -7.0409 -15.0389 3.4493 2.0181
# 2 52.3650 137.1122 19.6790 -46.4910 13.6862 -6.5522
# 3 -7.0409 19.6790 51.9943 -29.6734 11.7818 -3.9063
# 4 -15.0389 -46.4910 -29.6734 40.3662 -9.1982 0.7951
# 5 3.4493 13.6862 11.7818 -9.1982 14.2369 -12.1744
# 6 2.0181 -6.5522 -3.9063 0.7951 -12.1744 35.5111
#
#
#
# Elastic Compliance Matrix: (Units=1/GPa)
#
#
# Indices 1 2 3 4 5 6 
#
# 1 0.022830 -0.007769 0.010570 0.005986 -0.006223 -0.003835
# 2 -0.007769 0.016192 0.003952 0.017816 -0.003510 0.002262
# 3 0.010570 0.003952 0.044824 0.036220 -0.023231 -0.003716
# 4 0.005986 0.017816 0.036220 0.075523 0.006684 0.007532
# 5 -0.006223 -0.003510 -0.023231 0.006684 0.135958 0.043612
# 6 -0.003835 0.002262 -0.003716 0.007532 0.043612 0.043170
#
#
# Mechanical properties :
#
#
# Convention : Reuss Voigt Hill
#
# Bulk Modulus (GPa) = 10.27191 43.24628 26.75910
# Shear Modulus (GPa) = 13.98836 30.97000 22.47918
#
# Velocity S-wave (km/s) = 2.54840 3.79188 3.23053
# Velocity P-wave (km/s) = 3.66443 6.26490 5.13211
#
# Compressibility (1/GPa) = 0.09735287
#
# Stress axis : x y z
#
# Youngs Moduli (GPa) = 43.80296 61.75785 22.30947
#
# Poissons Ratio (x) = 0.47977 -0.23580
# Poissons Ratio (y) = 0.34028 -0.08818
# Poissons Ratio (z) = -0.46298 -0.24409
#
# Static dielectric constant tensor:
#      x y z
#    x 1.824110 -0.034340 -0.013460 
#    y -0.034340 1.840060 -0.094920 
#    z -0.013460 -0.094920 1.908600 
# 
# From -- ./inp_files/303818.got.cif
#   From: 2010.05.17/outbox.cif.g08.bks.cpg/sg2_152_cif.got.tgz:303818.got - 2010.06.03 11:33:40.
