data_PCOD9084593
_publ_section_title
;
Structure prediction by ZEFSAII (Michael W. Deem and Ramdas Pophale) SiO2 
 PCOD9084593
Probable space group: P -1
;
_chemical_formula_sum "Si O2"
_cell_formula_units_Z 16
_cell_length_a 13.307550
_cell_length_b 13.867220
_cell_length_c 13.468434
_cell_angle_alpha 34.143646
_cell_angle_beta 37.812384
_cell_angle_gamma 35.008377
_cell_volume 750.212879
_symmetry_space_group_name_H-M "P -1"
_symmetry_group_IT_number 2
_symmetry_cell_setting 'triclinic'
loop_
_space_group_symop_operation_xyz
x,y,z
-x,-y,-z
loop_
_atom_site_type_symbol
_atom_site_label
_atom_site_fract_x
_atom_site_fract_y
_atom_site_fract_z
Si Si1 0.745258 0.704292 0.089111
Si Si2 0.874623 0.275461 0.042229
Si Si3 0.499905 0.701654 0.607942
Si Si4 0.727315 0.052941 0.926260
Si Si5 0.448566 0.595036 0.351310
Si Si6 0.671226 0.540205 0.806658
Si Si7 0.081015 0.386426 0.171154
Si Si8 0.416375 0.125977 0.258096
O O1 0.592315 0.682677 0.163762
O O2 0.855949 0.518273 0.235104
O O3 0.680641 0.900119 0.033896
O O4 0.882530 0.692273 0.903229
O O5 0.699156 0.243269 0.232343
O O6 0.070788 0.083088 0.067499
O O7 0.845060 0.369833 0.874922
O O8 0.867043 0.443191 0.980955
O O9 0.513208 0.574737 0.610445
O O10 0.663659 0.571663 0.668512
O O11 0.501202 0.899052 0.409326
O O12 0.732822 0.211149 0.711531
O O13 0.566660 0.153320 0.049598
O O14 0.500000 0.500000 0.500000
O O15 0.626170 0.742425 0.723317
O O16 0.500000 0.500000 0.000000
O O17 0.218812 0.207754 0.284420
#
# Coordination Sequence:
#
# PCOD9084593 Si02
#       8
#     2   2   2   2   2   2   2   2
#     4  10  19  35  55  79 111 153 194 229 274 332
#     4   9  19  39  61  86 111 152 191 238 286 341
#     4  11  22  39  59  86 117 152 193 232 282 348
#     4  11  22  37  59  86 118 150 195 236 289 338
#     4  12  24  37  54  85 121 154 188 239 286 333
#     4   9  19  40  66  84 110 151 193 234 284 345
#     4   9  18  34  58  77 107 154 196 227 271 340
#     4  11  21  37  61  89 114 147 189 241 288 337
#
# _framework density 21.327279000000001
#
# number of rings (size 3 to 8) (size 9 to 14) (size 15 to 20)
#    0.000    1.750    2.500    3.000    1.750    1.000 
#    0.000    8.750    0.000    0.000    0.000    0.000 
#    0.000    0.000    0.000    0.000    0.000    0.000 
#
# Total GULP energy -89179.911835 kJ/mol
# GULP energy per Si atom -5573.744490 kJ/mol
# Density = 2.127874 g / cm^3
# Si number density = 21.327279 Si / 1000 Ang^3
#
#
#
# Elastic Constant Matrix: (Units=GPa)
#
#
# Indices 1 2 3 4 5 6 
#
# 1 126.6914 33.7906 35.0954 -15.5776 34.2587 -5.6913
# 2 33.7906 59.5596 22.3078 -19.4039 20.6441 -11.6734
# 3 35.0954 22.3078 77.0451 -28.8533 32.1647 -6.9593
# 4 -15.5776 -19.4039 -28.8533 29.0447 -8.2201 9.7613
# 5 34.2587 20.6441 32.1647 -8.2201 36.6983 -7.1126
# 6 -5.6913 -11.6734 -6.9593 9.7613 -7.1126 31.3839
#
#
#
# Elastic Compliance Matrix: (Units=1/GPa)
#
#
# Indices 1 2 3 4 5 6 
#
# 1 0.011215 -0.003006 0.000028 0.002161 -0.008651 -0.001711
# 2 -0.003006 0.027132 0.005939 0.017902 -0.013205 0.002303
# 3 0.000028 0.005939 0.034221 0.032414 -0.027356 -0.006479
# 4 0.002161 0.017902 0.032414 0.077669 -0.026173 -0.015850
# 5 -0.008651 -0.013205 -0.027356 -0.026173 0.062770 0.009820
# 6 -0.001711 0.002303 -0.006479 -0.015850 0.009820 0.038128
#
#
# Mechanical properties :
#
#
# Convention : Reuss Voigt Hill
#
# Bulk Modulus (GPa) = 12.74051 49.52041 31.13046
# Shear Modulus (GPa) = 18.42450 30.89888 24.66169
#
# Velocity S-wave (km/s) = 2.94240 3.81043 3.40420
# Velocity P-wave (km/s) = 4.18693 6.52908 5.48449
#
# Compressibility (1/GPa) = 0.07848977
#
# Stress axis : x y z
#
# Youngs Moduli (GPa) = 89.16333 36.85710 29.22160
#
# Poissons Ratio (x) = 0.11080 -0.00082
# Poissons Ratio (y) = 0.26804 -0.17354
# Poissons Ratio (z) = -0.00249 -0.21889
#
# Static dielectric constant tensor:
#      x y z
#    x 1.787390 -0.060520 0.017720 
#    y -0.060520 1.797290 0.023940 
#    z 0.017720 0.023940 1.824070 
# 
# From -- ./inp_files/196261.got.cif
#   From: 2010.05.17/outbox.cif.g08.bks.cpg/sg2_99_cif.got.tgz:196261.got - 2010.06.03 11:33:40.
