data_PCOD9084437
_publ_section_title
;
Structure prediction by ZEFSAII (Michael W. Deem and Ramdas Pophale) SiO2 
 PCOD9084437
Probable space group: P -1
;
_chemical_formula_sum "Si O2"
_cell_formula_units_Z 16
_cell_length_a 19.773647
_cell_length_b 9.127913
_cell_length_c 12.332519
_cell_angle_alpha 126.516841
_cell_angle_beta 152.748667
_cell_angle_gamma 64.571268
_cell_volume 788.556175
_symmetry_space_group_name_H-M "P -1"
_symmetry_group_IT_number 2
_symmetry_cell_setting 'triclinic'
loop_
_space_group_symop_operation_xyz
x,y,z
-x,-y,-z
loop_
_atom_site_type_symbol
_atom_site_label
_atom_site_fract_x
_atom_site_fract_y
_atom_site_fract_z
Si Si1 0.889951 0.428198 0.153958
Si Si2 0.943307 0.494014 0.794453
Si Si3 0.600168 0.665387 0.144596
Si Si4 0.763880 0.075821 0.386385
Si Si5 0.125403 0.277040 0.569735
Si Si6 0.519154 0.026834 0.194092
Si Si7 0.158111 0.144238 0.249486
Si Si8 0.618569 0.079395 0.608226
O O1 0.910107 0.629171 0.328859
O O2 0.929652 0.450943 0.094147
O O3 0.009905 0.329783 0.341033
O O4 0.719805 0.292652 0.865891
O O5 0.848377 0.276845 0.544170
O O6 0.859329 0.660718 0.738236
O O7 0.000000 0.500000 0.000000
O O8 0.698590 0.614866 0.165956
O O9 0.735773 0.793130 0.467169
O O10 0.497515 0.805198 0.035691
O O11 0.500000 0.500000 0.000000
O O12 0.671656 0.117799 0.380368
O O13 0.874439 0.942862 0.516911
O O14 0.635831 0.945503 0.065910
O O15 0.543295 0.061668 0.371976
O O16 0.255360 0.040362 0.268462
O O17 0.000000 0.000000 0.000000
O O18 0.500000 0.000000 0.500000
#
# Coordination Sequence:
#
# PCOD9084437 Si02
#       8
#     2   2   2   2   2   2   2   2
#     4  11  24  43  63  97 127 170 224 264 328 388
#     4  12  25  38  68  96 127 169 220 269 324 393
#     4  10  19  34  67  94 117 163 220 265 316 383
#     4  10  22  43  64  95 128 169 214 269 333 378
#     4  10  23  41  68  90 132 169 211 278 319 391
#     4   9  21  39  63  92 131 165 210 271 324 393
#     4  11  22  42  67  94 127 172 223 271 317 385
#     4  11  24  41  67  96 132 170 215 271 331 390
#
# _framework density 20.290247999999998
#
# number of rings (size 3 to 8) (size 9 to 14) (size 15 to 20)
#    0.000    1.500    2.500    1.500    8.750    1.500 
#    2.250    0.625    0.000    0.000    0.000    0.000 
#    0.000    0.000    0.000    0.000    0.000    0.000 
#
# Total GULP energy -89230.390963 kJ/mol
# GULP energy per Si atom -5576.899435 kJ/mol
# Density = 2.024407 g / cm^3
# Si number density = 20.290248 Si / 1000 Ang^3
#
#
#
# Elastic Constant Matrix: (Units=GPa)
#
#
# Indices 1 2 3 4 5 6 
#
# 1 118.4106 22.1586 42.2426 0.1378 -0.4772 7.6079
# 2 22.1586 101.4017 29.9880 2.4407 5.1511 9.0717
# 3 42.2426 29.9880 80.5631 4.3826 6.7739 7.6521
# 4 0.1378 2.4407 4.3826 32.3187 10.0079 1.6602
# 5 -0.4772 5.1511 6.7739 10.0079 34.2050 2.3391
# 6 7.6079 9.0717 7.6521 1.6602 2.3391 32.2948
#
#
#
# Elastic Compliance Matrix: (Units=1/GPa)
#
#
# Indices 1 2 3 4 5 6 
#
# 1 0.010540 -0.000713 -0.005280 0.000392 0.001264 -0.001143
# 2 -0.000713 0.011303 -0.003561 0.000008 -0.000866 -0.002101
# 3 -0.005280 -0.003561 0.016921 -0.001168 -0.002442 -0.001528
# 4 0.000392 0.000008 -0.001168 0.034145 -0.009695 -0.000871
# 5 0.001264 -0.000866 -0.002442 -0.009695 0.032796 -0.001353
# 6 -0.001143 -0.002101 -0.001528 -0.000871 -0.001353 0.032329
#
#
# Mechanical properties :
#
#
# Convention : Reuss Voigt Hill
#
# Bulk Modulus (GPa) = 50.87931 54.35044 52.61487
# Shear Modulus (GPa) = 30.54453 33.49611 32.02032
#
# Velocity S-wave (km/s) = 3.88413 4.06747 3.97686
# Velocity P-wave (km/s) = 6.72648 6.99312 6.86109
#
# Compressibility (1/GPa) = 0.01965435
#
# Stress axis : x y z
#
# Youngs Moduli (GPa) = 94.87234 88.47575 59.09808
#
# Poissons Ratio (x) = 0.06309 0.31206
# Poissons Ratio (y) = 0.06765 0.21047
# Poissons Ratio (z) = 0.50096 0.31509
#
# Static dielectric constant tensor:
#      x y z
#    x 2.411420 0.334510 -0.404390 
#    y 0.334510 1.991420 -0.225360 
#    z -0.404390 -0.225360 2.001830 
# 
# From -- ./inp_files/461595.got.cif
#   From: 2010.05.17/outbox.cif.g08.bks.cpg/sg2_231_cif.got.tgz:461595.got - 2010.06.03 11:33:40.
