data_PCOD9084632
_publ_section_title
;
Structure prediction by ZEFSAII (Michael W. Deem and Ramdas Pophale) SiO2 
 PCOD9084632
Probable space group: P -1
;
_chemical_formula_sum "Si O2"
_cell_formula_units_Z 16
_cell_length_a 11.810185
_cell_length_b 13.411873
_cell_length_c 12.107462
_cell_angle_alpha 125.416833
_cell_angle_beta 37.327301
_cell_angle_gamma 136.865027
_cell_volume 795.082505
_symmetry_space_group_name_H-M "P -1"
_symmetry_group_IT_number 2
_symmetry_cell_setting 'triclinic'
loop_
_space_group_symop_operation_xyz
x,y,z
-x,-y,-z
loop_
_atom_site_type_symbol
_atom_site_label
_atom_site_fract_x
_atom_site_fract_y
_atom_site_fract_z
Si Si1 0.522845 0.801288 0.422792
Si Si2 0.525575 0.535721 0.303725
Si Si3 0.977847 0.637265 0.120883
Si Si4 0.310344 0.341627 0.145425
Si Si5 0.914708 0.082219 0.191438
Si Si6 0.697578 0.379562 0.723829
Si Si7 0.019923 0.421341 0.685041
Si Si8 0.169500 0.744649 0.816759
O O1 0.620122 0.698504 0.288649
O O2 0.327982 0.705731 0.423405
O O3 0.420623 0.801037 0.620163
O O4 0.688095 0.958610 0.345566
O O5 0.713789 0.565341 0.262681
O O6 0.475962 0.420331 0.171235
O O7 0.275570 0.474402 0.498935
O O8 0.052470 0.681509 0.217756
O O9 0.000000 0.500000 0.000000
O O10 0.117540 0.754760 0.991592
O O11 0.238818 0.456080 0.244756
O O12 0.085410 0.184491 0.220283
O O13 0.457993 0.321554 0.928023
O O14 0.896017 0.180461 0.176195
O O15 0.000000 0.000000 0.000000
O O16 0.856928 0.361221 0.669103
O O17 0.030419 0.570470 0.796404
#
# Coordination Sequence:
#
# PCOD9084632 Si02
#       8
#     2   2   2   2   2   2   2   2
#     4  10  22  35  57  86 118 147 186 227 291 339
#     4  10  21  36  58  90 111 144 185 243 281 334
#     4  10  20  36  58  85 111 149 190 234 281 328
#     4  10  20  32  57  82 122 143 184 232 292 334
#     4  12  21  35  53  86 114 159 181 226 285 346
#     4  10  19  35  55  87 114 147 182 238 283 335
#     4  10  20  35  60  86 113 145 192 239 279 327
#     4  10  21  35  54  81 115 147 186 234 272 337
#
# _framework density 20.123697
#
# number of rings (size 3 to 8) (size 9 to 14) (size 15 to 20)
#    0.000    1.750    2.500    3.000    3.500    1.500 
#    0.000    0.000    0.000    0.750    6.500    7.000 
#    0.000    0.000    0.000    0.000    0.000    0.000 
#
# Total GULP energy -89139.484337 kJ/mol
# GULP energy per Si atom -5571.217771 kJ/mol
# Density = 2.007789 g / cm^3
# Si number density = 20.123697 Si / 1000 Ang^3
#
#
#
# Elastic Constant Matrix: (Units=GPa)
#
#
# Indices 1 2 3 4 5 6 
#
# 1 118.0431 25.3890 28.1552 -8.4364 -3.8493 -7.9104
# 2 25.3890 66.4648 30.4645 -15.9673 -0.9310 0.2746
# 3 28.1552 30.4645 76.1374 -16.4526 4.2235 -6.2935
# 4 -8.4364 -15.9673 -16.4526 27.1324 -8.6907 2.9288
# 5 -3.8493 -0.9310 4.2235 -8.6907 26.1985 -5.0602
# 6 -7.9104 0.2746 -6.2935 2.9288 -5.0602 19.2586
#
#
#
# Elastic Compliance Matrix: (Units=1/GPa)
#
#
# Indices 1 2 3 4 5 6 
#
# 1 0.009985 -0.002567 -0.002355 0.000609 0.002729 0.003993
# 2 -0.002567 0.021142 -0.005944 0.009667 0.003812 -0.003767
# 3 -0.002355 -0.005944 0.018058 0.006074 -0.000698 0.003911
# 4 0.000609 0.009667 0.006074 0.051817 0.016356 -0.001485
# 5 0.002729 0.003812 -0.000698 0.016356 0.046275 0.010510
# 6 0.003993 -0.003767 0.003911 -0.001485 0.010510 0.057884
#
#
# Mechanical properties :
#
#
# Convention : Reuss Voigt Hill
#
# Bulk Modulus (GPa) = 36.42571 47.62919 42.02745
# Shear Modulus (GPa) = 21.18251 26.29369 23.73810
#
# Velocity S-wave (km/s) = 3.24792 3.61862 3.43827
# Velocity P-wave (km/s) = 5.67499 6.41707 6.05741
#
# Compressibility (1/GPa) = 0.02745314
#
# Stress axis : x y z
#
# Youngs Moduli (GPa) = 100.14636 47.29968 55.37707
#
# Poissons Ratio (x) = 0.12140 0.13043
# Poissons Ratio (y) = 0.25705 0.32917
# Poissons Ratio (z) = 0.23587 0.28115
#
# Static dielectric constant tensor:
#      x y z
#    x 1.752800 -0.021870 0.013550 
#    y -0.021870 1.693580 -0.004280 
#    z 0.013550 -0.004280 1.814670 
# 
# From -- ./inp_files/428657.got.cif
#   From: 2010.05.17/outbox.cif.g08.bks.cpg/sg2_215_cif.got.tgz:428657.got - 2010.06.03 11:33:40.
