data_PCOD9084169
_publ_section_title
;
Structure prediction by ZEFSAII (Michael W. Deem and Ramdas Pophale) SiO2 
 PCOD9084169
Probable space group: P -1
;
_chemical_formula_sum "Si O2"
_cell_formula_units_Z 16
_cell_length_a 15.174258
_cell_length_b 9.913008
_cell_length_c 21.401508
_cell_angle_alpha 46.586716
_cell_angle_beta 160.819304
_cell_angle_gamma 132.324279
_cell_volume 764.352239
_symmetry_space_group_name_H-M "P -1"
_symmetry_group_IT_number 2
_symmetry_cell_setting 'triclinic'
loop_
_space_group_symop_operation_xyz
x,y,z
-x,-y,-z
loop_
_atom_site_type_symbol
_atom_site_label
_atom_site_fract_x
_atom_site_fract_y
_atom_site_fract_z
Si Si1 0.159289 0.869367 0.967343
Si Si2 0.281561 0.316962 0.346922
Si Si3 0.630915 0.340435 0.102398
Si Si4 0.717883 0.881286 0.150495
Si Si5 0.874815 0.494839 0.690935
Si Si6 0.846101 0.884450 0.988344
Si Si7 0.295488 0.967424 0.550967
Si Si8 0.697449 0.956575 0.332566
O O1 0.916816 0.716908 0.834295
O O2 0.169626 0.006137 0.871150
O O3 0.126866 0.981329 0.974640
O O4 0.466439 0.812672 0.193335
O O5 0.561993 0.439406 0.482183
O O6 0.132321 0.409019 0.275874
O O7 0.352072 0.115284 0.485675
O O8 0.601119 0.158573 0.184482
O O9 0.938796 0.386991 0.272146
O O10 0.500000 0.500000 0.000000
O O11 0.456924 0.298344 0.936288
O O12 0.993460 0.863174 0.378021
O O13 0.500000 0.000000 0.000000
O O14 0.019394 0.304403 0.851279
O O15 0.540329 0.846878 0.768630
O O16 0.000000 0.000000 0.000000
O O17 0.299936 0.087972 0.578803
O O18 0.000000 0.000000 0.500000
#
# Coordination Sequence:
#
# PCOD9084169 Si02
#       8
#     2   2   2   2   2   2   2   2
#     4   9  20  37  60  89 115 155 206 242 286 367
#     4  10  21  39  63  88 115 157 208 246 296 352
#     4  11  22  39  57  86 124 156 193 242 305 361
#     4  10  19  36  63  90 116 157 202 242 289 361
#     4  11  22  38  62  86 123 159 197 250 306 358
#     4  11  22  41  60  85 120 157 199 248 305 350
#     4  10  19  37  62  87 114 153 204 244 287 354
#     4  10  19  34  61  87 116 154 195 242 294 349
#
# _framework density 20.932759000000001
#
# number of rings (size 3 to 8) (size 9 to 14) (size 15 to 20)
#    0.000    1.750    1.250    6.000    0.000    0.500 
#    2.250    4.375    0.000    0.000    0.000    0.000 
#    0.000    0.000    0.000    0.000    0.000    0.000 
#
# Total GULP energy -89120.738324 kJ/mol
# GULP energy per Si atom -5570.046145 kJ/mol
# Density = 2.088512 g / cm^3
# Si number density = 20.932759 Si / 1000 Ang^3
#
#
#
# Elastic Constant Matrix: (Units=GPa)
#
#
# Indices 1 2 3 4 5 6 
#
# 1 93.9596 24.5759 39.2490 18.0245 10.9988 -1.5465
# 2 24.5759 72.0865 43.4496 13.7076 5.6319 -18.1966
# 3 39.2490 43.4496 149.2463 33.7647 8.4646 -20.9690
# 4 18.0245 13.7076 33.7647 32.7579 -2.8926 3.0110
# 5 10.9988 5.6319 8.4646 -2.8926 33.8400 0.7561
# 6 -1.5465 -18.1966 -20.9690 3.0110 0.7561 36.3516
#
#
#
# Elastic Compliance Matrix: (Units=1/GPa)
#
#
# Indices 1 2 3 4 5 6 
#
# 1 0.013371 -0.002683 -0.001594 -0.004823 -0.003886 -0.001214
# 2 -0.002683 0.019680 -0.002463 -0.005244 -0.002432 0.008802
# 3 -0.001594 -0.002463 0.011233 -0.010490 -0.002915 0.006109
# 4 -0.004823 -0.005244 -0.010490 0.048225 0.009478 -0.013073
# 5 -0.003886 -0.002432 -0.002915 0.009478 0.032859 -0.004533
# 6 -0.001214 0.008802 0.006109 -0.013073 -0.004533 0.036564
#
#
# Mechanical properties :
#
#
# Convention : Reuss Voigt Hill
#
# Bulk Modulus (GPa) = 32.46366 58.87127 45.66747
# Shear Modulus (GPa) = 26.92782 34.45775 30.69279
#
# Velocity S-wave (km/s) = 3.59053 4.06164 3.83333
# Velocity P-wave (km/s) = 5.72114 7.08385 6.43865
#
# Compressibility (1/GPa) = 0.03080368
#
# Stress axis : x y z
#
# Youngs Moduli (GPa) = 74.79095 50.81174 89.02117
#
# Poissons Ratio (x) = 0.13634 0.14192
# Poissons Ratio (y) = 0.20068 0.21925
# Poissons Ratio (z) = 0.11923 0.12515
#
# Static dielectric constant tensor:
#      x y z
#    x 1.827190 -0.010870 0.023150 
#    y -0.010870 1.687830 0.019330 
#    z 0.023150 0.019330 1.877700 
# 
# From -- ./inp_files/218820.got.cif
#   From: 2010.05.17/outbox.cif.g08.bks.cpg/sg2_110_cif.got.tgz:218820.got - 2010.06.03 11:33:40.
