data_PCOD9084160
_publ_section_title
;
Structure prediction by ZEFSAII (Michael W. Deem and Ramdas Pophale) SiO2 
 PCOD9084160
Probable space group: P -1
;
_chemical_formula_sum "Si O2"
_cell_formula_units_Z 16
_cell_length_a 9.861344
_cell_length_b 7.020941
_cell_length_c 19.607972
_cell_angle_alpha 108.542228
_cell_angle_beta 145.802213
_cell_angle_gamma 54.990872
_cell_volume 587.738432
_symmetry_space_group_name_H-M "P -1"
_symmetry_group_IT_number 2
_symmetry_cell_setting 'triclinic'
loop_
_space_group_symop_operation_xyz
x,y,z
-x,-y,-z
loop_
_atom_site_type_symbol
_atom_site_label
_atom_site_fract_x
_atom_site_fract_y
_atom_site_fract_z
Si Si1 0.563263 0.651275 0.488869
Si Si2 0.767597 0.023062 0.118083
Si Si3 0.016286 0.148869 0.126424
Si Si4 0.811058 0.673335 0.291386
Si Si5 0.704851 0.353183 0.897537
Si Si6 0.044389 0.953710 0.664997
Si Si7 0.648031 0.970620 0.389278
Si Si8 0.606267 0.497182 0.721553
O O1 0.500000 0.500000 0.500000
O O2 0.269239 0.914084 0.409294
O O3 0.580702 0.571717 0.408913
O O4 0.883890 0.583712 0.628992
O O5 0.739359 0.157428 0.192987
O O6 0.064180 0.736231 0.195174
O O7 0.776936 0.191836 0.085171
O O8 0.500000 0.000000 0.000000
O O9 0.315380 0.061715 0.282081
O O10 0.910661 0.345176 0.042654
O O11 0.101648 0.904739 0.093408
O O12 0.533557 0.666417 0.162982
O O13 0.864229 0.866425 0.302444
O O14 0.757591 0.753286 0.356931
O O15 0.584192 0.523117 0.797987
O O16 0.926628 0.885435 0.543666
O O17 0.538194 0.228303 0.335758
#
# Coordination Sequence:
#
# PCOD9084160 Si02
#       8
#     2   2   2   2   2   2   2   2
#     4   9  17  33  55  83 115 154 192 226 284 347
#     4  10  21  39  64  83 111 159 207 226 276 365
#     4   9  20  38  56  83 114 156 195 240 288 338
#     4  10  19  34  61  86 115 153 196 238 280 346
#     4   9  19  36  57  82 114 157 202 235 276 348
#     4  10  20  35  61  89 119 153 188 241 297 340
#     4  11  21  36  60  89 125 144 185 248 304 336
#     4  10  20  35  59  88 117 152 191 240 293 340
#
# _framework density 27.222995000000001
#
# number of rings (size 3 to 8) (size 9 to 14) (size 15 to 20)
#    0.000    2.250    2.500    1.125    0.000    2.500 
#    0.000    0.625    2.750    0.000    0.000    0.000 
#    0.000    0.000    0.000    0.000    0.000    0.000 
#
# Total GULP energy -89155.537540 kJ/mol
# GULP energy per Si atom -5572.221096 kJ/mol
# Density = 2.716103 g / cm^3
# Si number density = 27.222995 Si / 1000 Ang^3
#
#
#
# Elastic Constant Matrix: (Units=GPa)
#
#
# Indices 1 2 3 4 5 6 
#
# 1 142.4416 20.2356 61.5372 9.6527 -12.9175 -12.0734
# 2 20.2356 63.5472 12.9392 9.3343 -17.2410 7.6015
# 3 61.5372 12.9392 148.5003 9.7119 -12.6578 0.0557
# 4 9.6527 9.3343 9.7119 24.0181 -5.4457 -5.9854
# 5 -12.9175 -17.2410 -12.6578 -5.4457 48.8367 -9.9285
# 6 -12.0734 7.6015 0.0557 -5.9854 -9.9285 29.9286
#
#
#
# Elastic Compliance Matrix: (Units=1/GPa)
#
#
# Indices 1 2 3 4 5 6 
#
# 1 0.009496 -0.002460 -0.003588 0.000267 0.001781 0.005107
# 2 -0.002460 0.019395 0.000159 -0.007133 0.004234 -0.005941
# 3 -0.003588 0.000159 0.008416 -0.002303 0.000678 -0.001739
# 4 0.000267 -0.007133 -0.002303 0.049829 0.005285 0.013643
# 5 0.001781 0.004234 0.000678 0.005285 0.025038 0.009005
# 6 0.005107 -0.005941 -0.001739 0.013643 0.009005 0.042701
#
#
# Mechanical properties :
#
#
# Convention : Reuss Voigt Hill
#
# Bulk Modulus (GPa) = 39.17195 60.43480 49.80337
# Shear Modulus (GPa) = 28.54469 37.87516 33.20992
#
# Velocity S-wave (km/s) = 3.24165 3.73405 3.49653
# Velocity P-wave (km/s) = 5.33212 6.39054 5.88517
#
# Compressibility (1/GPa) = 0.02552847
#
# Stress axis : x y z
#
# Youngs Moduli (GPa) = 105.30215 51.56084 118.81885
#
# Poissons Ratio (x) = 0.12685 0.42638
# Poissons Ratio (y) = 0.25906 -0.01892
# Poissons Ratio (z) = 0.37787 -0.00821
#
# Static dielectric constant tensor:
#      x y z
#    x 2.184230 0.034050 -0.088880 
#    y 0.034050 2.387560 -0.143200 
#    z -0.088880 -0.143200 2.301200 
# 
# From -- ./inp_files/557339.got.cif
#   From: 2010.05.17/outbox.cif.g08.bks.cpg/sg2_279_cif.got.tgz:557339.got - 2010.06.03 11:33:40.
