data_PCOD9084268
_publ_section_title
;
Structure prediction by ZEFSAII (Michael W. Deem and Ramdas Pophale) SiO2 
 PCOD9084268
Probable space group: P -1
;
_chemical_formula_sum "Si O2"
_cell_formula_units_Z 16
_cell_length_a 12.027727
_cell_length_b 21.408505
_cell_length_c 14.814916
_cell_angle_alpha 29.136224
_cell_angle_beta 48.881168
_cell_angle_gamma 27.449304
_cell_volume 729.455549
_symmetry_space_group_name_H-M "P -1"
_symmetry_group_IT_number 2
_symmetry_cell_setting 'triclinic'
loop_
_space_group_symop_operation_xyz
x,y,z
-x,-y,-z
loop_
_atom_site_type_symbol
_atom_site_label
_atom_site_fract_x
_atom_site_fract_y
_atom_site_fract_z
Si Si1 0.446967 0.201098 0.401006
Si Si2 0.276951 0.250894 0.750622
Si Si3 0.781634 0.013000 0.282219
Si Si4 0.223055 0.727375 0.143098
Si Si5 0.607787 0.205100 0.887617
Si Si6 0.138858 0.502988 0.679647
Si Si7 0.683020 0.582312 0.620881
Si Si8 0.303288 0.254278 0.106000
O O1 0.658568 0.091675 0.348535
O O2 0.402880 0.337816 0.330543
O O3 0.150234 0.375293 0.294675
O O4 0.591110 0.968572 0.663715
O O5 0.129803 0.458735 0.635601
O O6 0.422586 0.218743 0.632194
O O7 0.023184 0.348781 0.729136
O O8 0.500000 0.000000 0.000000
O O9 0.522268 0.171537 0.153472
O O10 0.864282 0.093689 0.105476
O O11 0.009951 0.734954 0.490807
O O12 0.387006 0.674680 0.204035
O O13 0.384351 0.499055 0.291133
O O14 0.910993 0.917156 0.104602
O O15 0.481239 0.307869 0.728051
O O16 0.338957 0.300163 0.931139
O O17 0.000000 0.500000 0.000000
#
# Coordination Sequence:
#
# PCOD9084268 Si02
#       8
#     2   2   2   2   2   2   2   2
#     4  10  21  37  61  88 119 158 201 255 302 351
#     4  10  22  38  63  90 121 156 201 254 310 362
#     4  10  21  38  57  89 121 159 206 242 304 357
#     4  10  23  38  57  87 126 167 193 240 307 369
#     4  10  21  35  61  88 122 156 203 249 308 356
#     4  10  20  36  63  93 115 149 205 263 297 348
#     4  10  23  40  59  86 126 162 198 250 303 363
#     4  10  19  34  62  89 115 152 200 262 302 346
#
# _framework density 21.934165
#
# number of rings (size 3 to 8) (size 9 to 14) (size 15 to 20)
#    0.000    2.000    0.000    3.750   12.250    1.000 
#    2.250    0.000    0.000    6.750    0.000    0.000 
#    0.000    0.000    0.000    0.000    0.000    0.000 
#
# Total GULP energy -89072.582639 kJ/mol
# GULP energy per Si atom -5567.036415 kJ/mol
# Density = 2.188424 g / cm^3
# Si number density = 21.934165 Si / 1000 Ang^3
#
#
#
# Elastic Constant Matrix: (Units=GPa)
#
#
# Indices 1 2 3 4 5 6 
#
# 1 93.9061 16.7736 12.7685 -13.6217 -0.4819 16.0718
# 2 16.7736 79.4845 10.8878 2.9644 0.4318 13.0704
# 3 12.7685 10.8878 67.8076 7.2027 10.3581 5.3607
# 4 -13.6217 2.9644 7.2027 24.4752 -2.9493 7.7758
# 5 -0.4819 0.4318 10.3581 -2.9493 26.3305 -12.0592
# 6 16.0718 13.0704 5.3607 7.7758 -12.0592 35.5059
#
#
#
# Elastic Compliance Matrix: (Units=1/GPa)
#
#
# Indices 1 2 3 4 5 6 
#
# 1 0.014464 -0.001705 -0.002845 0.011633 -0.001145 -0.008426
# 2 -0.001705 0.013909 -0.001114 -0.001079 -0.002070 -0.004647
# 3 -0.002845 -0.001114 0.017766 -0.006961 -0.008947 -0.002499
# 4 0.011633 -0.001079 -0.006961 0.054547 0.002202 -0.015016
# 5 -0.001145 -0.002070 -0.008947 0.002202 0.050615 0.019340
# 6 -0.008426 -0.004647 -0.002499 -0.015016 0.019340 0.043923
#
#
# Mechanical properties :
#
#
# Convention : Reuss Voigt Hill
#
# Bulk Modulus (GPa) = 28.72573 35.78421 32.25497
# Shear Modulus (GPa) = 22.91948 30.64687 26.78318
#
# Velocity S-wave (km/s) = 3.23603 3.74200 3.49817
# Velocity P-wave (km/s) = 5.20455 5.91776 5.57257
#
# Compressibility (1/GPa) = 0.03481199
#
# Stress axis : x y z
#
# Youngs Moduli (GPa) = 69.13783 71.89543 56.28800
#
# Poissons Ratio (x) = 0.12256 0.16011
# Poissons Ratio (y) = 0.11786 0.06271
# Poissons Ratio (z) = 0.19667 0.08010
#
# Static dielectric constant tensor:
#      x y z
#    x 1.802870 -0.026130 0.025920 
#    y -0.026130 1.982330 0.100010 
#    z 0.025920 0.100010 1.928230 
# 
# From -- ./inp_files/524042.got.cif
#   From: 2010.05.17/outbox.cif.g08.bks.cpg/sg2_263_cif.got.tgz:524042.got - 2010.06.03 11:33:40.
