data_PCOD9084111
_publ_section_title
;
Structure prediction by ZEFSAII (Michael W. Deem and Ramdas Pophale) SiO2 
 PCOD9084111
Probable space group: P -1
;
_chemical_formula_sum "Si O2"
_cell_formula_units_Z 16
_cell_length_a 12.634896
_cell_length_b 18.801593
_cell_length_c 21.418211
_cell_angle_alpha 153.794153
_cell_angle_beta 22.046186
_cell_angle_gamma 142.368149
_cell_volume 818.870549
_symmetry_space_group_name_H-M "P -1"
_symmetry_group_IT_number 2
_symmetry_cell_setting 'triclinic'
loop_
_space_group_symop_operation_xyz
x,y,z
-x,-y,-z
loop_
_atom_site_type_symbol
_atom_site_label
_atom_site_fract_x
_atom_site_fract_y
_atom_site_fract_z
Si Si1 0.245433 0.653092 0.443519
Si Si2 0.389506 0.459170 0.438159
Si Si3 0.462744 0.772944 0.705460
Si Si4 0.779815 0.065627 0.480564
Si Si5 0.134560 0.972120 0.335646
Si Si6 0.576476 0.637994 0.796688
Si Si7 0.168157 0.035035 0.765732
Si Si8 0.762699 0.431696 0.756203
O O1 0.413576 0.537779 0.314867
O O2 0.276908 0.839833 0.568880
O O3 0.336677 0.559784 0.254546
O O4 0.901035 0.665975 0.649133
O O5 0.502235 0.624363 0.516936
O O6 0.493779 0.326966 0.331707
O O7 0.475084 0.375924 0.259383
O O8 0.037614 0.510522 0.674788
O O9 0.680791 0.890558 0.669789
O O10 0.135373 0.884825 0.973228
O O11 0.869526 0.957448 0.283306
O O12 0.881497 0.235299 0.549252
O O13 0.429638 0.113331 0.706003
O O14 0.904401 0.989220 0.417919
O O15 0.348524 0.790806 0.071090
O O16 0.000000 0.000000 0.500000
O O17 0.500000 0.500000 0.000000
#
# Coordination Sequence:
#
# PCOD9084111 Si02
#       8
#     2   2   2   2   2   2   2   2
#     4   9  20  36  62  88 120 163 213 248 308 376
#     4  10  22  38  65  93 120 165 212 260 311 373
#     4  11  22  41  64  94 125 159 218 261 312 375
#     4  10  22  38  60  95 126 158 213 251 323 372
#     4  12  26  42  63  93 130 171 208 264 319 377
#     4  10  21  41  61  89 122 166 210 255 314 376
#     4  10  20  40  65  93 123 165 209 267 308 373
#     4  10  19  34  60  89 124 164 198 258 309 367
#
# _framework density 19.539107000000001
#
# number of rings (size 3 to 8) (size 9 to 14) (size 15 to 20)
#    0.000    1.750    2.500    1.500    1.750    2.000 
#    2.250    5.000    0.000    0.000    0.000    0.000 
#    0.000    0.000    0.000    0.000    0.000    0.000 
#
# Total GULP energy -89326.641515 kJ/mol
# GULP energy per Si atom -5582.915095 kJ/mol
# Density = 1.949464 g / cm^3
# Si number density = 19.539107 Si / 1000 Ang^3
#
#
#
# Elastic Constant Matrix: (Units=GPa)
#
#
# Indices 1 2 3 4 5 6 
#
# 1 84.7593 33.8808 44.4875 5.1600 3.2985 -6.8898
# 2 33.8808 66.6261 23.1752 8.9593 -4.9208 1.6945
# 3 44.4875 23.1752 88.0488 -2.9324 23.9147 0.4417
# 4 5.1600 8.9593 -2.9324 23.6314 -2.3528 0.0031
# 5 3.2985 -4.9208 23.9147 -2.3528 18.3555 -5.3644
# 6 -6.8898 1.6945 0.4417 0.0031 -5.3644 28.3975
#
#
#
# Elastic Compliance Matrix: (Units=1/GPa)
#
#
# Indices 1 2 3 4 5 6 
#
# 1 0.021084 -0.004750 -0.013510 -0.003027 0.014597 0.008367
# 2 -0.004750 0.022548 -0.008473 -0.006838 0.017326 0.000908
# 3 -0.013510 -0.008473 0.033071 0.005720 -0.045680 -0.011917
# 4 -0.003027 -0.006838 0.005720 0.045967 -0.003145 -0.001015
# 5 0.014597 0.017326 -0.045680 -0.003145 0.123365 0.026523
# 6 0.008367 0.000908 -0.011917 -0.001015 0.026523 0.042386
#
#
# Mechanical properties :
#
#
# Convention : Reuss Voigt Hill
#
# Bulk Modulus (GPa) = 43.03540 49.16901 46.10221
# Shear Modulus (GPa) = 14.30070 23.26958 18.78514
#
# Velocity S-wave (km/s) = 2.70830 3.45472 3.10403
# Velocity P-wave (km/s) = 5.64384 6.41346 6.04092
#
# Compressibility (1/GPa) = 0.02323669
#
# Stress axis : x y z
#
# Youngs Moduli (GPa) = 47.42866 44.34988 30.23787
#
# Poissons Ratio (x) = 0.21066 0.40852
# Poissons Ratio (y) = 0.22529 0.25621
# Poissons Ratio (z) = 0.64077 0.37578
#
# Static dielectric constant tensor:
#      x y z
#    x 1.682580 -0.002900 -0.008070 
#    y -0.002900 1.679790 -0.004720 
#    z -0.008070 -0.004720 1.667190 
# 
# From -- ./inp_files/436335.got.cif
#   From: 2010.05.17/outbox.cif.g08.bks.cpg/sg2_219_cif.got.tgz:436335.got - 2010.06.03 11:33:40.
