data_PCOD9084528
_publ_section_title
;
Structure prediction by ZEFSAII (Michael W. Deem and Ramdas Pophale) SiO2 
 PCOD9084528
Probable space group: P -1
;
_chemical_formula_sum "Si O2"
_cell_formula_units_Z 14
_cell_length_a 19.807319
_cell_length_b 6.646657
_cell_length_c 17.232498
_cell_angle_alpha 66.347945
_cell_angle_beta 147.801946
_cell_angle_gamma 136.600132
_cell_volume 674.492295
_symmetry_space_group_name_H-M "P -1"
_symmetry_group_IT_number 2
_symmetry_cell_setting 'triclinic'
loop_
_space_group_symop_operation_xyz
x,y,z
-x,-y,-z
loop_
_atom_site_type_symbol
_atom_site_label
_atom_site_fract_x
_atom_site_fract_y
_atom_site_fract_z
Si Si1 0.981724 0.247315 0.258097
Si Si2 0.906267 0.048001 0.958946
Si Si3 0.728937 0.220267 0.121849
Si Si4 0.298774 0.216732 0.741940
Si Si5 0.640120 0.556168 0.918791
Si Si6 0.107900 0.286930 0.648827
Si Si7 0.743706 0.268913 0.692239
O O1 0.171621 0.567689 0.337416
O O2 0.894210 0.336307 0.206111
O O3 0.009047 0.086937 0.370179
O O4 0.803840 0.902542 0.081883
O O5 0.798446 0.095569 0.798064
O O6 0.730444 0.712961 0.897355
O O7 0.101985 0.391279 0.150291
O O8 0.000000 0.000000 0.000000
O O9 0.815647 0.464039 0.244405
O O10 0.615478 0.852994 0.106087
O O11 0.620502 0.270745 0.963136
O O12 0.428551 0.384525 0.763696
O O13 0.278830 0.417381 0.737286
O O14 0.063446 0.830001 0.551360
O O15 0.500000 0.000000 0.500000
#
# Coordination Sequence:
#
# PCOD9084528 Si02
#       7
#     2   2   2   2   2   2   2
#     4   9  20  37  55  78 111 142 181 231 280 335
#     4  10  22  42  61  88 124 151 197 250 293 349
#     4  10  19  35  54  78 109 144 181 229 269 334
#     4  10  20  34  52  79 109 145 182 223 276 328
#     4  10  21  35  56  79 109 146 182 226 283 335
#     4   9  20  35  53  76 113 143 179 230 271 328
#     4  10  22  40  63  88 118 157 196 244 302 351
#
# _framework density 20.756354999999999
#
# number of rings (size 3 to 8) (size 9 to 14) (size 15 to 20)
#    0.000    2.286    0.000    1.714    2.000    6.857 
#    2.571    0.000    0.000    0.000    0.000    0.000 
#    0.000    0.000    0.000    0.000    0.000    0.000 
#
# Total GULP energy -78071.267845 kJ/mol
# GULP energy per Si atom -5576.519132 kJ/mol
# Density = 2.070911 g / cm^3
# Si number density = 20.756355 Si / 1000 Ang^3
#
#
#
# Elastic Constant Matrix: (Units=GPa)
#
#
# Indices 1 2 3 4 5 6 
#
# 1 169.0732 57.3184 35.4462 -8.9630 41.5177 -0.6489
# 2 57.3184 78.2692 25.8013 -16.2963 20.6576 -4.1919
# 3 35.4462 25.8013 82.1760 -13.3142 25.9890 -6.7229
# 4 -8.9630 -16.2963 -13.3142 23.4462 0.0347 2.3540
# 5 41.5177 20.6576 25.9890 0.0347 40.9636 2.5500
# 6 -0.6489 -4.1919 -6.7229 2.3540 2.5500 30.6313
#
#
#
# Elastic Compliance Matrix: (Units=1/GPa)
#
#
# Indices 1 2 3 4 5 6 
#
# 1 0.009311 -0.004942 -0.000347 -0.000064 -0.006725 0.000009
# 2 -0.004942 0.020512 -0.000616 0.011817 -0.005084 0.002082
# 3 -0.000347 -0.000616 0.017754 0.009135 -0.010859 0.004007
# 4 -0.000064 0.011817 0.009135 0.056015 -0.011756 0.000295
# 5 -0.006725 -0.005084 -0.010859 -0.011756 0.041048 -0.005735
# 6 0.000009 0.002082 0.004007 0.000295 -0.005735 0.034266
#
#
# Mechanical properties :
#
#
# Convention : Reuss Voigt Hill
#
# Bulk Modulus (GPa) = 27.95863 62.96113 45.45988
# Shear Modulus (GPa) = 24.67453 33.07173 28.87313
#
# Velocity S-wave (km/s) = 3.45159 3.99598 3.73372
# Velocity P-wave (km/s) = 5.42069 7.18956 6.36685
#
# Compressibility (1/GPa) = 0.03576713
#
# Stress axis : x y z
#
# Youngs Moduli (GPa) = 107.40232 48.75130 56.32480
#
# Poissons Ratio (x) = 0.24093 0.01956
# Poissons Ratio (y) = 0.53077 0.03469
# Poissons Ratio (z) = 0.03730 0.03002
#
# Static dielectric constant tensor:
#      x y z
#    x 1.736250 0.002250 -0.000660 
#    y 0.002250 1.768810 0.006790 
#    z -0.000660 0.006790 1.766340 
# 
# From -- ./inp_files/46003.got.cif
#   From: 2010.05.17/outbox.cif.g08.bks.cpg/sg2_24_cif.got.tgz:46003.got - 2010.06.03 11:33:40.
