data_PCOD9084124
_publ_section_title
;
Structure prediction by ZEFSAII (Michael W. Deem and Ramdas Pophale) SiO2 
 PCOD9084124
Probable space group: P -1
;
_chemical_formula_sum "Si O2"
_cell_formula_units_Z 14
_cell_length_a 15.352028
_cell_length_b 16.155805
_cell_length_c 16.878704
_cell_angle_alpha 18.029241
_cell_angle_beta 152.658847
_cell_angle_gamma 150.635262
_cell_volume 584.381976
_symmetry_space_group_name_H-M "P -1"
_symmetry_group_IT_number 2
_symmetry_cell_setting 'triclinic'
loop_
_space_group_symop_operation_xyz
x,y,z
-x,-y,-z
loop_
_atom_site_type_symbol
_atom_site_label
_atom_site_fract_x
_atom_site_fract_y
_atom_site_fract_z
Si Si1 0.691201 0.372145 0.087339
Si Si2 0.716697 0.971532 0.608339
Si Si3 0.752978 0.129458 0.668677
Si Si4 0.239993 0.945277 0.975500
Si Si5 0.226504 0.275669 0.811448
Si Si6 0.356029 0.415592 0.533057
Si Si7 0.988532 0.487714 0.095326
O O1 0.459989 0.319539 0.947483
O O2 0.761170 0.671557 0.908130
O O3 0.759702 0.156767 0.396961
O O4 0.784962 0.375948 0.073118
O O5 0.797883 0.110521 0.629401
O O6 0.481631 0.923721 0.468626
O O7 0.824382 0.427886 0.491030
O O8 0.812519 0.894554 0.984226
O O9 0.154906 0.095479 0.841194
O O10 0.381199 0.171425 0.832507
O O11 0.343147 0.696843 0.313266
O O12 0.075410 0.784524 0.931630
O O13 0.500000 0.500000 0.500000
O O14 0.146272 0.324578 0.406010
O O15 0.000000 0.500000 0.000000
#
# Coordination Sequence:
#
# PCOD9084124 Si02
#       7
#     2   2   2   2   2   2   2
#     4  10  21  35  58  88 120 156 196 247 299 346
#     4   9  18  34  56  88 123 153 192 247 295 344
#     4   9  17  32  58  90 119 153 198 241 289 348
#     4  10  23  40  60  87 120 159 191 253 293 358
#     4  10  19  34  60  91 118 155 199 244 289 352
#     4  10  23  41  63  86 112 161 200 252 296 353
#     4  10  26  43  62  89 120 161 200 251 302 359
#
# _framework density 23.956934
#
# number of rings (size 3 to 8) (size 9 to 14) (size 15 to 20)
#    0.857    1.429    0.000    2.143    4.000    4.000 
#    0.000    0.000    0.000    5.143    0.000    0.000 
#    0.000    0.000    0.000    0.000    0.000    0.000 
#
# Total GULP energy -78284.598057 kJ/mol
# GULP energy per Si atom -5591.757004 kJ/mol
# Density = 2.390241 g / cm^3
# Si number density = 23.956934 Si / 1000 Ang^3
#
#
#
# Elastic Constant Matrix: (Units=GPa)
#
#
# Indices 1 2 3 4 5 6 
#
# 1 144.1380 29.9421 13.0850 -13.6240 -24.8511 -4.6101
# 2 29.9421 94.5514 26.8516 -10.8119 -5.9057 -19.0906
# 3 13.0850 26.8516 97.9440 -23.8879 -19.5486 0.1833
# 4 -13.6240 -10.8119 -23.8879 23.3897 4.7615 2.9976
# 5 -24.8511 -5.9057 -19.5486 4.7615 37.5132 0.1957
# 6 -4.6101 -19.0906 0.1833 2.9976 0.1957 48.0225
#
#
#
# Elastic Compliance Matrix: (Units=1/GPa)
#
#
# Indices 1 2 3 4 5 6 
#
# 1 0.008699 -0.002469 0.001791 0.004651 0.005720 -0.000467
# 2 -0.002469 0.013356 -0.003411 0.000903 -0.001451 0.005035
# 3 0.001791 -0.003411 0.015861 0.014502 0.007086 -0.002178
# 4 0.004651 0.000903 0.014502 0.060444 0.003124 -0.003036
# 5 0.005720 -0.001451 0.007086 0.003124 0.033516 -0.000386
# 6 -0.000467 0.005035 -0.002178 -0.003036 -0.000386 0.022980
#
#
# Mechanical properties :
#
#
# Convention : Reuss Voigt Hill
#
# Bulk Modulus (GPa) = 33.62481 52.93231 43.27856
# Shear Modulus (GPa) = 28.91104 39.56873 34.23989
#
# Velocity S-wave (km/s) = 3.47766 4.06847 3.78461
# Velocity P-wave (km/s) = 5.49468 6.64926 6.09935
#
# Compressibility (1/GPa) = 0.02973995
#
# Stress axis : x y z
#
# Youngs Moduli (GPa) = 114.95877 74.87408 63.04794
#
# Poissons Ratio (x) = 0.18483 -0.11294
# Poissons Ratio (y) = 0.28379 0.21503
# Poissons Ratio (z) = -0.20593 0.25536
#
# Static dielectric constant tensor:
#      x y z
#    x 1.941750 0.070320 0.029190 
#    y 0.070320 1.954490 0.017590 
#    z 0.029190 0.017590 1.875590 
# 
# From -- ./inp_files/135747.got.cif
#   From: 2010.05.17/outbox.cif.g08.bks.cpg/sg2_68_cif.got.tgz:135747.got - 2010.06.03 11:33:40.
