data_PCOD9084372
_publ_section_title
;
Structure prediction by ZEFSAII (Michael W. Deem and Ramdas Pophale) SiO2 
 PCOD9084372
Probable space group: P -1
;
_chemical_formula_sum "Si O2"
_cell_formula_units_Z 16
_cell_length_a 14.718005
_cell_length_b 7.751246
_cell_length_c 5.956456
_cell_angle_alpha 112.316772
_cell_angle_beta 102.634738
_cell_angle_gamma 90.629803
_cell_volume 610.070675
_symmetry_space_group_name_H-M "P -1"
_symmetry_group_IT_number 2
_symmetry_cell_setting 'triclinic'
loop_
_space_group_symop_operation_xyz
x,y,z
-x,-y,-z
loop_
_atom_site_type_symbol
_atom_site_label
_atom_site_fract_x
_atom_site_fract_y
_atom_site_fract_z
Si Si1 0.552264 0.809089 0.944610
Si Si2 0.277472 0.929362 0.863536
Si Si3 0.306593 0.602286 0.418323
Si Si4 0.180961 0.724217 0.049068
Si Si5 0.975435 0.674183 0.925513
Si Si6 0.822377 0.620710 0.468228
Si Si7 0.893568 0.933210 0.345103
Si Si8 0.491297 0.767961 0.390057
O O1 0.535971 0.725591 0.640669
O O2 0.662501 0.877326 0.053681
O O3 0.525496 0.720297 0.132076
O O4 0.500000 0.000000 0.000000
O O5 0.173263 0.918932 0.702386
O O6 0.328312 0.764736 0.696177
O O7 0.259572 0.885798 0.091976
O O8 0.268759 0.416349 0.441638
O O9 0.390422 0.644255 0.308353
O O10 0.212968 0.648458 0.262801
O O11 0.184245 0.549154 0.796247
O O12 0.077446 0.788040 0.013752
O O13 0.921412 0.612004 0.642388
O O14 0.905242 0.790671 0.078940
O O15 0.000000 0.500000 0.000000
O O16 0.837023 0.819449 0.454309
O O17 0.000000 0.000000 0.500000
O O18 0.500000 0.000000 0.500000
#
# Coordination Sequence:
#
# PCOD9084372 Si02
#       8
#     2   2   2   2   2   2   2   2
#     4  10  19  38  60 100 136 177 223 289 344 410
#     4  11  24  37  64  98 136 173 221 285 344 401
#     4  11  21  37  65 101 124 173 221 284 336 408
#     4  11  22  38  66  92 127 170 230 274 331 407
#     4  12  23  43  64  91 127 179 226 272 332 409
#     4  11  24  41  63  90 129 176 225 277 333 414
#     4  12  27  44  63  98 138 178 221 280 347 402
#     4  10  19  34  63  97 137 169 226 285 345 401
#
# _framework density 26.226465999999999
#
# number of rings (size 3 to 8) (size 9 to 14) (size 15 to 20)
#    0.000    1.000    5.000    3.375    3.500    3.000 
#    0.000    0.000    0.000    1.500    0.000    0.000 
#    0.000    0.000    0.000    0.000    0.000    0.000 
#
# Total GULP energy -89408.954798 kJ/mol
# GULP energy per Si atom -5588.059675 kJ/mol
# Density = 2.616677 g / cm^3
# Si number density = 26.226466 Si / 1000 Ang^3
#
#
#
# Elastic Constant Matrix: (Units=GPa)
#
#
# Indices 1 2 3 4 5 6 
#
# 1 107.9400 33.8651 34.3740 -9.4686 -8.0078 43.2513
# 2 33.8651 99.4547 24.6596 -19.1517 -19.3839 42.4506
# 3 34.3740 24.6596 121.7936 -16.5991 -3.8290 11.0260
# 4 -9.4686 -19.1517 -16.5991 35.5212 6.7345 -9.1510
# 5 -8.0078 -19.3839 -3.8290 6.7345 48.9359 -4.9412
# 6 43.2513 42.4506 11.0260 -9.1510 -4.9412 54.5389
#
#
#
# Elastic Compliance Matrix: (Units=1/GPa)
#
#
# Indices 1 2 3 4 5 6 
#
# 1 0.014801 0.001028 -0.003322 -0.000363 0.001428 -0.011798
# 2 0.001028 0.017518 -0.001893 0.004571 0.005033 -0.012845
# 3 -0.003322 -0.001893 0.009741 0.003470 -0.000741 0.002654
# 4 -0.000363 0.004571 0.003470 0.032937 -0.002375 0.001340
# 5 0.001428 0.005033 -0.000741 -0.002375 0.022603 -0.003251
# 6 -0.011798 -0.012845 0.002654 0.001340 -0.003251 0.037083
#
#
# Mechanical properties :
#
#
# Convention : Reuss Voigt Hill
#
# Bulk Modulus (GPa) = 29.68586 57.22067 43.45326
# Shear Modulus (GPa) = 32.40742 43.55185 37.97963
#
# Velocity S-wave (km/s) = 3.51903 4.07948 3.80957
# Velocity P-wave (km/s) = 5.27779 6.63738 5.99624
#
# Compressibility (1/GPa) = 0.03368607
#
# Stress axis : x y z
#
# Youngs Moduli (GPa) = 67.56135 57.08453 102.66068
#
# Poissons Ratio (x) = -0.05868 0.34104
# Poissons Ratio (y) = -0.06945 0.19433
# Poissons Ratio (z) = 0.22444 0.10806
#
# Static dielectric constant tensor:
#      x y z
#    x 2.093660 0.049840 -0.017430 
#    y 0.049840 2.096970 0.011040 
#    z -0.017430 0.011040 2.073870 
# 
# From -- ./inp_files/52957.got.cif
#   From: 2010.05.17/outbox.cif.g08.bks.cpg/sg2_27_cif.got.tgz:52957.got - 2010.06.03 11:33:40.
