data_PCOD9084772
_publ_section_title
;
Structure prediction by ZEFSAII (Michael W. Deem and Ramdas Pophale) SiO2 
 PCOD9084772
Probable space group: P -1
;
_chemical_formula_sum "Si O2"
_cell_formula_units_Z 16
_cell_length_a 11.073145
_cell_length_b 9.062170
_cell_length_c 15.647923
_cell_angle_alpha 82.773568
_cell_angle_beta 62.256314
_cell_angle_gamma 43.663604
_cell_volume 900.484848
_symmetry_space_group_name_H-M "P -1"
_symmetry_group_IT_number 2
_symmetry_cell_setting 'triclinic'
loop_
_space_group_symop_operation_xyz
x,y,z
-x,-y,-z
loop_
_atom_site_type_symbol
_atom_site_label
_atom_site_fract_x
_atom_site_fract_y
_atom_site_fract_z
Si Si1 0.053999 0.783169 0.167143
Si Si2 0.801508 0.099241 0.006707
Si Si3 0.719538 0.379247 0.579197
Si Si4 0.797869 0.976960 0.532430
Si Si5 0.113456 0.279000 0.926447
Si Si6 0.378607 0.432457 0.223162
Si Si7 0.503834 0.979821 0.704933
Si Si8 0.648435 0.098277 0.380988
O O1 0.180713 0.823771 0.091716
O O2 0.186530 0.595864 0.210324
O O3 0.017075 0.700990 0.105887
O O4 0.829113 0.012043 0.264104
O O5 0.588509 0.301908 0.113207
O O6 0.823118 0.903726 0.014699
O O7 0.000000 0.000000 0.000000
O O8 0.655093 0.431093 0.696096
O O9 0.548870 0.626246 0.571960
O O10 0.957046 0.244112 0.510968
O O11 0.732862 0.202082 0.552050
O O12 0.664509 0.978179 0.635876
O O13 0.745822 0.989542 0.449316
O O14 0.313359 0.175552 0.816467
O O15 0.000000 0.500000 0.000000
O O16 0.401139 0.249358 0.269180
O O17 0.420070 0.994895 0.638814
#
# Coordination Sequence:
#
# PCOD9084772 Si02
#       8
#     2   2   2   2   2   2   2   2
#     4  10  19  35  57  79 107 144 186 224 269 332
#     4   9  18  33  56  79 104 143 183 220 270 329
#     4  10  22  36  57  81 114 145 180 239 272 318
#     4  11  21  38  55  83 114 144 187 227 282 320
#     4   9  19  36  54  80 110 138 180 227 277 322
#     4  10  19  37  54  81 109 143 185 226 271 330
#     4   9  21  36  57  80 110 148 182 223 275 332
#     4  10  20  38  57  80 111 147 190 225 269 330
#
# _framework density 17.768204999999998
#
# number of rings (size 3 to 8) (size 9 to 14) (size 15 to 20)
#    0.000    2.250    1.250    3.375    0.000    5.000 
#    4.500    3.750    0.000    0.000    0.000    0.000 
#    0.000    0.000    0.000    0.000    0.000    0.000 
#
# Total GULP energy -89169.821470 kJ/mol
# GULP energy per Si atom -5573.113842 kJ/mol
# Density = 1.772776 g / cm^3
# Si number density = 17.768205 Si / 1000 Ang^3
#
#
#
# Elastic Constant Matrix: (Units=GPa)
#
#
# Indices 1 2 3 4 5 6 
#
# 1 65.2727 38.8729 51.1139 2.6261 -18.4566 -6.0992
# 2 38.8729 54.2248 48.4876 15.2048 -0.5345 -8.2947
# 3 51.1139 48.4876 100.2730 10.1312 -15.4960 11.2977
# 4 2.6261 15.2048 10.1312 32.9094 -2.0158 3.8922
# 5 -18.4566 -0.5345 -15.4960 -2.0158 34.9513 -4.2374
# 6 -6.0992 -8.2947 11.2977 3.8922 -4.2374 19.0801
#
#
#
# Elastic Compliance Matrix: (Units=1/GPa)
#
#
# Indices 1 2 3 4 5 6 
#
# 1 0.043314 -0.021573 -0.011066 0.009538 0.019820 0.013476
# 2 -0.021573 0.079985 -0.033216 -0.032132 -0.020749 0.049490
# 3 -0.011066 -0.033216 0.035994 0.010229 0.005323 -0.040195
# 4 0.009538 -0.032132 0.010229 0.044714 0.008730 -0.024159
# 5 0.019820 -0.020749 0.005323 0.008730 0.041827 0.001672
# 6 0.013476 0.049490 -0.040195 -0.024159 0.001672 0.107333
#
#
# Mechanical properties :
#
#
# Convention : Reuss Voigt Hill
#
# Bulk Modulus (GPa) = 36.25748 55.19106 45.72427
# Shear Modulus (GPa) = 10.12000 22.80788 16.46394
#
# Velocity S-wave (km/s) = 2.38913 3.58667 3.04731
# Velocity P-wave (km/s) = 5.29723 6.94848 6.17827
#
# Compressibility (1/GPa) = 0.02758051
#
# Stress axis : x y z
#
# Youngs Moduli (GPa) = 23.08722 12.50236 27.78274
#
# Poissons Ratio (x) = 0.26972 0.30745
# Poissons Ratio (y) = 0.49807 0.92284
# Poissons Ratio (z) = 0.25549 0.41528
#
# Static dielectric constant tensor:
#      x y z
#    x 1.599820 -0.021760 -0.011760 
#    y -0.021760 1.616110 -0.009800 
#    z -0.011760 -0.009800 1.619420 
# 
# From -- ./inp_files/189230.got.cif
#   From: 2010.05.17/outbox.cif.g08.bks.cpg/sg2_95_cif.got.tgz:189230.got - 2010.06.03 11:33:40.
