data_PCOD9084977
_publ_section_title
;
Structure prediction by ZEFSAII (Michael W. Deem and Ramdas Pophale) SiO2 
 PCOD9084977
Probable space group: P -1
;
_chemical_formula_sum "Si O2"
_cell_formula_units_Z 16
_cell_length_a 16.524003
_cell_length_b 7.196718
_cell_length_c 15.660883
_cell_angle_alpha 116.382357
_cell_angle_beta 27.543854
_cell_angle_gamma 103.136136
_cell_volume 706.270416
_symmetry_space_group_name_H-M "P -1"
_symmetry_group_IT_number 2
_symmetry_cell_setting 'triclinic'
loop_
_space_group_symop_operation_xyz
x,y,z
-x,-y,-z
loop_
_atom_site_type_symbol
_atom_site_label
_atom_site_fract_x
_atom_site_fract_y
_atom_site_fract_z
Si Si1 0.526207 0.743958 0.403140
Si Si2 0.528201 0.366085 0.766858
Si Si3 0.894898 0.362655 0.762330
Si Si4 0.093782 0.119143 0.308976
Si Si5 0.217371 0.412027 0.351582
Si Si6 0.138721 0.750538 0.790350
Si Si7 0.943705 0.426063 0.931830
Si Si8 0.081577 0.929708 0.698387
O O1 0.506531 0.687475 0.309871
O O2 0.353833 0.708361 0.602687
O O3 0.500000 0.000000 0.500000
O O4 0.737171 0.572461 0.192240
O O5 0.609196 0.557072 0.755574
O O6 0.723889 0.142514 0.554741
O O7 0.319017 0.453689 0.022608
O O8 0.923000 0.394162 0.842951
O O9 0.064690 0.390548 0.557516
O O10 0.902345 0.107368 0.696512
O O11 0.253215 0.199453 0.212560
O O12 0.899097 0.352946 0.544010
O O13 0.088808 0.068041 0.202209
O O14 0.073504 0.563165 0.847023
O O15 0.118093 0.759661 0.707898
O O16 0.000000 0.000000 0.000000
O O17 0.034074 0.174074 0.830553
#
# Coordination Sequence:
#
# PCOD9084977 Si02
#       8
#     2   2   2   2   2   2   2   2
#     4  10  19  36  55  83 112 140 185 231 271 329
#     4   9  20  36  56  81 112 146 185 231 273 327
#     4  10  19  35  58  82 110 151 187 220 279 327
#     4   9  19  35  57  83 113 147 185 228 273 331
#     4  10  19  37  57  81 116 147 183 232 275 320
#     4  11  21  37  60  82 108 147 185 224 281 331
#     4  10  20  37  59  79 113 151 179 227 279 327
#     4   9  20  39  56  81 115 145 184 229 276 329
#
# _framework density 22.654214
#
# number of rings (size 3 to 8) (size 9 to 14) (size 15 to 20)
#    0.000    2.250    1.250    2.625    0.000    1.000 
#    0.000   20.000    0.000    0.000    0.000    0.000 
#    0.000    0.000    0.000    0.000    0.000    0.000 
#
# Total GULP energy -89180.078691 kJ/mol
# GULP energy per Si atom -5573.754918 kJ/mol
# Density = 2.260265 g / cm^3
# Si number density = 22.654214 Si / 1000 Ang^3
#
#
#
# Elastic Constant Matrix: (Units=GPa)
#
#
# Indices 1 2 3 4 5 6 
#
# 1 91.2401 39.4291 20.2683 -5.2609 2.5342 25.2585
# 2 39.4291 151.6219 57.2615 5.5892 -13.0716 34.5705
# 3 20.2683 57.2615 95.4115 -12.4599 -6.5031 0.3986
# 4 -5.2609 5.5892 -12.4599 33.2770 8.3773 -4.6303
# 5 2.5342 -13.0716 -6.5031 8.3773 19.6682 2.2486
# 6 25.2585 34.5705 0.3986 -4.6303 2.2486 38.0950
#
#
#
# Elastic Compliance Matrix: (Units=1/GPa)
#
#
# Indices 1 2 3 4 5 6 
#
# 1 0.014426 -0.001482 -0.002177 0.001453 -0.003287 -0.007827
# 2 -0.001482 0.016094 -0.009913 -0.012589 0.014792 -0.015922
# 3 -0.002177 -0.009913 0.017875 0.011350 -0.006607 0.012022
# 4 0.001453 -0.012589 0.011350 0.045681 -0.026252 0.017444
# 5 -0.003287 0.014792 -0.006607 -0.026252 0.072224 -0.018628
# 6 -0.007827 -0.015922 0.012022 0.017444 -0.018628 0.048983
#
#
# Mechanical properties :
#
#
# Convention : Reuss Voigt Hill
#
# Bulk Modulus (GPa) = 47.05770 63.57683 55.31727
# Shear Modulus (GPa) = 20.03930 32.96235 26.50082
#
# Velocity S-wave (km/s) = 2.97740 3.81861 3.42394
# Velocity P-wave (km/s) = 5.71289 6.89691 6.33263
#
# Compressibility (1/GPa) = 0.02125051
#
# Stress axis : x y z
#
# Youngs Moduli (GPa) = 69.32027 62.13430 55.94536
#
# Poissons Ratio (x) = 0.09207 0.12178
# Poissons Ratio (y) = 0.10271 0.55461
# Poissons Ratio (z) = 0.15090 0.61597
#
# Static dielectric constant tensor:
#      x y z
#    x 1.963190 0.026180 0.016180 
#    y 0.026180 1.839350 0.007170 
#    z 0.016180 0.007170 1.857510 
# 
# From -- ./inp_files/601031.got.cif
#   From: 2010.05.17/outbox.cif.g08.bks.cpg/sg2_301_cif.got.tgz:601031.got - 2010.06.03 11:33:40.
