data_PCOD9084308
_publ_section_title
;
Structure prediction by ZEFSAII (Michael W. Deem and Ramdas Pophale) SiO2 
 PCOD9084308
Probable space group: P -1
;
_chemical_formula_sum "Si O2"
_cell_formula_units_Z 14
_cell_length_a 8.189552
_cell_length_b 13.831590
_cell_length_c 11.342485
_cell_angle_alpha 41.110191
_cell_angle_beta 49.630136
_cell_angle_gamma 68.802135
_cell_volume 622.781881
_symmetry_space_group_name_H-M "P -1"
_symmetry_group_IT_number 2
_symmetry_cell_setting 'triclinic'
loop_
_space_group_symop_operation_xyz
x,y,z
-x,-y,-z
loop_
_atom_site_type_symbol
_atom_site_label
_atom_site_fract_x
_atom_site_fract_y
_atom_site_fract_z
Si Si1 0.698172 0.135481 0.228206
Si Si2 0.080070 0.964035 0.156840
Si Si3 0.056189 0.587477 0.269057
Si Si4 0.033665 0.869770 0.514524
Si Si5 0.744076 0.578889 0.862889
Si Si6 0.280172 0.667936 0.731890
Si Si7 0.239863 0.232250 0.687748
O O1 0.750537 0.248709 0.209318
O O2 0.500000 0.000000 0.500000
O O3 0.885297 0.048888 0.192240
O O4 0.733113 0.262039 0.987810
O O5 0.156146 0.933868 0.278028
O O6 0.797484 0.760147 0.684299
O O7 0.958617 0.821331 0.265368
O O8 0.255365 0.080843 0.888363
O O9 0.092358 0.467302 0.266040
O O10 0.000000 0.500000 0.500000
O O11 0.841101 0.654088 0.291352
O O12 0.159615 0.752784 0.618449
O O13 0.000000 0.000000 0.500000
O O14 0.500000 0.500000 0.000000
O O15 0.779477 0.507061 0.039163
O O16 0.534840 0.699573 0.546063
#
# Coordination Sequence:
#
# PCOD9084308 Si02
#       7
#     2   2   2   2   2   2   2
#     4  10  19  34  62  94 128 174 229 275 326 400
#     4  10  20  38  61  95 133 174 220 281 330 394
#     4  10  21  37  62  94 131 169 223 284 336 393
#     4  12  25  41  68 100 138 172 227 280 344 403
#     4  11  25  45  71  97 131 178 235 277 331 410
#     4  11  22  40  64  96 133 177 218 280 342 401
#     4  10  21  39  66  93 135 175 227 276 334 397
#
# _framework density 22.479780999999999
#
# number of rings (size 3 to 8) (size 9 to 14) (size 15 to 20)
#    0.000    1.429    2.857    3.000    2.000    0.571 
#    0.000    0.714    3.143    0.000    0.000    0.000 
#    0.000    0.000    0.000    0.000    0.000    0.000 
#
# Total GULP energy -78013.236174 kJ/mol
# GULP energy per Si atom -5572.374012 kJ/mol
# Density = 2.242862 g / cm^3
# Si number density = 22.479781 Si / 1000 Ang^3
#
#
#
# Elastic Constant Matrix: (Units=GPa)
#
#
# Indices 1 2 3 4 5 6 
#
# 1 38.6236 15.3556 30.5653 -1.4858 16.7444 5.7841
# 2 15.3556 106.9511 26.1636 4.7894 -12.9069 11.4417
# 3 30.5653 26.1636 193.4649 -2.0862 26.5666 10.4060
# 4 -1.4858 4.7894 -2.0862 44.8382 0.3136 -0.1897
# 5 16.7444 -12.9069 26.5666 0.3136 37.1272 -3.3416
# 6 5.7841 11.4417 10.4060 -0.1897 -3.3416 23.3053
#
#
#
# Elastic Compliance Matrix: (Units=1/GPa)
#
#
# Indices 1 2 3 4 5 6 
#
# 1 0.040254 -0.006788 -0.002264 0.002055 -0.019673 -0.008452
# 2 -0.006788 0.012018 -0.001564 -0.001649 0.008160 -0.002361
# 3 -0.002264 -0.001564 0.006455 0.000414 -0.004341 -0.002172
# 4 0.002055 -0.001649 0.000414 0.022580 -0.001986 0.000014
# 5 -0.019673 0.008160 -0.004341 -0.001986 0.042568 0.008902
# 6 -0.008452 -0.002361 -0.002172 0.000014 0.008902 0.048411
#
#
# Mechanical properties :
#
#
# Convention : Reuss Voigt Hill
#
# Bulk Modulus (GPa) = 26.66893 53.68984 40.17938
# Shear Modulus (GPa) = 24.26978 38.85116 31.56047
#
# Velocity S-wave (km/s) = 3.28933 4.16176 3.75100
# Velocity P-wave (km/s) = 5.12987 6.85778 6.05577
#
# Compressibility (1/GPa) = 0.03749682
#
# Stress axis : x y z
#
# Youngs Moduli (GPa) = 24.84215 83.20540 154.90763
#
# Poissons Ratio (x) = 0.56478 0.35064
# Poissons Ratio (y) = 0.16862 0.24232
# Poissons Ratio (z) = 0.05623 0.13016
#
# Static dielectric constant tensor:
#      x y z
#    x 1.958060 0.012740 0.005280 
#    y 0.012740 1.835200 -0.081560 
#    z 0.005280 -0.081560 1.946190 
# 
# From -- ./inp_files/402634.got.cif
#   From: 2010.05.17/outbox.cif.g08.bks.cpg/sg2_202_cif.got.tgz:402634.got - 2010.06.03 11:33:40.
