data_PCOD9084601
_publ_section_title
;
Structure prediction by ZEFSAII (Michael W. Deem and Ramdas Pophale) SiO2 
 PCOD9084601
Probable space group: P -1
;
_chemical_formula_sum "Si O2"
_cell_formula_units_Z 16
_cell_length_a 23.884305
_cell_length_b 20.096005
_cell_length_c 9.184820
_cell_angle_alpha 153.188526
_cell_angle_beta 152.571614
_cell_angle_gamma 20.226598
_cell_volume 650.999907
_symmetry_space_group_name_H-M "P -1"
_symmetry_group_IT_number 2
_symmetry_cell_setting 'triclinic'
loop_
_space_group_symop_operation_xyz
x,y,z
-x,-y,-z
loop_
_atom_site_type_symbol
_atom_site_label
_atom_site_fract_x
_atom_site_fract_y
_atom_site_fract_z
Si Si1 0.047311 0.656611 0.096438
Si Si2 0.654136 0.189234 0.537428
Si Si3 0.460979 0.766615 0.325951
Si Si4 0.438556 0.162765 0.553812
Si Si5 0.958257 0.464053 0.677115
Si Si6 0.286226 0.912293 0.824136
Si Si7 0.313184 0.640788 0.545795
Si Si8 0.849316 0.301547 0.277240
O O1 0.190675 0.608248 0.234437
O O2 0.066763 0.731533 0.439331
O O3 0.860450 0.859462 0.000365
O O4 0.061510 0.471823 0.811660
O O5 0.586192 0.177641 0.505898
O O6 0.705051 0.044583 0.238501
O O7 0.502027 0.412706 0.547482
O O8 0.807605 0.169074 0.888094
O O9 0.475080 0.907006 0.542517
O O10 0.655142 0.536631 0.308350
O O11 0.328956 0.758434 0.935678
O O12 0.238127 0.337559 0.425999
O O13 0.500000 0.000000 0.500000
O O14 0.525631 0.236353 0.961926
O O15 0.954043 0.294674 0.376894
O O16 0.000000 0.500000 0.000000
O O17 0.245731 0.778895 0.514221
#
# Coordination Sequence:
#
# PCOD9084601 Si02
#       8
#     2   2   2   2   2   2   2   2
#     4  11  18  34  55  84 111 144 198 230 276 340
#     4  11  19  37  57  84 114 147 192 237 286 337
#     4   9  17  33  60  80 101 154 201 224 266 341
#     4  10  19  38  57  82 117 149 191 230 281 347
#     4   9  19  32  59  86 102 148 202 234 259 331
#     4  11  24  32  56  89 116 146 179 246 305 325
#     4  10  19  35  55  81 111 149 194 234 277 340
#     4   9  17  33  58  81 107 148 199 231 260 339
#
# _framework density 24.577576000000001
#
# number of rings (size 3 to 8) (size 9 to 14) (size 15 to 20)
#    0.000    2.000    3.750    2.250    0.000    0.500 
#    0.000    0.625    0.000    3.000    0.000    0.000 
#    0.000    0.000    0.000    0.000    0.000    0.000 
#
# Total GULP energy -89210.272885 kJ/mol
# GULP energy per Si atom -5575.642055 kJ/mol
# Density = 2.452164 g / cm^3
# Si number density = 24.577576 Si / 1000 Ang^3
#
#
#
# Elastic Constant Matrix: (Units=GPa)
#
#
# Indices 1 2 3 4 5 6 
#
# 1 107.2114 8.1157 12.5660 10.0523 24.1024 23.9290
# 2 8.1157 63.5439 10.8113 -15.1325 3.0714 14.2482
# 3 12.5660 10.8113 60.7782 -17.0867 18.1224 -2.1588
# 4 10.0523 -15.1325 -17.0867 32.3589 11.6626 7.3810
# 5 24.1024 3.0714 18.1224 11.6626 42.0539 3.4546
# 6 23.9290 14.2482 -2.1588 7.3810 3.4546 30.3812
#
#
#
# Elastic Compliance Matrix: (Units=1/GPa)
#
#
# Indices 1 2 3 4 5 6 
#
# 1 0.013075 0.001319 -0.001261 0.000552 -0.006344 -0.010419
# 2 0.001319 0.023109 0.002034 0.017423 -0.006905 -0.015180
# 3 -0.001261 0.002034 0.028005 0.022858 -0.017709 -0.001510
# 4 0.000552 0.017423 0.022858 0.065537 -0.027994 -0.019720
# 5 -0.006344 -0.006905 -0.017709 -0.027994 0.042580 0.008936
# 6 -0.010419 -0.015180 -0.001510 -0.019720 0.008936 0.051908
#
#
# Mechanical properties :
#
#
# Convention : Reuss Voigt Hill
#
# Bulk Modulus (GPa) = 14.62553 32.72440 23.67497
# Shear Modulus (GPa) = 20.59129 34.29483 27.44306
#
# Velocity S-wave (km/s) = 2.89763 3.73952 3.34517
# Velocity P-wave (km/s) = 4.14231 5.65588 4.95720
#
# Compressibility (1/GPa) = 0.06837357
#
# Stress axis : x y z
#
# Youngs Moduli (GPa) = 76.47995 43.27312 35.70803
#
# Poissons Ratio (x) = -0.05708 0.04504
# Poissons Ratio (y) = -0.10088 -0.07265
# Poissons Ratio (z) = 0.09647 -0.08804
#
# Static dielectric constant tensor:
#      x y z
#    x 2.051740 0.061610 0.039500 
#    y 0.061610 1.980790 0.007940 
#    z 0.039500 0.007940 2.021710 
# 
# From -- ./inp_files/237853.got.cif
#   From: 2010.05.17/outbox.cif.g08.bks.cpg/sg2_119_cif.got.tgz:237853.got - 2010.06.03 11:33:40.
