data_PCOD9084550
_publ_section_title
;
Structure prediction by ZEFSAII (Michael W. Deem and Ramdas Pophale) SiO2 
 PCOD9084550
Probable space group: P -1
;
_chemical_formula_sum "Si O2"
_cell_formula_units_Z 16
_cell_length_a 15.412868
_cell_length_b 12.685259
_cell_length_c 10.076953
_cell_angle_alpha 117.660199
_cell_angle_beta 67.535581
_cell_angle_gamma 58.736085
_cell_volume 847.475813
_symmetry_space_group_name_H-M "P -1"
_symmetry_group_IT_number 2
_symmetry_cell_setting 'triclinic'
loop_
_space_group_symop_operation_xyz
x,y,z
-x,-y,-z
loop_
_atom_site_type_symbol
_atom_site_label
_atom_site_fract_x
_atom_site_fract_y
_atom_site_fract_z
Si Si1 0.132167 0.648391 0.939593
Si Si2 0.572199 0.258070 0.049980
Si Si3 0.323281 0.850655 0.789823
Si Si4 0.300247 0.265670 0.782870
Si Si5 0.799511 0.235646 0.805951
Si Si6 0.294503 0.621810 0.631520
Si Si7 0.431913 0.313394 0.910557
Si Si8 0.765514 0.924272 0.290390
O O1 0.251874 0.407770 0.775678
O O2 0.163019 0.660565 0.779093
O O3 0.179758 0.707655 0.040385
O O4 0.930825 0.824236 0.183309
O O5 0.679004 0.103024 0.029720
O O6 0.386353 0.509127 0.368441
O O7 0.690407 0.233555 0.899586
O O8 0.519225 0.218291 0.948796
O O9 0.225152 0.829594 0.816791
O O10 0.532014 0.588134 0.497571
O O11 0.273955 0.995506 0.790608
O O12 0.303700 0.343008 0.958412
O O13 0.187721 0.266247 0.845910
O O14 0.500000 0.000000 0.500000
O O15 0.681633 0.443811 0.898003
O O16 0.000000 0.000000 0.500000
O O17 0.593616 0.137492 0.606478
#
# Coordination Sequence:
#
# PCOD9084550 Si02
#       8
#     2   2   2   2   2   2   2   2
#     4  11  20  35  57  89 113 144 192 234 274 339
#     4  10  19  35  54  82 115 151 177 227 282 341
#     4   9  18  34  54  79 114 149 182 219 279 338
#     4   9  20  37  61  80 108 145 199 242 275 318
#     4  11  21  35  54  86 118 147 183 235 280 337
#     4   9  17  34  55  77 118 148 185 218 282 336
#     4  10  21  37  58  80 111 149 193 228 288 328
#     4  11  21  36  60  85 108 151 192 240 278 325
#
# _framework density 18.879594999999998
#
# number of rings (size 3 to 8) (size 9 to 14) (size 15 to 20)
#    0.750    1.250    1.250    4.500    0.000    1.500 
#    2.250    0.625    0.000    0.750    0.000    0.000 
#    0.000    0.000    0.000    0.000    0.000    0.000 
#
# Total GULP energy -89092.830401 kJ/mol
# GULP energy per Si atom -5568.301900 kJ/mol
# Density = 1.883662 g / cm^3
# Si number density = 18.879595 Si / 1000 Ang^3
#
#
#
# Elastic Constant Matrix: (Units=GPa)
#
#
# Indices 1 2 3 4 5 6 
#
# 1 63.0920 22.8351 8.9692 -12.3429 -0.1964 1.5838
# 2 22.8351 76.8431 35.6099 -6.5707 13.5588 0.8305
# 3 8.9692 35.6099 63.8860 -1.4703 -5.2859 5.8143
# 4 -12.3429 -6.5707 -1.4703 22.0117 -2.9828 -0.8555
# 5 -0.1964 13.5588 -5.2859 -2.9828 21.4909 -6.7580
# 6 1.5838 0.8305 5.8143 -0.8555 -6.7580 28.8493
#
#
#
# Elastic Compliance Matrix: (Units=1/GPa)
#
#
# Indices 1 2 3 4 5 6 
#
# 1 0.020207 -0.007248 0.001950 0.010250 0.006853 0.000616
# 2 -0.007248 0.025668 -0.014803 -0.000272 -0.020630 -0.002198
# 3 0.001950 -0.014803 0.025000 0.000359 0.015194 -0.001149
# 4 0.010250 -0.000272 0.000359 0.052393 0.008546 0.002928
# 5 0.006853 -0.020630 0.015194 0.008546 0.068785 0.013522
# 6 0.000616 -0.002198 -0.001149 0.002928 0.013522 0.038178
#
#
# Mechanical properties :
#
#
# Convention : Reuss Voigt Hill
#
# Bulk Modulus (GPa) = 32.60125 37.62771 35.11448
# Shear Modulus (GPa) = 17.81533 23.56418 20.68975
#
# Velocity S-wave (km/s) = 3.07519 3.53672 3.31400
# Velocity P-wave (km/s) = 5.46941 6.05405 5.76914
#
# Compressibility (1/GPa) = 0.03067367
#
# Stress axis : x y z
#
# Youngs Moduli (GPa) = 49.48761 38.95938 39.99969
#
# Poissons Ratio (x) = 0.28237 -0.07800
# Poissons Ratio (y) = 0.35868 0.59210
# Poissons Ratio (z) = -0.09650 0.57671
#
# Static dielectric constant tensor:
#      x y z
#    x 1.712040 0.001170 -0.021870 
#    y 0.001170 1.674720 -0.018160 
#    z -0.021870 -0.018160 1.662690 
# 
# From -- ./inp_files/450500.got.cif
#   From: 2010.05.17/outbox.cif.g08.bks.cpg/sg2_226_cif.got.tgz:450500.got - 2010.06.03 11:33:40.
