data_PCOD9084121
_publ_section_title
;
Structure prediction by ZEFSAII (Michael W. Deem and Ramdas Pophale) SiO2 
 PCOD9084121
Probable space group: P -1
;
_chemical_formula_sum "Si O2"
_cell_formula_units_Z 16
_cell_length_a 12.793148
_cell_length_b 19.626132
_cell_length_c 8.529825
_cell_angle_alpha 83.418083
_cell_angle_beta 121.812546
_cell_angle_gamma 43.897005
_cell_volume 686.192553
_symmetry_space_group_name_H-M "P -1"
_symmetry_group_IT_number 2
_symmetry_cell_setting 'triclinic'
loop_
_space_group_symop_operation_xyz
x,y,z
-x,-y,-z
loop_
_atom_site_type_symbol
_atom_site_label
_atom_site_fract_x
_atom_site_fract_y
_atom_site_fract_z
Si Si1 0.625629 0.215720 0.652360
Si Si2 0.717225 0.917168 0.557966
Si Si3 0.422993 0.963842 0.889452
Si Si4 0.426434 0.754789 0.735477
Si Si5 0.356592 0.860654 0.989412
Si Si6 0.763330 0.303946 0.744553
Si Si7 0.835837 0.408982 0.195832
Si Si8 0.832151 0.315035 0.467446
O O1 0.490094 0.257494 0.367886
O O2 0.614805 0.304572 0.612485
O O3 0.513143 0.245633 0.725217
O O4 0.000000 0.000000 0.000000
O O5 0.514412 0.068186 0.236222
O O6 0.872098 0.771690 0.628228
O O7 0.500000 0.000000 0.500000
O O8 0.998272 0.816430 0.888268
O O9 0.028463 0.168662 0.535203
O O10 0.515398 0.854145 0.102088
O O11 0.500000 0.000000 0.000000
O O12 0.433161 0.790892 0.896221
O O13 0.686185 0.559949 0.011873
O O14 0.040579 0.933222 0.367487
O O15 0.500000 0.500000 0.500000
O O16 0.951169 0.229838 0.753805
O O17 0.876516 0.369167 0.423643
O O18 0.539406 0.513013 0.878748
#
# Coordination Sequence:
#
# PCOD9084121 Si02
#       8
#     2   2   2   2   2   2   2   2
#     4  10  21  35  55  94 137 167 204 277 334 384
#     4  11  25  39  62  97 130 172 222 270 329 400
#     4  11  23  43  63  90 131 174 216 268 330 396
#     4  10  19  36  59  96 133 164 214 271 335 391
#     4  10  22  34  63  95 127 172 217 269 334 398
#     4  12  22  36  62 102 133 165 221 272 330 392
#     4  10  19  36  60  91 130 169 209 277 325 376
#     4  10  19  34  60  90 128 159 212 265 322 376
#
# _framework density 23.317070000000001
#
# number of rings (size 3 to 8) (size 9 to 14) (size 15 to 20)
#    0.000    1.500    3.750    1.500    7.000    0.000 
#    0.000    0.000    0.000    3.750    3.250    0.000 
#    0.000    0.000    0.000    0.000    0.000    0.000 
#
# Total GULP energy -89171.951129 kJ/mol
# GULP energy per Si atom -5573.246946 kJ/mol
# Density = 2.326400 g / cm^3
# Si number density = 23.317070 Si / 1000 Ang^3
#
#
#
# Elastic Constant Matrix: (Units=GPa)
#
#
# Indices 1 2 3 4 5 6 
#
# 1 143.9071 58.6817 31.2983 19.6210 -45.9859 -12.7151
# 2 58.6817 98.8653 21.5316 12.3280 -16.1983 -10.5788
# 3 31.2983 21.5316 59.2328 18.5008 -32.9129 -6.2118
# 4 19.6210 12.3280 18.5008 43.8623 -11.4321 -11.2964
# 5 -45.9859 -16.1983 -32.9129 -11.4321 47.5160 5.2308
# 6 -12.7151 -10.5788 -6.2118 -11.2964 5.2308 28.6583
#
#
#
# Elastic Compliance Matrix: (Units=1/GPa)
#
#
# Indices 1 2 3 4 5 6 
#
# 1 0.012892 -0.005935 0.002488 -0.001804 0.011607 0.001239
# 2 -0.005935 0.014112 -0.003893 -0.000066 -0.003912 0.002420
# 3 0.002488 -0.003893 0.030807 -0.007766 0.020604 -0.000477
# 4 -0.001804 -0.000066 -0.007766 0.028937 -0.001189 0.009115
# 5 0.011607 -0.003912 0.020604 -0.001189 0.044987 -0.000508
# 6 0.001239 0.002420 -0.000477 0.009115 -0.000508 0.039919
#
#
# Mechanical properties :
#
#
# Convention : Reuss Voigt Hill
#
# Bulk Modulus (GPa) = 23.18509 58.33650 40.76079
# Shear Modulus (GPa) = 24.91133 36.70691 30.80912
#
# Velocity S-wave (km/s) = 3.27214 3.97199 3.63893
# Velocity P-wave (km/s) = 4.92350 6.79034 5.93083
#
# Compressibility (1/GPa) = 0.04313118
#
# Stress axis : x y z
#
# Youngs Moduli (GPa) = 77.56511 70.86412 32.45979
#
# Poissons Ratio (x) = 0.42057 -0.08076
# Poissons Ratio (y) = 0.46034 0.12637
# Poissons Ratio (z) = -0.19298 0.27588
#
# Static dielectric constant tensor:
#      x y z
#    x 2.008530 -0.065450 0.031240 
#    y -0.065450 1.961340 0.004760 
#    z 0.031240 0.004760 2.024320 
# 
# From -- ./inp_files/277872.got.cif
#   From: 2010.05.17/outbox.cif.g08.bks.cpg/sg2_139_cif.got.tgz:277872.got - 2010.06.03 11:33:40.
