data_PCOD9084865
_publ_section_title
;
Structure prediction by ZEFSAII (Michael W. Deem and Ramdas Pophale) SiO2 
 PCOD9084865
Probable space group: P -1
;
_chemical_formula_sum "Si O2"
_cell_formula_units_Z 16
_cell_length_a 8.925418
_cell_length_b 8.371260
_cell_length_c 17.928932
_cell_angle_alpha 103.850682
_cell_angle_beta 129.695634
_cell_angle_gamma 107.998326
_cell_volume 786.580463
_symmetry_space_group_name_H-M "P -1"
_symmetry_group_IT_number 2
_symmetry_cell_setting 'triclinic'
loop_
_space_group_symop_operation_xyz
x,y,z
-x,-y,-z
loop_
_atom_site_type_symbol
_atom_site_label
_atom_site_fract_x
_atom_site_fract_y
_atom_site_fract_z
Si Si1 0.354410 0.382012 0.204696
Si Si2 0.469774 0.310032 0.567468
Si Si3 0.118316 0.345344 0.359229
Si Si4 0.411466 0.367009 0.841552
Si Si5 0.160215 0.550894 0.630156
Si Si6 0.607300 0.312229 0.045360
Si Si7 0.110924 0.880234 0.883407
Si Si8 0.971511 0.100886 0.574487
O O1 0.431546 0.562359 0.309696
O O2 0.406748 0.481298 0.150516
O O3 0.551022 0.337865 0.275911
O O4 0.077141 0.187284 0.116502
O O5 0.273302 0.335580 0.471436
O O6 0.695428 0.426048 0.594573
O O7 0.306361 0.064819 0.502945
O O8 0.886863 0.320758 0.316313
O O9 0.039176 0.183018 0.249276
O O10 0.313426 0.481503 0.863748
O O11 0.177265 0.154926 0.706293
O O12 0.543103 0.328806 0.942206
O O13 0.000000 0.500000 0.500000
O O14 0.048066 0.324722 0.602983
O O15 0.797083 0.260996 0.101164
O O16 0.354094 0.118140 0.982555
O O17 0.000000 0.000000 0.500000
#
# Coordination Sequence:
#
# PCOD9084865 Si02
#       8
#     2   2   2   2   2   2   2   2
#     4  10  20  36  61  84 118 151 191 242 289 342
#     4  10  19  35  57  86 117 153 188 230 297 359
#     4  10  20  35  58  84 118 152 188 240 290 351
#     4  10  21  38  61  84 119 153 189 246 289 342
#     4  11  20  34  54  82 121 154 188 233 289 348
#     4  10  22  40  60  85 113 157 199 239 291 334
#     4  10  21  38  62  84 111 155 202 238 285 347
#     4  11  19  34  60  85 115 152 186 235 292 351
#
# _framework density 20.341211999999999
#
# number of rings (size 3 to 8) (size 9 to 14) (size 15 to 20)
#    0.000    1.750    3.750    2.250    0.000    1.500 
#    0.000    0.000    5.500    0.000    0.000    0.000 
#    0.000    0.000    0.000    0.000    0.000    0.000 
#
# Total GULP energy -89354.924504 kJ/mol
# GULP energy per Si atom -5584.682782 kJ/mol
# Density = 2.029491 g / cm^3
# Si number density = 20.341212 Si / 1000 Ang^3
#
#
#
# Elastic Constant Matrix: (Units=GPa)
#
#
# Indices 1 2 3 4 5 6 
#
# 1 80.1664 15.1277 23.8474 -0.9181 15.8955 17.0698
# 2 15.1277 41.8606 17.4444 -14.5999 4.5840 11.0433
# 3 23.8474 17.4444 76.6244 -10.3000 -6.7465 8.3086
# 4 -0.9181 -14.5999 -10.3000 33.1601 7.8868 -0.9570
# 5 15.8955 4.5840 -6.7465 7.8868 38.5252 6.9232
# 6 17.0698 11.0433 8.3086 -0.9570 6.9232 26.8520
#
#
#
# Elastic Compliance Matrix: (Units=1/GPa)
#
#
# Indices 1 2 3 4 5 6 
#
# 1 0.016936 -0.001808 -0.004722 -0.000510 -0.006242 -0.006970
# 2 -0.001808 0.034915 -0.004818 0.014862 -0.005540 -0.009761
# 3 -0.004722 -0.004818 0.016450 0.001546 0.005343 -0.001430
# 4 -0.000510 0.014862 0.001546 0.039196 -0.008846 -0.002589
# 5 -0.006242 -0.005540 0.005343 -0.008846 0.032684 -0.004148
# 6 -0.006970 -0.009761 -0.001430 -0.002589 -0.004148 0.047106
#
#
# Mechanical properties :
#
#
# Convention : Reuss Voigt Hill
#
# Bulk Modulus (GPa) = 21.92684 34.61003 28.26843
# Shear Modulus (GPa) = 22.20403 29.18957 25.69680
#
# Velocity S-wave (km/s) = 3.30749 3.79224 3.55813
# Velocity P-wave (km/s) = 5.03874 6.01885 5.55047
#
# Compressibility (1/GPa) = 0.04560621
#
# Stress axis : x y z
#
# Youngs Moduli (GPa) = 59.04608 28.64075 60.78971
#
# Poissons Ratio (x) = 0.05179 0.28702
# Poissons Ratio (y) = 0.10677 0.29286
# Poissons Ratio (z) = 0.27879 0.13798
#
# Static dielectric constant tensor:
#      x y z
#    x 1.718750 0.021830 0.000770 
#    y 0.021830 1.734680 -0.006210 
#    z 0.000770 -0.006210 1.749620 
# 
# From -- ./inp_files/298269.got.cif
#   From: 2010.05.17/outbox.cif.g08.bks.cpg/sg2_150_cif.got.tgz:298269.got - 2010.06.03 11:33:40.
