data_PCOD9084237
_publ_section_title
;
Structure prediction by ZEFSAII (Michael W. Deem and Ramdas Pophale) SiO2 
 PCOD9084237
Probable space group: P -1
;
_chemical_formula_sum "Si O2"
_cell_formula_units_Z 15
_cell_length_a 9.811823
_cell_length_b 9.764483
_cell_length_c 19.550175
_cell_angle_alpha 50.493992
_cell_angle_beta 121.381866
_cell_angle_gamma 78.215607
_cell_volume 718.409412
_symmetry_space_group_name_H-M "P -1"
_symmetry_group_IT_number 2
_symmetry_cell_setting 'triclinic'
loop_
_space_group_symop_operation_xyz
x,y,z
-x,-y,-z
loop_
_atom_site_type_symbol
_atom_site_label
_atom_site_fract_x
_atom_site_fract_y
_atom_site_fract_z
Si Si1 0.144173 0.049330 0.089246
Si Si2 0.423439 0.811813 0.732283
Si Si3 0.784570 0.904650 0.627767
Si Si4 0.185176 0.743284 0.321592
Si Si5 0.000000 0.500000 0.000000
Si Si6 0.200308 0.802444 0.798802
Si Si7 0.315777 0.236334 0.481255
Si Si8 0.428568 0.509951 0.260342
O O1 0.107870 0.934640 0.176107
O O2 0.392785 0.739898 0.207771
O O3 0.164680 0.218821 0.078154
O O4 0.879276 0.286751 0.895374
O O5 0.733235 0.596412 0.899701
O O6 0.238707 0.904596 0.714968
O O7 0.441412 0.643844 0.731140
O O8 0.284768 0.108413 0.567302
O O9 0.647828 0.967390 0.643607
O O10 0.592189 0.236797 0.442525
O O11 0.774371 0.756372 0.618114
O O12 0.077224 0.725670 0.767989
O O13 0.500000 0.500000 0.500000
O O14 0.175084 0.545467 0.364260
O O15 0.997524 0.954461 0.270050
O O16 0.500000 0.500000 0.000000
#
# Coordination Sequence:
#
# PCOD9084237 Si02
#       8
#     2   2   2   2   1   2   2   2
#     4  10  19  34  61  97 122 168 219 276 315 381
#     4  10  23  38  61  94 128 172 214 271 330 384
#     4  10  21  41  66  95 129 171 220 271 330 387
#     4  12  22  41  68  96 136 176 223 266 331 406
#     4  10  20  36  58  90 132 164 216 260 328 394
#     4  12  26  43  63  97 139 176 215 275 342 394
#     4  10  21  39  68  96 122 172 229 269 311 400
#     4   9  18  37  60  91 122 164 217 268 317 390
#
# _framework density 20.879462
#
# number of rings (size 3 to 8) (size 9 to 14) (size 15 to 20)
#    0.000    1.600    2.667    2.400    1.867    2.667 
#    0.000    2.000    0.000    0.000    0.000    0.000 
#    0.000    0.000    0.000    0.000    0.000    0.000 
#
# Total GULP energy -83564.788701 kJ/mol
# GULP energy per Si atom -5570.985913 kJ/mol
# Density = 2.083194 g / cm^3
# Si number density = 20.879462 Si / 1000 Ang^3
#
#
#
# Elastic Constant Matrix: (Units=GPa)
#
#
# Indices 1 2 3 4 5 6 
#
# 1 107.2660 32.5957 23.9474 7.0864 6.6143 -17.7144
# 2 32.5957 170.5200 28.6207 -18.7682 5.7930 9.2133
# 3 23.9474 28.6207 59.2990 -8.5307 4.6631 -0.9830
# 4 7.0864 -18.7682 -8.5307 25.3502 2.7016 0.4595
# 5 6.6143 5.7930 4.6631 2.7016 27.2647 -0.8787
# 6 -17.7144 9.2133 -0.9830 0.4595 -0.8787 30.6669
#
#
#
# Elastic Compliance Matrix: (Units=1/GPa)
#
#
# Indices 1 2 3 4 5 6 
#
# 1 0.013260 -0.003002 -0.004804 -0.007622 -0.000728 0.008500
# 2 -0.003002 0.007657 -0.001551 0.006210 -0.001385 -0.004217
# 3 -0.004804 -0.001551 0.020834 0.007545 -0.002875 -0.001837
# 4 -0.007622 0.006210 0.007545 0.049468 -0.005886 -0.006937
# 5 -0.000728 -0.001385 -0.002875 -0.005886 0.038258 0.001088
# 6 0.008500 -0.004217 -0.001837 -0.006937 0.001088 0.038862
#
#
# Mechanical properties :
#
#
# Convention : Reuss Voigt Hill
#
# Bulk Modulus (GPa) = 43.41064 56.37919 49.89491
# Shear Modulus (GPa) = 25.67645 33.45110 29.56377
#
# Velocity S-wave (km/s) = 3.51058 4.00697 3.76696
# Velocity P-wave (km/s) = 6.10479 6.96194 6.54741
#
# Compressibility (1/GPa) = 0.02303583
#
# Stress axis : x y z
#
# Youngs Moduli (GPa) = 75.41694 130.60072 47.99948
#
# Poissons Ratio (x) = 0.39203 0.23061
# Poissons Ratio (y) = 0.22638 0.07445
# Poissons Ratio (z) = 0.36233 0.20257
#
# Static dielectric constant tensor:
#      x y z
#    x 1.754330 -0.011280 -0.064420 
#    y -0.011280 1.785000 -0.004410 
#    z -0.064420 -0.004410 1.886010 
# 
# From -- ./inp_files/587239.got.cif
#   From: 2010.05.17/outbox.cif.g08.bks.cpg/sg2_294_cif.got.tgz:587239.got - 2010.06.03 11:33:40.
