data_PCOD9084940
_publ_section_title
;
Structure prediction by ZEFSAII (Michael W. Deem and Ramdas Pophale) SiO2 
 PCOD9084940
Probable space group: P -1
;
_chemical_formula_sum "Si O2"
_cell_formula_units_Z 14
_cell_length_a 10.169175
_cell_length_b 12.447833
_cell_length_c 9.936840
_cell_angle_alpha 145.931389
_cell_angle_beta 78.843542
_cell_angle_gamma 82.443614
_cell_volume 585.841684
_symmetry_space_group_name_H-M "P -1"
_symmetry_group_IT_number 2
_symmetry_cell_setting 'triclinic'
loop_
_space_group_symop_operation_xyz
x,y,z
-x,-y,-z
loop_
_atom_site_type_symbol
_atom_site_label
_atom_site_fract_x
_atom_site_fract_y
_atom_site_fract_z
Si Si1 0.414250 0.296650 0.750108
Si Si2 0.696551 0.946563 0.137678
Si Si3 0.786688 0.807118 0.471630
Si Si4 0.414822 0.684690 0.009728
Si Si5 0.717695 0.342043 0.443148
Si Si6 0.735567 0.664086 0.601545
Si Si7 0.062551 0.538027 0.317098
O O1 0.275367 0.250358 0.708373
O O2 0.475023 0.278107 0.869854
O O3 0.565709 0.116365 0.445311
O O4 0.358856 0.545157 0.962939
O O5 0.748815 0.094900 0.197640
O O6 0.641151 0.835753 0.919625
O O7 0.835582 0.731809 0.966418
O O8 0.695481 0.753698 0.551681
O O9 0.969950 0.650669 0.313157
O O10 0.722306 0.071684 0.760144
O O11 0.534700 0.516702 0.699439
O O12 0.744300 0.432716 0.391898
O O13 0.829706 0.370713 0.556314
O O14 0.910081 0.623837 0.532203
#
# Coordination Sequence:
#
# PCOD9084940 Si02
#       7
#     2   2   2   2   2   2   2
#     4  10  22  39  57  77 103 141 184 220 261 312
#     4  10  19  35  58  78 106 145 177 212 259 314
#     4  10  21  36  55  78 112 142 164 224 271 306
#     4  10  22  39  57  77 103 141 184 220 261 312
#     4  10  19  35  58  78 106 145 177 212 259 314
#     4   9  21  34  51  85 111 137 173 213 263 321
#     4   9  21  35  51  83 113 135 176 213 261 321
#
# _framework density 23.897241000000001
#
# number of rings (size 3 to 8) (size 9 to 14) (size 15 to 20)
#    0.857    1.429    0.000    3.857    0.000    6.857 
#    0.000    5.714    0.000    5.143    0.000    0.000 
#    0.000    0.000    0.000    0.000    0.000    0.000 
#
# Total GULP energy -78190.055778 kJ/mol
# GULP energy per Si atom -5585.003984 kJ/mol
# Density = 2.384285 g / cm^3
# Si number density = 23.897241 Si / 1000 Ang^3
#
#
#
# Elastic Constant Matrix: (Units=GPa)
#
#
# Indices 1 2 3 4 5 6 
#
# 1 57.3003 11.1984 25.7676 22.3105 3.0356 -8.5624
# 2 11.1984 95.8305 49.9780 30.0776 4.8584 4.1447
# 3 25.7676 49.9780 113.6975 42.4065 -2.1028 -5.6222
# 4 22.3105 30.0776 42.4065 56.5457 12.1133 2.4921
# 5 3.0356 4.8584 -2.1028 12.1133 35.5610 6.9507
# 6 -8.5624 4.1447 -5.6222 2.4921 6.9507 36.8565
#
#
#
# Elastic Compliance Matrix: (Units=1/GPa)
#
#
# Indices 1 2 3 4 5 6 
#
# 1 0.022082 0.000772 -0.002292 -0.007509 -0.000607 0.005316
# 2 0.000772 0.014353 -0.005149 -0.003856 -0.000659 -0.001835
# 3 -0.002292 -0.005149 0.014967 -0.008596 0.004302 0.002100
# 4 -0.007509 -0.003856 -0.008596 0.031294 -0.009421 -0.002961
# 5 -0.000607 -0.000659 0.004302 -0.009421 0.032692 -0.004939
# 6 0.005316 -0.001835 0.002100 -0.002961 -0.004939 0.030026
#
#
# Mechanical properties :
#
#
# Convention : Reuss Voigt Hill
#
# Bulk Modulus (GPa) = 26.27043 48.96847 37.61945
# Shear Modulus (GPa) = 29.16499 37.78492 33.47496
#
# Velocity S-wave (km/s) = 3.49726 3.98067 3.74677
# Velocity P-wave (km/s) = 5.22730 6.45472 5.87316
#
# Compressibility (1/GPa) = 0.03806561
#
# Stress axis : x y z
#
# Youngs Moduli (GPa) = 45.28636 69.67097 66.81155
#
# Poissons Ratio (x) = -0.05382 0.15311
# Poissons Ratio (y) = -0.03498 0.34402
# Poissons Ratio (z) = 0.10378 0.35874
#
# Static dielectric constant tensor:
#      x y z
#    x 1.894150 -0.014360 0.006670 
#    y -0.014360 1.983500 -0.034680 
#    z 0.006670 -0.034680 1.908090 
# 
# From -- ./inp_files/414950.got.cif
#   From: 2010.05.17/outbox.cif.g08.bks.cpg/sg2_208_cif.got.tgz:414950.got - 2010.06.03 11:33:40.
