data_PCOD9084779
_publ_section_title
;
Structure prediction by ZEFSAII (Michael W. Deem and Ramdas Pophale) SiO2 
 PCOD9084779
Probable space group: P -1
;
_chemical_formula_sum "Si O2"
_cell_formula_units_Z 16
_cell_length_a 16.409378
_cell_length_b 10.420512
_cell_length_c 11.563322
_cell_angle_alpha 51.661297
_cell_angle_beta 76.751835
_cell_angle_gamma 34.020925
_cell_volume 659.884837
_symmetry_space_group_name_H-M "P -1"
_symmetry_group_IT_number 2
_symmetry_cell_setting 'triclinic'
loop_
_space_group_symop_operation_xyz
x,y,z
-x,-y,-z
loop_
_atom_site_type_symbol
_atom_site_label
_atom_site_fract_x
_atom_site_fract_y
_atom_site_fract_z
Si Si1 0.697928 0.442211 0.838837
Si Si2 0.488694 0.542647 0.117973
Si Si3 0.602212 0.779996 0.456544
Si Si4 0.379299 0.867504 0.480876
Si Si5 0.764591 0.025574 0.749630
Si Si6 0.174604 0.410317 0.916515
Si Si7 0.247959 0.627358 0.878356
Si Si8 0.086259 0.712353 0.547835
O O1 0.697100 0.249760 0.916481
O O2 0.730723 0.484395 0.685893
O O3 0.480674 0.892573 0.683417
O O4 0.795734 0.300127 0.010088
O O5 0.629508 0.201113 0.353563
O O6 0.559268 0.605454 0.073915
O O7 0.500000 0.500000 0.000000
O O8 0.408750 0.009537 0.390434
O O9 0.724056 0.560031 0.424857
O O10 0.584374 0.456393 0.587323
O O11 0.228923 0.057292 0.336083
O O12 0.965474 0.760969 0.849275
O O13 0.726202 0.933270 0.890942
O O14 0.266109 0.414252 0.936610
O O15 0.143293 0.473995 0.753660
O O16 0.075365 0.021773 0.646017
O O17 0.000000 0.000000 0.500000
#
# Coordination Sequence:
#
# PCOD9084779 Si02
#       8
#     2   2   2   2   2   2   2   2
#     4   9  20  37  58  83 109 145 190 229 266 319
#     4   9  19  34  54  79 109 139 180 228 269 316
#     4  10  20  37  59  83 113 145 183 229 274 323
#     4  10  19  35  57  80 106 144 183 222 270 323
#     4  10  21  35  54  80 108 141 183 224 269 328
#     4  10  21  36  53  79 113 144 177 224 277 327
#     4  10  19  36  58  80 111 149 182 224 277 329
#     4  10  21  36  56  83 113 144 180 224 277 333
#
# _framework density 24.246655000000001
#
# number of rings (size 3 to 8) (size 9 to 14) (size 15 to 20)
#    0.000    2.250    0.000    3.000    0.000    5.500 
#    0.000    5.625    0.000    0.000    0.000    0.000 
#    0.000    0.000    0.000    0.000    0.000    0.000 
#
# Total GULP energy -89163.520086 kJ/mol
# GULP energy per Si atom -5572.720005 kJ/mol
# Density = 2.419147 g / cm^3
# Si number density = 24.246655 Si / 1000 Ang^3
#
#
#
# Elastic Constant Matrix: (Units=GPa)
#
#
# Indices 1 2 3 4 5 6 
#
# 1 147.4145 35.0159 37.8278 2.8334 -5.5726 -3.6637
# 2 35.0159 66.1518 8.6781 26.3859 -0.6551 -13.2290
# 3 37.8278 8.6781 115.4879 48.0360 7.5235 0.3123
# 4 2.8334 26.3859 48.0360 50.2961 3.8287 1.8728
# 5 -5.5726 -0.6551 7.5235 3.8287 35.3192 9.0440
# 6 -3.6637 -13.2290 0.3123 1.8728 9.0440 25.1279
#
#
#
# Elastic Compliance Matrix: (Units=1/GPa)
#
#
# Indices 1 2 3 4 5 6 
#
# 1 0.011685 -0.012072 -0.009120 0.014356 0.003792 -0.006973
# 2 -0.012072 0.037768 0.015914 -0.034675 -0.006705 0.022923
# 3 -0.009120 0.015914 0.023293 -0.030061 -0.005674 0.011042
# 4 0.014356 -0.034675 -0.030061 0.066322 0.006768 -0.023167
# 5 0.003792 -0.006705 -0.005674 0.006768 0.033195 -0.015358
# 6 -0.006973 0.022923 0.011042 -0.023167 -0.015358 0.057965
#
#
# Mechanical properties :
#
#
# Convention : Reuss Voigt Hill
#
# Bulk Modulus (GPa) = 16.07961 54.67754 35.37858
# Shear Modulus (GPa) = 19.11944 38.65080 28.88512
#
# Velocity S-wave (km/s) = 2.81114 3.99691 3.45527
# Velocity P-wave (km/s) = 4.14521 6.62570 5.52642
#
# Compressibility (1/GPa) = 0.06219055
#
# Stress axis : x y z
#
# Youngs Moduli (GPa) = 85.57708 26.47771 42.93062
#
# Poissons Ratio (x) = 0.31964 0.39151
# Poissons Ratio (y) = 1.03308 -0.68318
# Poissons Ratio (z) = 0.78043 -0.42136
#
# Static dielectric constant tensor:
#      x y z
#    x 2.017580 0.042500 0.005540 
#    y 0.042500 1.974740 0.004660 
#    z 0.005540 0.004660 2.025670 
# 
# From -- ./inp_files/464371.got.cif
#   From: 2010.05.17/outbox.cif.g08.bks.cpg/sg2_233_cif.got.tgz:464371.got - 2010.06.03 11:33:40.
