data_PCOD9084960
_publ_section_title
;
Structure prediction by ZEFSAII (Michael W. Deem and Ramdas Pophale) SiO2 
 PCOD9084960
Probable space group: P -1
;
_chemical_formula_sum "Si O2"
_cell_formula_units_Z 16
_cell_length_a 11.216272
_cell_length_b 14.679084
_cell_length_c 13.817946
_cell_angle_alpha 152.176925
_cell_angle_beta 138.929240
_cell_angle_gamma 39.861010
_cell_volume 658.818943
_symmetry_space_group_name_H-M "P -1"
_symmetry_group_IT_number 2
_symmetry_cell_setting 'triclinic'
loop_
_space_group_symop_operation_xyz
x,y,z
-x,-y,-z
loop_
_atom_site_type_symbol
_atom_site_label
_atom_site_fract_x
_atom_site_fract_y
_atom_site_fract_z
Si Si1 0.611724 0.370461 0.037910
Si Si2 0.962852 0.269995 0.703905
Si Si3 0.789383 0.601866 0.514449
Si Si4 0.676531 0.298858 0.288040
Si Si5 0.906511 0.680819 0.967518
Si Si6 0.416458 0.158257 0.858540
Si Si7 0.959521 0.864166 0.977592
Si Si8 0.341936 0.899889 0.718800
O O1 0.648590 0.543994 0.296383
O O2 0.824501 0.204413 0.994183
O O3 0.500000 0.500000 0.000000
O O4 0.492847 0.226388 0.870882
O O5 0.187148 0.216693 0.766154
O O6 0.865635 0.474024 0.772603
O O7 0.852925 0.117358 0.462267
O O8 0.947538 0.314637 0.851240
O O9 0.744447 0.488653 0.476677
O O10 0.818913 0.816146 0.766929
O O11 0.000000 0.500000 0.500000
O O12 0.612657 0.270340 0.330556
O O13 0.499257 0.293120 0.108168
O O14 0.855681 0.094187 0.171893
O O15 0.981994 0.707936 0.934912
O O16 0.720938 0.883355 0.058503
O O17 0.462529 0.937492 0.737207
#
# Coordination Sequence:
#
# PCOD9084960 Si02
#       8
#     2   2   2   2   2   2   2   2
#     4  10  21  37  59  84 114 150 186 235 284 327
#     4  10  19  35  58  81 114 150 186 229 279 335
#     4   9  20  37  59  82 109 150 189 224 275 335
#     4  10  21  37  60  85 114 149 185 234 281 327
#     4   9  18  32  57  83 106 145 187 227 275 328
#     4  10  20  35  56  83 114 146 185 231 280 329
#     4  10  20  38  60  82 112 149 191 227 278 339
#     4  10  20  37  60  84 113 150 187 228 282 338
#
# _framework density 24.285882000000001
#
# number of rings (size 3 to 8) (size 9 to 14) (size 15 to 20)
#    0.000    2.250    0.000    3.375    0.000    5.500 
#    0.000   13.750    0.000   36.750    0.000    0.000 
#    0.000    0.000    0.000    0.000    0.000    0.000 
#
# Total GULP energy -89180.816162 kJ/mol
# GULP energy per Si atom -5573.801010 kJ/mol
# Density = 2.423061 g / cm^3
# Si number density = 24.285882 Si / 1000 Ang^3
#
#
#
# Elastic Constant Matrix: (Units=GPa)
#
#
# Indices 1 2 3 4 5 6 
#
# 1 117.6689 58.7531 44.8263 -3.5937 38.2836 15.1194
# 2 58.7531 103.7763 38.0563 9.2765 13.3540 17.7125
# 3 44.8263 38.0563 112.5798 -0.2413 35.4037 6.1693
# 4 -3.5937 9.2765 -0.2413 42.3445 -1.1800 3.9516
# 5 38.2836 13.3540 35.4037 -1.1800 34.3255 1.6626
# 6 15.1194 17.7125 6.1693 3.9516 1.6626 50.4588
#
#
#
# Elastic Compliance Matrix: (Units=1/GPa)
#
#
# Indices 1 2 3 4 5 6 
#
# 1 0.018811 -0.008646 0.001540 0.003196 -0.018978 -0.002415
# 2 -0.008646 0.015830 -0.004257 -0.003782 0.007862 -0.002408
# 3 0.001540 -0.004257 0.014405 0.000759 -0.014879 -0.000298
# 4 0.003196 -0.003782 0.000759 0.024815 -0.001945 -0.001602
# 5 -0.018978 0.007862 -0.014879 -0.001945 0.062383 0.002843
# 6 -0.002415 -0.002408 -0.000298 -0.001602 0.002843 0.021455
#
#
# Mechanical properties :
#
#
# Convention : Reuss Voigt Hill
#
# Bulk Modulus (GPa) = 37.99368 68.58849 53.29109
# Shear Modulus (GPa) = 26.42714 38.25170 32.33942
#
# Velocity S-wave (km/s) = 3.30232 3.97301 3.65309
# Velocity P-wave (km/s) = 5.49716 7.02494 6.30748
#
# Compressibility (1/GPa) = 0.02632016
#
# Stress axis : x y z
#
# Youngs Moduli (GPa) = 53.15930 63.17242 69.41834
#
# Poissons Ratio (x) = 0.54620 -0.10690
# Poissons Ratio (y) = 0.45963 0.29551
# Poissons Ratio (z) = -0.08186 0.26892
#
# Static dielectric constant tensor:
#      x y z
#    x 1.996920 -0.026160 -0.055210 
#    y -0.026160 2.043580 0.041090 
#    z -0.055210 0.041090 1.934860 
# 
# From -- ./inp_files/522691.got.cif
#   From: 2010.05.17/outbox.cif.g08.bks.cpg/sg2_262_cif.got.tgz:522691.got - 2010.06.03 11:33:40.
