data_PCOD9084120
_publ_section_title
;
Structure prediction by ZEFSAII (Michael W. Deem and Ramdas Pophale) SiO2 
 PCOD9084120
Probable space group: P -1
;
_chemical_formula_sum "Si O2"
_cell_formula_units_Z 16
_cell_length_a 11.739500
_cell_length_b 8.220826
_cell_length_c 11.688929
_cell_angle_alpha 53.806557
_cell_angle_beta 87.888018
_cell_angle_gamma 62.432883
_cell_volume 761.688668
_symmetry_space_group_name_H-M "P -1"
_symmetry_group_IT_number 2
_symmetry_cell_setting 'triclinic'
loop_
_space_group_symop_operation_xyz
x,y,z
-x,-y,-z
loop_
_atom_site_type_symbol
_atom_site_label
_atom_site_fract_x
_atom_site_fract_y
_atom_site_fract_z
Si Si1 0.160418 0.310849 0.098706
Si Si2 0.814291 0.999243 0.560113
Si Si3 0.152372 0.706122 0.048845
Si Si4 0.992423 0.783750 0.244838
Si Si5 0.571342 0.533072 0.376218
Si Si6 0.674034 0.100213 0.925017
Si Si7 0.039238 0.747937 0.504675
Si Si8 0.256982 0.264603 0.745644
O O1 0.216014 0.481392 0.054416
O O2 0.194839 0.155338 0.277276
O O3 0.227478 0.114760 0.077270
O O4 0.000000 0.500000 0.000000
O O5 0.679815 0.262461 0.440654
O O6 0.926597 0.050708 0.578756
O O7 0.885374 0.851853 0.503594
O O8 0.250723 0.776213 0.075497
O O9 0.072870 0.668609 0.171322
O O10 0.045787 0.944395 0.881900
O O11 0.850095 0.804246 0.258873
O O12 0.071424 0.657336 0.410450
O O13 0.500000 0.500000 0.500000
O O14 0.459685 0.697107 0.218470
O O15 0.646869 0.669789 0.350607
O O16 0.649420 0.952965 0.082253
O O17 0.139839 0.537864 0.676435
#
# Coordination Sequence:
#
# PCOD9084120 Si02
#       8
#     2   2   2   2   2   2   2   2
#     4  12  21  36  64  93 128 166 206 259 319 375
#     4  10  21  36  56  93 121 160 222 251 309 391
#     4  10  22  36  62  97 131 164 215 252 322 384
#     4  10  19  37  57  93 132 163 196 268 325 374
#     4  11  23  43  63  85 124 179 215 253 315 380
#     4  11  23  43  64  90 131 172 209 266 310 373
#     4  10  19  34  60  90 127 158 200 272 323 365
#     4  10  22  37  63  94 119 165 217 251 321 383
#
# _framework density 21.005958
#
# number of rings (size 3 to 8) (size 9 to 14) (size 15 to 20)
#    0.000    1.500    1.250    6.000    1.750    2.000 
#    0.000    1.875    0.000    3.750    0.000    0.000 
#    0.000    0.000    0.000    0.000    0.000    0.000 
#
# Total GULP energy -89071.030115 kJ/mol
# GULP energy per Si atom -5566.939382 kJ/mol
# Density = 2.095815 g / cm^3
# Si number density = 21.005958 Si / 1000 Ang^3
#
#
#
# Elastic Constant Matrix: (Units=GPa)
#
#
# Indices 1 2 3 4 5 6 
#
# 1 91.9921 23.2538 41.3043 0.0303 -10.1671 3.7528
# 2 23.2538 67.3987 14.9823 -12.6649 -3.4019 8.6910
# 3 41.3043 14.9823 106.5254 -17.7135 -4.8231 -2.4768
# 4 0.0303 -12.6649 -17.7135 26.5317 -2.7624 1.0509
# 5 -10.1671 -3.4019 -4.8231 -2.7624 39.3622 -7.1973
# 6 3.7528 8.6910 -2.4768 1.0509 -7.1973 33.2154
#
#
#
# Elastic Compliance Matrix: (Units=1/GPa)
#
#
# Indices 1 2 3 4 5 6 
#
# 1 0.015101 -0.004874 -0.006098 -0.006172 0.002262 -0.000200
# 2 -0.004874 0.018770 0.000770 0.009691 0.000307 -0.004543
# 3 -0.006098 0.000770 0.013266 0.009283 0.001025 0.001405
# 4 -0.006172 0.009691 0.009283 0.048959 0.003461 -0.001945
# 5 0.002262 0.000307 0.001025 0.003461 0.027403 0.005569
# 6 -0.000200 -0.004543 0.001405 -0.001945 0.005569 0.032691
#
#
# Mechanical properties :
#
#
# Convention : Reuss Voigt Hill
#
# Bulk Modulus (GPa) = 37.40836 47.22187 42.31512
# Shear Modulus (GPa) = 26.95335 32.24693 29.60014
#
# Velocity S-wave (km/s) = 3.58596 3.92233 3.75791
# Velocity P-wave (km/s) = 5.91546 6.56063 6.24638
#
# Compressibility (1/GPa) = 0.02673199
#
# Stress axis : x y z
#
# Youngs Moduli (GPa) = 66.22106 53.27615 75.37874
#
# Poissons Ratio (x) = 0.25968 0.45968
# Poissons Ratio (y) = 0.32278 -0.05803
# Poissons Ratio (z) = 0.40383 -0.04101
#
# Static dielectric constant tensor:
#      x y z
#    x 1.805700 0.015260 -0.007140 
#    y 0.015260 1.827670 0.022640 
#    z -0.007140 0.022640 1.799050 
# 
# From -- ./inp_files/328952.got.cif
#   From: 2010.05.17/outbox.cif.g08.bks.cpg/sg2_165_cif.got.tgz:328952.got - 2010.06.03 11:33:40.
