data_PCOD9084290
_publ_section_title
;
Structure prediction by ZEFSAII (Michael W. Deem and Ramdas Pophale) SiO2 
 PCOD9084290
Probable space group: P -1
;
_chemical_formula_sum "Si O2"
_cell_formula_units_Z 10
_cell_length_a 9.037850
_cell_length_b 12.762200
_cell_length_c 10.477596
_cell_angle_alpha 145.788172
_cell_angle_beta 72.538405
_cell_angle_gamma 125.567118
_cell_volume 507.627268
_symmetry_space_group_name_H-M "P -1"
_symmetry_group_IT_number 2
_symmetry_cell_setting 'triclinic'
loop_
_space_group_symop_operation_xyz
x,y,z
-x,-y,-z
loop_
_atom_site_type_symbol
_atom_site_label
_atom_site_fract_x
_atom_site_fract_y
_atom_site_fract_z
Si Si1 0.352118 0.409096 0.089221
Si Si2 0.209768 0.261252 0.697976
Si Si3 0.098116 0.513263 0.356833
Si Si4 0.556430 0.965366 0.310514
Si Si5 0.856003 0.416720 0.075999
O O1 0.571826 0.662757 0.305122
O O2 0.202500 0.388880 0.206954
O O3 0.259295 0.387179 0.951685
O O4 0.378940 0.205293 0.877497
O O5 0.178986 0.387666 0.721638
O O6 0.000000 0.000000 0.500000
O O7 0.000000 0.500000 0.500000
O O8 0.943278 0.407492 0.174341
O O9 0.268883 0.784375 0.542560
O O10 0.500000 0.000000 0.500000
O O11 0.354662 0.829537 0.147054
O O12 0.000000 0.500000 0.000000
#
# Coordination Sequence:
#
# PCOD9084290 Si02
#       5
#     2   2   2   2   2
#     4  10  22  37  59  93 122 160 209 251 306 375
#     4  10  19  34  62  92 119 153 206 262 306 355
#     4  12  26  42  61  92 132 169 203 256 315 363
#     4  11  22  41  67  92 126 161 207 266 307 362
#     4  11  21  38  62  94 120 159 214 250 303 376
#
# _framework density 19.699493
#
# number of rings (size 3 to 8) (size 9 to 14) (size 15 to 20)
#    0.000    1.200    4.000    3.600    2.800    1.600 
#    0.000    4.000    0.000    0.000    0.000    0.000 
#    0.000    0.000    0.000    0.000    0.000    0.000 
#
# Total GULP energy -55777.885499 kJ/mol
# GULP energy per Si atom -5577.788550 kJ/mol
# Density = 1.965466 g / cm^3
# Si number density = 19.699493 Si / 1000 Ang^3
#
#
#
# Elastic Constant Matrix: (Units=GPa)
#
#
# Indices 1 2 3 4 5 6 
#
# 1 139.6211 51.5952 75.2461 -12.3068 8.5865 19.5440
# 2 51.5952 104.9197 58.5607 -14.2295 -1.4371 22.2778
# 3 75.2461 58.5607 100.7304 4.6015 6.3449 17.5167
# 4 -12.3068 -14.2295 4.6015 48.1311 10.8363 -5.8229
# 5 8.5865 -1.4371 6.3449 10.8363 46.9854 2.5729
# 6 19.5440 22.2778 17.5167 -5.8229 2.5729 27.1481
#
#
#
# Elastic Compliance Matrix: (Units=1/GPa)
#
#
# Indices 1 2 3 4 5 6 
#
# 1 0.013091 -0.000194 -0.009377 0.004392 -0.002031 -0.002080
# 2 -0.000194 0.016492 -0.008492 0.004557 0.001021 -0.007033
# 3 -0.009377 -0.008492 0.022627 -0.007429 0.000249 -0.002498
# 4 0.004392 0.004557 -0.007429 0.025746 -0.005815 0.003966
# 5 -0.002031 0.001021 0.000249 -0.005815 0.023156 -0.002978
# 6 -0.002080 -0.007033 -0.002498 0.003966 -0.002978 0.046848
#
#
# Mechanical properties :
#
#
# Convention : Reuss Voigt Hill
#
# Bulk Modulus (GPa) = 62.17623 79.56390 70.87007
# Shear Modulus (GPa) = 26.39256 35.11087 30.75172
#
# Velocity S-wave (km/s) = 3.66424 4.22634 3.95529
# Velocity P-wave (km/s) = 7.03798 8.01825 7.54405
#
# Compressibility (1/GPa) = 0.01608332
#
# Stress axis : x y z
#
# Youngs Moduli (GPa) = 76.39026 60.63591 44.19507
#
# Poissons Ratio (x) = 0.01179 0.41441
# Poissons Ratio (y) = 0.01485 0.37530
# Poissons Ratio (z) = 0.71630 0.51492
#
# Static dielectric constant tensor:
#      x y z
#    x 1.804280 0.024610 -0.018480 
#    y 0.024610 1.659250 0.014760 
#    z -0.018480 0.014760 1.678740 
# 
# From -- ./inp_files/144102.got.cif
#   From: 2010.05.17/outbox.cif.g08.bks.cpg/sg2_73_cif.got.tgz:144102.got - 2010.06.03 11:33:40.
