data_PCOD9084456
_publ_section_title
;
Structure prediction by ZEFSAII (Michael W. Deem and Ramdas Pophale) SiO2 
 PCOD9084456
Probable space group: P -1
;
_chemical_formula_sum "Si O2"
_cell_formula_units_Z 16
_cell_length_a 6.708347
_cell_length_b 17.533527
_cell_length_c 7.671953
_cell_angle_alpha 73.514259
_cell_angle_beta 54.989170
_cell_angle_gamma 98.648394
_cell_volume 649.920932
_symmetry_space_group_name_H-M "P -1"
_symmetry_group_IT_number 2
_symmetry_cell_setting 'triclinic'
loop_
_space_group_symop_operation_xyz
x,y,z
-x,-y,-z
loop_
_atom_site_type_symbol
_atom_site_label
_atom_site_fract_x
_atom_site_fract_y
_atom_site_fract_z
Si Si1 0.796011 0.558049 0.156399
Si Si2 0.656667 0.395191 0.497780
Si Si3 0.655935 0.738397 0.508261
Si Si4 0.349205 0.394676 0.126849
Si Si5 0.663813 0.189960 0.143891
Si Si6 0.068122 0.091502 0.559641
Si Si7 0.172794 0.647163 0.228451
Si Si8 0.805041 0.060303 0.353487
O O1 0.755406 0.457597 0.239185
O O2 0.514276 0.561699 0.340583
O O3 0.970846 0.594581 0.215430
O O4 0.867826 0.613193 0.907396
O O5 0.449146 0.301237 0.601350
O O6 0.870049 0.391740 0.531364
O O7 0.719814 0.664569 0.627069
O O8 0.403915 0.752501 0.711732
O O9 0.882845 0.833085 0.373610
O O10 0.500000 0.500000 0.000000
O O11 0.550143 0.356989 0.964581
O O12 0.361194 0.122977 0.298819
O O13 0.843478 0.144352 0.165121
O O14 0.788042 0.253945 0.880863
O O15 0.863142 0.084516 0.513339
O O16 0.030227 0.999583 0.722810
O O17 0.500000 0.000000 0.500000
#
# Coordination Sequence:
#
# PCOD9084456 Si02
#       8
#     2   2   2   2   2   2   2   2
#     4  10  21  35  52  67  98 149 177 208 256 294
#     4  10  20  37  48  67 108 138 177 211 250 298
#     4   9  18  34  49  76 102 131 166 216 253 290
#     4  10  19  35  51  72 103 129 170 224 256 287
#     4   8  18  31  50  78 101 123 165 211 251 293
#     4   8  17  30  51  78 102 127 156 203 261 300
#     4  10  21  34  51  75  99 138 181 205 247 308
#     4   9  15  30  51  79 105 125 152 201 257 315
#
# _framework density 24.618380999999999
#
# number of rings (size 3 to 8) (size 9 to 14) (size 15 to 20)
#    0.750    2.000    1.250    0.375    1.750    0.500 
#    2.250    0.000    0.000    0.750    0.000    5.250 
#    0.000    0.000    0.000    0.000    0.000    0.000 
#
# Total GULP energy -89166.805009 kJ/mol
# GULP energy per Si atom -5572.925313 kJ/mol
# Density = 2.456235 g / cm^3
# Si number density = 24.618381 Si / 1000 Ang^3
#
#
#
# Elastic Constant Matrix: (Units=GPa)
#
#
# Indices 1 2 3 4 5 6 
#
# 1 138.3771 46.6611 37.2169 -10.8988 52.6508 6.3430
# 2 46.6611 123.0418 27.6471 -23.0683 27.0998 -5.6126
# 3 37.2169 27.6471 84.9085 -10.4855 36.4073 -13.3172
# 4 -10.8988 -23.0683 -10.4855 31.5764 -11.8146 11.8307
# 5 52.6508 27.0998 36.4073 -11.8146 47.4504 -0.8418
# 6 6.3430 -5.6126 -13.3172 11.8307 -0.8418 41.9458
#
#
#
# Elastic Compliance Matrix: (Units=1/GPa)
#
#
# Indices 1 2 3 4 5 6 
#
# 1 0.013254 -0.002411 0.000547 -0.001560 -0.014173 -0.001998
# 2 -0.002411 0.010706 -0.001365 0.006407 -0.000805 -0.000459
# 3 0.000547 -0.001365 0.019056 -0.002373 -0.014930 0.006154
# 4 -0.001560 0.006407 -0.002373 0.043312 0.010469 -0.011666
# 5 -0.014173 -0.000805 -0.014930 0.010469 0.051240 -0.004629
# 6 -0.001998 -0.000459 0.006154 -0.011666 -0.004629 0.029232
#
#
# Mechanical properties :
#
#
# Convention : Reuss Voigt Hill
#
# Bulk Modulus (GPa) = 27.35446 63.26417 45.30931
# Shear Modulus (GPa) = 26.96232 39.84801 33.40517
#
# Velocity S-wave (km/s) = 3.31299 4.02758 3.68764
# Velocity P-wave (km/s) = 5.07642 6.88348 6.04782
#
# Compressibility (1/GPa) = 0.03655712
#
# Stress axis : x y z
#
# Youngs Moduli (GPa) = 75.44950 93.40725 52.47656
#
# Poissons Ratio (x) = 0.22522 -0.02869
# Poissons Ratio (y) = 0.18192 0.07163
# Poissons Ratio (z) = -0.04125 0.12750
#
# Static dielectric constant tensor:
#      x y z
#    x 1.987120 -0.014390 -0.069230 
#    y -0.014390 1.990060 0.005160 
#    z -0.069230 0.005160 2.114690 
# 
# From -- ./inp_files/140139.got.cif
#   From: 2010.05.17/outbox.cif.g08.bks.cpg/sg2_71_cif.got.tgz:140139.got - 2010.06.03 11:33:40.
