data_PCOD9084829
_publ_section_title
;
Structure prediction by ZEFSAII (Michael W. Deem and Ramdas Pophale) SiO2 
 PCOD9084829
Probable space group: P -1
;
_chemical_formula_sum "Si O2"
_cell_formula_units_Z 16
_cell_length_a 13.367734
_cell_length_b 18.794441
_cell_length_c 8.314618
_cell_angle_alpha 134.786866
_cell_angle_beta 25.097532
_cell_angle_gamma 137.748268
_cell_volume 591.483942
_symmetry_space_group_name_H-M "P -1"
_symmetry_group_IT_number 2
_symmetry_cell_setting 'triclinic'
loop_
_space_group_symop_operation_xyz
x,y,z
-x,-y,-z
loop_
_atom_site_type_symbol
_atom_site_label
_atom_site_fract_x
_atom_site_fract_y
_atom_site_fract_z
Si Si1 0.462169 0.856449 0.722429
Si Si2 0.790922 0.355594 0.374647
Si Si3 0.015391 0.671967 0.650941
Si Si4 0.716986 0.948936 0.783659
Si Si5 0.686382 0.654207 0.543080
Si Si6 0.542244 0.429683 0.571437
Si Si7 0.018833 0.785421 0.512620
Si Si8 0.321256 0.895141 0.504272
O O1 0.437422 0.756652 0.490126
O O2 0.705488 0.898031 0.544401
O O3 0.403632 0.957124 0.899442
O O4 0.243130 0.810490 0.099431
O O5 0.734734 0.426135 0.426590
O O6 0.831971 0.384911 0.550754
O O7 0.055622 0.342783 0.918758
O O8 0.017980 0.690902 0.485756
O O9 0.159151 0.796494 0.692755
O O10 0.726545 0.617112 0.025818
O O11 0.000000 0.000000 0.500000
O O12 0.536069 0.868901 0.045860
O O13 0.602060 0.546699 0.599560
O O14 0.494284 0.640939 0.652960
O O15 0.776884 0.748820 0.693111
O O16 0.107475 0.887971 0.666986
O O17 0.500000 0.000000 0.500000
#
# Coordination Sequence:
#
# PCOD9084829 Si02
#       8
#     2   2   2   2   2   2   2   2
#     4   9  19  35  54  79 112 143 188 245 280 329
#     4  10  19  35  57  83 115 149 190 236 290 346
#     4   9  20  36  52  81 119 148 185 237 290 347
#     4  10  20  35  57  83 106 152 202 237 287 343
#     4   9  19  37  58  83 118 147 193 248 280 342
#     4  10  20  35  60  87 109 156 195 231 295 354
#     4   8  18  36  55  78 116 153 179 238 296 328
#     4   9  18  35  57  81 117 155 187 241 297 342
#
# _framework density 27.050609000000001
#
# number of rings (size 3 to 8) (size 9 to 14) (size 15 to 20)
#    0.750    2.000    0.000    1.125    0.000    4.500 
#    2.250    3.125    0.000    4.500    0.000    0.000 
#    0.000    0.000    0.000    0.000    0.000    0.000 
#
# Total GULP energy -89186.255509 kJ/mol
# GULP energy per Si atom -5574.140969 kJ/mol
# Density = 2.698904 g / cm^3
# Si number density = 27.050609 Si / 1000 Ang^3
#
#
#
# Elastic Constant Matrix: (Units=GPa)
#
#
# Indices 1 2 3 4 5 6 
#
# 1 185.3706 29.0521 23.2835 2.1172 -8.3907 -25.6498
# 2 29.0521 101.7749 20.5744 -21.7678 -8.3604 12.6567
# 3 23.2835 20.5744 63.9657 -14.2346 2.6450 -9.3006
# 4 2.1172 -21.7678 -14.2346 35.4052 -5.3533 -1.6111
# 5 -8.3907 -8.3604 2.6450 -5.3533 34.4720 -6.6568
# 6 -25.6498 12.6567 -9.3006 -1.6111 -6.6568 37.7634
#
#
#
# Elastic Compliance Matrix: (Units=1/GPa)
#
#
# Indices 1 2 3 4 5 6 
#
# 1 0.006841 -0.002634 -0.001389 -0.002059 0.001861 0.005428
# 2 -0.002634 0.013803 -0.002805 0.007670 0.002902 -0.006268
# 3 -0.001389 -0.002805 0.019152 0.006192 -0.000585 0.004875
# 4 -0.002059 0.007670 0.006192 0.036586 0.006620 0.000284
# 5 0.001861 0.002902 -0.000585 0.006620 0.032426 0.006146
# 6 0.005428 -0.006268 0.004875 0.000284 0.006146 0.034564
#
#
# Mechanical properties :
#
#
# Convention : Reuss Voigt Hill
#
# Bulk Modulus (GPa) = 38.25685 55.21457 46.73571
# Shear Modulus (GPa) = 30.16755 40.07487 35.12121
#
# Velocity S-wave (km/s) = 3.34312 3.85317 3.60717
# Velocity P-wave (km/s) = 5.39216 6.34443 5.88758
#
# Compressibility (1/GPa) = 0.02613911
#
# Stress axis : x y z
#
# Youngs Moduli (GPa) = 146.18516 72.44832 52.21378
#
# Poissons Ratio (x) = 0.19086 0.07250
# Poissons Ratio (y) = 0.38511 0.14648
# Poissons Ratio (z) = 0.20299 0.20324
#
# Static dielectric constant tensor:
#      x y z
#    x 2.220070 0.041280 0.018460 
#    y 0.041280 2.241160 0.067610 
#    z 0.018460 0.067610 2.113100 
# 
# From -- ./inp_files/282149.got.cif
#   From: 2010.05.17/outbox.cif.g08.bks.cpg/sg2_142_cif.got.tgz:282149.got - 2010.06.03 11:33:40.
