data_PCOD9084444
_publ_section_title
;
Structure prediction by ZEFSAII (Michael W. Deem and Ramdas Pophale) SiO2 
 PCOD9084444
Probable space group: P -1
;
_chemical_formula_sum "Si O2"
_cell_formula_units_Z 16
_cell_length_a 12.323086
_cell_length_b 15.497714
_cell_length_c 9.616873
_cell_angle_alpha 36.814607
_cell_angle_beta 109.567151
_cell_angle_gamma 135.238371
_cell_volume 645.451548
_symmetry_space_group_name_H-M "P -1"
_symmetry_group_IT_number 2
_symmetry_cell_setting 'triclinic'
loop_
_space_group_symop_operation_xyz
x,y,z
-x,-y,-z
loop_
_atom_site_type_symbol
_atom_site_label
_atom_site_fract_x
_atom_site_fract_y
_atom_site_fract_z
Si Si1 0.660005 0.024803 0.149740
Si Si2 0.318496 0.612465 0.369390
Si Si3 0.713509 0.736899 0.937222
Si Si4 0.053119 0.198009 0.593741
Si Si5 0.047719 0.413900 0.736376
Si Si6 0.123451 0.666667 0.706911
Si Si7 0.557294 0.882388 0.601429
Si Si8 0.305140 0.405245 0.183157
O O1 0.530005 0.827732 0.231259
O O2 0.562216 0.915794 0.397097
O O3 0.698077 0.235624 0.883569
O O4 0.860794 0.153941 0.041065
O O5 0.236442 0.411982 0.489903
O O6 0.196659 0.472563 0.637172
O O7 0.696815 0.880024 0.676296
O O8 0.749544 0.676981 0.893758
O O9 0.492966 0.499242 0.185148
O O10 0.873220 0.915668 0.891683
O O11 0.139014 0.232568 0.439959
O O12 0.963113 0.268934 0.468358
O O13 0.000000 0.500000 0.500000
O O14 0.124118 0.557553 0.722661
O O15 0.331958 0.894835 0.549265
O O16 0.000000 0.500000 0.000000
O O17 0.379606 0.641689 0.909554
#
# Coordination Sequence:
#
# PCOD9084444 Si02
#       8
#     2   2   2   2   2   2   2   2
#     4  10  19  35  49  75 109 142 178 214 248 317
#     4  10  22  33  51  75 107 148 184 201 253 326
#     4   8  19  36  54  81 106 128 172 234 284 314
#     4  11  19  33  56  79 103 141 181 216 265 324
#     4  10  19  35  50  68 115 150 169 210 256 303
#     4  11  19  33  52  81 115 136 179 220 260 309
#     4   9  18  33  55  77 107 137 171 222 273 311
#     4   9  19  34  56  84 101 131 175 230 283 312
#
# _framework density 24.788848999999999
#
# number of rings (size 3 to 8) (size 9 to 14) (size 15 to 20)
#    0.750    1.500    3.750    0.375    0.000    5.000 
#    0.000    1.875    0.000    1.500    0.000    0.000 
#    0.000    0.000    0.000    0.000    0.000    0.000 
#
# Total GULP energy -89209.600018 kJ/mol
# GULP energy per Si atom -5575.600001 kJ/mol
# Density = 2.473243 g / cm^3
# Si number density = 24.788849 Si / 1000 Ang^3
#
#
#
# Elastic Constant Matrix: (Units=GPa)
#
#
# Indices 1 2 3 4 5 6 
#
# 1 39.0791 1.6035 8.6587 -10.9514 -11.0589 -7.7823
# 2 1.6035 104.7980 3.7472 -37.5214 3.8673 4.7037
# 3 8.6587 3.7472 63.4392 -9.4364 -3.8092 11.6375
# 4 -10.9514 -37.5214 -9.4364 47.0377 -1.4264 -9.8570
# 5 -11.0589 3.8673 -3.8092 -1.4264 38.7543 -7.5470
# 6 -7.7823 4.7037 11.6375 -9.8570 -7.5470 20.7164
#
#
#
# Elastic Compliance Matrix: (Units=1/GPa)
#
#
# Indices 1 2 3 4 5 6 
#
# 1 0.047705 0.005002 -0.009654 0.022257 0.020851 0.040394
# 2 0.005002 0.014002 -0.000501 0.013547 0.001653 0.006029
# 3 -0.009654 -0.000501 0.019659 -0.002449 -0.004224 -0.017260
# 4 0.022257 0.013547 -0.002449 0.043874 0.012632 0.032138
# 5 0.020851 0.001653 -0.004224 0.012632 0.037375 0.029456
# 6 0.040394 0.006029 -0.017260 0.032138 0.029456 0.097795
#
#
# Mechanical properties :
#
#
# Convention : Reuss Voigt Hill
#
# Bulk Modulus (GPa) = 14.07303 26.14835 20.11069
# Shear Modulus (GPa) = 16.98348 34.18881 25.58614
#
# Velocity S-wave (km/s) = 2.62033 3.71779 3.21622
# Velocity P-wave (km/s) = 3.85283 5.38522 4.68214
#
# Compressibility (1/GPa) = 0.07105792
#
# Stress axis : x y z
#
# Youngs Moduli (GPa) = 20.96222 71.41725 50.86780
#
# Poissons Ratio (x) = -0.35720 0.49108
# Poissons Ratio (y) = -0.10484 0.02551
# Poissons Ratio (z) = 0.20237 0.03581
#
# Static dielectric constant tensor:
#      x y z
#    x 3.127000 0.054810 0.472450 
#    y 0.054810 1.996570 -0.054960 
#    z 0.472450 -0.054960 2.123360 
# 
# From -- ./inp_files/335230.got.cif
#   From: 2010.05.17/outbox.cif.g08.bks.cpg/sg2_168_cif.got.tgz:335230.got - 2010.06.03 11:33:40.
