data_PCOD9084640
_publ_section_title
;
Structure prediction by ZEFSAII (Michael W. Deem and Ramdas Pophale) SiO2 
 PCOD9084640
Probable space group: P -1
;
_chemical_formula_sum "Si O2"
_cell_formula_units_Z 12
_cell_length_a 16.657407
_cell_length_b 8.920014
_cell_length_c 7.613272
_cell_angle_alpha 50.565782
_cell_angle_beta 40.004968
_cell_angle_gamma 67.830239
_cell_volume 547.907810
_symmetry_space_group_name_H-M "P -1"
_symmetry_group_IT_number 2
_symmetry_cell_setting 'triclinic'
loop_
_space_group_symop_operation_xyz
x,y,z
-x,-y,-z
loop_
_atom_site_type_symbol
_atom_site_label
_atom_site_fract_x
_atom_site_fract_y
_atom_site_fract_z
Si Si1 0.747978 0.371689 0.510241
Si Si2 0.696844 0.745133 0.461783
Si Si3 0.145266 0.006080 0.299011
Si Si4 0.526179 0.314012 0.381144
Si Si5 0.527665 0.912461 0.831206
Si Si6 0.708972 0.614821 0.055477
O O1 0.766759 0.561565 0.467516
O O2 0.755303 0.471760 0.230120
O O3 0.831892 0.209308 0.523845
O O4 0.602924 0.246380 0.865928
O O5 0.557623 0.668089 0.660954
O O6 0.655562 0.828590 0.651947
O O7 0.771449 0.911222 0.076626
O O8 0.192074 0.173573 0.247285
O O9 0.000000 0.000000 0.500000
O O10 0.656567 0.471519 0.086834
O O11 0.422146 0.332496 0.691769
O O12 0.548214 0.094636 0.526162
O O13 0.500000 0.000000 0.000000
#
# Coordination Sequence:
#
# PCOD9084640 Si02
#       6
#     2   2   2   2   2   2
#     4  10  19  35  55  88 117 152 191 235 296 345
#     4  10  23  35  56  93 121 150 193 234 286 354
#     4  10  21  38  61  83 115 161 202 239 283 336
#     4   9  17  32  53  83 125 144 179 236 287 348
#     4  12  20  34  59  91 123 155 181 234 304 353
#     4   9  18  32  53  89 115 150 189 235 285 346
#
# _framework density 21.901494
#
# number of rings (size 3 to 8) (size 9 to 14) (size 15 to 20)
#    0.000    2.333    5.000    1.000    0.000    2.667 
#    0.000    0.000    0.000    2.000    0.000    0.000 
#    0.000    0.000    0.000    0.000    0.000    0.000 
#
# Total GULP energy -66893.581153 kJ/mol
# GULP energy per Si atom -5574.465096 kJ/mol
# Density = 2.185165 g / cm^3
# Si number density = 21.901494 Si / 1000 Ang^3
#
#
#
# Elastic Constant Matrix: (Units=GPa)
#
#
# Indices 1 2 3 4 5 6 
#
# 1 73.0850 49.0852 37.7149 -3.8660 -13.4990 -16.1558
# 2 49.0852 130.4418 38.7608 -26.4848 6.0118 -39.1803
# 3 37.7149 38.7608 37.1663 1.8277 5.3804 -7.9100
# 4 -3.8660 -26.4848 1.8277 32.6773 -5.4844 15.1065
# 5 -13.4990 6.0118 5.3804 -5.4844 29.4940 -6.0751
# 6 -16.1558 -39.1803 -7.9100 15.1065 -6.0751 48.4642
#
#
#
# Elastic Compliance Matrix: (Units=1/GPa)
#
#
# Indices 1 2 3 4 5 6 
#
# 1 0.055198 0.001686 -0.062093 0.013336 0.040910 0.010601
# 2 0.001686 0.017768 -0.019784 0.012654 0.004834 0.008359
# 3 -0.062093 -0.019784 0.117020 -0.032488 -0.054726 -0.014328
# 4 0.013336 0.012654 -0.032488 0.048926 0.017797 -0.003647
# 5 0.040910 0.004834 -0.054726 0.017797 0.067306 0.011503
# 6 0.010601 0.008359 -0.014328 -0.003647 0.011503 0.031165
#
#
# Mechanical properties :
#
#
# Convention : Reuss Voigt Hill
#
# Bulk Modulus (GPa) = 33.78064 54.64611 44.21338
# Shear Modulus (GPa) = 9.84964 29.80256 19.82610
#
# Velocity S-wave (km/s) = 2.12297 3.69284 3.01198
# Velocity P-wave (km/s) = 4.63322 6.57174 5.68571
#
# Compressibility (1/GPa) = 0.02960276
#
# Stress axis : x y z
#
# Youngs Moduli (GPa) = 18.11668 56.28174 8.54555
#
# Poissons Ratio (x) = -0.09492 0.53062
# Poissons Ratio (y) = -0.03055 0.16907
# Poissons Ratio (z) = 1.12493 1.11350
#
# Static dielectric constant tensor:
#      x y z
#    x 1.884960 0.062370 0.095680 
#    y 0.062370 1.940620 -0.017770 
#    z 0.095680 -0.017770 1.815470 
# 
# From -- ./inp_files/343290.got.cif
#   From: 2010.05.17/outbox.cif.g08.bks.cpg/sg2_172_cif.got.tgz:343290.got - 2010.06.03 11:33:40.
