data_PCOD9084179
_publ_section_title
;
Structure prediction by ZEFSAII (Michael W. Deem and Ramdas Pophale) SiO2 
 PCOD9084179
Probable space group: P -1
;
_chemical_formula_sum "Si O2"
_cell_formula_units_Z 16
_cell_length_a 7.908117
_cell_length_b 5.421843
_cell_length_c 23.566319
_cell_angle_alpha 96.589298
_cell_angle_beta 51.484153
_cell_angle_gamma 121.422025
_cell_volume 640.459831
_symmetry_space_group_name_H-M "P -1"
_symmetry_group_IT_number 2
_symmetry_cell_setting 'triclinic'
loop_
_space_group_symop_operation_xyz
x,y,z
-x,-y,-z
loop_
_atom_site_type_symbol
_atom_site_label
_atom_site_fract_x
_atom_site_fract_y
_atom_site_fract_z
Si Si1 0.157394 0.395885 0.389765
Si Si2 0.282043 0.159070 0.017177
Si Si3 0.991469 0.219220 0.743125
Si Si4 0.825242 0.209222 0.069806
Si Si5 0.713437 0.494767 0.759915
Si Si6 0.827763 0.633067 0.164862
Si Si7 0.642298 0.305826 0.534510
Si Si8 0.835989 0.798311 0.410123
O O1 0.190632 0.523834 0.323721
O O2 0.371281 0.628161 0.395436
O O3 0.882220 0.272777 0.477375
O O4 0.127701 0.085779 0.373886
O O5 0.366552 0.049398 0.942711
O O6 0.500000 0.500000 0.000000
O O7 0.035546 0.154622 0.047088
O O8 0.132170 0.896175 0.089181
O O9 0.798625 0.328916 0.778993
O O10 0.157060 0.353954 0.770033
O O11 0.163113 0.349553 0.652573
O O12 0.848883 0.850223 0.759445
O O13 0.744180 0.322226 0.143070
O O14 0.000000 0.500000 0.000000
O O15 0.400490 0.336283 0.811356
O O16 0.732928 0.588978 0.481173
O O17 0.344483 0.082543 0.568356
#
# Coordination Sequence:
#
# PCOD9084179 Si02
#       8
#     2   2   2   2   2   2   2   2
#     4  10  20  37  58  89 127 175 230 288 356 409
#     4  10  23  45  74 106 142 177 228 291 355 416
#     4  11  26  45  70 101 143 193 241 292 359 424
#     4   9  22  44  67 103 139 173 225 281 347 416
#     4  11  26  46  68 100 146 188 241 300 347 433
#     4  11  26  45  72 104 140 192 236 288 357 432
#     4  10  19  34  61  88 123 174 230 290 356 412
#     4  10  20  37  57  91 129 170 232 293 345 418
#
# _framework density 24.982049
#
# number of rings (size 3 to 8) (size 9 to 14) (size 15 to 20)
#    0.000    1.750    1.250    1.500    3.500    6.000 
#    0.000    0.000    0.000    0.000    0.000    0.000 
#    0.000    0.000    0.000    0.000    0.000    0.000 
#
# Total GULP energy -89205.219791 kJ/mol
# GULP energy per Si atom -5575.326237 kJ/mol
# Density = 2.492519 g / cm^3
# Si number density = 24.982049 Si / 1000 Ang^3
#
#
#
# Elastic Constant Matrix: (Units=GPa)
#
#
# Indices 1 2 3 4 5 6 
#
# 1 97.8261 37.3193 13.2811 21.8650 1.7160 4.8027
# 2 37.3193 115.0240 27.0592 27.1524 11.8981 23.6332
# 3 13.2811 27.0592 92.6638 25.9458 -1.9163 6.5736
# 4 21.8650 27.1524 25.9458 38.4719 8.0328 7.6617
# 5 1.7160 11.8981 -1.9163 8.0328 27.2769 7.6172
# 6 4.8027 23.6332 6.5736 7.6617 7.6172 46.8860
#
#
#
# Elastic Compliance Matrix: (Units=1/GPa)
#
#
# Indices 1 2 3 4 5 6 
#
# 1 0.012632 -0.003270 0.000829 -0.006070 0.002235 0.000867
# 2 -0.003270 0.012373 -0.001692 -0.004250 -0.002798 -0.004516
# 3 0.000829 -0.001692 0.013972 -0.009585 0.004594 -0.000371
# 4 -0.006070 -0.004250 -0.009585 0.041251 -0.010319 -0.000957
# 5 0.002235 -0.002798 0.004594 -0.010319 0.042405 -0.004666
# 6 0.000867 -0.004516 -0.000371 -0.000957 -0.004666 0.024482
#
#
# Mechanical properties :
#
#
# Convention : Reuss Voigt Hill
#
# Bulk Modulus (GPa) = 32.56220 51.20366 41.88293
# Shear Modulus (GPa) = 30.18971 37.71725 33.95348
#
# Velocity S-wave (km/s) = 3.48006 3.88980 3.69062
# Velocity P-wave (km/s) = 5.40465 6.38081 5.91291
#
# Compressibility (1/GPa) = 0.03071045
#
# Stress axis : x y z
#
# Youngs Moduli (GPa) = 79.16418 80.81996 71.57089
#
# Poissons Ratio (x) = 0.26427 -0.05930
# Poissons Ratio (y) = 0.25886 0.12111
# Poissons Ratio (z) = -0.06559 0.13676
#
# Static dielectric constant tensor:
#      x y z
#    x 1.950250 -0.013820 -0.087970 
#    y -0.013820 1.993430 -0.015360 
#    z -0.087970 -0.015360 2.230390 
# 
# From -- ./inp_files/605881.got.cif
#   From: 2010.05.17/outbox.cif.g08.bks.cpg/sg2_303_cif.got.tgz:605881.got - 2010.06.03 11:33:40.
