data_PCOD9084766
_publ_section_title
;
Structure prediction by ZEFSAII (Michael W. Deem and Ramdas Pophale) SiO2 
 PCOD9084766
Probable space group: P -1
;
_chemical_formula_sum "Si O2"
_cell_formula_units_Z 14
_cell_length_a 14.421013
_cell_length_b 11.726688
_cell_length_c 7.416638
_cell_angle_alpha 81.732729
_cell_angle_beta 111.643366
_cell_angle_gamma 152.105084
_cell_volume 495.253377
_symmetry_space_group_name_H-M "P -1"
_symmetry_group_IT_number 2
_symmetry_cell_setting 'triclinic'
loop_
_space_group_symop_operation_xyz
x,y,z
-x,-y,-z
loop_
_atom_site_type_symbol
_atom_site_label
_atom_site_fract_x
_atom_site_fract_y
_atom_site_fract_z
Si Si1 0.840326 0.093783 0.306656
Si Si2 0.669383 0.862294 0.849556
Si Si3 0.700404 0.538124 0.612433
Si Si4 0.800256 0.573737 0.045338
Si Si5 0.330260 0.875069 0.266198
Si Si6 0.957101 0.022437 0.649295
Si Si7 0.193436 0.677714 0.834967
O O1 0.799245 0.188087 0.285067
O O2 0.105778 0.343485 0.369334
O O3 0.825041 0.999552 0.494165
O O4 0.689853 0.884988 0.077966
O O5 0.484741 0.613318 0.636912
O O6 0.936203 0.132174 0.911071
O O7 0.609702 0.930803 0.748829
O O8 0.820041 0.781890 0.711928
O O9 0.643349 0.414913 0.789583
O O10 0.786505 0.437473 0.173098
O O11 0.803356 0.684954 0.156958
O O12 0.069298 0.590277 0.213545
O O13 0.500000 0.000000 0.500000
O O14 0.355200 0.853857 0.087742
O O15 0.000000 0.000000 0.500000
#
# Coordination Sequence:
#
# PCOD9084766 Si02
#       7
#     2   2   2   2   2   2   2
#     4   9  19  35  52  79 110 137 169 202 254 319
#     4   9  18  31  54  81 103 132 170 213 257 300
#     4  10  19  35  57  78 103 137 173 214 255 297
#     4  10  20  35  54  80 104 130 176 220 255 301
#     4   9  14  25  47  77 106 130 160 203 254 306
#     4  10  22  38  54  72 104 144 176 211 256 307
#     4   9  17  28  49  77 104 131 163 208 255 301
#
# _framework density 28.268359
#
# number of rings (size 3 to 8) (size 9 to 14) (size 15 to 20)
#    0.000    2.571    0.000    4.714    0.000    1.714 
#    0.000    2.857    0.000    0.000    0.000   17.000 
#    0.000    0.000    0.000    0.000    0.000    0.000 
#
# Total GULP energy -78242.064124 kJ/mol
# GULP energy per Si atom -5588.718866 kJ/mol
# Density = 2.820402 g / cm^3
# Si number density = 28.268359 Si / 1000 Ang^3
#
#
#
# Elastic Constant Matrix: (Units=GPa)
#
#
# Indices 1 2 3 4 5 6 
#
# 1 71.8173 27.8068 -1.1989 -8.8854 1.1052 -6.5919
# 2 27.8068 131.7687 30.1812 -10.0552 3.8940 -33.7800
# 3 -1.1989 30.1812 146.3950 -14.3077 15.1248 6.1030
# 4 -8.8854 -10.0552 -14.3077 58.2943 -2.8226 2.8349
# 5 1.1052 3.8940 15.1248 -2.8226 43.6113 0.4626
# 6 -6.5919 -33.7800 6.1030 2.8349 0.4626 44.3873
#
#
#
# Elastic Compliance Matrix: (Units=1/GPa)
#
#
# Indices 1 2 3 4 5 6 
#
# 1 0.015508 -0.003534 0.001117 0.002045 -0.000325 -0.000667
# 2 -0.003534 0.011074 -0.002618 0.000325 -0.000058 0.008243
# 3 0.001117 -0.002618 0.007918 0.001692 -0.002399 -0.002998
# 4 0.002045 0.000325 0.001692 0.018003 0.000506 -0.000836
# 5 -0.000325 -0.000058 -0.002399 0.000506 0.023809 -0.000043
# 6 -0.000667 0.008243 -0.002998 -0.000836 -0.000043 0.029169
#
#
# Mechanical properties :
#
#
# Convention : Reuss Voigt Hill
#
# Bulk Modulus (GPa) = 40.93285 51.50657 46.21971
# Shear Modulus (GPa) = 40.42282 48.80470 44.61376
#
# Velocity S-wave (km/s) = 3.78559 4.15960 3.97699
# Velocity P-wave (km/s) = 5.79820 6.42883 6.12164
#
# Compressibility (1/GPa) = 0.02443026
#
# Stress axis : x y z
#
# Youngs Moduli (GPa) = 64.48336 90.30198 126.29647
#
# Poissons Ratio (x) = 0.31910 -0.14105
# Poissons Ratio (y) = 0.22786 0.33062
# Poissons Ratio (z) = -0.07202 0.23640
#
# Static dielectric constant tensor:
#      x y z
#    x 2.312610 0.071880 -0.085090 
#    y 0.071880 2.272670 0.067330 
#    z -0.085090 0.067330 2.176130 
# 
# From -- ./inp_files/255573.got.cif
#   From: 2010.05.17/outbox.cif.g08.bks.cpg/sg2_128_cif.got.tgz:255573.got - 2010.06.03 11:33:40.
