data_PCOD9084616
_publ_section_title
;
Structure prediction by ZEFSAII (Michael W. Deem and Ramdas Pophale) SiO2 
 PCOD9084616
Probable space group: P -1
;
_chemical_formula_sum "Si O2"
_cell_formula_units_Z 16
_cell_length_a 7.845108
_cell_length_b 13.029165
_cell_length_c 10.643357
_cell_angle_alpha 101.743526
_cell_angle_beta 63.693245
_cell_angle_gamma 51.605761
_cell_volume 559.404636
_symmetry_space_group_name_H-M "P -1"
_symmetry_group_IT_number 2
_symmetry_cell_setting 'triclinic'
loop_
_space_group_symop_operation_xyz
x,y,z
-x,-y,-z
loop_
_atom_site_type_symbol
_atom_site_label
_atom_site_fract_x
_atom_site_fract_y
_atom_site_fract_z
Si Si1 0.690248 0.717819 0.160468
Si Si2 0.896318 0.772211 0.715344
Si Si3 0.687013 0.629128 0.519053
Si Si4 0.274766 0.734100 0.095734
Si Si5 0.997784 0.672827 0.283049
Si Si6 0.690856 0.269061 0.575669
Si Si7 0.336565 0.869419 0.926060
Si Si8 0.913856 0.302492 0.101784
O O1 0.377195 0.786184 0.306096
O O2 0.742996 0.763558 0.278809
O O3 0.000000 0.500000 0.000000
O O4 0.781387 0.755086 0.028984
O O5 0.531952 0.891220 0.861480
O O6 0.105687 0.570210 0.602854
O O7 0.985910 0.811670 0.584426
O O8 0.034023 0.766638 0.794978
O O9 0.431540 0.732425 0.513866
O O10 0.555916 0.698430 0.719511
O O11 0.872794 0.655446 0.431691
O O12 0.652288 0.530715 0.924754
O O13 0.295294 0.845479 0.075258
O O14 0.118345 0.754464 0.024164
O O15 0.076193 0.761766 0.275722
O O16 0.417646 0.481717 0.737751
O O17 0.000000 0.000000 0.000000
#
# Coordination Sequence:
#
# PCOD9084616 Si02
#       8
#     2   2   2   2   2   2   2   2
#     4   8  15  27  46  82 123 133 165 219 287 321
#     4  11  20  34  56  84 108 142 187 227 276 326
#     4  10  19  37  57  82 110 142 184 231 276 322
#     4  10  19  35  55  83 118 140 183 223 280 322
#     4   9  18  31  58  87 105 144 179 232 275 321
#     4   9  17  29  52  83 112 137 176 225 278 328
#     4  12  26  39  53  78 115 153 187 226 277 333
#     4   9  17  30  53  83 114 138 172 232 277 323
#
# _framework density 28.601835999999999
#
# number of rings (size 3 to 8) (size 9 to 14) (size 15 to 20)
#    0.000    2.250    1.250    4.125    1.750    0.000 
#    0.000    3.125    0.000    0.000    0.000    5.250 
#    0.000    0.000    0.000    0.000    0.000    0.000 
#
# Total GULP energy -89483.264658 kJ/mol
# GULP energy per Si atom -5592.704041 kJ/mol
# Density = 2.853674 g / cm^3
# Si number density = 28.601836 Si / 1000 Ang^3
#
#
#
# Elastic Constant Matrix: (Units=GPa)
#
#
# Indices 1 2 3 4 5 6 
#
# 1 150.1336 10.0825 34.6542 -8.5464 -53.2994 5.1678
# 2 10.0825 65.9824 65.1804 -41.0916 -20.8763 14.2291
# 3 34.6542 65.1804 125.0906 -43.7066 -46.6579 23.0136
# 4 -8.5464 -41.0916 -43.7066 64.3744 18.0683 -12.1743
# 5 -53.2994 -20.8763 -46.6579 18.0683 67.9393 -19.6444
# 6 5.1678 14.2291 23.0136 -12.1743 -19.6444 39.7379
#
#
#
# Elastic Compliance Matrix: (Units=1/GPa)
#
#
# Indices 1 2 3 4 5 6 
#
# 1 0.009561 0.001117 -0.000807 -0.000338 0.008179 0.002764
# 2 0.001117 0.040489 -0.016894 0.014985 -0.002739 -0.001622
# 3 -0.000807 -0.016894 0.020295 0.000454 0.007484 -0.001760
# 4 -0.000338 0.014985 0.000454 0.026174 -0.001874 0.001508
# 5 0.008179 -0.002739 0.007484 -0.001874 0.028573 0.009134
# 6 0.002764 -0.001622 -0.001760 0.001508 0.009134 0.031383
#
#
# Mechanical properties :
#
#
# Convention : Reuss Voigt Hill
#
# Bulk Modulus (GPa) = 26.89814 62.33787 44.61801
# Shear Modulus (GPa) = 24.74802 49.82963 37.28883
#
# Velocity S-wave (km/s) = 2.94472 4.17847 3.61463
# Velocity P-wave (km/s) = 4.58111 6.71728 5.74928
#
# Compressibility (1/GPa) = 0.03717729
#
# Stress axis : x y z
#
# Youngs Moduli (GPa) = 104.58846 24.69779 49.27392
#
# Poissons Ratio (x) = -0.02759 0.03975
# Poissons Ratio (y) = -0.11682 0.83245
# Poissons Ratio (z) = 0.08437 0.41725
#
# Static dielectric constant tensor:
#      x y z
#    x 2.311870 0.038910 0.036830 
#    y 0.038910 2.229790 0.010510 
#    z 0.036830 0.010510 2.244900 
# 
# From -- ./inp_files/403115.got.cif
#   From: 2010.05.17/outbox.cif.g08.bks.cpg/sg2_202_cif.got.tgz:403115.got - 2010.06.03 11:33:40.
