data_PCOD9084168
_publ_section_title
;
Structure prediction by ZEFSAII (Michael W. Deem and Ramdas Pophale) SiO2 
 PCOD9084168
Probable space group: P -1
;
_chemical_formula_sum "Si O2"
_cell_formula_units_Z 16
_cell_length_a 21.098498
_cell_length_b 14.316749
_cell_length_c 19.787919
_cell_angle_alpha 159.980404
_cell_angle_beta 160.752742
_cell_angle_gamma 23.462510
_cell_volume 649.825873
_symmetry_space_group_name_H-M "P -1"
_symmetry_group_IT_number 2
_symmetry_cell_setting 'triclinic'
loop_
_space_group_symop_operation_xyz
x,y,z
-x,-y,-z
loop_
_atom_site_type_symbol
_atom_site_label
_atom_site_fract_x
_atom_site_fract_y
_atom_site_fract_z
Si Si1 0.898093 0.825220 0.541636
Si Si2 0.755615 0.361022 0.144281
Si Si3 0.975649 0.537547 0.283031
Si Si4 0.449439 0.335252 0.729796
Si Si5 0.789582 0.923330 0.245739
Si Si6 0.326412 0.458740 0.475058
Si Si7 0.029016 0.581023 0.007367
Si Si8 0.327658 0.796725 0.261943
O O1 0.022011 0.786750 0.710482
O O2 0.738432 0.656836 0.288825
O O3 0.995381 0.640917 0.448673
O O4 0.887040 0.143951 0.726349
O O5 0.651717 0.425143 0.156095
O O6 0.652593 0.183049 0.871981
O O7 0.807148 0.785683 0.243682
O O8 0.175741 0.491475 0.409735
O O9 0.880887 0.275349 0.002228
O O10 0.528054 0.405214 0.785259
O O11 0.321667 0.110006 0.444162
O O12 0.813579 0.676884 0.047312
O O13 0.639579 0.230267 0.294370
O O14 0.000000 0.000000 0.500000
O O15 0.186861 0.374892 0.218930
O O16 0.545118 0.262368 0.580951
O O17 0.000000 0.500000 0.000000
#
# Coordination Sequence:
#
# PCOD9084168 Si02
#       8
#     2   2   2   2   2   2   2   2
#     4  11  20  35  59  88 110 155 195 224 292 349
#     4  10  22  37  57  81 120 150 188 242 284 339
#     4  10  20  37  59  85 113 152 188 236 281 336
#     4  10  22  40  52  83 115 150 190 242 287 327
#     4   8  18  35  56  83 115 145 185 235 280 330
#     4  10  21  38  60  87 113 151 192 234 285 339
#     4  10  19  34  61  87 116 149 185 238 290 341
#     4  11  22  38  61  82 114 154 194 234 284 341
#
# _framework density 24.621981000000002
#
# number of rings (size 3 to 8) (size 9 to 14) (size 15 to 20)
#    0.000    2.250    1.250    3.750    3.500    0.500 
#    0.000    1.875    0.000    3.750    0.000    0.000 
#    0.000    0.000    0.000    0.000    0.000    0.000 
#
# Total GULP energy -89303.136537 kJ/mol
# GULP energy per Si atom -5581.446034 kJ/mol
# Density = 2.456594 g / cm^3
# Si number density = 24.621981 Si / 1000 Ang^3
#
#
#
# Elastic Constant Matrix: (Units=GPa)
#
#
# Indices 1 2 3 4 5 6 
#
# 1 114.5243 17.6777 45.7099 -0.5974 -8.8221 18.8000
# 2 17.6777 58.3877 35.0303 10.2579 -2.4133 8.1003
# 3 45.7099 35.0303 143.7354 12.9132 -3.3001 7.1697
# 4 -0.5974 10.2579 12.9132 41.8738 12.7742 -4.9873
# 5 -8.8221 -2.4133 -3.3001 12.7742 39.7115 0.2930
# 6 18.8000 8.1003 7.1697 -4.9873 0.2930 20.3497
#
#
#
# Elastic Compliance Matrix: (Units=1/GPa)
#
#
# Indices 1 2 3 4 5 6 
#
# 1 0.011841 -0.000052 -0.003107 -0.000894 0.002731 -0.010082
# 2 -0.000052 0.022142 -0.004331 -0.006043 0.002983 -0.008763
# 3 -0.003107 -0.004331 0.009125 -0.001801 0.000377 0.000932
# 4 -0.000894 -0.006043 -0.001801 0.030512 -0.010615 0.011497
# 5 0.002731 0.002983 0.000377 -0.010615 0.029466 -0.006869
# 6 -0.010082 -0.008763 0.000932 0.011497 -0.006869 0.064531
#
#
# Mechanical properties :
#
#
# Convention : Reuss Voigt Hill
#
# Bulk Modulus (GPa) = 35.55327 57.05368 46.30347
# Shear Modulus (GPa) = 26.04533 34.93563 30.49048
#
# Velocity S-wave (km/s) = 3.25592 3.77089 3.52283
# Velocity P-wave (km/s) = 5.34843 6.49474 5.94926
#
# Compressibility (1/GPa) = 0.02812681
#
# Stress axis : x y z
#
# Youngs Moduli (GPa) = 84.45523 45.16315 109.59156
#
# Poissons Ratio (x) = 0.00236 0.34048
# Poissons Ratio (y) = 0.00442 0.47466
# Poissons Ratio (z) = 0.26239 0.19561
#
# Static dielectric constant tensor:
#      x y z
#    x 1.937480 -0.027250 0.033370 
#    y -0.027250 2.131320 -0.031020 
#    z 0.033370 -0.031020 2.023300 
# 
# From -- ./inp_files/347299.got.cif
#   From: 2010.05.17/outbox.cif.g08.bks.cpg/sg2_174_cif.got.tgz:347299.got - 2010.06.03 11:33:40.
