data_PCOD9084147
_publ_section_title
;
Structure prediction by ZEFSAII (Michael W. Deem and Ramdas Pophale) SiO2 
 PCOD9084147
Probable space group: P -1
;
_chemical_formula_sum "Si O2"
_cell_formula_units_Z 16
_cell_length_a 27.602941
_cell_length_b 8.999167
_cell_length_c 27.404431
_cell_angle_alpha 141.291796
_cell_angle_beta 10.137619
_cell_angle_gamma 141.460770
_cell_volume 743.183216
_symmetry_space_group_name_H-M "P -1"
_symmetry_group_IT_number 2
_symmetry_cell_setting 'triclinic'
loop_
_space_group_symop_operation_xyz
x,y,z
-x,-y,-z
loop_
_atom_site_type_symbol
_atom_site_label
_atom_site_fract_x
_atom_site_fract_y
_atom_site_fract_z
Si Si1 0.708335 0.948039 0.040851
Si Si2 0.412853 0.012440 0.716105
Si Si3 0.390860 0.218220 0.191219
Si Si4 0.231297 0.512051 0.901222
Si Si5 0.035417 0.635547 0.288372
Si Si6 0.246308 0.569578 0.577816
Si Si7 0.834353 0.338171 0.498055
Si Si8 0.861263 0.712247 0.166528
O O1 0.679240 0.919580 0.121108
O O2 0.393307 0.879938 0.319513
O O3 0.877531 0.752283 0.797857
O O4 0.834370 0.218436 0.975020
O O5 0.585643 0.217784 0.565498
O O6 0.124550 0.914502 0.950836
O O7 0.621390 0.810557 0.461191
O O8 0.122301 0.159983 0.477222
O O9 0.288656 0.413790 0.304930
O O10 0.645519 0.329735 0.002405
O O11 0.500000 0.000000 0.000000
O O12 0.974148 0.367588 0.147660
O O13 0.268243 0.380963 0.780125
O O14 0.510384 0.538863 0.662941
O O15 0.947029 0.600413 0.311577
O O16 0.886960 0.400504 0.404194
O O17 0.000000 0.500000 0.000000
#
# Coordination Sequence:
#
# PCOD9084147 Si02
#       8
#     2   2   2   2   2   2   2   2
#     4  12  22  40  63  93 117 171 208 269 305 365
#     4  12  25  41  71  82 122 165 211 267 333 369
#     4  10  19  34  61 103 136 156 193 260 307 353
#     4  12  28  41  62  88 129 159 220 265 319 378
#     4  10  20  36  60  92 130 159 201 248 306 369
#     4  12  26  43  61  94 124 168 207 265 315 376
#     4  10  20  34  64  93 125 152 214 242 307 364
#     4  12  26  43  64  91 118 162 217 269 329 382
#
# _framework density 21.52901
#
# number of rings (size 3 to 8) (size 9 to 14) (size 15 to 20)
#    0.750    0.000    3.750    4.500    3.500    3.000 
#    0.000    0.000    0.000    0.000    0.000   17.500 
#    0.000    0.000    0.000    0.000    0.000    0.000 
#
# Total GULP energy -89198.712202 kJ/mol
# GULP energy per Si atom -5574.919513 kJ/mol
# Density = 2.148001 g / cm^3
# Si number density = 21.529010 Si / 1000 Ang^3
#
#
#
# Elastic Constant Matrix: (Units=GPa)
#
#
# Indices 1 2 3 4 5 6 
#
# 1 42.0671 12.2729 16.1894 -1.4032 -6.4809 -3.1256
# 2 12.2729 62.5523 29.2316 6.1625 0.8691 -3.2777
# 3 16.1894 29.2316 134.1425 14.0827 -8.6969 -0.5246
# 4 -1.4032 6.1625 14.0827 40.4124 4.4685 4.3030
# 5 -6.4809 0.8691 -8.6969 4.4685 25.8590 -1.8125
# 6 -3.1256 -3.2777 -0.5246 4.3030 -1.8125 17.1995
#
#
#
# Elastic Compliance Matrix: (Units=1/GPa)
#
#
# Indices 1 2 3 4 5 6 
#
# 1 0.027171 -0.004356 -0.002017 0.001131 0.006393 0.004437
# 2 -0.004356 0.018860 -0.003535 -0.001840 -0.002393 0.002903
# 3 -0.002017 -0.003535 0.008997 -0.003055 0.003191 0.000335
# 4 0.001131 -0.001840 -0.003055 0.027621 -0.006000 -0.007781
# 5 0.006393 -0.002393 0.003191 -0.006000 0.042943 0.006830
# 6 0.004437 0.002903 0.000335 -0.007781 0.006830 0.062177
#
#
# Mechanical properties :
#
#
# Convention : Reuss Voigt Hill
#
# Bulk Modulus (GPa) = 28.39908 39.34995 33.87452
# Shear Modulus (GPa) = 22.79753 28.76540 25.78146
#
# Velocity S-wave (km/s) = 3.25764 3.65927 3.46428
# Velocity P-wave (km/s) = 5.23157 6.01423 5.63650
#
# Compressibility (1/GPa) = 0.03521240
#
# Stress axis : x y z
#
# Youngs Moduli (GPa) = 36.80395 53.02290 111.14451
#
# Poissons Ratio (x) = 0.23098 0.22416
# Poissons Ratio (y) = 0.16033 0.39286
# Poissons Ratio (z) = 0.07423 0.18742
#
# Static dielectric constant tensor:
#      x y z
#    x 1.770440 -0.000760 -0.008990 
#    y -0.000760 1.861240 0.026830 
#    z -0.008990 0.026830 1.802270 
# 
# From -- ./inp_files/621161.got.cif
#   From: 2010.05.17/outbox.cif.g08.bks.cpg/sg2_311_cif.got.tgz:621161.got - 2010.06.03 11:33:40.
