data_PCOD9084547
_publ_section_title
;
Structure prediction by ZEFSAII (Michael W. Deem and Ramdas Pophale) SiO2 
 PCOD9084547
Probable space group: P -1
;
_chemical_formula_sum "Si O2"
_cell_formula_units_Z 16
_cell_length_a 7.368213
_cell_length_b 7.355956
_cell_length_c 17.822237
_cell_angle_alpha 99.347293
_cell_angle_beta 123.157687
_cell_angle_gamma 65.573100
_cell_volume 733.713594
_symmetry_space_group_name_H-M "P -1"
_symmetry_group_IT_number 2
_symmetry_cell_setting 'triclinic'
loop_
_space_group_symop_operation_xyz
x,y,z
-x,-y,-z
loop_
_atom_site_type_symbol
_atom_site_label
_atom_site_fract_x
_atom_site_fract_y
_atom_site_fract_z
Si Si1 0.263970 0.080006 0.346843
Si Si2 0.306607 0.286544 0.509531
Si Si3 0.814816 0.281623 0.461967
Si Si4 0.076058 0.040453 0.641724
Si Si5 0.616595 0.840407 0.183069
Si Si6 0.759393 0.734910 0.900840
Si Si7 0.844330 0.018967 0.844555
Si Si8 0.918887 0.680555 0.100966
O O1 0.489254 0.891671 0.414352
O O2 0.038539 0.045085 0.325880
O O3 0.234654 0.077634 0.251177
O O4 0.287223 0.257205 0.413575
O O5 0.342420 0.488124 0.548562
O O6 0.063550 0.283706 0.487911
O O7 0.873391 0.165921 0.545942
O O8 0.746747 0.146187 0.378945
O O9 0.194283 0.180463 0.711696
O O10 0.392744 0.809410 0.163500
O O11 0.742344 0.709257 0.131877
O O12 0.495357 0.082822 0.155293
O O13 0.849299 0.526711 0.862038
O O14 0.925952 0.847106 0.915025
O O15 0.796185 0.687631 0.993636
O O16 0.014362 0.126032 0.868360
#
# Coordination Sequence:
#
# PCOD9084547 Si02
#       8
#     2   2   2   2   2   2   2   2
#     4  10  19  35  54  81 119 153 194 250 292 346
#     4   9  19  34  54  79 112 155 198 240 294 353
#     4   9  19  34  54  79 112 155 198 240 294 353
#     4  10  19  35  54  81 119 153 194 250 292 346
#     4  10  22  39  62  91 122 164 198 252 306 356
#     4   9  24  40  65  96 119 162 201 250 306 369
#     4  10  22  39  62  91 122 164 198 252 306 356
#     4  11  20  46  63  90 131 150 207 254 298 375
#
# _framework density 21.806873
#
# number of rings (size 3 to 8) (size 9 to 14) (size 15 to 20)
#    0.750    1.500    1.250    1.500    0.000    3.500 
#    2.250    3.750    0.000    0.000    0.000    0.000 
#    0.000    0.000    0.000    0.000    0.000    0.000 
#
# Total GULP energy -89191.960808 kJ/mol
# GULP energy per Si atom -5574.497550 kJ/mol
# Density = 2.175724 g / cm^3
# Si number density = 21.806873 Si / 1000 Ang^3
#
#
#
# Elastic Constant Matrix: (Units=GPa)
#
#
# Indices 1 2 3 4 5 6 
#
# 1 43.3427 -3.0318 7.1492 8.4379 -14.4212 -8.1457
# 2 -3.0318 67.7085 4.1529 10.7782 -12.1763 -3.2666
# 3 7.1492 4.1529 49.2400 11.8297 -25.7138 -15.1268
# 4 8.4379 10.7782 11.8297 9.9193 -11.1648 -0.8242
# 5 -14.4212 -12.1763 -25.7138 -11.1648 25.8342 7.0176
# 6 -8.1457 -3.2666 -15.1268 -0.8242 7.0176 27.3839
#
#
#
# Elastic Compliance Matrix: (Units=1/GPa)
#
#
# Indices 1 2 3 4 5 6 
#
# 1 0.042727 0.014164 0.025824 -0.045834 0.031181 0.019294
# 2 0.014164 0.024170 0.017578 -0.039707 0.016546 0.011371
# 3 0.025824 0.017578 0.068254 -0.053119 0.059348 0.030674
# 4 -0.045834 -0.039707 -0.053119 0.288072 0.040769 -0.049490
# 5 0.031181 0.016546 0.059348 0.040769 0.137909 0.009918
# 6 0.019294 0.011371 0.030674 -0.049490 0.009918 0.056527
#
#
# Mechanical properties :
#
#
# Convention : Reuss Voigt Hill
#
# Bulk Modulus (GPa) = 3.99549 19.64799 11.82174
# Shear Modulus (GPa) = 8.53309 22.76221 15.64765
#
# Velocity S-wave (km/s) = 1.98028 3.23431 2.68163
# Velocity P-wave (km/s) = 2.65799 4.79346 3.87570
#
# Compressibility (1/GPa) = 0.25028193
#
# Stress axis : x y z
#
# Youngs Moduli (GPa) = 23.40451 41.37336 14.65120
#
# Poissons Ratio (x) = -0.58600 -0.37835
# Poissons Ratio (y) = -0.33149 -0.25754
# Poissons Ratio (z) = -0.60439 -0.72727
#
# Static dielectric constant tensor:
#      x y z
#    x 1.835640 -0.020360 -0.016360 
#    y -0.020360 1.815100 0.025440 
#    z -0.016360 0.025440 1.797370 
# 
# From -- ./inp_files/349932.got.cif
#   From: 2010.05.17/outbox.cif.g08.bks.cpg/sg2_175_cif.got.tgz:349932.got - 2010.06.03 11:33:40.
