data_PCOD9084314
_publ_section_title
;
Structure prediction by ZEFSAII (Michael W. Deem and Ramdas Pophale) SiO2 
 PCOD9084314
Probable space group: P -1
;
_chemical_formula_sum "Si O2"
_cell_formula_units_Z 16
_cell_length_a 7.772034
_cell_length_b 13.360303
_cell_length_c 12.824045
_cell_angle_alpha 127.348061
_cell_angle_beta 71.731749
_cell_angle_gamma 136.041743
_cell_volume 716.239424
_symmetry_space_group_name_H-M "P -1"
_symmetry_group_IT_number 2
_symmetry_cell_setting 'triclinic'
loop_
_space_group_symop_operation_xyz
x,y,z
-x,-y,-z
loop_
_atom_site_type_symbol
_atom_site_label
_atom_site_fract_x
_atom_site_fract_y
_atom_site_fract_z
Si Si1 0.740561 0.171487 0.275194
Si Si2 0.170915 0.203446 0.129682
Si Si3 0.330368 0.851432 0.026072
Si Si4 0.667992 0.988661 0.360113
Si Si5 0.084415 0.754319 0.363492
Si Si6 0.579824 0.704257 0.079782
Si Si7 0.857192 0.644717 0.107171
Si Si8 0.655217 0.361418 0.260233
O O1 0.735427 0.151017 0.387148
O O2 0.679068 0.276515 0.300290
O O3 0.992548 0.233475 0.214948
O O4 0.512758 0.963272 0.158382
O O5 0.371239 0.271291 0.227978
O O6 0.323152 0.295109 0.050977
O O7 0.000000 0.000000 0.000000
O O8 0.067485 0.780346 0.066314
O O9 0.283834 0.693086 0.888194
O O10 0.500000 0.000000 0.000000
O O11 0.849279 0.083865 0.486326
O O12 0.370444 0.836075 0.351590
O O13 0.714657 0.896099 0.215055
O O14 0.974224 0.710437 0.240151
O O15 0.869058 0.572349 0.352294
O O16 0.642012 0.642502 0.125042
O O17 0.275361 0.552370 0.022985
#
# Coordination Sequence:
#
# PCOD9084314 Si02
#       8
#     2   2   2   2   2   2   2   2
#     4  11  23  39  66  98 130 171 219 268 336 387
#     4  12  22  37  64 101 130 162 218 279 326 394
#     4  10  19  34  62  97 122 162 209 266 326 384
#     4  11  24  43  67  91 130 176 222 272 322 398
#     4  11  25  44  63  94 130 175 227 263 325 400
#     4  11  23  40  66  99 130 167 215 283 330 383
#     4  11  23  39  67  98 131 167 220 272 336 392
#     4  11  23  40  65  93 138 171 209 281 328 382
#
# _framework density 22.338898
#
# number of rings (size 3 to 8) (size 9 to 14) (size 15 to 20)
#    0.000    1.000    5.000    2.250    1.750    3.000 
#    0.000    0.625    0.000    0.000    0.000    0.000 
#    0.000    0.000    0.000    0.000    0.000    0.000 
#
# Total GULP energy -89151.615826 kJ/mol
# GULP energy per Si atom -5571.975989 kJ/mol
# Density = 2.228805 g / cm^3
# Si number density = 22.338898 Si / 1000 Ang^3
#
#
#
# Elastic Constant Matrix: (Units=GPa)
#
#
# Indices 1 2 3 4 5 6 
#
# 1 87.6551 26.5882 36.2318 13.1909 22.0714 1.7119
# 2 26.5882 105.7859 28.7871 10.8928 9.4588 3.1266
# 3 36.2318 28.7871 91.7800 17.0382 35.1863 2.1980
# 4 13.1909 10.8928 17.0382 28.7971 10.1368 1.3768
# 5 22.0714 9.4588 35.1863 10.1368 25.7573 2.7316
# 6 1.7119 3.1266 2.1980 1.3768 2.7316 30.9690
#
#
#
# Elastic Compliance Matrix: (Units=1/GPa)
#
#
# Indices 1 2 3 4 5 6 
#
# 1 0.015446 -0.002495 -0.001085 -0.001950 -0.010118 0.000454
# 2 -0.002495 0.010944 -0.003495 -0.002249 0.003880 -0.000961
# 3 -0.001085 -0.003495 0.024490 -0.001960 -0.030626 0.001463
# 4 -0.001950 -0.002249 -0.001960 0.041571 -0.011144 -0.000391
# 5 -0.010118 0.003880 -0.030626 -0.011144 0.092860 -0.005354
# 6 0.000454 -0.000961 0.001463 -0.000391 -0.005354 0.032748
#
#
# Mechanical properties :
#
#
# Convention : Reuss Voigt Hill
#
# Bulk Modulus (GPa) = 27.22473 52.04836 39.63654
# Shear Modulus (GPa) = 20.45388 30.01225 25.23307
#
# Velocity S-wave (km/s) = 3.02920 3.66935 3.36453
# Velocity P-wave (km/s) = 4.94453 6.42668 5.73370
#
# Compressibility (1/GPa) = 0.03673131
#
# Stress axis : x y z
#
# Youngs Moduli (GPa) = 64.74248 91.37267 40.83266
#
# Poissons Ratio (x) = 0.22796 0.04430
# Poissons Ratio (y) = 0.16153 0.14270
# Poissons Ratio (z) = 0.07024 0.31932
#
# Static dielectric constant tensor:
#      x y z
#    x 1.933860 -0.058300 0.014710 
#    y -0.058300 1.939480 -0.015310 
#    z 0.014710 -0.015310 1.894460 
# 
# From -- ./inp_files/503075.got.cif
#   From: 2010.05.17/outbox.cif.g08.bks.cpg/sg2_252_cif.got.tgz:503075.got - 2010.06.03 11:33:40.
