data_PCOD9084750
_publ_section_title
;
Structure prediction by ZEFSAII (Michael W. Deem and Ramdas Pophale) SiO2 
 PCOD9084750
Probable space group: P -1
;
_chemical_formula_sum "Si O2"
_cell_formula_units_Z 16
_cell_length_a 8.791519
_cell_length_b 14.207906
_cell_length_c 13.939110
_cell_angle_alpha 38.159019
_cell_angle_beta 41.119809
_cell_angle_gamma 43.532237
_cell_volume 668.692222
_symmetry_space_group_name_H-M "P -1"
_symmetry_group_IT_number 2
_symmetry_cell_setting 'triclinic'
loop_
_space_group_symop_operation_xyz
x,y,z
-x,-y,-z
loop_
_atom_site_type_symbol
_atom_site_label
_atom_site_fract_x
_atom_site_fract_y
_atom_site_fract_z
Si Si1 0.560982 0.720306 0.274753
Si Si2 0.293392 0.016421 0.663973
Si Si3 0.219358 0.367371 0.450455
Si Si4 0.064060 0.238456 0.258156
Si Si5 0.930756 0.035055 0.658160
Si Si6 0.564017 0.472337 0.331619
Si Si7 0.878510 0.447876 0.826643
Si Si8 0.498237 0.689314 0.948133
O O1 0.363352 0.893118 0.249570
O O2 0.485889 0.652005 0.266064
O O3 0.508933 0.621584 0.469867
O O4 0.855156 0.669970 0.177423
O O5 0.259600 0.181888 0.604577
O O6 0.051808 0.031123 0.706609
O O7 0.500000 0.000000 0.500000
O O8 0.392751 0.851736 0.806106
O O9 0.451835 0.414656 0.338411
O O10 0.136004 0.395518 0.356398
O O11 0.000000 0.500000 0.500000
O O12 0.326338 0.260472 0.101952
O O13 0.035063 0.139243 0.448480
O O14 0.854325 0.408037 0.233879
O O15 0.002536 0.139786 0.279968
O O16 0.695006 0.530820 0.932841
O O17 0.746418 0.357263 0.890411
#
# Coordination Sequence:
#
# PCOD9084750 Si02
#       8
#     2   2   2   2   2   2   2   2
#     4  10  20  38  59  89 123 163 199 250 314 364
#     4  12  22  39  63  94 124 160 212 254 299 363
#     4  12  23  38  63  97 125 154 213 260 301 359
#     4  10  19  35  56  91 117 158 202 250 309 354
#     4  10  21  34  60  89 123 153 206 263 299 356
#     4  10  20  33  60  90 120 153 205 258 295 356
#     4  11  23  43  62  91 129 168 202 251 319 372
#     4  11  24  41  64  90 129 168 204 251 312 379
#
# _framework density 23.927302999999998
#
# number of rings (size 3 to 8) (size 9 to 14) (size 15 to 20)
#    0.000    1.250    5.000    1.500    5.250    0.000 
#    0.000    5.000    0.000    0.000    0.000    0.000 
#    0.000    0.000    0.000    0.000    0.000    0.000 
#
# Total GULP energy -89277.023860 kJ/mol
# GULP energy per Si atom -5579.813991 kJ/mol
# Density = 2.387284 g / cm^3
# Si number density = 23.927303 Si / 1000 Ang^3
#
#
#
# Elastic Constant Matrix: (Units=GPa)
#
#
# Indices 1 2 3 4 5 6 
#
# 1 102.2922 14.9311 13.8738 5.4763 -26.3343 -5.4761
# 2 14.9311 111.3087 19.0419 10.8261 -12.7069 -7.6970
# 3 13.8738 19.0419 35.1808 -0.2486 -8.7738 -5.0383
# 4 5.4763 10.8261 -0.2486 20.8837 -4.5239 -9.8753
# 5 -26.3343 -12.7069 -8.7738 -4.5239 31.2398 3.9840
# 6 -5.4761 -7.6970 -5.0383 -9.8753 3.9840 41.4725
#
#
#
# Elastic Compliance Matrix: (Units=1/GPa)
#
#
# Indices 1 2 3 4 5 6 
#
# 1 0.012720 -0.000029 -0.002541 -0.001156 0.009811 0.000148
# 2 -0.000029 0.010622 -0.005269 -0.005158 0.002082 -0.000101
# 3 -0.002541 -0.005269 0.034356 0.006946 0.005866 0.003951
# 4 -0.001156 -0.005158 0.006946 0.058358 0.005661 0.013086
# 5 0.009811 0.002082 0.005866 0.005661 0.043653 -0.000451
# 6 0.000148 -0.000101 0.003951 0.013086 -0.000451 0.027753
#
#
# Mechanical properties :
#
#
# Convention : Reuss Voigt Hill
#
# Bulk Modulus (GPa) = 23.79804 38.27505 31.03655
# Shear Modulus (GPa) = 23.02586 32.11484 27.57035
#
# Velocity S-wave (km/s) = 3.10550 3.66756 3.39817
# Velocity P-wave (km/s) = 4.77770 5.82801 5.32880
#
# Compressibility (1/GPa) = 0.04202026
#
# Stress axis : x y z
#
# Youngs Moduli (GPa) = 78.61379 94.14646 29.10665
#
# Poissons Ratio (x) = 0.00273 0.07395
# Poissons Ratio (y) = 0.00228 0.15337
# Poissons Ratio (z) = 0.19974 0.49609
#
# Static dielectric constant tensor:
#      x y z
#    x 2.003890 -0.005400 0.010940 
#    y -0.005400 1.819290 0.019850 
#    z 0.010940 0.019850 1.969250 
# 
# From -- ./inp_files/261764.got.cif
#   From: 2010.05.17/outbox.cif.g08.bks.cpg/sg2_131_cif.got.tgz:261764.got - 2010.06.03 11:33:40.
