data_PCOD9084240
_publ_section_title
;
Structure prediction by ZEFSAII (Michael W. Deem and Ramdas Pophale) SiO2 
 PCOD9084240
Probable space group: P -1
;
_chemical_formula_sum "Si O2"
_cell_formula_units_Z 14
_cell_length_a 8.089274
_cell_length_b 9.600499
_cell_length_c 18.388547
_cell_angle_alpha 49.193865
_cell_angle_beta 39.091932
_cell_angle_gamma 65.570406
_cell_volume 668.363962
_symmetry_space_group_name_H-M "P -1"
_symmetry_group_IT_number 2
_symmetry_cell_setting 'triclinic'
loop_
_space_group_symop_operation_xyz
x,y,z
-x,-y,-z
loop_
_atom_site_type_symbol
_atom_site_label
_atom_site_fract_x
_atom_site_fract_y
_atom_site_fract_z
Si Si1 0.406939 0.634340 0.096408
Si Si2 0.863990 0.964895 0.844515
Si Si3 0.225823 0.638251 0.002603
Si Si4 0.825122 0.969421 0.143412
Si Si5 0.721542 0.227594 0.674033
Si Si6 0.756372 0.583692 0.641185
Si Si7 0.167546 0.638380 0.832547
O O1 0.300919 0.707694 0.034198
O O2 0.203848 0.524262 0.261005
O O3 0.571990 0.483613 0.058092
O O4 0.605421 0.805800 0.009259
O O5 0.063377 0.831161 0.793887
O O6 0.008074 0.075267 0.827755
O O7 0.775040 0.087322 0.768382
O O8 0.942334 0.497166 0.151269
O O9 0.226280 0.821965 0.892559
O O10 0.542894 0.844952 0.258625
O O11 0.000000 0.000000 0.000000
O O12 0.703311 0.423794 0.651853
O O13 0.986228 0.266418 0.520609
O O14 0.483450 0.659077 0.720716
O O15 0.000000 0.500000 0.000000
#
# Coordination Sequence:
#
# PCOD9084240 Si02
#       7
#     2   2   2   2   2   2   2
#     4  10  19  37  67  87 120 165 205 258 304 369
#     4  11  22  41  67  96 124 162 220 256 309 373
#     4  10  19  34  61  98 118 152 219 252 305 364
#     4  12  23  37  64  95 126 160 211 265 305 373
#     4  11  27  43  61  95 132 168 207 257 324 375
#     4  11  23  46  62  86 134 172 202 261 322 372
#     4  11  19  40  67  91 124 166 213 258 307 371
#
# _framework density 20.946670999999998
#
# number of rings (size 3 to 8) (size 9 to 14) (size 15 to 20)
#    0.000    1.143    5.714    1.714    2.000    1.714 
#    2.571    4.286    0.000    0.000    0.000    0.000 
#    0.000    0.000    0.000    0.000    0.000    0.000 
#
# Total GULP energy -78099.242227 kJ/mol
# GULP energy per Si atom -5578.517302 kJ/mol
# Density = 2.089900 g / cm^3
# Si number density = 20.946671 Si / 1000 Ang^3
#
#
#
# Elastic Constant Matrix: (Units=GPa)
#
#
# Indices 1 2 3 4 5 6 
#
# 1 113.2045 16.3293 40.0550 -3.0639 -6.5883 23.2605
# 2 16.3293 63.1954 23.2124 -2.5438 -12.2629 1.1913
# 3 40.0550 23.2124 128.6594 10.4349 -14.2031 9.0608
# 4 -3.0639 -2.5438 10.4349 25.0098 -0.5657 -5.3677
# 5 -6.5883 -12.2629 -14.2031 -0.5657 28.4457 -6.6886
# 6 23.2605 1.1913 9.0608 -5.3677 -6.6886 36.8397
#
#
#
# Elastic Compliance Matrix: (Units=1/GPa)
#
#
# Indices 1 2 3 4 5 6 
#
# 1 0.011461 -0.001933 -0.002974 0.001025 -0.001173 -0.006506
# 2 -0.001933 0.018709 -0.002482 0.003516 0.007163 0.003039
# 3 -0.002974 -0.002482 0.009907 -0.004823 0.002940 -0.000648
# 4 0.001025 0.003516 -0.004823 0.044067 0.001913 0.007193
# 5 -0.001173 0.007163 0.002940 0.001913 0.041253 0.007555
# 6 -0.006506 0.003039 -0.000648 0.007193 0.007555 0.033733
#
#
# Mechanical properties :
#
#
# Convention : Reuss Voigt Hill
#
# Bulk Modulus (GPa) = 39.52569 51.58363 45.55466
# Shear Modulus (GPa) = 27.42099 33.08987 30.25543
#
# Velocity S-wave (km/s) = 3.62205 3.97888 3.80465
# Velocity P-wave (km/s) = 6.03349 6.76670 6.41059
#
# Compressibility (1/GPa) = 0.02530000
#
# Stress axis : x y z
#
# Youngs Moduli (GPa) = 87.25321 53.44938 100.93427
#
# Poissons Ratio (x) = 0.10331 0.30016
# Poissons Ratio (y) = 0.16864 0.25054
# Poissons Ratio (z) = 0.25948 0.13267
#
# Static dielectric constant tensor:
#      x y z
#    x 1.908320 0.021530 -0.006540 
#    y 0.021530 1.836960 0.027290 
#    z -0.006540 0.027290 1.716880 
# 
# From -- ./inp_files/296496.got.cif
#   From: 2010.05.17/outbox.cif.g08.bks.cpg/sg2_149_cif.got.tgz:296496.got - 2010.06.03 11:33:40.
