data_PCOD9084053
_publ_section_title
;
Structure prediction by ZEFSAII (Michael W. Deem and Ramdas Pophale) SiO2 
 PCOD9084053
Probable space group: P -1
;
_chemical_formula_sum "Si O2"
_cell_formula_units_Z 16
_cell_length_a 9.363598
_cell_length_b 18.656364
_cell_length_c 5.395819
_cell_angle_alpha 131.638371
_cell_angle_beta 110.460566
_cell_angle_gamma 93.106906
_cell_volume 602.253051
_symmetry_space_group_name_H-M "P -1"
_symmetry_group_IT_number 2
_symmetry_cell_setting 'triclinic'
loop_
_space_group_symop_operation_xyz
x,y,z
-x,-y,-z
loop_
_atom_site_type_symbol
_atom_site_label
_atom_site_fract_x
_atom_site_fract_y
_atom_site_fract_z
Si Si1 0.433553 0.829604 0.109493
Si Si2 0.905579 0.342939 0.417350
Si Si3 0.251335 0.520302 0.496898
Si Si4 0.969070 0.170512 0.783523
Si Si5 0.635294 0.999584 0.279411
Si Si6 0.137585 0.258458 0.583068
Si Si7 0.476651 0.284961 0.678080
Si Si8 0.443727 0.411647 0.550113
O O1 0.358008 0.915600 0.311949
O O2 0.507775 0.807410 0.361516
O O3 0.568872 0.887197 0.113052
O O4 0.271300 0.723964 0.705446
O O5 0.907053 0.455116 0.608983
O O6 0.059766 0.343496 0.673231
O O7 0.902520 0.263803 0.007741
O O8 0.267265 0.418244 0.386800
O O9 0.395592 0.549988 0.442347
O O10 0.342807 0.619271 0.966414
O O11 0.819506 0.055333 0.409767
O O12 0.065520 0.195732 0.643410
O O13 0.073099 0.182307 0.126973
O O14 0.500000 0.000000 0.000000
O O15 0.336024 0.305033 0.799142
O O16 0.422749 0.302706 0.410873
O O17 0.500000 0.500000 0.000000
#
# Coordination Sequence:
#
# PCOD9084053 Si02
#       8
#     2   2   2   2   2   2   2   2
#     4   9  19  35  54  86 107 141 197 239 286 333
#     4   8  18  34  57  83 111 150 191 239 280 341
#     4   9  18  35  60  84 112 142 195 234 288 333
#     4   9  21  37  58  80 116 155 191 236 286 338
#     4  10  19  34  60  81 113 146 193 244 285 332
#     4  10  21  38  57  82 117 159 188 234 287 344
#     4  10  21  35  57  82 114 150 190 233 287 345
#     4   9  19  34  55  86 115 146 180 243 285 335
#
# _framework density 26.566903
#
# number of rings (size 3 to 8) (size 9 to 14) (size 15 to 20)
#    0.750    2.000    0.000    0.750    3.500    6.000 
#    0.000    1.875    0.000    7.500    0.000    0.000 
#    0.000    0.000    0.000    0.000    0.000    0.000 
#
# Total GULP energy -89268.399748 kJ/mol
# GULP energy per Si atom -5579.274984 kJ/mol
# Density = 2.650644 g / cm^3
# Si number density = 26.566903 Si / 1000 Ang^3
#
#
#
# Elastic Constant Matrix: (Units=GPa)
#
#
# Indices 1 2 3 4 5 6 
#
# 1 74.2801 38.3783 19.9515 2.3328 15.5819 0.2407
# 2 38.3783 174.4964 23.1059 -3.6472 1.6938 0.9480
# 3 19.9515 23.1059 55.5674 -9.9552 8.7671 -3.0792
# 4 2.3328 -3.6472 -9.9552 43.4085 -6.5620 -5.4610
# 5 15.5819 1.6938 8.7671 -6.5620 31.8232 2.6309
# 6 0.2407 0.9480 -3.0792 -5.4610 2.6309 58.0949
#
#
#
# Elastic Compliance Matrix: (Units=1/GPa)
#
#
# Indices 1 2 3 4 5 6 
#
# 1 0.018279 -0.003419 -0.004493 -0.003575 -0.008249 -0.000221
# 2 -0.003419 0.006713 -0.001775 0.000608 0.001949 -0.000221
# 3 -0.004493 -0.001775 0.021769 0.004880 -0.002845 0.001789
# 4 -0.003575 0.000608 0.004880 0.025525 0.005437 0.002417
# 5 -0.008249 0.001949 -0.002845 0.005437 0.037374 -0.001330
# 6 -0.000221 -0.000221 0.001789 0.002417 -0.001330 0.017600
#
#
# Mechanical properties :
#
#
# Convention : Reuss Voigt Hill
#
# Bulk Modulus (GPa) = 36.51093 51.91282 44.21188
# Shear Modulus (GPa) = 32.10024 41.52586 36.81305
#
# Velocity S-wave (km/s) = 3.47980 3.95785 3.72650
# Velocity P-wave (km/s) = 5.46975 6.36152 5.93242
#
# Compressibility (1/GPa) = 0.02738906
#
# Stress axis : x y z
#
# Youngs Moduli (GPa) = 54.70712 148.97207 45.93608
#
# Poissons Ratio (x) = 0.50931 0.20638
# Poissons Ratio (y) = 0.18703 0.08152
# Poissons Ratio (z) = 0.24578 0.26436
#
# Static dielectric constant tensor:
#      x y z
#    x 2.086040 0.013610 -0.026860 
#    y 0.013610 2.197120 -0.014300 
#    z -0.026860 -0.014300 2.354290 
# 
# From -- ./inp_files/80052.got.cif
#   From: 2010.05.17/outbox.cif.g08.bks.cpg/sg2_41_cif.got.tgz:80052.got - 2010.06.03 11:33:40.
