data_PCOD9084595
_publ_section_title
;
Structure prediction by ZEFSAII (Michael W. Deem and Ramdas Pophale) SiO2 
 PCOD9084595
Probable space group: P -1
;
_chemical_formula_sum "Si O2"
_cell_formula_units_Z 16
_cell_length_a 26.984544
_cell_length_b 9.155506
_cell_length_c 5.925381
_cell_angle_alpha 70.100677
_cell_angle_beta 42.466848
_cell_angle_gamma 46.578206
_cell_volume 675.131676
_symmetry_space_group_name_H-M "P -1"
_symmetry_group_IT_number 2
_symmetry_cell_setting 'triclinic'
loop_
_space_group_symop_operation_xyz
x,y,z
-x,-y,-z
loop_
_atom_site_type_symbol
_atom_site_label
_atom_site_fract_x
_atom_site_fract_y
_atom_site_fract_z
Si Si1 0.529959 0.028933 0.129884
Si Si2 0.613016 0.287477 0.315585
Si Si3 0.240581 0.187943 0.023201
Si Si4 0.084390 0.186061 0.808405
Si Si5 0.624482 0.502896 0.519756
Si Si6 0.776938 0.275562 0.530524
Si Si7 0.083339 0.400897 0.082722
Si Si8 0.723894 0.611903 0.832879
O O1 0.479859 0.271689 0.163097
O O2 0.500000 0.000000 0.500000
O O3 0.500000 0.000000 0.000000
O O4 0.649418 0.836944 0.836422
O O5 0.500000 0.500000 0.500000
O O6 0.619175 0.337569 0.527489
O O7 0.700326 0.264610 0.914872
O O8 0.652182 0.056410 0.248301
O O9 0.164185 0.182083 0.413236
O O10 0.184966 0.300711 0.915622
O O11 0.242067 0.338563 0.092613
O O12 0.970921 0.400579 0.009382
O O13 0.119941 0.963068 0.747954
O O14 0.098454 0.215393 0.004074
O O15 0.712565 0.400640 0.456886
O O16 0.654229 0.573087 0.179375
O O17 0.794658 0.406645 0.542552
O O18 0.000000 0.500000 0.500000
#
# Coordination Sequence:
#
# PCOD9084595 Si02
#       8
#     2   2   2   2   2   2   2   2
#     4  10  19  35  55  80 113 162 211 247 289 352
#     4  10  21  36  54  81 116 150 195 246 291 344
#     4  10  20  36  57  85 116 147 194 241 296 351
#     4   9  19  36  61  85 108 143 190 241 296 356
#     4  10  20  35  55  76 110 156 199 243 294 346
#     4  10  20  36  56  81 114 149 192 237 293 356
#     4   9  18  36  61  84 108 143 185 239 297 360
#     4  10  21  35  54  82 115 153 194 243 291 357
#
# _framework density 23.699081
#
# number of rings (size 3 to 8) (size 9 to 14) (size 15 to 20)
#    0.000    2.250    1.250    1.500    0.000    3.500 
#    0.000    0.625    0.000    7.500    0.000    0.000 
#    0.000    0.000    0.000    0.000    0.000    0.000 
#
# Total GULP energy -89199.058668 kJ/mol
# GULP energy per Si atom -5574.941167 kJ/mol
# Density = 2.364514 g / cm^3
# Si number density = 23.699081 Si / 1000 Ang^3
#
#
#
# Elastic Constant Matrix: (Units=GPa)
#
#
# Indices 1 2 3 4 5 6 
#
# 1 142.7981 40.5747 34.2634 34.5902 36.1739 2.5377
# 2 40.5747 85.3846 37.1625 47.4440 18.2800 13.7931
# 3 34.2634 37.1625 95.1698 24.6203 13.9411 14.4140
# 4 34.5902 47.4440 24.6203 51.8479 17.8159 7.7264
# 5 36.1739 18.2800 13.9411 17.8159 36.3126 5.7504
# 6 2.5377 13.7931 14.4140 7.7264 5.7504 27.7025
#
#
#
# Elastic Compliance Matrix: (Units=1/GPa)
#
#
# Indices 1 2 3 4 5 6 
#
# 1 0.010512 -0.001721 -0.001805 -0.002188 -0.008342 0.003175
# 2 -0.001721 0.026280 -0.003592 -0.020680 0.000876 -0.005472
# 3 -0.001805 -0.003592 0.013625 -0.001168 -0.000299 -0.004748
# 4 -0.002188 -0.020680 -0.001168 0.042898 -0.008140 0.000830
# 5 -0.008342 0.000876 -0.000299 -0.008140 0.040408 -0.005634
# 6 0.003175 -0.005472 -0.004748 0.000830 -0.005634 0.041940
#
#
# Mechanical properties :
#
#
# Convention : Reuss Voigt Hill
#
# Bulk Modulus (GPa) = 27.63966 60.81708 44.22837
# Shear Modulus (GPa) = 24.75742 37.26272 31.01007
#
# Velocity S-wave (km/s) = 3.23562 3.96956 3.62123
# Velocity P-wave (km/s) = 5.06429 6.83577 6.01560
#
# Compressibility (1/GPa) = 0.03617989
#
# Stress axis : x y z
#
# Youngs Moduli (GPa) = 95.13246 38.05197 73.39267
#
# Poissons Ratio (x) = 0.06548 0.13251
# Poissons Ratio (y) = 0.16370 0.26364
# Poissons Ratio (z) = 0.17176 0.13669
#
# Static dielectric constant tensor:
#      x y z
#    x 1.923580 -0.013450 0.067310 
#    y -0.013450 1.968070 -0.058050 
#    z 0.067310 -0.058050 2.045860 
# 
# From -- ./inp_files/108773.got.cif
#   From: 2010.05.17/outbox.cif.g08.bks.cpg/sg2_55_cif.got.tgz:108773.got - 2010.06.03 11:33:40.
