data_PCOD9084164
_publ_section_title
;
Structure prediction by ZEFSAII (Michael W. Deem and Ramdas Pophale) SiO2 
 PCOD9084164
Probable space group: P -1
;
_chemical_formula_sum "Si O2"
_cell_formula_units_Z 15
_cell_length_a 7.236896
_cell_length_b 7.153277
_cell_length_c 19.957341
_cell_angle_alpha 137.276259
_cell_angle_beta 65.607434
_cell_angle_gamma 96.125697
_cell_volume 605.177167
_symmetry_space_group_name_H-M "P -1"
_symmetry_group_IT_number 2
_symmetry_cell_setting 'triclinic'
loop_
_space_group_symop_operation_xyz
x,y,z
-x,-y,-z
loop_
_atom_site_type_symbol
_atom_site_label
_atom_site_fract_x
_atom_site_fract_y
_atom_site_fract_z
Si Si1 0.000000 0.500000 0.500000
Si Si2 0.215343 0.079674 0.995598
Si Si3 0.918164 0.595982 0.244996
Si Si4 0.475183 0.443136 0.802622
Si Si5 0.731064 0.573094 0.689657
Si Si6 0.638650 0.480587 0.365491
Si Si7 0.505394 0.208060 0.883585
Si Si8 0.712798 0.199623 0.413895
O O1 0.924334 0.457035 0.579003
O O2 0.775541 0.477840 0.500550
O O3 0.136546 0.371925 0.127463
O O4 0.297287 0.145744 0.928843
O O5 0.386263 0.790681 0.923029
O O6 0.000000 0.000000 0.000000
O O7 0.717706 0.611182 0.227547
O O8 0.843668 0.509022 0.304173
O O9 0.910421 0.927601 0.334186
O O10 0.690834 0.401972 0.716066
O O11 0.506587 0.264769 0.819358
O O12 0.516412 0.578869 0.682497
O O13 0.697362 0.915886 0.797329
O O14 0.692750 0.226881 0.345182
O O15 0.499152 0.769681 0.503392
O O16 0.500000 0.500000 0.000000
#
# Coordination Sequence:
#
# PCOD9084164 Si02
#       8
#     1   2   2   2   2   2   2   2
#     4  10  22  40  58  88 124 154 186 254 302 350
#     4   9  21  37  56  88 118 145 198 253 289 344
#     4  10  19  34  61  87 109 147 201 244 286 354
#     4   9  20  40  61  83 120 160 192 246 302 346
#     4   9  20  40  60  84 123 154 200 243 300 357
#     4   9  19  37  57  84 111 156 193 245 291 352
#     4  11  23  38  61  86 119 166 204 235 299 374
#     4  10  20  35  58  82 118 151 195 238 299 349
#
# _framework density 24.786131000000001
#
# number of rings (size 3 to 8) (size 9 to 14) (size 15 to 20)
#    0.000    2.400    0.000    2.000    1.867    5.333 
#    2.400    1.333    0.000    0.000    0.000    0.000 
#    0.000    0.000    0.000    0.000    0.000    0.000 
#
# Total GULP energy -83526.772521 kJ/mol
# GULP energy per Si atom -5568.451501 kJ/mol
# Density = 2.472972 g / cm^3
# Si number density = 24.786131 Si / 1000 Ang^3
#
#
#
# Elastic Constant Matrix: (Units=GPa)
#
#
# Indices 1 2 3 4 5 6 
#
# 1 42.4907 26.5969 1.2166 -15.0973 -3.1335 1.3261
# 2 26.5969 170.4087 37.1105 -50.8040 -20.7176 -3.6010
# 3 1.2166 37.1105 48.2661 -30.0060 -21.7077 -13.1504
# 4 -15.0973 -50.8040 -30.0060 51.2694 4.7673 -13.2818
# 5 -3.1335 -20.7176 -21.7077 4.7673 35.9433 -14.6872
# 6 1.3261 -3.6010 -13.1504 -13.2818 -14.6872 27.5063
#
#
#
# Elastic Compliance Matrix: (Units=1/GPa)
#
#
# Indices 1 2 3 4 5 6 
#
# 1 0.025025 -0.005084 -0.007442 -0.004436 -0.009912 -0.012864
# 2 -0.005084 0.007996 -0.010086 -0.000673 -0.004364 -0.006185
# 3 -0.007442 -0.010086 -0.026130 -0.037390 -0.038576 -0.052106
# 4 -0.004436 -0.000673 -0.037390 -0.012311 -0.040170 -0.045144
# 5 -0.009912 -0.004364 -0.038576 -0.040170 -0.011547 -0.044098
# 6 -0.012864 -0.006185 -0.052106 -0.045144 -0.044098 -0.034090
#
#
# Mechanical properties :
#
#
# Convention : Reuss Voigt Hill
#
# Bulk Modulus (GPa) = -26.08662 43.44595 8.67966
# Shear Modulus (GPa) = -268.69805 36.02657 -116.33574
#
# Velocity S-wave (km/s) = -10.42314 3.81661 -6.85840
# Velocity P-wave (km/s) = 12.46609 6.08181 7.69464
#
# Compressibility (1/GPa) = -0.03833383
#
# Stress axis : x y z
#
# Youngs Moduli (GPa) = 39.96047 125.05535 -38.27090
#
# Poissons Ratio (x) = 0.63584 -0.28481
# Poissons Ratio (y) = 0.20318 -0.38601
# Poissons Ratio (z) = 0.29739 1.26134
#
# Static dielectric constant tensor:
#      x y z
#    x 2.012060 0.009840 0.129120 
#    y 0.009840 1.997390 0.098550 
#    z 0.129120 0.098550 2.117340 
# 
# From -- ./inp_files/278408.got.cif
#   From: 2010.05.17/outbox.cif.g08.bks.cpg/sg2_140_cif.got.tgz:278408.got - 2010.06.03 11:33:40.
