data_PCOD9084998
_publ_section_title
;
Structure prediction by ZEFSAII (Michael W. Deem and Ramdas Pophale) SiO2 
 PCOD9084998
Probable space group: P -1
;
_chemical_formula_sum "Si O2"
_cell_formula_units_Z 16
_cell_length_a 5.312417
_cell_length_b 5.086111
_cell_length_c 21.668171
_cell_angle_alpha 96.754532
_cell_angle_beta 87.506199
_cell_angle_gamma 99.788204
_cell_volume 572.771519
_symmetry_space_group_name_H-M "P -1"
_symmetry_group_IT_number 2
_symmetry_cell_setting 'triclinic'
loop_
_space_group_symop_operation_xyz
x,y,z
-x,-y,-z
loop_
_atom_site_type_symbol
_atom_site_label
_atom_site_fract_x
_atom_site_fract_y
_atom_site_fract_z
Si Si1 0.658434 0.635300 0.641825
Si Si2 0.904951 0.717151 0.383620
Si Si3 0.820528 0.725580 0.016391
Si Si4 0.848223 0.937635 0.261520
Si Si5 0.325519 0.209076 0.487270
Si Si6 0.438397 0.622815 0.764407
Si Si7 0.036227 0.699467 0.133196
Si Si8 0.342270 0.231675 0.104475
O O1 0.364692 0.487132 0.630148
O O2 0.723919 0.819706 0.585986
O O3 0.652277 0.741991 0.714953
O O4 0.855214 0.429980 0.631719
O O5 0.905243 0.926557 0.333211
O O6 0.888843 0.794219 0.457896
O O7 0.798348 0.730729 0.091082
O O8 0.596012 0.708720 0.966722
O O9 0.000000 0.500000 0.000000
O O10 0.000000 0.000000 0.000000
O O11 0.599654 0.698034 0.251788
O O12 0.012812 0.811316 0.205060
O O13 0.791554 0.224376 0.249049
O O14 0.500000 0.500000 0.500000
O O15 0.500000 0.000000 0.500000
O O16 0.478133 0.682940 0.837279
O O17 0.114409 0.406578 0.123341
O O18 0.257420 0.915406 0.106013
#
# Coordination Sequence:
#
# PCOD9084998 Si02
#       8
#     2   2   2   2   2   2   2   2
#     4  10  22  42  66  95 129 169 214 264 318 378
#     4  10  22  42  66  95 129 169 214 264 318 378
#     4   8  16  30  52  80 110 146 200 254 309 368
#     4  11  23  39  57  87 123 161 205 260 316 376
#     4  10  21  42  66  96 130 170 214 264 318 378
#     4  11  23  39  57  87 123 161 205 260 316 376
#     4  10  19  35  58  83 112 156 205 258 312 375
#     4  10  19  35  58  83 112 156 205 258 312 375
#
# _framework density 27.934355
#
# number of rings (size 3 to 8) (size 9 to 14) (size 15 to 20)
#    0.000    2.000    0.000    3.375    0.000    2.000 
#    0.000   21.250    0.000    0.000    0.000    0.000 
#    0.000    0.000    0.000    0.000    0.000    0.000 
#
# Total GULP energy -89557.740002 kJ/mol
# GULP energy per Si atom -5597.358750 kJ/mol
# Density = 2.787078 g / cm^3
# Si number density = 27.934355 Si / 1000 Ang^3
#
#
#
# Elastic Constant Matrix: (Units=GPa)
#
#
# Indices 1 2 3 4 5 6 
#
# 1 82.1724 29.3759 49.4340 -1.2804 17.1595 -19.4263
# 2 29.3759 140.2702 40.2658 -10.3244 -0.6339 -17.8606
# 3 49.4340 40.2658 218.7149 -26.3153 25.1366 5.4709
# 4 -1.2804 -10.3244 -26.3153 61.9877 4.1999 -1.0058
# 5 17.1595 -0.6339 25.1366 4.1999 67.5328 -0.0238
# 6 -19.4263 -17.8606 5.4709 -1.0058 -0.0238 44.2538
#
#
#
# Elastic Compliance Matrix: (Units=1/GPa)
#
#
# Indices 1 2 3 4 5 6 
#
# 1 0.017268 -0.001767 -0.003549 -0.001122 -0.003011 0.007279
# 2 -0.001767 0.008253 -0.001196 0.000812 0.000922 0.002722
# 3 -0.003549 -0.001196 0.006127 0.002388 -0.001540 -0.002745
# 4 -0.001122 0.000812 0.002388 0.017371 -0.001677 -0.000066
# 5 -0.003011 0.000922 -0.001540 -0.001677 0.016258 -0.000789
# 6 0.007279 0.002722 -0.002745 -0.000066 -0.000789 0.027228
#
#
# Mechanical properties :
#
#
# Convention : Reuss Voigt Hill
#
# Bulk Modulus (GPa) = 53.69280 75.47876 64.58578
# Shear Modulus (GPa) = 44.74735 56.22698 50.48716
#
# Velocity S-wave (km/s) = 4.00669 4.49132 4.25591
# Velocity P-wave (km/s) = 6.37711 7.34674 6.87903
#
# Compressibility (1/GPa) = 0.01862447
#
# Stress axis : x y z
#
# Youngs Moduli (GPa) = 57.91021 121.16601 163.19910
#
# Poissons Ratio (x) = 0.21411 0.57913
# Poissons Ratio (y) = 0.10233 0.19525
# Poissons Ratio (z) = 0.20550 0.14497
#
# Static dielectric constant tensor:
#      x y z
#    x 2.310240 0.186290 0.045620 
#    y 0.186290 2.091470 0.039310 
#    z 0.045620 0.039310 2.316470 
# 
# From -- ./inp_files/581077.got.cif
#   From: 2010.05.17/outbox.cif.g08.bks.cpg/sg2_291_cif.got.tgz:581077.got - 2010.06.03 11:33:40.
