data_PCOD9084988
_publ_section_title
;
Structure prediction by ZEFSAII (Michael W. Deem and Ramdas Pophale) SiO2 
 PCOD9084988
Probable space group: P -1
;
_chemical_formula_sum "Si O2"
_cell_formula_units_Z 16
_cell_length_a 8.440301
_cell_length_b 13.398486
_cell_length_c 13.165714
_cell_angle_alpha 134.794707
_cell_angle_beta 80.045623
_cell_angle_gamma 66.306214
_cell_volume 689.290973
_symmetry_space_group_name_H-M "P -1"
_symmetry_group_IT_number 2
_symmetry_cell_setting 'triclinic'
loop_
_space_group_symop_operation_xyz
x,y,z
-x,-y,-z
loop_
_atom_site_type_symbol
_atom_site_label
_atom_site_fract_x
_atom_site_fract_y
_atom_site_fract_z
Si Si1 0.765638 0.463550 0.416321
Si Si2 0.152322 0.337166 0.991017
Si Si3 0.721707 0.864571 0.955989
Si Si4 0.671035 0.204431 0.186220
Si Si5 0.359186 0.373492 0.670503
Si Si6 0.723810 0.249554 0.995493
Si Si7 0.118224 0.075258 0.675536
Si Si8 0.305241 0.530878 0.102262
O O1 0.748440 0.304981 0.293710
O O2 0.620921 0.600642 0.630659
O O3 0.623862 0.629153 0.455686
O O4 0.038579 0.331474 0.274297
O O5 0.288431 0.210686 0.990846
O O6 0.262641 0.402211 0.971776
O O7 0.876634 0.556193 0.214462
O O8 0.158104 0.196391 0.818355
O O9 0.500000 0.000000 0.000000
O O10 0.757237 0.005151 0.085126
O O11 0.756738 0.141278 0.015859
O O12 0.281216 0.582746 0.856168
O O13 0.617006 0.163944 0.538809
O O14 0.449458 0.407428 0.100371
O O15 0.940258 0.094610 0.778952
O O16 0.951641 0.221607 0.701230
O O17 0.500000 0.500000 0.000000
#
# Coordination Sequence:
#
# PCOD9084988 Si02
#       8
#     2   2   2   2   2   2   2   2
#     4   9  20  35  55  83 114 148 189 226 260 322
#     4  10  21  39  57  81 113 144 186 232 272 327
#     4  11  22  35  56  83 116 150 181 223 278 332
#     4  10  19  35  58  82 114 153 186 219 268 326
#     4   9  19  36  57  83 112 147 186 225 270 325
#     4   9  20  36  56  85 119 145 180 232 273 319
#     4  10  20  37  62  82 108 149 189 227 275 330
#     4  10  21  39  60  82 111 144 182 235 287 326
#
# _framework density 23.212257999999999
#
# number of rings (size 3 to 8) (size 9 to 14) (size 15 to 20)
#    0.000    2.250    0.000    3.000    0.000    4.500 
#    0.000    3.750    0.000    0.000    0.000    0.000 
#    0.000    0.000    0.000    0.000    0.000    0.000 
#
# Total GULP energy -89292.317719 kJ/mol
# GULP energy per Si atom -5580.769857 kJ/mol
# Density = 2.315943 g / cm^3
# Si number density = 23.212258 Si / 1000 Ang^3
#
#
#
# Elastic Constant Matrix: (Units=GPa)
#
#
# Indices 1 2 3 4 5 6 
#
# 1 64.2108 36.1991 8.9391 8.2497 -16.2422 11.1188
# 2 36.1991 83.1493 23.3118 20.0825 -8.4076 8.9100
# 3 8.9391 23.3118 77.2883 15.5716 -24.2573 -0.3579
# 4 8.2497 20.0825 15.5716 32.8652 -10.7430 -4.0583
# 5 -16.2422 -8.4076 -24.2573 -10.7430 22.1112 15.0197
# 6 11.1188 8.9100 -0.3579 -4.0583 15.0197 37.6401
#
#
#
# Elastic Compliance Matrix: (Units=1/GPa)
#
#
# Indices 1 2 3 4 5 6 
#
# 1 0.065319 -0.022170 0.037003 0.014457 0.130892 -0.064367
# 2 -0.022170 0.023102 -0.014270 -0.012943 -0.039973 0.015500
# 3 0.037003 -0.014270 0.045495 0.007391 0.109132 -0.049870
# 4 0.014457 -0.012943 0.007391 0.044141 0.044987 -0.014329
# 5 0.130892 -0.039973 0.109132 0.044987 0.389048 -0.178558
# 6 -0.064367 0.015500 -0.049870 -0.014329 -0.178558 0.111144
#
#
# Mechanical properties :
#
#
# Convention : Reuss Voigt Hill
#
# Bulk Modulus (GPa) = 7.40521 40.17205 23.78863
# Shear Modulus (GPa) = 6.92389 28.93653 17.93021
#
# Velocity S-wave (km/s) = 1.72897 3.53456 2.78231
# Velocity P-wave (km/s) = 2.68010 5.83108 4.53786
#
# Compressibility (1/GPa) = 0.13504010
#
# Stress axis : x y z
#
# Youngs Moduli (GPa) = 15.30959 43.28570 21.98066
#
# Poissons Ratio (x) = 0.95963 -0.81334
# Poissons Ratio (y) = 0.33941 0.31367
# Poissons Ratio (z) = -0.56649 0.61770
#
# Static dielectric constant tensor:
#      x y z
#    x 1.976850 -0.027720 -0.029920 
#    y -0.027720 1.931970 -0.020990 
#    z -0.029920 -0.020990 1.863230 
# 
# From -- ./inp_files/281949.got.cif
#   From: 2010.05.17/outbox.cif.g08.bks.cpg/sg2_141_cif.got.tgz:281949.got - 2010.06.03 11:33:40.
