data_PCOD9084748
_publ_section_title
;
Structure prediction by ZEFSAII (Michael W. Deem and Ramdas Pophale) SiO2 
 PCOD9084748
Probable space group: P -1
;
_chemical_formula_sum "Si O2"
_cell_formula_units_Z 16
_cell_length_a 17.979838
_cell_length_b 10.539375
_cell_length_c 14.664894
_cell_angle_alpha 129.928040
_cell_angle_beta 17.661237
_cell_angle_gamma 130.992548
_cell_volume 634.655842
_symmetry_space_group_name_H-M "P -1"
_symmetry_group_IT_number 2
_symmetry_cell_setting 'triclinic'
loop_
_space_group_symop_operation_xyz
x,y,z
-x,-y,-z
loop_
_atom_site_type_symbol
_atom_site_label
_atom_site_fract_x
_atom_site_fract_y
_atom_site_fract_z
Si Si1 0.602206 0.743027 0.533388
Si Si2 0.914261 0.892292 0.680418
Si Si3 0.626029 0.258127 0.720604
Si Si4 0.720675 0.406576 0.304817
Si Si5 0.643609 0.856265 0.738344
Si Si6 0.575344 0.700075 0.222412
Si Si7 0.763379 0.395655 0.813183
Si Si8 0.990933 0.979458 0.844233
O O1 0.573316 0.555799 0.521269
O O2 0.386457 0.740073 0.709922
O O3 0.600450 0.842862 0.674576
O O4 0.874690 0.825870 0.210883
O O5 0.052751 0.731834 0.431223
O O6 0.933218 0.935871 0.785840
O O7 0.622692 0.837329 0.980655
O O8 0.068982 0.066776 0.539197
O O9 0.539434 0.324185 0.756634
O O10 0.753792 0.387819 0.709792
O O11 0.790607 0.122845 0.437191
O O12 0.637624 0.348877 0.476051
O O13 0.000000 0.500000 0.000000
O O14 0.510411 0.689520 0.866651
O O15 0.500000 0.000000 0.000000
O O16 0.783036 0.578777 0.919783
O O17 0.733755 0.886659 0.146751
#
# Coordination Sequence:
#
# PCOD9084748 Si02
#       8
#     2   2   2   2   2   2   2   2
#     4  10  22  46  68  92 128 174 213 270 325 372
#     4   8  18  34  56  90 131 169 210 261 310 383
#     4  10  21  36  58  96 132 170 211 257 320 386
#     4  11  26  46  70  97 126 165 226 275 319 375
#     4   9  17  36  63  93 128 167 210 257 324 382
#     4  11  23  41  61  93 129 171 216 266 319 384
#     4  10  19  35  56  90 133 174 210 257 318 387
#     4   9  21  40  65  87 128 168 212 259 321 384
#
# _framework density 25.210512999999999
#
# number of rings (size 3 to 8) (size 9 to 14) (size 15 to 20)
#    0.000    2.250    1.250    1.125    0.000   11.500 
#    4.500    1.250    0.000    0.000    0.000    0.000 
#    0.000    0.000    0.000    0.000    0.000    0.000 
#
# Total GULP energy -89307.709562 kJ/mol
# GULP energy per Si atom -5581.731848 kJ/mol
# Density = 2.515313 g / cm^3
# Si number density = 25.210513 Si / 1000 Ang^3
#
#
#
# Elastic Constant Matrix: (Units=GPa)
#
#
# Indices 1 2 3 4 5 6 
#
# 1 93.2436 25.7988 30.5655 -13.0981 15.0672 15.0825
# 2 25.7988 83.8901 17.9976 -25.9533 8.2022 -1.5013
# 3 30.5655 17.9976 89.7621 -24.1280 19.2657 -0.4994
# 4 -13.0981 -25.9533 -24.1280 42.7422 -9.9437 -0.8257
# 5 15.0672 8.2022 19.2657 -9.9437 28.5287 -6.2234
# 6 15.0825 -1.5013 -0.4994 -0.8257 -6.2234 39.3269
#
#
#
# Elastic Compliance Matrix: (Units=1/GPa)
#
#
# Indices 1 2 3 4 5 6 
#
# 1 0.014824 -0.003720 -0.003274 -0.001205 -0.006478 -0.006919
# 2 -0.003720 0.015679 0.000326 0.008799 0.000814 0.002343
# 3 -0.003274 0.000326 0.015257 0.006347 -0.006326 0.000594
# 4 -0.001205 0.008799 0.006347 0.033401 0.006014 0.002532
# 5 -0.006478 0.000814 -0.006326 0.006014 0.046782 0.009965
# 6 -0.006919 0.002343 0.000594 0.002532 0.009965 0.029809
#
#
# Mechanical properties :
#
#
# Convention : Reuss Voigt Hill
#
# Bulk Modulus (GPa) = 30.83977 46.17997 38.50987
# Shear Modulus (GPa) = 27.79425 34.95516 31.37470
#
# Velocity S-wave (km/s) = 3.32397 3.72765 3.53159
# Velocity P-wave (km/s) = 5.19530 6.07328 5.65137
#
# Compressibility (1/GPa) = 0.03242567
#
# Stress axis : x y z
#
# Youngs Moduli (GPa) = 67.45982 63.78033 65.54296
#
# Poissons Ratio (x) = 0.23723 0.21458
# Poissons Ratio (y) = 0.25092 -0.02140
# Poissons Ratio (z) = 0.22086 -0.02082
#
# Static dielectric constant tensor:
#      x y z
#    x 2.040460 0.002960 -0.025950 
#    y 0.002960 2.148360 -0.074870 
#    z -0.025950 -0.074870 2.051060 
# 
# From -- ./inp_files/538452.got.cif
#   From: 2010.05.17/outbox.cif.g08.bks.cpg/sg2_270_cif.got.tgz:538452.got - 2010.06.03 11:33:40.
