data_PCOD9084696
_publ_section_title
;
Structure prediction by ZEFSAII (Michael W. Deem and Ramdas Pophale) SiO2 
 PCOD9084696
Probable space group: P -1
;
_chemical_formula_sum "Si O2"
_cell_formula_units_Z 16
_cell_length_a 10.001238
_cell_length_b 9.624880
_cell_length_c 14.586393
_cell_angle_alpha 32.894277
_cell_angle_beta 74.604546
_cell_angle_gamma 67.567188
_cell_volume 700.613590
_symmetry_space_group_name_H-M "P -1"
_symmetry_group_IT_number 2
_symmetry_cell_setting 'triclinic'
loop_
_space_group_symop_operation_xyz
x,y,z
-x,-y,-z
loop_
_atom_site_type_symbol
_atom_site_label
_atom_site_fract_x
_atom_site_fract_y
_atom_site_fract_z
Si Si1 0.219575 0.158252 0.758628
Si Si2 0.392639 0.887953 0.725787
Si Si3 0.144997 0.369076 0.987116
Si Si4 0.871079 0.261030 0.491246
Si Si5 0.849365 0.249877 0.899005
Si Si6 0.903025 0.163760 0.750307
Si Si7 0.805168 0.108702 0.403336
Si Si8 0.296023 0.410974 0.107861
O O1 0.176162 0.419242 0.684543
O O2 0.072833 0.150762 0.734308
O O3 0.338065 0.131442 0.673013
O O4 0.261900 0.904285 0.960015
O O5 0.319728 0.939074 0.611236
O O6 0.564443 0.761111 0.767252
O O7 0.330745 0.662996 0.911208
O O8 0.259636 0.263980 0.107093
O O9 0.123699 0.122901 0.071385
O O10 0.176194 0.605823 0.792239
O O11 0.000000 0.500000 0.000000
O O12 0.852028 0.232089 0.618901
O O13 0.787396 0.136723 0.500613
O O14 0.041336 0.115333 0.520938
O O15 0.825568 0.354342 0.742213
O O16 0.831876 0.469750 0.859970
O O17 0.000000 0.000000 0.000000
#
# Coordination Sequence:
#
# PCOD9084696 Si02
#       8
#     2   2   2   2   2   2   2   2
#     4  10  19  35  56  83 111 143 181 227 276 321
#     4   9  17  36  57  80 110 141 186 226 267 326
#     4  11  18  34  56  83 113 134 178 231 275 319
#     4  11  21  34  52  86 111 145 185 220 278 320
#     4   9  18  33  53  83 108 136 178 225 275 315
#     4  11  20  33  52  84 112 141 176 230 277 317
#     4  10  21  35  55  84 111 145 181 230 273 317
#     4   9  19  33  58  84 107 142 182 227 274 321
#
# _framework density 22.837122999999998
#
# number of rings (size 3 to 8) (size 9 to 14) (size 15 to 20)
#    0.000    2.000    2.500    3.375    0.000    1.000 
#    0.000    1.250    0.000   10.500    0.000    0.000 
#    0.000    0.000    0.000    0.000    0.000    0.000 
#
# Total GULP energy -89245.243961 kJ/mol
# GULP energy per Si atom -5577.827748 kJ/mol
# Density = 2.278515 g / cm^3
# Si number density = 22.837123 Si / 1000 Ang^3
#
#
#
# Elastic Constant Matrix: (Units=GPa)
#
#
# Indices 1 2 3 4 5 6 
#
# 1 46.2004 34.0791 5.1820 1.6245 23.6882 9.0676
# 2 34.0791 150.6329 29.3414 17.0836 19.8543 20.7642
# 3 5.1820 29.3414 46.5221 9.5958 8.7891 -1.2057
# 4 1.6245 17.0836 9.5958 43.5482 8.3419 -3.6876
# 5 23.6882 19.8543 8.7891 8.3419 33.3076 5.7600
# 6 9.0676 20.7642 -1.2057 -3.6876 5.7600 19.4498
#
#
#
# Elastic Compliance Matrix: (Units=1/GPa)
#
#
# Indices 1 2 3 4 5 6 
#
# 1 0.039761 -0.006408 0.003440 0.005046 -0.026149 -0.002783
# 2 -0.006408 0.010833 -0.006030 -0.004050 0.002515 -0.010464
# 3 0.003440 -0.006030 0.026776 -0.001638 -0.006932 0.008236
# 4 0.005046 -0.004050 -0.001638 0.027333 -0.009283 0.009801
# 5 -0.026149 0.002515 -0.006932 -0.009283 0.052709 -0.008293
# 6 -0.002783 -0.010464 0.008236 0.009801 -0.008293 0.068708
#
#
# Mechanical properties :
#
#
# Convention : Reuss Voigt Hill
#
# Bulk Modulus (GPa) = 16.84217 42.28449 29.56333
# Shear Modulus (GPa) = 18.94605 30.91130 24.92868
#
# Velocity S-wave (km/s) = 2.88343 3.68306 3.30750
# Velocity P-wave (km/s) = 4.29843 6.05330 5.24971
#
# Compressibility (1/GPa) = 0.05937477
#
# Stress axis : x y z
#
# Youngs Moduli (GPa) = 25.14997 92.30902 37.34727
#
# Poissons Ratio (x) = 0.59149 -0.12846
# Poissons Ratio (y) = 0.16115 0.22519
# Poissons Ratio (z) = -0.08651 0.55659
#
# Static dielectric constant tensor:
#      x y z
#    x 1.867060 0.036610 -0.043890 
#    y 0.036610 1.905350 0.014950 
#    z -0.043890 0.014950 2.023200 
# 
# From -- ./inp_files/392895.got.cif
#   From: 2010.05.17/outbox.cif.g08.bks.cpg/sg2_197_cif.got.tgz:392895.got - 2010.06.03 11:33:40.
