data_PCOD9084946
_publ_section_title
;
Structure prediction by ZEFSAII (Michael W. Deem and Ramdas Pophale) SiO2 
 PCOD9084946
Probable space group: P -1
;
_chemical_formula_sum "Si O2"
_cell_formula_units_Z 16
_cell_length_a 9.695749
_cell_length_b 8.117353
_cell_length_c 12.215078
_cell_angle_alpha 61.437711
_cell_angle_beta 127.665820
_cell_angle_gamma 117.984957
_cell_volume 646.349952
_symmetry_space_group_name_H-M "P -1"
_symmetry_group_IT_number 2
_symmetry_cell_setting 'triclinic'
loop_
_space_group_symop_operation_xyz
x,y,z
-x,-y,-z
loop_
_atom_site_type_symbol
_atom_site_label
_atom_site_fract_x
_atom_site_fract_y
_atom_site_fract_z
Si Si1 0.935201 0.956284 0.204801
Si Si2 0.231102 0.938215 0.687047
Si Si3 0.148900 0.336595 0.058423
Si Si4 0.208181 0.648072 0.183007
Si Si5 0.127567 0.707088 0.505285
Si Si6 0.456363 0.207245 0.316928
Si Si7 0.583946 0.936827 0.949771
Si Si8 0.484940 0.211530 0.569640
O O1 0.870880 0.034502 0.261967
O O2 0.038026 0.137616 0.125255
O O3 0.072512 0.832317 0.342359
O O4 0.746796 0.844574 0.091693
O O5 0.106959 0.811106 0.576527
O O6 0.398801 0.843834 0.826118
O O7 0.333754 0.139833 0.612532
O O8 0.192974 0.509849 0.113651
O O9 0.340619 0.291183 0.146508
O O10 0.003515 0.370715 0.888558
O O11 0.343364 0.626335 0.353258
O O12 0.310402 0.863895 0.122076
O O13 0.332369 0.696646 0.605821
O O14 0.000000 0.500000 0.500000
O O15 0.396870 0.241803 0.401469
O O16 0.444275 0.981355 0.361816
O O17 0.500000 0.000000 0.000000
#
# Coordination Sequence:
#
# PCOD9084946 Si02
#       8
#     2   2   2   2   2   2   2   2
#     4  10  19  35  58  79 107 143 177 219 267 312
#     4   9  18  35  58  81 106 139 179 220 265 314
#     4  10  20  35  55  82 111 139 174 221 268 312
#     4   9  19  33  54  85 108 133 182 222 256 313
#     4  11  24  38  53  78 108 141 181 222 266 319
#     4  10  21  36  52  73 109 145 174 216 269 318
#     4   8  16  32  56  80 106 137 171 217 268 310
#     4   9  18  35  55  79 108 141 178 215 260 318
#
# _framework density 24.754390999999998
#
# number of rings (size 3 to 8) (size 9 to 14) (size 15 to 20)
#    0.000    2.500    0.000    2.625    0.000    5.000 
#    0.000    3.125    0.000    0.000    0.000    0.000 
#    0.000    0.000    0.000    0.000    0.000    0.000 
#
# Total GULP energy -89339.635948 kJ/mol
# GULP energy per Si atom -5583.727247 kJ/mol
# Density = 2.469805 g / cm^3
# Si number density = 24.754391 Si / 1000 Ang^3
#
#
#
# Elastic Constant Matrix: (Units=GPa)
#
#
# Indices 1 2 3 4 5 6 
#
# 1 62.5842 -10.3256 10.1639 1.7069 22.6374 9.2844
# 2 -10.3256 77.6235 25.7943 28.6677 12.7596 8.7636
# 3 10.1639 25.7943 111.9117 41.3693 18.4914 5.4630
# 4 1.7069 28.6677 41.3693 31.6209 0.8763 6.8020
# 5 22.6374 12.7596 18.4914 0.8763 44.0469 9.1800
# 6 9.2844 8.7636 5.4630 6.8020 9.1800 14.2529
#
#
#
# Elastic Compliance Matrix: (Units=1/GPa)
#
#
# Indices 1 2 3 4 5 6 
#
# 1 0.023809 0.009743 0.002513 -0.011314 -0.014244 -0.007889
# 2 0.009743 0.027435 0.009261 -0.037422 -0.016450 0.001689
# 3 0.002513 0.009261 0.024657 -0.043472 -0.016502 0.014593
# 4 -0.011314 -0.037422 -0.043472 0.130902 0.041023 -0.041852
# 5 -0.014244 -0.016450 -0.016502 0.041023 0.045764 -0.023335
# 6 -0.007889 0.001689 0.014593 -0.041852 -0.023335 0.103671
#
#
# Mechanical properties :
#
#
# Convention : Reuss Voigt Hill
#
# Bulk Modulus (GPa) = 8.40802 33.70942 21.05872
# Shear Modulus (GPa) = 14.17036 33.08327 23.62682
#
# Velocity S-wave (km/s) = 2.39516 3.65973 3.09277
# Velocity P-wave (km/s) = 3.32461 5.61296 4.61293
#
# Compressibility (1/GPa) = 0.11893402
#
# Stress axis : x y z
#
# Youngs Moduli (GPa) = 42.00103 36.44959 40.55658
#
# Poissons Ratio (x) = -0.35511 -0.10193
# Poissons Ratio (y) = -0.40920 -0.37558
# Poissons Ratio (z) = -0.10556 -0.33755
#
# Static dielectric constant tensor:
#      x y z
#    x 2.044860 -0.089250 -0.015940 
#    y -0.089250 2.034350 0.043280 
#    z -0.015940 0.043280 2.122200 
# 
# From -- ./inp_files/515248.got.cif
#   From: 2010.05.17/outbox.cif.g08.bks.cpg/sg2_258_cif.got.tgz:515248.got - 2010.06.03 11:33:40.
