data_PCOD9084797
_publ_section_title
;
Structure prediction by ZEFSAII (Michael W. Deem and Ramdas Pophale) SiO2 
 PCOD9084797
Probable space group: P -1
;
_chemical_formula_sum "Si O2"
_cell_formula_units_Z 14
_cell_length_a 8.942960
_cell_length_b 13.104535
_cell_length_c 7.954878
_cell_angle_alpha 98.282571
_cell_angle_beta 48.884901
_cell_angle_gamma 72.259128
_cell_volume 586.853739
_symmetry_space_group_name_H-M "P -1"
_symmetry_group_IT_number 2
_symmetry_cell_setting 'triclinic'
loop_
_space_group_symop_operation_xyz
x,y,z
-x,-y,-z
loop_
_atom_site_type_symbol
_atom_site_label
_atom_site_fract_x
_atom_site_fract_y
_atom_site_fract_z
Si Si1 0.336239 0.231011 0.128594
Si Si2 0.355015 0.619538 0.526191
Si Si3 0.755576 0.664685 0.251150
Si Si4 0.455659 0.092290 0.359137
Si Si5 0.215988 0.939452 0.453106
Si Si6 0.039945 0.539828 0.683505
Si Si7 0.949120 0.866853 0.882188
O O1 0.428633 0.165414 0.224098
O O2 0.179542 0.379683 0.261710
O O3 0.176258 0.180850 0.162885
O O4 0.562287 0.176145 0.828657
O O5 0.500000 0.500000 0.500000
O O6 0.554128 0.643430 0.330232
O O7 0.227777 0.572620 0.487660
O O8 0.153753 0.744929 0.794287
O O9 0.643769 0.806691 0.399004
O O10 0.856879 0.592834 0.338411
O O11 0.943165 0.612961 0.951808
O O12 0.302553 0.031570 0.443661
O O13 0.726271 0.984317 0.156432
O O14 0.105672 0.906792 0.679137
O O15 0.000000 0.000000 0.500000
#
# Coordination Sequence:
#
# PCOD9084797 Si02
#       7
#     2   2   2   2   2   2   2
#     4  10  19  35  57  84 107 147 191 227 277 336
#     4   9  19  37  59  79 104 150 193 220 270 337
#     4  10  21  38  56  82 113 147 188 235 279 330
#     4  11  22  33  55  89 116 139 187 239 280 325
#     4  11  18  34  57  79 113 153 178 217 283 340
#     4   9  20  39  60  75 109 155 188 226 281 340
#     4  10  19  35  57  81 113 148 186 227 276 333
#
# _framework density 23.856028999999999
#
# number of rings (size 3 to 8) (size 9 to 14) (size 15 to 20)
#    0.000    2.000    2.857    1.714    0.000    2.286 
#    0.000   10.000    0.000    0.857    0.000    0.000 
#    0.000    0.000    0.000    0.000    0.000    0.000 
#
# Total GULP energy -78101.844701 kJ/mol
# GULP energy per Si atom -5578.703193 kJ/mol
# Density = 2.380173 g / cm^3
# Si number density = 23.856029 Si / 1000 Ang^3
#
#
#
# Elastic Constant Matrix: (Units=GPa)
#
#
# Indices 1 2 3 4 5 6 
#
# 1 51.7594 31.9019 25.6070 -9.4966 -21.9971 -11.7190
# 2 31.9019 161.1497 55.2989 13.5703 -20.5125 -15.9959
# 3 25.6070 55.2989 79.4782 6.9973 -32.4612 6.1542
# 4 -9.4966 13.5703 6.9973 47.1681 -2.2871 -6.1738
# 5 -21.9971 -20.5125 -32.4612 -2.2871 35.8209 -9.5171
# 6 -11.7190 -15.9959 6.1542 -6.1738 -9.5171 42.9089
#
#
#
# Elastic Compliance Matrix: (Units=1/GPa)
#
#
# Indices 1 2 3 4 5 6 
#
# 1 0.039872 -0.002994 -0.002713 0.012868 0.025849 0.017747
# 2 -0.002994 0.009133 -0.006018 -0.002036 -0.001438 0.002838
# 3 -0.002713 -0.006018 0.024745 -0.002115 0.016322 -0.003217
# 4 0.012868 -0.002036 -0.002115 0.026271 0.008834 0.008798
# 5 0.025849 -0.001438 0.016322 0.008834 0.063514 0.019541
# 6 0.017747 0.002838 -0.003217 0.008798 0.019541 0.035272
#
#
# Mechanical properties :
#
#
# Convention : Reuss Voigt Hill
#
# Bulk Modulus (GPa) = 19.88031 57.55588 38.71810
# Shear Modulus (GPa) = 20.91840 37.15153 29.03497
#
# Velocity S-wave (km/s) = 2.96439 3.95057 3.49247
# Velocity P-wave (km/s) = 4.47978 6.70732 5.70335
#
# Compressibility (1/GPa) = 0.05030102
#
# Stress axis : x y z
#
# Youngs Moduli (GPa) = 25.08009 109.48892 40.41205
#
# Poissons Ratio (x) = 0.32782 0.10963
# Poissons Ratio (y) = 0.07509 0.24319
# Poissons Ratio (z) = 0.06804 0.65889
#
# Static dielectric constant tensor:
#      x y z
#    x 1.992570 -0.045140 -0.009570 
#    y -0.045140 1.973210 0.036100 
#    z -0.009570 0.036100 1.953320 
# 
# From -- ./inp_files/207498.got.cif
#   From: 2010.05.17/outbox.cif.g08.bks.cpg/sg2_104_cif.got.tgz:207498.got - 2010.06.03 11:33:40.
