data_PCOD9084506
_publ_section_title
;
Structure prediction by ZEFSAII (Michael W. Deem and Ramdas Pophale) SiO2 
 PCOD9084506
Probable space group: P -1
;
_chemical_formula_sum "Si O2"
_cell_formula_units_Z 14
_cell_length_a 10.692592
_cell_length_b 7.410345
_cell_length_c 22.630700
_cell_angle_alpha 130.560552
_cell_angle_beta 134.418446
_cell_angle_gamma 88.166742
_cell_volume 609.194044
_symmetry_space_group_name_H-M "P -1"
_symmetry_group_IT_number 2
_symmetry_cell_setting 'triclinic'
loop_
_space_group_symop_operation_xyz
x,y,z
-x,-y,-z
loop_
_atom_site_type_symbol
_atom_site_label
_atom_site_fract_x
_atom_site_fract_y
_atom_site_fract_z
Si Si1 0.039394 0.318352 0.063158
Si Si2 0.378583 0.893503 0.864208
Si Si3 0.254468 0.255285 0.915973
Si Si4 0.034823 0.682610 0.236620
Si Si5 0.032895 0.684023 0.485073
Si Si6 0.945496 0.105897 0.588205
Si Si7 0.599558 0.179784 0.826389
O O1 0.243138 0.597036 0.135651
O O2 0.139654 0.577992 0.208590
O O3 0.748978 0.125645 0.900609
O O4 0.000000 0.000000 0.000000
O O5 0.269651 0.536622 0.781380
O O6 0.234210 0.735986 0.718440
O O7 0.223003 0.947943 0.856548
O O8 0.707300 0.265955 0.049361
O O9 0.991277 0.105353 0.766461
O O10 0.500000 0.500000 0.000000
O O11 0.351001 0.528467 0.057688
O O12 0.161724 0.893006 0.386352
O O13 0.170478 0.919601 0.517802
O O14 0.949110 0.829597 0.524251
O O15 0.275329 0.801689 0.623132
#
# Coordination Sequence:
#
# PCOD9084506 Si02
#       7
#     2   2   2   2   2   2   2
#     4  10  24  37  62  84 105 162 206 236 279 333
#     4   9  18  31  57  87 110 149 180 225 299 345
#     4   9  18  33  56  84 113 143 183 238 289 339
#     4  10  19  35  53  85 113 143 200 234 273 346
#     4   9  19  33  57  86 118 151 175 234 310 337
#     4   9  19  32  55  87 115 148 178 231 293 342
#     4  10  21  42  58  82 124 146 193 251 279 339
#
# _framework density 22.981183000000001
#
# number of rings (size 3 to 8) (size 9 to 14) (size 15 to 20)
#    0.857    1.714    0.000    2.143    4.000    0.000 
#    0.000   13.571    0.000   13.714    0.000    0.000 
#    0.000    0.000    0.000    0.000    0.000    0.000 
#
# Total GULP energy -78067.699580 kJ/mol
# GULP energy per Si atom -5576.264256 kJ/mol
# Density = 2.292888 g / cm^3
# Si number density = 22.981183 Si / 1000 Ang^3
#
#
#
# Elastic Constant Matrix: (Units=GPa)
#
#
# Indices 1 2 3 4 5 6 
#
# 1 96.7669 30.1736 45.0902 -0.9415 -53.0006 -15.0363
# 2 30.1736 132.9004 43.6011 1.1872 -23.4407 -17.8629
# 3 45.0902 43.6011 101.3052 -11.2044 -33.9429 -9.5828
# 4 -0.9415 1.1872 -11.2044 29.9385 1.3062 -8.9179
# 5 -53.0006 -23.4407 -33.9429 1.3062 50.1930 3.2130
# 6 -15.0363 -17.8629 -9.5828 -8.9179 3.2130 27.6710
#
#
#
# Elastic Compliance Matrix: (Units=1/GPa)
#
#
# Indices 1 2 3 4 5 6 
#
# 1 0.028534 0.000910 -0.002110 0.002699 0.028229 0.012954
# 2 0.000910 0.009547 -0.002997 -0.000041 0.003057 0.005251
# 3 -0.002110 -0.002997 0.015278 0.006566 0.006304 0.003594
# 4 0.002699 -0.000041 0.006566 0.040538 0.005180 0.016177
# 5 0.028229 0.003057 0.006304 0.005180 0.054335 0.014856
# 6 0.012954 0.005251 0.003594 0.016177 0.014856 0.051301
#
#
# Mechanical properties :
#
#
# Convention : Reuss Voigt Hill
#
# Bulk Modulus (GPa) = 22.23993 63.18913 42.71453
# Shear Modulus (GPa) = 22.43000 35.70100 29.06550
#
# Velocity S-wave (km/s) = 3.12751 3.94571 3.56019
# Velocity P-wave (km/s) = 4.76867 6.95082 5.96046
#
# Compressibility (1/GPa) = 0.04496418
#
# Stress axis : x y z
#
# Youngs Moduli (GPa) = 35.04623 104.75026 65.45192
#
# Poissons Ratio (x) = -0.09529 0.13809
# Poissons Ratio (y) = -0.03188 0.19617
# Poissons Ratio (z) = 0.07394 0.31396
#
# Static dielectric constant tensor:
#      x y z
#    x 1.926260 0.071610 -0.025050 
#    y 0.071610 1.978770 -0.032480 
#    z -0.025050 -0.032480 1.891600 
# 
# From -- ./inp_files/609928.got.cif
#   From: 2010.05.17/outbox.cif.g08.bks.cpg/sg2_305_cif.got.tgz:609928.got - 2010.06.03 11:33:40.
