data_PCOD9084245
_publ_section_title
;
Structure prediction by ZEFSAII (Michael W. Deem and Ramdas Pophale) SiO2 
 PCOD9084245
Probable space group: P -1
;
_chemical_formula_sum "Si O2"
_cell_formula_units_Z 14
_cell_length_a 5.642566
_cell_length_b 9.539894
_cell_length_c 12.387287
_cell_angle_alpha 75.473412
_cell_angle_beta 110.811293
_cell_angle_gamma 114.537616
_cell_volume 562.807834
_symmetry_space_group_name_H-M "P -1"
_symmetry_group_IT_number 2
_symmetry_cell_setting 'triclinic'
loop_
_space_group_symop_operation_xyz
x,y,z
-x,-y,-z
loop_
_atom_site_type_symbol
_atom_site_label
_atom_site_fract_x
_atom_site_fract_y
_atom_site_fract_z
Si Si1 0.525715 0.646463 0.234828
Si Si2 0.102300 0.171256 0.195156
Si Si3 0.582091 0.857131 0.417478
Si Si4 0.933876 0.161237 0.746704
Si Si5 0.271522 0.787575 0.686298
Si Si6 0.271079 0.853216 0.047817
Si Si7 0.272594 0.389253 0.404863
O O1 0.599674 0.763376 0.329114
O O2 0.370577 0.709856 0.109287
O O3 0.357704 0.481447 0.288597
O O4 0.820723 0.678277 0.227903
O O5 0.431008 0.219943 0.246598
O O6 0.904549 0.225285 0.230041
O O7 0.991908 0.987076 0.237573
O O8 0.004709 0.190568 0.055494
O O9 0.260188 0.816448 0.380367
O O10 0.692299 0.777889 0.545139
O O11 0.692732 0.042881 0.390256
O O12 0.776077 0.108445 0.844155
O O13 0.043633 0.648942 0.610818
O O14 0.500000 0.000000 0.000000
O O15 0.500000 0.500000 0.500000
#
# Coordination Sequence:
#
# PCOD9084245 Si02
#       7
#     2   2   2   2   2   2   2
#     4  10  20  37  60  95 130 161 220 257 319 382
#     4  11  22  39  66  97 133 166 215 272 319 373
#     4   9  19  39  63  91 127 165 216 264 321 372
#     4  10  19  34  62 100 125 163 214 267 309 386
#     4  11  23  44  65  98 129 169 219 269 321 387
#     4  11  20  35  64  98 129 169 215 263 318 377
#     4  10  23  45  65  89 127 171 217 268 330 385
#
# _framework density 24.875274999999998
#
# number of rings (size 3 to 8) (size 9 to 14) (size 15 to 20)
#    0.000    1.714    2.857    2.571    2.000    0.571 
#   12.857    3.571    0.000    0.000    0.000    0.000 
#    0.000    0.000    0.000    0.000    0.000    0.000 
#
# Total GULP energy -78127.244449 kJ/mol
# GULP energy per Si atom -5580.517461 kJ/mol
# Density = 2.481866 g / cm^3
# Si number density = 24.875275 Si / 1000 Ang^3
#
#
#
# Elastic Constant Matrix: (Units=GPa)
#
#
# Indices 1 2 3 4 5 6 
#
# 1 93.4788 58.0434 62.6188 -2.9459 11.2744 29.0436
# 2 58.0434 130.7884 58.1086 -13.0469 23.6379 45.7953
# 3 62.6188 58.1086 138.0408 -22.0582 38.1137 31.3838
# 4 -2.9459 -13.0469 -22.0582 36.3876 -1.6306 -2.2493
# 5 11.2744 23.6379 38.1137 -1.6306 46.6060 14.0741
# 6 29.0436 45.7953 31.3838 -2.2493 14.0741 42.9639
#
#
#
# Elastic Compliance Matrix: (Units=1/GPa)
#
#
# Indices 1 2 3 4 5 6 
#
# 1 0.019958 -0.005378 -0.008352 -0.005356 0.005691 -0.003803
# 2 -0.005378 0.014757 0.000202 0.004165 -0.002855 -0.011088
# 3 -0.008352 0.000202 0.015461 0.008193 -0.009764 -0.002236
# 4 -0.005356 0.004165 0.008193 0.033063 -0.005359 -0.003318
# 5 0.005691 -0.002855 -0.009764 -0.005359 0.030518 -0.003949
# 6 -0.003803 -0.011088 -0.002236 -0.003318 -0.003949 0.040419
#
#
# Mechanical properties :
#
#
# Convention : Reuss Voigt Hill
#
# Bulk Modulus (GPa) = 43.25024 79.98329 61.61677
# Shear Modulus (GPa) = 26.46367 37.42730 31.94549
#
# Velocity S-wave (km/s) = 3.26522 3.88312 3.58750
# Velocity P-wave (km/s) = 5.62495 7.23384 6.47953
#
# Compressibility (1/GPa) = 0.02312126
#
# Stress axis : x y z
#
# Youngs Moduli (GPa) = 50.10503 67.76612 64.67700
#
# Poissons Ratio (x) = 0.36442 0.54019
# Poissons Ratio (y) = 0.26944 -0.01308
# Poissons Ratio (z) = 0.41848 -0.01371
#
# Static dielectric constant tensor:
#      x y z
#    x 2.142480 -0.018220 -0.010720 
#    y -0.018220 2.038840 0.110180 
#    z -0.010720 0.110180 2.012530 
# 
# From -- ./inp_files/134464.got.cif
#   From: 2010.05.17/outbox.cif.g08.bks.cpg/sg2_68_cif.got.tgz:134464.got - 2010.06.03 11:33:40.
