data_PCOD9084340
_publ_section_title
;
Structure prediction by ZEFSAII (Michael W. Deem and Ramdas Pophale) SiO2 
 PCOD9084340
Probable space group: P -1
;
_chemical_formula_sum "Si O2"
_cell_formula_units_Z 16
_cell_length_a 12.005017
_cell_length_b 9.024106
_cell_length_c 14.208131
_cell_angle_alpha 58.046762
_cell_angle_beta 144.531768
_cell_angle_gamma 99.403859
_cell_volume 636.067790
_symmetry_space_group_name_H-M "P -1"
_symmetry_group_IT_number 2
_symmetry_cell_setting 'triclinic'
loop_
_space_group_symop_operation_xyz
x,y,z
-x,-y,-z
loop_
_atom_site_type_symbol
_atom_site_label
_atom_site_fract_x
_atom_site_fract_y
_atom_site_fract_z
Si Si1 0.704653 0.643655 0.577075
Si Si2 0.251464 0.800829 0.758746
Si Si3 0.833862 0.108454 0.128555
Si Si4 0.428406 0.618433 0.551764
Si Si5 0.330873 0.690833 0.654425
Si Si6 0.422291 0.037354 0.113475
Si Si7 0.806340 0.658601 0.997791
Si Si8 0.940923 0.919940 0.891206
O O1 0.638140 0.615624 0.646007
O O2 0.665989 0.480809 0.550223
O O3 0.543936 0.861907 0.339050
O O4 0.967388 0.571498 0.773291
O O5 0.249540 0.748520 0.884083
O O6 0.308561 0.641425 0.764847
O O7 0.415570 0.886980 0.832424
O O8 0.000000 0.000000 0.500000
O O9 0.870474 0.184664 0.026580
O O10 0.660565 0.040527 0.002893
O O11 0.081807 0.902890 0.395410
O O12 0.396034 0.546028 0.656250
O O13 0.260573 0.865765 0.360889
O O14 0.552011 0.709538 0.797759
O O15 0.200990 0.233024 0.944921
O O16 0.853690 0.776416 0.910463
O O17 0.000000 0.000000 0.000000
#
# Coordination Sequence:
#
# PCOD9084340 Si02
#       8
#     2   2   2   2   2   2   2   2
#     4  11  22  36  62  93 126 157 204 252 298 370
#     4   9  20  40  62  91 119 162 206 255 303 360
#     4  10  19  34  63  89 117 158 206 247 294 358
#     4  10  20  35  55  89 128 161 200 248 303 360
#     4   9  21  38  59  83 126 163 197 248 308 358
#     4  11  21  39  66  94 119 157 213 248 304 362
#     4  11  21  37  60  92 130 161 192 253 313 361
#     4  11  17  34  60  92 122 158 202 248 305 365
#
# _framework density 25.15455
#
# number of rings (size 3 to 8) (size 9 to 14) (size 15 to 20)
#    0.000    1.750    3.750    1.125    1.750    2.500 
#    2.250    3.750    0.000   34.500    0.000    0.000 
#    0.000    0.000    0.000    0.000    0.000    0.000 
#
# Total GULP energy -89302.583538 kJ/mol
# GULP energy per Si atom -5581.411471 kJ/mol
# Density = 2.509730 g / cm^3
# Si number density = 25.154550 Si / 1000 Ang^3
#
#
#
# Elastic Constant Matrix: (Units=GPa)
#
#
# Indices 1 2 3 4 5 6 
#
# 1 168.0393 56.9571 39.7698 5.8783 11.5771 -38.4474
# 2 56.9571 63.9167 7.0003 14.4110 10.4268 -20.3602
# 3 39.7698 7.0003 111.3343 1.3805 0.8395 5.1956
# 4 5.8783 14.4110 1.3805 29.4282 1.7862 -0.9837
# 5 11.5771 10.4268 0.8395 1.7862 43.5634 7.6324
# 6 -38.4474 -20.3602 5.1956 -0.9837 7.6324 56.9509
#
#
#
# Elastic Compliance Matrix: (Units=1/GPa)
#
#
# Indices 1 2 3 4 5 6 
#
# 1 0.010571 -0.007580 -0.003546 0.002050 -0.001894 0.005039
# 2 -0.007580 0.027275 0.000938 -0.011419 -0.004942 0.005013
# 3 -0.003546 0.000938 0.010334 -0.000407 0.001088 -0.003154
# 4 0.002050 -0.011419 -0.000407 0.039053 0.000966 -0.002116
# 5 -0.001894 -0.004942 0.001088 0.000966 0.025733 -0.006577
# 6 0.005039 0.005013 -0.003154 -0.002116 -0.006577 0.023886
#
#
# Mechanical properties :
#
#
# Convention : Reuss Voigt Hill
#
# Bulk Modulus (GPa) = 35.96664 61.19385 48.58025
# Shear Modulus (GPa) = 30.03083 41.95937 35.99510
#
# Velocity S-wave (km/s) = 3.45897 4.08862 3.78690
# Velocity P-wave (km/s) = 5.50290 6.83148 6.20286
#
# Compressibility (1/GPa) = 0.02780354
#
# Stress axis : x y z
#
# Youngs Moduli (GPa) = 94.59740 36.66382 96.77104
#
# Poissons Ratio (x) = 0.27790 0.34314
# Poissons Ratio (y) = 0.71702 -0.09072
# Poissons Ratio (z) = 0.33543 -0.03437
#
# Static dielectric constant tensor:
#      x y z
#    x 2.059030 -0.082110 -0.069160 
#    y -0.082110 1.993640 0.014290 
#    z -0.069160 0.014290 2.082210 
# 
# From -- ./inp_files/258725.got.cif
#   From: 2010.05.17/outbox.cif.g08.bks.cpg/sg2_130_cif.got.tgz:258725.got - 2010.06.03 11:33:40.
