data_PCOD9084567
_publ_section_title
;
Structure prediction by ZEFSAII (Michael W. Deem and Ramdas Pophale) SiO2 
 PCOD9084567
Probable space group: P -1
;
_chemical_formula_sum "Si O2"
_cell_formula_units_Z 16
_cell_length_a 8.295850
_cell_length_b 18.822131
_cell_length_c 9.727456
_cell_angle_alpha 41.231652
_cell_angle_beta 126.133326
_cell_angle_gamma 131.024425
_cell_volume 741.050726
_symmetry_space_group_name_H-M "P -1"
_symmetry_group_IT_number 2
_symmetry_cell_setting 'triclinic'
loop_
_space_group_symop_operation_xyz
x,y,z
-x,-y,-z
loop_
_atom_site_type_symbol
_atom_site_label
_atom_site_fract_x
_atom_site_fract_y
_atom_site_fract_z
Si Si1 0.050983 0.973229 0.218850
Si Si2 0.580208 0.626620 0.253806
Si Si3 0.680543 0.157203 0.527376
Si Si4 0.122187 0.288374 0.446780
Si Si5 0.232738 0.675687 0.451029
Si Si6 0.199635 0.537783 0.381868
Si Si7 0.639629 0.626753 0.821058
Si Si8 0.261588 0.190288 0.173768
O O1 0.277021 0.955564 0.333585
O O2 0.891376 0.845178 0.380613
O O3 0.071673 0.073953 0.189924
O O4 0.000000 0.000000 0.000000
O O5 0.729408 0.666377 0.408745
O O6 0.331302 0.581146 0.244319
O O7 0.654500 0.525929 0.379998
O O8 0.640794 0.729995 0.026860
O O9 0.754554 0.202426 0.655384
O O10 0.445450 0.151369 0.385055
O O11 0.870340 0.262446 0.386575
O O12 0.212499 0.367147 0.244529
O O13 0.200301 0.645043 0.318522
O O14 0.459715 0.671392 0.611174
O O15 0.040397 0.564011 0.588291
O O16 0.777892 0.722588 0.864575
O O17 0.500000 0.500000 0.000000
#
# Coordination Sequence:
#
# PCOD9084567 Si02
#       8
#     2   2   2   2   2   2   2   2
#     4  10  20  40  68  87 113 158 210 247 294 362
#     4  11  20  36  60  89 118 160 208 240 294 363
#     4   9  21  37  60  85 122 151 200 252 304 351
#     4  10  21  40  61  83 124 156 201 245 297 353
#     4  10  19  35  54  86 117 160 192 253 294 344
#     4  10  20  32  58  84 121 160 201 244 289 354
#     4  11  24  39  58  90 128 160 194 244 306 364
#     4  11  22  37  64  91 117 160 198 248 307 349
#
# _framework density 21.590964
#
# number of rings (size 3 to 8) (size 9 to 14) (size 15 to 20)
#    0.750    1.000    3.750    1.125    1.750    1.500 
#    0.000    2.500    0.000    3.750    0.000    0.000 
#    0.000    0.000    0.000    0.000    0.000    0.000 
#
# Total GULP energy -89133.685872 kJ/mol
# GULP energy per Si atom -5570.855367 kJ/mol
# Density = 2.154182 g / cm^3
# Si number density = 21.590964 Si / 1000 Ang^3
#
#
#
# Elastic Constant Matrix: (Units=GPa)
#
#
# Indices 1 2 3 4 5 6 
#
# 1 45.3456 -3.3559 -10.5342 9.1006 -9.2829 -1.6466
# 2 -3.3559 122.4896 6.7510 10.2176 -6.1055 -23.8772
# 3 -10.5342 6.7510 46.7606 0.2078 -9.0709 -5.9464
# 4 9.1006 10.2176 0.2078 22.4856 -1.3214 -0.5186
# 5 -9.2829 -6.1055 -9.0709 -1.3214 22.2862 1.7386
# 6 -1.6466 -23.8772 -5.9464 -0.5186 1.7386 29.8649
#
#
#
# Elastic Compliance Matrix: (Units=1/GPa)
#
#
# Indices 1 2 3 4 5 6 
#
# 1 0.030977 0.003197 0.010504 -0.012976 0.016883 0.005147
# 2 0.003197 0.010499 0.001008 -0.005666 0.003622 0.008461
# 3 0.010504 0.001008 0.027294 -0.003941 0.015069 0.005874
# 4 -0.012976 -0.005666 -0.003941 0.051924 -0.005106 -0.004831
# 5 0.016883 0.003622 0.015069 -0.005106 0.058466 0.003335
# 6 0.005147 0.008461 0.005874 -0.004831 0.003335 0.041425
#
#
# Mechanical properties :
#
#
# Convention : Reuss Voigt Hill
#
# Bulk Modulus (GPa) = 10.18438 22.25751 16.22095
# Shear Modulus (GPa) = 22.33189 29.70965 26.02077
#
# Velocity S-wave (km/s) = 3.21957 3.71350 3.47532
# Velocity P-wave (km/s) = 4.30674 5.35891 4.86137
#
# Compressibility (1/GPa) = 0.09818955
#
# Stress axis : x y z
#
# Youngs Moduli (GPa) = 32.28180 95.25098 36.63806
#
# Poissons Ratio (x) = -0.30453 -0.38486
# Poissons Ratio (y) = -0.10321 -0.03695
# Poissons Ratio (z) = -0.33910 -0.09605
#
# Static dielectric constant tensor:
#      x y z
#    x 1.830620 -0.036750 0.007550 
#    y -0.036750 1.884940 0.010450 
#    z 0.007550 0.010450 1.761010 
# 
# From -- ./inp_files/214476.got.cif
#   From: 2010.05.17/outbox.cif.g08.bks.cpg/sg2_108_cif.got.tgz:214476.got - 2010.06.03 11:33:40.
