data_PCOD9084052
_publ_section_title
;
Structure prediction by ZEFSAII (Michael W. Deem and Ramdas Pophale) SiO2 
 PCOD9084052
Probable space group: P -1
;
_chemical_formula_sum "Si O2"
_cell_formula_units_Z 14
_cell_length_a 14.773660
_cell_length_b 9.261573
_cell_length_c 4.939341
_cell_angle_alpha 71.127764
_cell_angle_beta 66.527525
_cell_angle_gamma 59.289529
_cell_volume 526.764287
_symmetry_space_group_name_H-M "P -1"
_symmetry_group_IT_number 2
_symmetry_cell_setting 'triclinic'
loop_
_space_group_symop_operation_xyz
x,y,z
-x,-y,-z
loop_
_atom_site_type_symbol
_atom_site_label
_atom_site_fract_x
_atom_site_fract_y
_atom_site_fract_z
Si Si1 0.996714 0.888784 0.320847
Si Si2 0.927163 0.658219 0.295057
Si Si3 0.876767 0.399267 0.305916
Si Si4 0.546572 0.605606 0.199065
Si Si5 0.320208 0.874446 0.156460
Si Si6 0.261953 0.724877 0.845399
Si Si7 0.576174 0.903173 0.216655
O O1 0.098147 0.708561 0.381841
O O2 0.902890 0.826859 0.396021
O O3 0.000000 0.000000 0.500000
O O4 0.000000 0.000000 0.000000
O O5 0.841149 0.595091 0.311854
O O6 0.000000 0.500000 0.500000
O O7 0.006407 0.659527 0.955500
O O8 0.808122 0.338749 0.227339
O O9 0.500000 0.500000 0.500000
O O10 0.448191 0.733028 0.050136
O O11 0.649544 0.455568 0.027962
O O12 0.589955 0.713473 0.272332
O O13 0.299874 0.826068 0.512620
O O14 0.240551 0.847482 0.054370
O O15 0.321464 0.052738 0.976326
O O16 0.500000 0.000000 0.500000
O O17 0.500000 0.000000 0.000000
#
# Coordination Sequence:
#
# PCOD9084052 Si02
#       7
#     2   2   2   2   2   2   2
#     4  11  21  38  65  92 116 156 206 253 306 377
#     4   9  20  39  67  87 125 159 208 244 320 384
#     4  10  22  40  62  95 123 165 206 257 317 372
#     4   9  19  37  59  87 116 161 207 241 289 356
#     4  10  21  37  57  86 122 163 201 242 303 352
#     4  11  23  37  60  87 124 156 201 255 296 354
#     4  10  19  34  60  81 112 155 205 247 289 351
#
# _framework density 26.577355000000001
#
# number of rings (size 3 to 8) (size 9 to 14) (size 15 to 20)
#    0.000    2.000    1.429    3.000    4.000    3.429 
#    0.000    2.857    0.000    0.000    0.000    0.000 
#    0.000    0.000    0.000    0.000    0.000    0.000 
#
# Total GULP energy -78109.317249 kJ/mol
# GULP energy per Si atom -5579.236946 kJ/mol
# Density = 2.651686 g / cm^3
# Si number density = 26.577355 Si / 1000 Ang^3
#
#
#
# Elastic Constant Matrix: (Units=GPa)
#
#
# Indices 1 2 3 4 5 6 
#
# 1 123.4429 56.2751 22.7722 -18.5507 0.0054 52.5386
# 2 56.2751 152.1980 31.1929 -23.6537 -6.8083 58.9584
# 3 22.7722 31.1929 133.8238 -11.6536 23.0102 22.5776
# 4 -18.5507 -23.6537 -11.6536 47.1800 12.9772 0.3366
# 5 0.0054 -6.8083 23.0102 12.9772 41.4265 -13.5028
# 6 52.5386 58.9584 22.5776 0.3366 -13.5028 76.6816
#
#
#
# Elastic Compliance Matrix: (Units=1/GPa)
#
#
# Indices 1 2 3 4 5 6 
#
# 1 0.013684 -0.000318 0.001345 0.007455 -0.006633 -0.010728
# 2 -0.000318 0.010899 0.000058 0.006255 -0.003050 -0.008744
# 3 0.001345 0.000058 0.010289 0.005709 -0.009341 -0.005666
# 4 0.007455 0.006255 0.005709 0.033592 -0.017500 -0.014827
# 5 -0.006633 -0.003050 -0.009341 -0.017500 0.039758 0.016718
# 6 -0.010728 -0.008744 -0.005666 -0.014827 0.016718 0.031792
#
#
# Mechanical properties :
#
#
# Convention : Reuss Voigt Hill
#
# Bulk Modulus (GPa) = 26.99538 69.99391 48.49465
# Shear Modulus (GPa) = 33.29102 53.00593 43.14847
#
# Velocity S-wave (km/s) = 3.54306 4.47072 4.03365
# Velocity P-wave (km/s) = 5.18816 7.28305 6.32297
#
# Compressibility (1/GPa) = 0.03704337
#
# Stress axis : x y z
#
# Youngs Moduli (GPa) = 73.07690 91.75334 97.18899
#
# Poissons Ratio (x) = 0.02915 -0.13073
# Poissons Ratio (y) = 0.02321 -0.00564
# Poissons Ratio (z) = -0.09830 -0.00533
#
# Static dielectric constant tensor:
#      x y z
#    x 2.393070 -0.072080 -0.236710 
#    y -0.072080 2.202280 0.085500 
#    z -0.236710 0.085500 2.204350 
# 
# From -- ./inp_files/88570.got.cif
#   From: 2010.05.17/outbox.cif.g08.bks.cpg/sg2_45_cif.got.tgz:88570.got - 2010.06.03 11:33:40.
