data_PCOD9084807
_publ_section_title
;
Structure prediction by ZEFSAII (Michael W. Deem and Ramdas Pophale) SiO2 
 PCOD9084807
Probable space group: P -1
;
_chemical_formula_sum "Si O2"
_cell_formula_units_Z 16
_cell_length_a 13.968665
_cell_length_b 17.739108
_cell_length_c 9.477351
_cell_angle_alpha 42.460235
_cell_angle_beta 141.890401
_cell_angle_gamma 141.199426
_cell_volume 859.802331
_symmetry_space_group_name_H-M "P -1"
_symmetry_group_IT_number 2
_symmetry_cell_setting 'triclinic'
loop_
_space_group_symop_operation_xyz
x,y,z
-x,-y,-z
loop_
_atom_site_type_symbol
_atom_site_label
_atom_site_fract_x
_atom_site_fract_y
_atom_site_fract_z
Si Si1 0.412378 0.316218 0.681773
Si Si2 0.147732 0.394754 0.360859
Si Si3 0.890678 0.849044 0.245518
Si Si4 0.288974 0.579435 0.898732
Si Si5 0.075483 0.594834 0.157618
Si Si6 0.625781 0.649533 0.732851
Si Si7 0.603774 0.280054 0.459009
Si Si8 0.781484 0.885005 0.757156
O O1 0.258779 0.188933 0.754337
O O2 0.406689 0.310699 0.515016
O O3 0.337948 0.413419 0.508088
O O4 0.595739 0.354350 0.919482
O O5 0.150135 0.517018 0.261115
O O6 0.079529 0.274473 0.551449
O O7 0.022442 0.356484 0.131561
O O8 0.816182 0.862928 0.989846
O O9 0.070362 0.976643 0.305942
O O10 0.081877 0.509885 0.785894
O O11 0.344338 0.677515 0.699426
O O12 0.336794 0.467948 0.069169
O O13 0.229180 0.700042 0.284189
O O14 0.461963 0.625040 0.677902
O O15 0.783360 0.774331 0.815877
O O16 0.423565 0.147200 0.446234
#
# Coordination Sequence:
#
# PCOD9084807 Si02
#       8
#     2   2   2   2   2   2   2   2
#     4  10  19  35  57  82 107 138 184 224 267 313
#     4   9  21  36  54  80 112 145 178 220 270 317
#     4   9  18  39  59  78 103 141 187 229 262 313
#     4  12  20  34  55  83 112 143 176 222 273 322
#     4  11  22  33  53  80 117 146 175 212 271 337
#     4  10  21  32  56  85 110 136 180 229 270 314
#     4  10  22  35  50  82 112 141 176 222 269 324
#     4   9  20  35  60  80 104 139 185 230 269 302
#
# _framework density 18.608929
#
# number of rings (size 3 to 8) (size 9 to 14) (size 15 to 20)
#    1.500    0.500    2.500    1.875    5.250    0.500 
#    0.000    0.625    0.000    2.250    0.000    0.000 
#    0.000    0.000    0.000    0.000    0.000    0.000 
#
# Total GULP energy -89085.614479 kJ/mol
# GULP energy per Si atom -5567.850905 kJ/mol
# Density = 1.856657 g / cm^3
# Si number density = 18.608929 Si / 1000 Ang^3
#
#
#
# Elastic Constant Matrix: (Units=GPa)
#
#
# Indices 1 2 3 4 5 6 
#
# 1 52.4787 5.4041 4.8251 8.9566 -7.4324 15.2526
# 2 5.4041 73.9553 33.1136 26.7634 -0.5701 29.8734
# 3 4.8251 33.1136 54.5659 23.1317 -5.4827 9.4385
# 4 8.9566 26.7634 23.1317 32.6231 3.6318 4.1685
# 5 -7.4324 -0.5701 -5.4827 3.6318 26.4633 1.2348
# 6 15.2526 29.8734 9.4385 4.1685 1.2348 24.9747
#
#
#
# Elastic Compliance Matrix: (Units=1/GPa)
#
#
# Indices 1 2 3 4 5 6 
#
# 1 0.043401 0.034741 0.004488 -0.037810 0.022068 -0.064538
# 2 0.034741 0.073978 -0.004228 -0.057044 0.022957 -0.099722
# 3 0.004488 -0.004228 0.031355 -0.020343 0.010769 -0.006671
# 4 -0.037810 -0.057044 -0.020343 0.095106 -0.033071 0.084774
# 5 0.022068 0.022957 0.010769 -0.033071 0.053216 -0.042119
# 6 -0.064538 -0.099722 -0.006671 0.084774 -0.042119 0.189192
#
#
# Mechanical properties :
#
#
# Convention : Reuss Voigt Hill
#
# Bulk Modulus (GPa) = 4.57167 29.74285 17.15726
# Shear Modulus (GPa) = 10.22167 25.98933 18.10550
#
# Velocity S-wave (km/s) = 2.34623 3.74117 3.12259
# Velocity P-wave (km/s) = 3.13078 5.88894 4.71601
#
# Compressibility (1/GPa) = 0.21873852
#
# Stress axis : x y z
#
# Youngs Moduli (GPa) = 23.04087 13.51751 31.89285
#
# Poissons Ratio (x) = -0.46962 -0.14315
# Poissons Ratio (y) = -0.80047 0.13483
# Poissons Ratio (z) = -0.10342 0.05715
#
# Static dielectric constant tensor:
#      x y z
#    x 1.668800 0.015350 -0.000080 
#    y 0.015350 1.667480 0.020130 
#    z -0.000080 0.020130 1.649530 
# 
# From -- ./inp_files/317528.got.cif
#   From: 2010.05.17/outbox.cif.g08.bks.cpg/sg2_159_cif.got.tgz:317528.got - 2010.06.03 11:33:40.
