data_PCOD9084042
_publ_section_title
;
Structure prediction by ZEFSAII (Michael W. Deem and Ramdas Pophale) SiO2 
 PCOD9084042
Probable space group: P -1
;
_chemical_formula_sum "Si O2"
_cell_formula_units_Z 12
_cell_length_a 5.320408
_cell_length_b 6.729049
_cell_length_c 14.859696
_cell_angle_alpha 79.149888
_cell_angle_beta 95.529234
_cell_angle_gamma 79.640633
_cell_volume 509.279816
_symmetry_space_group_name_H-M "P -1"
_symmetry_group_IT_number 2
_symmetry_cell_setting 'triclinic'
loop_
_space_group_symop_operation_xyz
x,y,z
-x,-y,-z
loop_
_atom_site_type_symbol
_atom_site_label
_atom_site_fract_x
_atom_site_fract_y
_atom_site_fract_z
Si Si1 0.153847 0.682119 0.984167
Si Si2 0.344148 0.958636 0.087440
Si Si3 0.437378 0.760445 0.816362
Si Si4 0.105833 0.234009 0.291497
Si Si5 0.724454 0.164447 0.566680
Si Si6 0.814135 0.746177 0.506362
O O1 0.263609 0.744717 0.077873
O O2 0.373335 0.657077 0.916919
O O3 0.000000 0.500000 0.000000
O O4 0.927863 0.877604 0.929695
O O5 0.524842 0.010834 0.169044
O O6 0.500000 0.000000 0.000000
O O7 0.701515 0.685644 0.777063
O O8 0.188461 0.745430 0.750238
O O9 0.134446 0.325071 0.383538
O O10 0.209660 0.987985 0.333914
O O11 0.438587 0.292965 0.546574
O O12 0.936025 0.296881 0.542509
O O13 0.748016 0.001730 0.496295
#
# Coordination Sequence:
#
# PCOD9084042 Si02
#       6
#     2   2   2   2   2   2
#     4  10  21  39  58  76 102 142 183 218 262 326
#     4   9  20  37  56  77 104 132 184 216 270 320
#     4  11  19  30  47  74 102 131 175 216 271 300
#     4  10  16  25  42  65 100 137 165 215 261 306
#     4   8  13  22  35  57  89 134 170 194 248 304
#     4   8  13  22  35  57  89 134 170 194 248 304
#
# _framework density 23.562684999999998
#
# number of rings (size 3 to 8) (size 9 to 14) (size 15 to 20)
#    1.000    1.667    1.667    2.000    0.000    2.667 
#    0.000    0.000    0.000    0.000    0.000    0.000 
#    0.000    0.000    0.000  120.000    0.000    0.000 
#
# Total GULP energy -66858.469229 kJ/mol
# GULP energy per Si atom -5571.539102 kJ/mol
# Density = 2.350905 g / cm^3
# Si number density = 23.562685 Si / 1000 Ang^3
#
#
#
# Elastic Constant Matrix: (Units=GPa)
#
#
# Indices 1 2 3 4 5 6 
#
# 1 175.1838 31.0109 35.4309 0.4311 -9.3202 31.7791
# 2 31.0109 92.1351 23.2873 4.7975 -9.1036 19.5807
# 3 35.4309 23.2873 69.1468 -5.5100 -11.7309 12.0777
# 4 0.4311 4.7975 -5.5100 22.0313 6.7372 -1.5810
# 5 -9.3202 -9.1036 -11.7309 6.7372 45.0770 -3.5756
# 6 31.7791 19.5807 12.0777 -1.5810 -3.5756 39.0457
#
#
#
# Elastic Compliance Matrix: (Units=1/GPa)
#
#
# Indices 1 2 3 4 5 6 
#
# 1 0.007256 -0.000647 -0.002682 -0.001156 0.000467 -0.004755
# 2 -0.000647 0.013465 -0.003330 -0.004742 0.002015 -0.005203
# 3 -0.002682 -0.003330 0.017988 0.004358 0.002701 -0.001287
# 4 -0.001156 -0.004742 0.004358 0.049998 -0.007271 0.003329
# 5 0.000467 0.002015 0.002701 -0.007271 0.024455 -0.000281
# 6 -0.004755 -0.005203 -0.001287 0.003329 -0.000281 0.032598
#
#
# Mechanical properties :
#
#
# Convention : Reuss Voigt Hill
#
# Bulk Modulus (GPa) = 39.38660 57.32487 48.35573
# Shear Modulus (GPa) = 29.84335 37.67992 33.76163
#
# Velocity S-wave (km/s) = 3.56273 4.00326 3.78940
# Velocity P-wave (km/s) = 5.80310 6.76384 6.30181
#
# Compressibility (1/GPa) = 0.02538935
#
# Stress axis : x y z
#
# Youngs Moduli (GPa) = 137.82428 74.26676 55.59203
#
# Poissons Ratio (x) = 0.04807 0.14910
# Poissons Ratio (y) = 0.08921 0.18514
# Poissons Ratio (z) = 0.36966 0.24733
#
# Static dielectric constant tensor:
#      x y z
#    x 2.258070 0.020030 -0.032030 
#    y 0.020030 1.996300 -0.002860 
#    z -0.032030 -0.002860 1.908470 
# 
# From -- ./inp_files/478507.got.cif
#   From: 2010.05.17/outbox.cif.g08.bks.cpg/sg2_240_cif.got.tgz:478507.got - 2010.06.03 11:33:40.
