data_PCOD9084377
_publ_section_title
;
Structure prediction by ZEFSAII (Michael W. Deem and Ramdas Pophale) SiO2 
 PCOD9084377
Probable space group: P -1
;
_chemical_formula_sum "Si O2"
_cell_formula_units_Z 14
_cell_length_a 8.929081
_cell_length_b 11.896100
_cell_length_c 9.200465
_cell_angle_alpha 94.973599
_cell_angle_beta 131.665996
_cell_angle_gamma 76.442423
_cell_volume 706.496286
_symmetry_space_group_name_H-M "P -1"
_symmetry_group_IT_number 2
_symmetry_cell_setting 'triclinic'
loop_
_space_group_symop_operation_xyz
x,y,z
-x,-y,-z
loop_
_atom_site_type_symbol
_atom_site_label
_atom_site_fract_x
_atom_site_fract_y
_atom_site_fract_z
Si Si1 0.674300 0.269009 0.852020
Si Si2 0.325112 0.163745 0.530238
Si Si3 0.107724 0.107889 0.093680
Si Si4 0.657953 0.502179 0.967617
Si Si5 0.520655 0.045298 0.178113
Si Si6 0.612878 0.269522 0.162843
Si Si7 0.027142 0.609437 0.620129
O O1 0.543887 0.199291 0.663869
O O2 0.616115 0.408828 0.814749
O O3 0.626853 0.249084 0.992594
O O4 0.915151 0.218438 0.973346
O O5 0.226773 0.117946 0.321725
O O6 0.173195 0.286090 0.489834
O O7 0.360738 0.060695 0.658433
O O8 0.288707 0.092651 0.092223
O O9 0.000000 0.000000 0.000000
O O10 0.598086 0.638585 0.914280
O O11 0.500000 0.500000 0.000000
O O12 0.881672 0.445010 0.172062
O O13 0.631185 0.150582 0.245022
O O14 0.500000 0.000000 0.000000
O O15 0.797672 0.330803 0.323662
O O16 0.000000 0.500000 0.500000
#
# Coordination Sequence:
#
# PCOD9084377 Si02
#       7
#     2   2   2   2   2   2   2
#     4  10  19  40  65  91 121 168 217 260 300 386
#     4  12  22  40  69  93 127 171 217 254 319 383
#     4  12  24  44  63  92 127 174 222 252 312 393
#     4   8  16  33  62  85 125 161 208 262 301 367
#     4  12  26  41  63  94 134 166 206 272 327 372
#     4  10  19  40  59  97 132 162 207 270 315 365
#     4  10  19  34  64 100 120 164 221 256 307 380
#
# _framework density 19.816098
#
# number of rings (size 3 to 8) (size 9 to 14) (size 15 to 20)
#    0.000    1.714    5.714    3.000    0.000    0.571 
#    0.000    0.714    0.000    1.714    0.000    0.000 
#    0.000    0.000    0.000    0.000    0.000    0.000 
#
# Total GULP energy -78025.419802 kJ/mol
# GULP energy per Si atom -5573.244272 kJ/mol
# Density = 1.977100 g / cm^3
# Si number density = 19.816098 Si / 1000 Ang^3
#
#
#
# Elastic Constant Matrix: (Units=GPa)
#
#
# Indices 1 2 3 4 5 6 
#
# 1 68.0888 38.2699 37.7591 0.8672 9.2129 -14.0977
# 2 38.2699 129.0586 53.5717 8.5304 -1.4796 -9.0438
# 3 37.7591 53.5717 100.0375 13.8489 20.1536 -0.8447
# 4 0.8672 8.5304 13.8489 46.3011 -1.1792 13.7637
# 5 9.2129 -1.4796 20.1536 -1.1792 16.0279 3.3770
# 6 -14.0977 -9.0438 -0.8447 13.7637 3.3770 30.8935
#
#
#
# Elastic Compliance Matrix: (Units=1/GPa)
#
#
# Indices 1 2 3 4 5 6 
#
# 1 0.023245 -0.004644 -0.003452 -0.002266 -0.012035 0.011479
# 2 -0.004644 0.012428 -0.007750 0.000601 0.013702 -0.000458
# 3 -0.003452 -0.007750 0.021868 -0.006529 -0.027266 0.002643
# 4 -0.002266 0.000601 -0.006529 0.028417 0.014887 -0.015324
# 5 -0.012035 0.013702 -0.027266 0.014887 0.110362 -0.020922
# 6 0.011479 -0.000458 0.002643 -0.015324 -0.020922 0.046660
#
#
# Mechanical properties :
#
#
# Convention : Reuss Voigt Hill
#
# Bulk Modulus (GPa) = 38.68434 61.82068 50.25251
# Shear Modulus (GPa) = 17.64994 29.81678 23.73336
#
# Velocity S-wave (km/s) = 2.98768 3.88322 3.46451
# Velocity P-wave (km/s) = 5.60943 7.16734 6.43570
#
# Compressibility (1/GPa) = 0.02585026
#
# Stress axis : x y z
#
# Youngs Moduli (GPa) = 43.02003 80.46568 45.72814
#
# Poissons Ratio (x) = 0.37367 0.15784
# Poissons Ratio (y) = 0.19978 0.35438
# Poissons Ratio (z) = 0.14849 0.62359
#
# Static dielectric constant tensor:
#      x y z
#    x 1.431320 0.031170 0.149160 
#    y 0.031170 1.779030 -0.043960 
#    z 0.149160 -0.043960 1.681280 
# 
# From -- ./inp_files/180807.got.cif
#   From: 2010.05.17/outbox.cif.g08.bks.cpg/sg2_91_cif.got.tgz:180807.got - 2010.06.03 11:33:40.
