data_PCOD9084207
_publ_section_title
;
Structure prediction by ZEFSAII (Michael W. Deem and Ramdas Pophale) SiO2 
 PCOD9084207
Probable space group: P -1
;
_chemical_formula_sum "Si O2"
_cell_formula_units_Z 14
_cell_length_a 5.351753
_cell_length_b 7.689115
_cell_length_c 15.403026
_cell_angle_alpha 94.822599
_cell_angle_beta 101.743881
_cell_angle_gamma 121.168857
_cell_volume 517.237553
_symmetry_space_group_name_H-M "P -1"
_symmetry_group_IT_number 2
_symmetry_cell_setting 'triclinic'
loop_
_space_group_symop_operation_xyz
x,y,z
-x,-y,-z
loop_
_atom_site_type_symbol
_atom_site_label
_atom_site_fract_x
_atom_site_fract_y
_atom_site_fract_z
Si Si1 0.868033 0.749067 0.158700
Si Si2 0.635005 0.066607 0.606790
Si Si3 0.644975 0.746676 0.776903
Si Si4 0.669696 0.246764 0.925762
Si Si5 0.799596 0.254708 0.129484
Si Si6 0.148600 0.466780 0.593973
Si Si7 0.778563 0.846134 0.341929
O O1 0.567060 0.682203 0.079977
O O2 0.730448 0.722741 0.245002
O O3 0.083465 0.678199 0.131534
O O4 0.122104 0.002061 0.187677
O O5 0.389847 0.035967 0.656625
O O6 0.862251 0.319434 0.630795
O O7 0.860246 0.989592 0.626715
O O8 0.500000 0.000000 0.500000
O O9 0.406302 0.673129 0.837253
O O10 0.416704 0.659219 0.674165
O O11 0.884654 0.676992 0.798032
O O12 0.428826 0.997677 0.887727
O O13 0.842302 0.285083 0.030325
O O14 0.263280 0.306289 0.587266
O O15 0.000000 0.500000 0.500000
#
# Coordination Sequence:
#
# PCOD9084207 Si02
#       7
#     2   2   2   2   2   2   2
#     4  10  19  34  61  91 120 153 202 245 295 349
#     4  10  23  43  62  87 110 161 199 256 297 357
#     4  10  21  36  57  90 120 158 194 250 301 352
#     4   9  17  32  58  92 118 156 197 244 290 353
#     4   9  18  34  57  87 126 153 194 245 300 346
#     4  10  26  42  63  87 121 160 204 250 306 362
#     4  10  23  40  62  86 121 158 194 254 295 358
#
# _framework density 27.066866999999998
#
# number of rings (size 3 to 8) (size 9 to 14) (size 15 to 20)
#    0.857    1.429    0.000    2.143    4.000    4.000 
#    0.000    0.000    0.000    5.143    0.000    0.000 
#    0.000    0.000    0.000    0.000    0.000    0.000 
#
# Total GULP energy -78087.391350 kJ/mol
# GULP energy per Si atom -5577.670811 kJ/mol
# Density = 2.700526 g / cm^3
# Si number density = 27.066867 Si / 1000 Ang^3
#
#
#
# Elastic Constant Matrix: (Units=GPa)
#
#
# Indices 1 2 3 4 5 6 
#
# 1 211.0591 30.7803 62.2543 17.6452 8.5332 6.9176
# 2 30.7803 75.5918 13.7003 6.7344 0.7478 19.4906
# 3 62.2543 13.7003 121.1130 13.4566 19.8974 11.9932
# 4 17.6452 6.7344 13.4566 36.7566 2.9648 3.4718
# 5 8.5332 0.7478 19.8974 2.9648 46.8123 4.3832
# 6 6.9176 19.4906 11.9932 3.4718 4.3832 36.2248
#
#
#
# Elastic Compliance Matrix: (Units=1/GPa)
#
#
# Indices 1 2 3 4 5 6 
#
# 1 0.005947 -0.002042 -0.002773 -0.001572 0.000132 0.001016
# 2 -0.002042 0.016328 0.000019 -0.001304 0.000972 -0.008394
# 3 -0.002773 0.000019 0.010759 -0.002085 -0.003711 -0.002394
# 4 -0.001572 -0.001304 -0.002085 0.029105 -0.000553 -0.001030
# 5 0.000132 0.000972 -0.003711 -0.000553 0.023128 -0.002065
# 6 0.001016 -0.008394 -0.002394 -0.001030 -0.002065 0.033069
#
#
# Mechanical properties :
#
#
# Convention : Reuss Voigt Hill
#
# Bulk Modulus (GPa) = 42.66106 69.02598 55.84352
# Shear Modulus (GPa) = 36.83483 44.02735 40.43109
#
# Velocity S-wave (km/s) = 3.69302 4.03751 3.86910
# Velocity P-wave (km/s) = 5.82924 6.87697 6.37467
#
# Compressibility (1/GPa) = 0.02344058
#
# Stress axis : x y z
#
# Youngs Moduli (GPa) = 168.16310 61.24496 92.94889
#
# Poissons Ratio (x) = 0.12506 0.25777
# Poissons Ratio (y) = 0.34339 -0.00177
# Poissons Ratio (z) = 0.46637 -0.00117
#
# Static dielectric constant tensor:
#      x y z
#    x 1.969090 0.182460 -0.069800 
#    y 0.182460 1.995760 0.103430 
#    z -0.069800 0.103430 2.059580 
# 
# From -- ./inp_files/481698.got.cif
#   From: 2010.05.17/outbox.cif.g08.bks.cpg/sg2_241_cif.got.tgz:481698.got - 2010.06.03 11:33:40.
