data_PCOD9084173
_publ_section_title
;
Structure prediction by ZEFSAII (Michael W. Deem and Ramdas Pophale) SiO2 
 PCOD9084173
Probable space group: P -1
;
_chemical_formula_sum "Si O2"
_cell_formula_units_Z 16
_cell_length_a 9.972098
_cell_length_b 18.258655
_cell_length_c 5.397465
_cell_angle_alpha 78.071107
_cell_angle_beta 44.546095
_cell_angle_gamma 73.361184
_cell_volume 660.515165
_symmetry_space_group_name_H-M "P -1"
_symmetry_group_IT_number 2
_symmetry_cell_setting 'triclinic'
loop_
_space_group_symop_operation_xyz
x,y,z
-x,-y,-z
loop_
_atom_site_type_symbol
_atom_site_label
_atom_site_fract_x
_atom_site_fract_y
_atom_site_fract_z
Si Si1 0.412847 0.692500 0.353483
Si Si2 0.479460 0.191448 0.478226
Si Si3 0.373786 0.559439 0.813632
Si Si4 0.585186 0.053629 0.159791
Si Si5 0.706740 0.578282 0.748629
Si Si6 0.944577 0.241826 0.521379
Si Si7 0.892482 0.699511 0.239239
Si Si8 0.757334 0.905902 0.813939
O O1 0.438931 0.760407 0.453280
O O2 0.302942 0.634328 0.689581
O O3 0.281378 0.729921 0.271445
O O4 0.616914 0.637736 0.043870
O O5 0.634495 0.127280 0.177024
O O6 0.330051 0.251451 0.471239
O O7 0.340999 0.139379 0.819403
O O8 0.500000 0.500000 0.500000
O O9 0.521662 0.579662 0.810476
O O10 0.239766 0.508402 0.161416
O O11 0.402157 0.085703 0.200418
O O12 0.500000 0.000000 0.500000
O O13 0.752068 0.993280 0.841113
O O14 0.867652 0.612729 0.367589
O O15 0.994027 0.274543 0.695887
O O16 0.039908 0.151587 0.464079
O O17 0.044748 0.277932 0.131668
#
# Coordination Sequence:
#
# PCOD9084173 Si02
#       8
#     2   2   2   2   2   2   2   2
#     4  11  23  38  61  94 128 162 205 263 318 367
#     4  10  19  34  61  88 114 163 218 251 289 375
#     4   9  20  37  63  90 119 155 215 256 306 359
#     4   9  17  32  59  86 115 154 217 252 292 359
#     4  10  20  39  66  86 117 167 217 254 296 378
#     4  11  25  39  60  96 136 161 200 267 329 358
#     4  11  22  40  63  91 123 168 216 257 303 375
#     4   9  18  35  56  87 119 162 205 255 303 367
#
# _framework density 24.223517000000001
#
# number of rings (size 3 to 8) (size 9 to 14) (size 15 to 20)
#    0.000    2.000    2.500    1.500    3.500    0.000 
#    0.000    1.875    0.000    6.750    0.000    0.000 
#    0.000    0.000    0.000    0.000    0.000    0.000 
#
# Total GULP energy -89375.192320 kJ/mol
# GULP energy per Si atom -5585.949520 kJ/mol
# Density = 2.416838 g / cm^3
# Si number density = 24.223517 Si / 1000 Ang^3
#
#
#
# Elastic Constant Matrix: (Units=GPa)
#
#
# Indices 1 2 3 4 5 6 
#
# 1 97.9262 36.1714 -1.1492 14.4462 9.1716 -5.4840
# 2 36.1714 110.0473 10.6796 12.2524 2.0886 6.6816
# 3 -1.1492 10.6796 67.4949 1.5555 1.0683 1.5639
# 4 14.4462 12.2524 1.5555 33.2791 -2.6491 15.1288
# 5 9.1716 2.0886 1.0683 -2.6491 29.5517 3.2590
# 6 -5.4840 6.6816 1.5639 15.1288 3.2590 49.6760
#
#
#
# Elastic Compliance Matrix: (Units=1/GPa)
#
#
# Indices 1 2 3 4 5 6 
#
# 1 0.013384 -0.003907 0.000981 -0.006803 -0.005005 0.004372
# 2 -0.003907 0.010781 -0.001713 -0.001514 0.000531 -0.001401
# 3 0.000981 -0.001713 0.015128 -0.000611 -0.000796 0.000101
# 4 -0.006803 -0.001514 -0.000611 0.040192 0.007304 -0.013248
# 5 -0.005005 0.000531 -0.000796 0.007304 0.036615 -0.005226
# 6 0.004372 -0.001401 0.000101 -0.013248 -0.005226 0.025176
#
#
# Mechanical properties :
#
#
# Convention : Reuss Voigt Hill
#
# Bulk Modulus (GPa) = 33.31880 40.76356 37.04118
# Shear Modulus (GPa) = 31.14105 37.81914 34.48009
#
# Velocity S-wave (km/s) = 3.58938 3.95556 3.77691
# Velocity P-wave (km/s) = 5.56442 6.14220 5.86043
#
# Compressibility (1/GPa) = 0.03001309
#
# Stress axis : x y z
#
# Youngs Moduli (GPa) = 74.71721 92.75490 66.10212
#
# Poissons Ratio (x) = 0.36242 -0.06483
# Poissons Ratio (y) = 0.29194 0.11326
# Poissons Ratio (z) = -0.07328 0.15893
#
# Static dielectric constant tensor:
#      x y z
#    x 1.951260 -0.081590 0.036380 
#    y -0.081590 2.079860 -0.044220 
#    z 0.036380 -0.044220 2.064320 
# 
# From -- ./inp_files/44049.got.cif
#   From: 2010.05.17/outbox.cif.g08.bks.cpg/sg2_23_cif.got.tgz:44049.got - 2010.06.03 11:33:40.
