data_PCOD9084930
_publ_section_title
;
Structure prediction by ZEFSAII (Michael W. Deem and Ramdas Pophale) SiO2 
 PCOD9084930
Probable space group: P -1
;
_chemical_formula_sum "Si O2"
_cell_formula_units_Z 14
_cell_length_a 14.174499
_cell_length_b 11.247412
_cell_length_c 14.577032
_cell_angle_alpha 76.733509
_cell_angle_beta 129.223280
_cell_angle_gamma 145.531063
_cell_volume 760.393398
_symmetry_space_group_name_H-M "P -1"
_symmetry_group_IT_number 2
_symmetry_cell_setting 'triclinic'
loop_
_space_group_symop_operation_xyz
x,y,z
-x,-y,-z
loop_
_atom_site_type_symbol
_atom_site_label
_atom_site_fract_x
_atom_site_fract_y
_atom_site_fract_z
Si Si1 0.052155 0.535774 0.160585
Si Si2 0.149825 0.808537 0.742813
Si Si3 0.538454 0.011596 0.807569
Si Si4 0.703199 0.440672 0.031854
Si Si5 0.681919 0.454792 0.225599
Si Si6 0.855258 0.738528 0.452796
Si Si7 0.688097 0.692299 0.892125
O O1 0.029626 0.440553 0.257566
O O2 0.932503 0.563185 0.101938
O O3 0.351667 0.820160 0.245437
O O4 0.822398 0.266468 0.999032
O O5 0.966025 0.749841 0.596960
O O6 0.302949 0.870844 0.745137
O O7 0.411107 0.101911 0.907895
O O8 0.424855 0.772908 0.764388
O O9 0.781761 0.532465 0.169539
O O10 0.659863 0.528402 0.937385
O O11 0.897670 0.708557 0.386015
O O12 0.422126 0.315502 0.095273
O O13 0.523211 0.465988 0.292837
O O14 0.000000 0.000000 0.500000
O O15 0.000000 0.000000 0.000000
#
# Coordination Sequence:
#
# PCOD9084930 Si02
#       7
#     2   2   2   2   2   2   2
#     4  10  20  33  62  92 125 154 202 247 300 358
#     4  11  19  39  62  85 129 158 196 248 303 365
#     4  10  19  35  57  96 119 160 201 246 297 360
#     4  11  18  37  63  87 116 161 209 242 294 364
#     4  10  20  36  61  88 117 158 208 241 299 362
#     4  10  23  40  60  87 120 164 196 249 318 353
#     4  10  22  37  61  87 116 156 206 255 291 358
#
# _framework density 18.411522000000001
#
# number of rings (size 3 to 8) (size 9 to 14) (size 15 to 20)
#    0.857    0.857    4.286    2.143    0.000    0.571 
#    0.000    2.143    0.000    2.571    0.000    0.000 
#    0.000    0.000    0.000    0.000    0.000    0.000 
#
# Total GULP energy -78017.944612 kJ/mol
# GULP energy per Si atom -5572.710329 kJ/mol
# Density = 1.836962 g / cm^3
# Si number density = 18.411522 Si / 1000 Ang^3
#
#
#
# Elastic Constant Matrix: (Units=GPa)
#
#
# Indices 1 2 3 4 5 6 
#
# 1 78.6603 54.5696 16.0371 -2.4145 -14.4534 -14.3300
# 2 54.5696 110.2090 22.7342 -19.5402 12.4823 -3.3659
# 3 16.0371 22.7342 55.8270 -7.7427 1.0305 -0.7053
# 4 -2.4145 -19.5402 -7.7427 25.7355 -7.3941 -0.4349
# 5 -14.4534 12.4823 1.0305 -7.3941 21.3958 -3.6640
# 6 -14.3300 -3.3659 -0.7053 -0.4349 -3.6640 34.6616
#
#
#
# Elastic Compliance Matrix: (Units=1/GPa)
#
#
# Indices 1 2 3 4 5 6 
#
# 1 0.044453 -0.026748 -0.002890 -0.002755 0.048383 0.020802
# 2 -0.026748 0.027560 -0.001956 0.008061 -0.033295 -0.011840
# 3 -0.002890 -0.001956 0.020109 0.004127 -0.000521 -0.000979
# 4 -0.002755 0.008061 0.004127 0.048976 0.010410 0.001443
# 5 0.048383 -0.033295 -0.000521 0.010410 0.107303 0.028233
# 6 0.020802 -0.011840 -0.000979 0.001443 0.028233 0.039283
#
#
# Mechanical properties :
#
#
# Convention : Reuss Voigt Hill
#
# Bulk Modulus (GPa) = 34.56132 47.93093 41.24612
# Shear Modulus (GPa) = 13.86897 26.44895 20.15896
#
# Velocity S-wave (km/s) = 2.74757 3.79429 3.31253
# Velocity P-wave (km/s) = 5.37381 6.72942 6.08946
#
# Compressibility (1/GPa) = 0.02893408
#
# Stress axis : x y z
#
# Youngs Moduli (GPa) = 22.49567 36.28463 49.72903
#
# Poissons Ratio (x) = 0.97053 0.14371
# Poissons Ratio (y) = 0.60171 0.09729
# Poissons Ratio (z) = 0.06501 0.07099
#
# Static dielectric constant tensor:
#      x y z
#    x 1.670810 0.004870 -0.038760 
#    y 0.004870 1.619590 -0.014680 
#    z -0.038760 -0.014680 1.666790 
# 
# From -- ./inp_files/195347.got.cif
#   From: 2010.05.17/outbox.cif.g08.bks.cpg/sg2_98_cif.got.tgz:195347.got - 2010.06.03 11:33:40.
