data_PCOD9084895
_publ_section_title
;
Structure prediction by ZEFSAII (Michael W. Deem and Ramdas Pophale) SiO2 
 PCOD9084895
Probable space group: P -1
;
_chemical_formula_sum "Si O2"
_cell_formula_units_Z 16
_cell_length_a 9.088340
_cell_length_b 11.106528
_cell_length_c 13.334615
_cell_angle_alpha 138.143876
_cell_angle_beta 114.326136
_cell_angle_gamma 81.560254
_cell_volume 789.530588
_symmetry_space_group_name_H-M "P -1"
_symmetry_group_IT_number 2
_symmetry_cell_setting 'triclinic'
loop_
_space_group_symop_operation_xyz
x,y,z
-x,-y,-z
loop_
_atom_site_type_symbol
_atom_site_label
_atom_site_fract_x
_atom_site_fract_y
_atom_site_fract_z
Si Si1 0.021407 0.727303 0.825293
Si Si2 0.034829 0.015266 0.843858
Si Si3 0.332066 0.571244 0.472233
Si Si4 0.368898 0.707504 0.340744
Si Si5 0.356736 0.821539 0.065017
Si Si6 0.480120 0.152254 0.168099
Si Si7 0.650413 0.700522 0.963083
Si Si8 0.706252 0.016983 0.645414
O O1 0.846477 0.577045 0.663052
O O2 0.985915 0.850086 0.985750
O O3 0.068524 0.842854 0.807222
O O4 0.189511 0.681012 0.885106
O O5 0.864828 0.961183 0.699967
O O6 0.178884 0.136160 0.888214
O O7 0.500000 0.500000 0.500000
O O8 0.343057 0.662455 0.422625
O O9 0.352582 0.733250 0.661277
O O10 0.335255 0.509468 0.151253
O O11 0.258851 0.838331 0.347082
O O12 0.558957 0.835856 0.463682
O O13 0.352054 0.864840 0.207676
O O14 0.367480 0.026112 0.143798
O O15 0.515028 0.752905 0.030133
O O16 0.407300 0.287873 0.162328
O O17 0.500000 0.000000 0.000000
#
# Coordination Sequence:
#
# PCOD9084895 Si02
#       8
#     2   2   2   2   2   2   2   2
#     4  10  20  33  58  92 118 150 197 242 294 347
#     4  10  19  35  57  88 120 152 194 246 290 344
#     4  12  20  35  62  89 113 150 195 246 291 343
#     4  11  22  38  60  87 113 153 207 242 287 342
#     4  10  21  39  59  85 123 158 186 239 302 349
#     4  10  20  35  57  85 117 149 184 230 301 351
#     4  11  21  37  60  88 118 152 195 239 295 358
#     4  10  23  39  60  82 116 158 202 246 283 341
#
# _framework density 20.265205999999999
#
# number of rings (size 3 to 8) (size 9 to 14) (size 15 to 20)
#    0.000    1.500    5.000    0.750    1.750    1.000 
#    0.000    5.000    0.000    1.500    0.000    0.000 
#    0.000    0.000    0.000    0.000    0.000    0.000 
#
# Total GULP energy -89213.970606 kJ/mol
# GULP energy per Si atom -5575.873163 kJ/mol
# Density = 2.021908 g / cm^3
# Si number density = 20.265206 Si / 1000 Ang^3
#
#
#
# Elastic Constant Matrix: (Units=GPa)
#
#
# Indices 1 2 3 4 5 6 
#
# 1 67.4075 -1.5429 10.7920 2.8916 13.1788 5.8586
# 2 -1.5429 70.5636 1.7292 3.8628 -0.7152 12.5048
# 3 10.7920 1.7292 74.7686 4.6130 21.2502 5.8479
# 4 2.8916 3.8628 4.6130 29.0292 3.9866 3.7655
# 5 13.1788 -0.7152 21.2502 3.9866 28.9778 -0.9005
# 6 5.8586 12.5048 5.8479 3.7655 -0.9005 13.8486
#
#
#
# Elastic Compliance Matrix: (Units=1/GPa)
#
#
# Indices 1 2 3 4 5 6 
#
# 1 0.017341 0.002052 0.000697 0.000404 -0.008718 -0.010160
# 2 0.002052 0.017183 0.001176 -0.000224 -0.001867 -0.016941
# 3 0.000697 0.001176 0.017918 0.000091 -0.013746 -0.009842
# 4 0.000404 -0.000224 0.000091 0.036529 -0.005602 -0.010304
# 5 -0.008718 -0.001867 -0.013746 -0.005602 0.049774 0.015938
# 6 -0.010160 -0.016941 -0.009842 -0.010304 0.015938 0.099799
#
#
# Mechanical properties :
#
#
# Convention : Reuss Voigt Hill
#
# Bulk Modulus (GPa) = 16.58598 26.07736 21.33167
# Shear Modulus (GPa) = 19.93695 27.82189 23.87942
#
# Velocity S-wave (km/s) = 3.13996 3.70927 3.43643
# Velocity P-wave (km/s) = 4.62040 5.58936 5.12782
#
# Compressibility (1/GPa) = 0.06029189
#
# Stress axis : x y z
#
# Youngs Moduli (GPa) = 57.66778 58.19642 55.81093
#
# Poissons Ratio (x) = -0.11942 -0.03891
# Poissons Ratio (y) = -0.11834 -0.06563
# Poissons Ratio (z) = -0.04021 -0.06843
#
# Static dielectric constant tensor:
#      x y z
#    x 1.780370 -0.018060 -0.006540 
#    y -0.018060 1.756890 0.032260 
#    z -0.006540 0.032260 1.751590 
# 
# From -- ./inp_files/328675.got.cif
#   From: 2010.05.17/outbox.cif.g08.bks.cpg/sg2_165_cif.got.tgz:328675.got - 2010.06.03 11:33:40.
