data_PCOD9084126
_publ_section_title
;
Structure prediction by ZEFSAII (Michael W. Deem and Ramdas Pophale) SiO2 
 PCOD9084126
Probable space group: P -1
;
_chemical_formula_sum "Si O2"
_cell_formula_units_Z 16
_cell_length_a 15.721072
_cell_length_b 6.500413
_cell_length_c 10.065672
_cell_angle_alpha 133.464935
_cell_angle_beta 54.350694
_cell_angle_gamma 104.663545
_cell_volume 587.320436
_symmetry_space_group_name_H-M "P -1"
_symmetry_group_IT_number 2
_symmetry_cell_setting 'triclinic'
loop_
_space_group_symop_operation_xyz
x,y,z
-x,-y,-z
loop_
_atom_site_type_symbol
_atom_site_label
_atom_site_fract_x
_atom_site_fract_y
_atom_site_fract_z
Si Si1 0.157227 0.795382 0.883144
Si Si2 0.770902 0.654539 0.130091
Si Si3 0.626856 0.230093 0.259354
Si Si4 0.861816 0.639851 0.528336
Si Si5 0.943458 0.839977 0.182891
Si Si6 0.620216 0.066111 0.902937
Si Si7 0.414749 0.104624 0.411635
Si Si8 0.895975 0.306863 0.626016
O O1 0.197606 0.563335 0.866335
O O2 0.257921 0.938412 0.862691
O O3 0.139760 0.599989 0.689382
O O4 0.040662 0.982997 0.118901
O O5 0.657849 0.860154 0.375713
O O6 0.859096 0.847510 0.146926
O O7 0.809250 0.436176 0.875803
O O8 0.541899 0.044905 0.292855
O O9 0.603358 0.561320 0.484798
O O10 0.619960 0.271070 0.123011
O O11 0.739351 0.847495 0.720413
O O12 0.866999 0.506952 0.611970
O O13 0.979675 0.720520 0.453376
O O14 0.888201 0.995505 0.433673
O O15 0.000000 0.500000 0.000000
O O16 0.616317 0.106723 0.764381
O O17 0.500000 0.000000 0.000000
#
# Coordination Sequence:
#
# PCOD9084126 Si02
#       8
#     2   2   2   2   2   2   2   2
#     4  10  19  36  62  89 120 158 214 270 304 376
#     4  10  20  38  57  91 127 165 211 261 317 386
#     4   9  17  31  56  92 114 156 201 276 318 339
#     4  11  22  42  60  95 133 167 215 258 330 389
#     4  10  22  39  60  93 124 162 216 260 315 381
#     4  10  19  34  60  91 120 156 213 269 307 360
#     4   9  18  33  56  88 125 150 212 270 311 365
#     4  11  25  40  62  90 138 176 199 261 333 397
#
# _framework density 27.242370000000001
#
# number of rings (size 3 to 8) (size 9 to 14) (size 15 to 20)
#    0.000    2.000    3.750    0.750    0.000    4.500 
#    2.250    0.000    0.000    3.750    0.000    0.000 
#    0.000    0.000    0.000    0.000    0.000    0.000 
#
# Total GULP energy -89327.618070 kJ/mol
# GULP energy per Si atom -5582.976129 kJ/mol
# Density = 2.718036 g / cm^3
# Si number density = 27.242370 Si / 1000 Ang^3
#
#
#
# Elastic Constant Matrix: (Units=GPa)
#
#
# Indices 1 2 3 4 5 6 
#
# 1 204.7873 21.4882 68.4051 -15.4322 0.5472 14.9815
# 2 21.4882 37.5928 27.9340 -2.5970 -3.7976 7.7774
# 3 68.4051 27.9340 215.6514 -27.5893 24.1903 18.3023
# 4 -15.4322 -2.5970 -27.5893 46.7187 11.4154 2.0622
# 5 0.5472 -3.7976 24.1903 11.4154 62.0244 -8.4739
# 6 14.9815 7.7774 18.3023 2.0622 -8.4739 38.5245
#
#
#
# Elastic Compliance Matrix: (Units=1/GPa)
#
#
# Indices 1 2 3 4 5 6 
#
# 1 0.005698 -0.001953 -0.001308 0.001064 -0.000028 -0.001263
# 2 -0.001953 0.031364 -0.003808 -0.001843 0.003362 -0.002925
# 3 -0.001308 -0.003808 0.006864 0.004567 -0.004169 -0.003145
# 4 0.001064 -0.001843 0.004567 0.026412 -0.007485 -0.005272
# 5 -0.000028 0.003362 -0.004169 -0.007485 0.020173 0.006151
# 6 -0.001263 -0.002925 -0.003145 -0.005272 0.006151 0.030169
#
#
# Mechanical properties :
#
#
# Convention : Reuss Voigt Hill
#
# Bulk Modulus (GPa) = 33.56993 77.07623 55.32308
# Shear Modulus (GPa) = 34.54318 52.13379 43.33849
#
# Velocity S-wave (km/s) = 3.56475 4.37933 3.99287
# Velocity P-wave (km/s) = 5.41228 7.34341 6.45052
#
# Compressibility (1/GPa) = 0.02978856
#
# Stress axis : x y z
#
# Youngs Moduli (GPa) = 175.51417 31.88349 145.68509
#
# Poissons Ratio (x) = 0.06227 0.19053
# Poissons Ratio (y) = 0.34277 0.55475
# Poissons Ratio (z) = 0.22955 0.12141
#
# Static dielectric constant tensor:
#      x y z
#    x 2.204210 0.057890 -0.106290 
#    y 0.057890 2.494620 -0.116550 
#    z -0.106290 -0.116550 2.165840 
# 
# From -- ./inp_files/450775.got.cif
#   From: 2010.05.17/outbox.cif.g08.bks.cpg/sg2_226_cif.got.tgz:450775.got - 2010.06.03 11:33:40.
