data_PCOD9084099
_publ_section_title
;
Structure prediction by ZEFSAII (Michael W. Deem and Ramdas Pophale) SiO2 
 PCOD9084099
Probable space group: P -1
;
_chemical_formula_sum "Si O2"
_cell_formula_units_Z 16
_cell_length_a 14.027464
_cell_length_b 9.158994
_cell_length_c 21.072766
_cell_angle_alpha 103.050497
_cell_angle_beta 160.373553
_cell_angle_gamma 87.120638
_cell_volume 768.982922
_symmetry_space_group_name_H-M "P -1"
_symmetry_group_IT_number 2
_symmetry_cell_setting 'triclinic'
loop_
_space_group_symop_operation_xyz
x,y,z
-x,-y,-z
loop_
_atom_site_type_symbol
_atom_site_label
_atom_site_fract_x
_atom_site_fract_y
_atom_site_fract_z
Si Si1 0.360952 0.658100 0.940631
Si Si2 0.197951 0.621056 0.364510
Si Si3 0.367418 0.991557 0.486460
Si Si4 0.150870 0.257379 0.400511
Si Si5 0.766186 0.565408 0.745032
Si Si6 0.362183 0.549861 0.665652
Si Si7 0.680301 0.530010 0.224559
Si Si8 0.991711 0.833509 0.011262
O O1 0.459258 0.627606 0.929571
O O2 0.016414 0.480681 0.720252
O O3 0.204883 0.781723 0.851722
O O4 0.593951 0.660839 0.143985
O O5 0.570699 0.661352 0.607359
O O6 0.073752 0.490511 0.214668
O O7 0.181832 0.790866 0.364619
O O8 0.160387 0.082241 0.383738
O O9 0.694025 0.089541 0.741283
O O10 0.500000 0.000000 0.500000
O O11 0.466778 0.390825 0.569278
O O12 0.231697 0.367967 0.527471
O O13 0.012224 0.699464 0.962147
O O14 0.450253 0.526863 0.791065
O O15 0.062968 0.590282 0.480071
O O16 0.665310 0.706117 0.834047
O O17 0.000000 0.000000 0.000000
#
# Coordination Sequence:
#
# PCOD9084099 Si02
#       8
#     2   2   2   2   2   2   2   2
#     4   9  19  34  62  89 114 160 207 250 300 353
#     4  10  19  34  60  88 123 158 199 250 300 369
#     4  12  24  36  55  94 132 163 194 248 315 368
#     4   9  19  36  55  86 127 156 200 247 299 368
#     4   9  18  36  56  83 122 161 202 238 298 379
#     4   9  20  37  62  92 121 154 208 258 296 357
#     4   9  18  36  62  93 110 156 218 255 291 348
#     4  11  23  38  59  92 128 164 193 245 317 372
#
# _framework density 20.806702999999999
#
# number of rings (size 3 to 8) (size 9 to 14) (size 15 to 20)
#    0.000    2.250    2.500    0.750    1.750    3.000 
#    0.000    0.000    0.000    7.500    6.500    0.000 
#    0.000    0.000    0.000    0.000    0.000    0.000 
#
# Total GULP energy -89115.991582 kJ/mol
# GULP energy per Si atom -5569.749474 kJ/mol
# Density = 2.075935 g / cm^3
# Si number density = 20.806703 Si / 1000 Ang^3
#
#
#
# Elastic Constant Matrix: (Units=GPa)
#
#
# Indices 1 2 3 4 5 6 
#
# 1 96.5294 43.0039 49.1816 3.7940 -24.6383 -1.6055
# 2 43.0039 136.0898 44.0873 -17.2263 -6.6283 -25.2440
# 3 49.1816 44.0873 83.5436 -30.0351 -15.9253 -7.9426
# 4 3.7940 -17.2263 -30.0351 34.4776 1.8914 0.7571
# 5 -24.6383 -6.6283 -15.9253 1.8914 33.7309 -5.8799
# 6 -1.6055 -25.2440 -7.9426 0.7571 -5.8799 23.2208
#
#
#
# Elastic Compliance Matrix: (Units=1/GPa)
#
#
# Indices 1 2 3 4 5 6 
#
# 1 0.025962 -0.005936 -0.019767 -0.023309 0.008279 -0.008563
# 2 -0.005936 0.012299 0.000972 0.007333 0.000423 0.013161
# 3 -0.019767 0.000972 0.037483 0.034845 0.003639 0.012296
# 4 -0.023309 0.007333 0.034845 0.065232 0.000026 0.016158
# 5 0.008279 0.000423 0.003639 0.000026 0.039640 0.012314
# 6 -0.008563 0.013161 0.012296 0.016158 0.012314 0.063577
#
#
# Mechanical properties :
#
#
# Convention : Reuss Voigt Hill
#
# Bulk Modulus (GPa) = 38.04743 65.41204 51.72973
# Shear Modulus (GPa) = 16.53358 30.27853 23.40606
#
# Velocity S-wave (km/s) = 2.82197 3.81889 3.35763
# Velocity P-wave (km/s) = 5.37995 7.13802 6.32041
#
# Compressibility (1/GPa) = 0.02628298
#
# Stress axis : x y z
#
# Youngs Moduli (GPa) = 38.51793 81.30830 26.67857
#
# Poissons Ratio (x) = 0.48263 0.52735
# Poissons Ratio (y) = 0.22863 -0.02593
# Poissons Ratio (z) = 0.76138 -0.07904
#
# Static dielectric constant tensor:
#      x y z
#    x 1.735440 0.002770 -0.090860 
#    y 0.002770 1.797690 -0.086470 
#    z -0.090860 -0.086470 1.691910 
# 
# From -- ./inp_files/597393.got.cif
#   From: 2010.05.17/outbox.cif.g08.bks.cpg/sg2_299_cif.got.tgz:597393.got - 2010.06.03 11:33:40.
