data_PCOD9084884
_publ_section_title
;
Structure prediction by ZEFSAII (Michael W. Deem and Ramdas Pophale) SiO2 
 PCOD9084884
Probable space group: P -1
;
_chemical_formula_sum "Si O2"
_cell_formula_units_Z 16
_cell_length_a 9.981404
_cell_length_b 10.774266
_cell_length_c 10.310204
_cell_angle_alpha 135.423416
_cell_angle_beta 119.436259
_cell_angle_gamma 50.056081
_cell_volume 595.433981
_symmetry_space_group_name_H-M "P -1"
_symmetry_group_IT_number 2
_symmetry_cell_setting 'triclinic'
loop_
_space_group_symop_operation_xyz
x,y,z
-x,-y,-z
loop_
_atom_site_type_symbol
_atom_site_label
_atom_site_fract_x
_atom_site_fract_y
_atom_site_fract_z
Si Si1 0.401643 0.724559 0.563704
Si Si2 0.448076 0.334945 0.926522
Si Si3 0.629473 0.086462 0.589361
Si Si4 0.778072 0.320440 0.102462
Si Si5 0.909607 0.884733 0.746348
Si Si6 0.274872 0.220491 0.194540
Si Si7 0.894419 0.366673 0.687113
Si Si8 0.769223 0.752105 0.081191
O O1 0.500000 0.500000 0.500000
O O2 0.403441 0.793717 0.468332
O O3 0.531649 0.802194 0.743864
O O4 0.200802 0.759791 0.497919
O O5 0.576388 0.249180 0.800168
O O6 0.274335 0.505663 0.900371
O O7 0.396655 0.184002 0.859187
O O8 0.591014 0.357524 0.099276
O O9 0.500000 0.000000 0.500000
O O10 0.825674 0.912324 0.584849
O O11 0.903504 0.299217 0.266375
O O12 0.897484 0.102313 0.930003
O O13 0.774258 0.868177 0.771340
O O14 0.138056 0.461798 0.306863
O O15 0.238169 0.145161 0.982878
O O16 0.081505 0.252990 0.760093
O O17 0.794866 0.531301 0.881851
#
# Coordination Sequence:
#
# PCOD9084884 Si02
#       8
#     2   2   2   2   2   2   2   2
#     4  10  20  35  61  88 115 164 216 245 296 385
#     4  10  21  37  60  91 127 154 209 265 306 364
#     4  11  23  40  64  85 122 168 207 250 319 371
#     4   9  21  32  57  89 122 157 193 263 310 359
#     4  10  19  35  57  87 124 158 203 247 312 375
#     4   9  17  31  56  82 117 158 203 246 296 373
#     4   8  18  30  57  87 117 160 205 246 299 370
#     4   9  18  32  57  87 116 155 202 257 305 348
#
# _framework density 26.871158000000001
#
# number of rings (size 3 to 8) (size 9 to 14) (size 15 to 20)
#    0.750    1.750    1.250    0.750    5.250    1.000 
#    0.000    3.125    5.500    0.750    0.000    0.000 
#    0.000    0.000    0.000    0.000    0.000    0.000 
#
# Total GULP energy -89072.162065 kJ/mol
# GULP energy per Si atom -5567.010129 kJ/mol
# Density = 2.681000 g / cm^3
# Si number density = 26.871158 Si / 1000 Ang^3
#
#
#
# Elastic Constant Matrix: (Units=GPa)
#
#
# Indices 1 2 3 4 5 6 
#
# 1 83.2196 50.2280 25.3877 -25.2545 18.4306 3.7449
# 2 50.2280 166.9269 51.4946 -35.0591 8.2122 16.1395
# 3 25.3877 51.4946 75.7495 -37.2436 15.2493 -14.9376
# 4 -25.2545 -35.0591 -37.2436 51.5058 -5.2997 9.9225
# 5 18.4306 8.2122 15.2493 -5.2997 43.5147 -18.9847
# 6 3.7449 16.1395 -14.9376 9.9225 -18.9847 41.9519
#
#
#
# Elastic Compliance Matrix: (Units=1/GPa)
#
#
# Indices 1 2 3 4 5 6 
#
# 1 0.018272 -0.002917 0.000009 0.007267 -0.009068 -0.006328
# 2 -0.002917 0.009779 -0.005568 0.002344 -0.001256 -0.006607
# 3 0.000009 -0.005568 0.025300 0.012895 -0.003383 0.006569
# 4 0.007267 0.002344 0.012895 0.034778 -0.007557 -0.008604
# 5 -0.009068 -0.001256 -0.003383 -0.007557 0.035065 0.017743
# 6 -0.006328 -0.006607 0.006569 -0.008604 0.017743 0.039347
#
#
# Mechanical properties :
#
#
# Convention : Reuss Voigt Hill
#
# Bulk Modulus (GPa) = 27.47254 64.45741 45.96497
# Shear Modulus (GPa) = 26.09276 40.64686 33.36981
#
# Velocity S-wave (km/s) = 3.11952 3.89351 3.52781
# Velocity P-wave (km/s) = 4.81884 6.65223 5.80833
#
# Compressibility (1/GPa) = 0.03639999
#
# Stress axis : x y z
#
# Youngs Moduli (GPa) = 54.72786 102.26384 39.52602
#
# Poissons Ratio (x) = 0.29829 -0.00036
# Poissons Ratio (y) = 0.15963 0.22007
# Poissons Ratio (z) = -0.00050 0.56937
#
# Static dielectric constant tensor:
#      x y z
#    x 2.120450 -0.123930 -0.014160 
#    y -0.123930 2.198660 0.043340 
#    z -0.014160 0.043340 2.613050 
# 
# From -- ./inp_files/424324.got.cif
#   From: 2010.05.17/outbox.cif.g08.bks.cpg/sg2_213_cif.got.tgz:424324.got - 2010.06.03 11:33:40.
