data_PCOD9084888
_publ_section_title
;
Structure prediction by ZEFSAII (Michael W. Deem and Ramdas Pophale) SiO2 
 PCOD9084888
Probable space group: P -1
;
_chemical_formula_sum "Si O2"
_cell_formula_units_Z 16
_cell_length_a 8.642677
_cell_length_b 9.482051
_cell_length_c 13.610091
_cell_angle_alpha 135.540909
_cell_angle_beta 103.178260
_cell_angle_gamma 85.707737
_cell_volume 754.277804
_symmetry_space_group_name_H-M "P -1"
_symmetry_group_IT_number 2
_symmetry_cell_setting 'triclinic'
loop_
_space_group_symop_operation_xyz
x,y,z
-x,-y,-z
loop_
_atom_site_type_symbol
_atom_site_label
_atom_site_fract_x
_atom_site_fract_y
_atom_site_fract_z
Si Si1 0.026245 0.848383 0.153608
Si Si2 0.193333 0.553028 0.544286
Si Si3 0.964976 0.203781 0.648405
Si Si4 0.661648 0.734695 0.815802
Si Si5 0.228511 0.911621 0.871202
Si Si6 0.655606 0.857614 0.657776
Si Si7 0.021884 0.649304 0.857887
Si Si8 0.350762 0.708549 0.437507
O O1 0.977843 0.799275 0.233070
O O2 0.207811 0.955068 0.236129
O O3 0.014621 0.668027 0.983546
O O4 0.913203 0.001609 0.166658
O O5 0.264295 0.722009 0.717370
O O6 0.266286 0.343282 0.461170
O O7 0.251236 0.643055 0.490977
O O8 0.000000 0.500000 0.500000
O O9 0.774457 0.212962 0.615632
O O10 0.039840 0.418524 0.718839
O O11 0.000000 0.000000 0.500000
O O12 0.610847 0.819613 0.746929
O O13 0.592036 0.499066 0.699067
O O14 0.853498 0.713646 0.827435
O O15 0.649515 0.892262 0.981029
O O16 0.157365 0.810644 0.911747
O O17 0.500830 0.863048 0.570892
#
# Coordination Sequence:
#
# PCOD9084888 Si02
#       8
#     2   2   2   2   2   2   2   2
#     4  11  20  35  60  85 113 154 192 231 289 343
#     4  11  19  32  58  90 116 147 186 240 285 327
#     4  11  24  38  58  84 115 146 198 248 283 328
#     4   9  16  33  56  84 113 148 184 232 277 340
#     4  11  18  32  61  92 111 140 196 244 278 328
#     4  11  20  36  57  83 122 154 188 228 289 351
#     4  10  19  35  57  88 113 143 191 243 284 334
#     4  10  23  39  54  82 124 157 186 232 291 346
#
# _framework density 21.212344999999999
#
# number of rings (size 3 to 8) (size 9 to 14) (size 15 to 20)
#    0.000    1.500    3.750    4.875    1.750    0.500 
#    0.000    2.500    0.000    0.750    0.000    0.000 
#    0.000    0.000    0.000    0.000    0.000    0.000 
#
# Total GULP energy -89343.751142 kJ/mol
# GULP energy per Si atom -5583.984446 kJ/mol
# Density = 2.116406 g / cm^3
# Si number density = 21.212345 Si / 1000 Ang^3
#
#
#
# Elastic Constant Matrix: (Units=GPa)
#
#
# Indices 1 2 3 4 5 6 
#
# 1 47.4684 1.4081 3.1771 3.1861 7.6602 -4.1639
# 2 1.4081 60.2909 13.5048 -2.2932 -5.3531 -11.1541
# 3 3.1771 13.5048 130.8333 2.8309 -1.0487 -8.9472
# 4 3.1861 -2.2932 2.8309 35.2142 -1.2673 -0.0083
# 5 7.6602 -5.3531 -1.0487 -1.2673 30.0898 -1.4662
# 6 -4.1639 -11.1541 -8.9472 -0.0083 -1.4662 14.1553
#
#
#
# Elastic Compliance Matrix: (Units=1/GPa)
#
#
# Indices 1 2 3 4 5 6 
#
# 1 0.022652 0.000038 -0.000138 -0.002235 -0.005565 0.006028
# 2 0.000038 0.020166 -0.001006 0.001552 0.004374 0.015720
# 3 -0.000138 -0.001006 0.008062 -0.000689 0.000317 0.004295
# 4 -0.002235 0.001552 -0.000689 0.028830 0.002053 0.000360
# 5 -0.005565 0.004374 0.000317 0.002053 0.035805 0.005720
# 6 0.006028 0.015720 0.004295 0.000360 0.005720 0.088112
#
#
# Mechanical properties :
#
#
# Convention : Reuss Voigt Hill
#
# Bulk Modulus (GPa) = 20.54754 30.53029 25.53891
# Shear Modulus (GPa) = 22.51627 30.59204 26.55415
#
# Velocity S-wave (km/s) = 3.26156 3.80173 3.54195
# Velocity P-wave (km/s) = 4.88787 5.80472 5.36591
#
# Compressibility (1/GPa) = 0.04866763
#
# Stress axis : x y z
#
# Youngs Moduli (GPa) = 44.14702 49.58748 124.04404
#
# Poissons Ratio (x) = -0.00189 0.01712
# Poissons Ratio (y) = -0.00168 0.12479
# Poissons Ratio (z) = 0.00609 0.04989
#
# Static dielectric constant tensor:
#      x y z
#    x 1.803140 0.006860 -0.004630 
#    y 0.006860 1.753020 0.000340 
#    z -0.004630 0.000340 1.811220 
# 
# From -- ./inp_files/383604.got.cif
#   From: 2010.05.17/outbox.cif.g08.bks.cpg/sg2_192_cif.got.tgz:383604.got - 2010.06.03 11:33:40.
