data_PCOD9084559
_publ_section_title
;
Structure prediction by ZEFSAII (Michael W. Deem and Ramdas Pophale) SiO2 
 PCOD9084559
Probable space group: P -1
;
_chemical_formula_sum "Si O2"
_cell_formula_units_Z 16
_cell_length_a 8.710934
_cell_length_b 10.222668
_cell_length_c 16.330918
_cell_angle_alpha 116.683573
_cell_angle_beta 130.401956
_cell_angle_gamma 98.316562
_cell_volume 760.017945
_symmetry_space_group_name_H-M "P -1"
_symmetry_group_IT_number 2
_symmetry_cell_setting 'triclinic'
loop_
_space_group_symop_operation_xyz
x,y,z
-x,-y,-z
loop_
_atom_site_type_symbol
_atom_site_label
_atom_site_fract_x
_atom_site_fract_y
_atom_site_fract_z
Si Si1 0.453428 0.369446 0.026339
Si Si2 0.829458 0.242607 0.447991
Si Si3 0.057697 0.616287 0.304287
Si Si4 0.728437 0.609616 0.676058
Si Si5 0.115423 0.465660 0.955141
Si Si6 0.515121 0.881273 0.131284
Si Si7 0.173751 0.001537 0.989370
Si Si8 0.407514 0.605882 0.698755
O O1 0.754050 0.491266 0.189859
O O2 0.247248 0.375210 0.003844
O O3 0.415506 0.227283 0.125364
O O4 0.500000 0.500000 0.000000
O O5 0.672694 0.306625 0.371346
O O6 0.791993 0.224962 0.528176
O O7 0.133963 0.410402 0.577694
O O8 0.722118 0.050450 0.311081
O O9 0.136374 0.484601 0.304285
O O10 0.068235 0.655152 0.221687
O O11 0.500000 0.500000 0.500000
O O12 0.590379 0.576514 0.706230
O O13 0.950037 0.837948 0.804776
O O14 0.328689 0.680584 0.056161
O O15 0.000000 0.500000 0.000000
O O16 0.329314 0.925300 0.046727
O O17 0.641768 0.835138 0.093082
O O18 0.000000 0.000000 0.000000
#
# Coordination Sequence:
#
# PCOD9084559 Si02
#       8
#     2   2   2   2   2   2   2   2
#     4   8  17  36  58  81 108 150 197 248 297 351
#     4  10  19  35  54  84 120 159 194 239 286 352
#     4  10  19  35  57  83 118 155 190 243 310 339
#     4  11  18  32  54  84 123 159 197 238 285 339
#     4  10  21  40  64  87 110 148 208 258 303 361
#     4   9  17  36  60  82 120 160 193 238 304 353
#     4   9  17  32  55  83 121 159 197 231 286 356
#     4   9  20  33  52  80 121 163 202 228 274 349
#
# _framework density 21.052135
#
# number of rings (size 3 to 8) (size 9 to 14) (size 15 to 20)
#    0.000    2.750    3.750    0.000    0.000    1.000 
#    0.000   10.625    0.000    0.000    0.000    0.000 
#    0.000    0.000    0.000    0.000    0.000    0.000 
#
# Total GULP energy -89095.798289 kJ/mol
# GULP energy per Si atom -5568.487393 kJ/mol
# Density = 2.100422 g / cm^3
# Si number density = 21.052135 Si / 1000 Ang^3
#
#
#
# Elastic Constant Matrix: (Units=GPa)
#
#
# Indices 1 2 3 4 5 6 
#
# 1 113.6829 16.7650 39.3823 -14.9850 -13.9232 -31.5870
# 2 16.7650 45.9442 31.6035 -3.7521 -0.5732 -18.8641
# 3 39.3823 31.6035 157.1268 10.4217 -19.6228 -14.0628
# 4 -14.9850 -3.7521 10.4217 28.6617 -7.7648 1.9894
# 5 -13.9232 -0.5732 -19.6228 -7.7648 38.8742 1.9173
# 6 -31.5870 -18.8641 -14.0628 1.9894 1.9173 38.4345
#
#
#
# Elastic Compliance Matrix: (Units=1/GPa)
#
#
# Indices 1 2 3 4 5 6 
#
# 1 0.014523 0.002268 -0.003105 0.009608 0.005036 0.011164
# 2 0.002268 0.031849 -0.006216 0.006210 -0.001354 0.014968
# 3 -0.003105 -0.006216 0.008811 -0.004838 0.002388 -0.002248
# 4 0.009608 0.006210 -0.004838 0.044670 0.009699 0.006378
# 5 0.005036 -0.001354 0.002388 0.009699 0.030536 0.002323
# 6 0.011164 0.014968 -0.002248 0.006378 0.002323 0.041271
#
#
# Mechanical properties :
#
#
# Convention : Reuss Voigt Hill
#
# Bulk Modulus (GPa) = 24.34466 54.69505 39.51985
# Shear Modulus (GPa) = 25.06785 36.46096 30.76440
#
# Velocity S-wave (km/s) = 3.45447 4.16617 3.82690
# Velocity P-wave (km/s) = 5.24407 7.01283 6.19193
#
# Compressibility (1/GPa) = 0.04107677
#
# Stress axis : x y z
#
# Youngs Moduli (GPa) = 68.85665 31.39778 113.49763
#
# Poissons Ratio (x) = -0.07121 0.35246
# Poissons Ratio (y) = -0.15617 0.70547
# Poissons Ratio (z) = 0.21383 0.19516
#
# Static dielectric constant tensor:
#      x y z
#    x 1.872000 0.078290 -0.060740 
#    y 0.078290 1.830870 -0.075750 
#    z -0.060740 -0.075750 1.835730 
# 
# From -- ./inp_files/498150.got.cif
#   From: 2010.05.17/outbox.cif.g08.bks.cpg/sg2_250_cif.got.tgz:498150.got - 2010.06.03 11:33:40.
