data_PCOD9084693
_publ_section_title
;
Structure prediction by ZEFSAII (Michael W. Deem and Ramdas Pophale) SiO2 
 PCOD9084693
Probable space group: P -1
;
_chemical_formula_sum "Si O2"
_cell_formula_units_Z 16
_cell_length_a 12.578184
_cell_length_b 6.370989
_cell_length_c 13.606366
_cell_angle_alpha 71.686488
_cell_angle_beta 126.869881
_cell_angle_gamma 101.711767
_cell_volume 827.952289
_symmetry_space_group_name_H-M "P -1"
_symmetry_group_IT_number 2
_symmetry_cell_setting 'triclinic'
loop_
_space_group_symop_operation_xyz
x,y,z
-x,-y,-z
loop_
_atom_site_type_symbol
_atom_site_label
_atom_site_fract_x
_atom_site_fract_y
_atom_site_fract_z
Si Si1 0.667701 0.127180 0.463711
Si Si2 0.947404 0.586569 0.103963
Si Si3 0.568006 0.707623 0.557896
Si Si4 0.602891 0.825839 0.037585
Si Si5 0.182524 0.859256 0.823768
Si Si6 0.382680 0.659950 0.804504
Si Si7 0.053955 0.891456 0.290432
Si Si8 0.169768 0.309679 0.173513
O O1 0.559246 0.192632 0.473864
O O2 0.636546 0.245834 0.327742
O O3 0.816263 0.191200 0.569998
O O4 0.643369 0.861223 0.495254
O O5 0.866546 0.363903 0.118665
O O6 0.985488 0.715584 0.205129
O O7 0.083906 0.513257 0.137428
O O8 0.859024 0.708233 0.955689
O O9 0.500000 0.500000 0.500000
O O10 0.679786 0.663630 0.709201
O O11 0.629293 0.606377 0.149825
O O12 0.733592 0.978546 0.081374
O O13 0.529542 0.729311 0.915292
O O14 0.500000 0.000000 0.000000
O O15 0.274987 0.780654 0.797121
O O16 0.051765 0.001467 0.709418
O O17 0.109050 0.090360 0.222853
#
# Coordination Sequence:
#
# PCOD9084693 Si02
#       8
#     2   2   2   2   2   2   2   2
#     4  10  23  38  57  83 111 151 193 228 280 339
#     4  10  19  35  56  82 114 147 186 236 282 329
#     4  10  21  38  57  82 115 147 186 236 282 333
#     4   9  20  38  58  83 112 142 184 234 282 333
#     4  10  21  35  56  84 113 147 187 232 281 330
#     4  10  21  39  59  82 114 148 186 233 280 338
#     4  10  20  37  55  80 117 150 187 232 275 332
#     4   9  20  34  56  84 109 147 191 229 283 337
#
# _framework density 19.324784999999999
#
# number of rings (size 3 to 8) (size 9 to 14) (size 15 to 20)
#    0.000    2.250    0.000    1.875    0.000    7.500 
#    0.000    5.000    0.000    0.000    0.000    0.000 
#    0.000    0.000    0.000    0.000    0.000    0.000 
#
# Total GULP energy -89140.992406 kJ/mol
# GULP energy per Si atom -5571.312025 kJ/mol
# Density = 1.928080 g / cm^3
# Si number density = 19.324785 Si / 1000 Ang^3
#
#
#
# Elastic Constant Matrix: (Units=GPa)
#
#
# Indices 1 2 3 4 5 6 
#
# 1 67.4671 24.4972 15.4450 -0.9238 17.6636 0.2128
# 2 24.4972 106.0804 55.5442 13.8748 8.0583 13.1310
# 3 15.4450 55.5442 104.2883 -15.6109 8.7293 14.9488
# 4 -0.9238 13.8748 -15.6109 19.9050 2.9473 10.2632
# 5 17.6636 8.0583 8.7293 2.9473 31.3743 5.0074
# 6 0.2128 13.1310 14.9488 10.2632 5.0074 23.3520
#
#
#
# Elastic Compliance Matrix: (Units=1/GPa)
#
#
# Indices 1 2 3 4 5 6 
#
# 1 0.019468 -0.006285 0.002748 0.009086 -0.010957 -0.000046
# 2 -0.006285 0.027505 -0.024883 -0.050974 0.004688 0.021918
# 3 0.002748 -0.024883 0.039297 0.070201 -0.006186 -0.040716
# 4 0.009086 -0.050974 0.070201 0.194224 -0.014047 -0.098709
# 5 -0.010957 0.004688 -0.006186 -0.014047 0.040036 -0.000987
# 6 -0.000046 0.021918 -0.040716 -0.098709 -0.000987 0.100158
#
#
# Mechanical properties :
#
#
# Convention : Reuss Voigt Hill
#
# Bulk Modulus (GPa) = 33.97806 52.08986 43.03396
# Shear Modulus (GPa) = 10.25981 27.08287 18.67134
#
# Velocity S-wave (km/s) = 2.30666 3.74767 3.11173
# Velocity P-wave (km/s) = 4.97142 6.76315 5.93528
#
# Compressibility (1/GPa) = 0.02943076
#
# Stress axis : x y z
#
# Youngs Moduli (GPa) = 51.36560 36.35713 25.44725
#
# Poissons Ratio (x) = 0.22851 -0.06993
# Poissons Ratio (y) = 0.32284 0.63320
# Poissons Ratio (z) = -0.14116 0.90466
#
# Static dielectric constant tensor:
#      x y z
#    x 1.705410 -0.018380 0.029100 
#    y -0.018380 1.788900 -0.036720 
#    z 0.029100 -0.036720 1.665270 
# 
# From -- ./inp_files/71251.got.cif
#   From: 2010.05.17/outbox.cif.g08.bks.cpg/sg2_36_cif.got.tgz:71251.got - 2010.06.03 11:33:40.
