data_PCOD9084613
_publ_section_title
;
Structure prediction by ZEFSAII (Michael W. Deem and Ramdas Pophale) SiO2 
 PCOD9084613
Probable space group: P -1
;
_chemical_formula_sum "Si O2"
_cell_formula_units_Z 16
_cell_length_a 14.829972
_cell_length_b 19.532574
_cell_length_c 5.548498
_cell_angle_alpha 88.235707
_cell_angle_beta 89.936524
_cell_angle_gamma 157.310092
_cell_volume 617.862623
_symmetry_space_group_name_H-M "P -1"
_symmetry_group_IT_number 2
_symmetry_cell_setting 'triclinic'
loop_
_space_group_symop_operation_xyz
x,y,z
-x,-y,-z
loop_
_atom_site_type_symbol
_atom_site_label
_atom_site_fract_x
_atom_site_fract_y
_atom_site_fract_z
Si Si1 0.394619 0.775154 0.846136
Si Si2 0.315808 0.227614 0.955370
Si Si3 0.436208 0.377140 0.447911
Si Si4 0.313205 0.006853 0.587485
Si Si5 0.176709 0.494549 0.090289
Si Si6 0.930978 0.692491 0.254087
Si Si7 0.876158 0.049252 0.025184
Si Si8 0.292136 0.851691 0.715285
O O1 0.440590 0.800878 0.552547
O O2 0.211834 0.595941 0.986039
O O3 0.347299 0.822372 0.872337
O O4 0.635145 0.910299 0.929476
O O5 0.296070 0.249758 0.691789
O O6 0.134629 0.038010 0.018118
O O7 0.330919 0.286469 0.189849
O O8 0.571659 0.367526 0.911751
O O9 0.500000 0.500000 0.500000
O O10 0.689908 0.519280 0.416801
O O11 0.169418 0.970296 0.689701
O O12 0.149796 0.857104 0.406187
O O13 0.315572 0.947248 0.786673
O O14 0.047781 0.359067 0.902025
O O15 0.984665 0.356070 0.319015
O O16 0.925426 0.759366 0.086832
O O17 0.500000 0.000000 0.500000
#
# Coordination Sequence:
#
# PCOD9084613 Si02
#       8
#     2   2   2   2   2   2   2   2
#     4   9  21  35  55  82 120 160 213 267 318 359
#     4  10  24  41  71  93 129 169 210 253 309 384
#     4  11  24  45  69 101 132 160 200 258 319 378
#     4  10  20  37  57  83 119 162 213 257 309 373
#     4  10  19  39  58  88 118 163 216 257 316 372
#     4  10  22  37  64  89 119 163 209 258 311 384
#     4  10  21  39  61  88 121 168 213 253 306 373
#     4  10  19  35  55  82 119 163 209 270 324 362
#
# _framework density 25.895721000000002
#
# number of rings (size 3 to 8) (size 9 to 14) (size 15 to 20)
#    0.000    2.000    1.250    1.500    8.750    0.500 
#    4.500    1.875    0.000    0.000    0.000    0.000 
#    0.000    0.000    0.000    0.000    0.000    0.000 
#
# Total GULP energy -89210.366445 kJ/mol
# GULP energy per Si atom -5575.647903 kJ/mol
# Density = 2.583678 g / cm^3
# Si number density = 25.895721 Si / 1000 Ang^3
#
#
#
# Elastic Constant Matrix: (Units=GPa)
#
#
# Indices 1 2 3 4 5 6 
#
# 1 93.3592 4.1015 21.6257 -4.2113 0.0688 -27.9757
# 2 4.1015 84.9308 59.8764 -30.0741 4.1240 -19.2838
# 3 21.6257 59.8764 116.8043 -36.4355 3.9821 -19.3672
# 4 -4.2113 -30.0741 -36.4355 50.9909 3.2710 0.7632
# 5 0.0688 4.1240 3.9821 3.2710 28.2125 -14.8873
# 6 -27.9757 -19.2838 -19.3672 0.7632 -14.8873 50.0779
#
#
#
# Elastic Compliance Matrix: (Units=1/GPa)
#
#
# Indices 1 2 3 4 5 6 
#
# 1 0.014085 0.003452 -0.002699 0.000820 0.004795 0.009567
# 2 0.003452 0.021509 -0.008389 0.006803 0.001025 0.007168
# 3 -0.002699 -0.008389 0.015359 0.005871 -0.001220 0.000749
# 4 0.000820 0.006803 0.005871 0.028014 -0.002937 0.004048
# 5 0.004795 0.001025 -0.001220 -0.002937 0.044113 0.015761
# 6 0.009567 0.007168 0.000749 0.004048 0.015761 0.032987
#
#
# Mechanical properties :
#
#
# Convention : Reuss Voigt Hill
#
# Bulk Modulus (GPa) = 28.02612 51.81129 39.91870
# Shear Modulus (GPa) = 27.28772 39.82230 33.55501
#
# Velocity S-wave (km/s) = 3.24968 3.92573 3.60359
# Velocity P-wave (km/s) = 4.99267 6.37178 5.72391
#
# Compressibility (1/GPa) = 0.03568100
#
# Stress axis : x y z
#
# Youngs Moduli (GPa) = 70.99663 46.49264 65.10954
#
# Poissons Ratio (x) = -0.16051 0.17572
# Poissons Ratio (y) = -0.24511 0.54623
# Poissons Ratio (z) = 0.19161 0.39004
#
# Static dielectric constant tensor:
#      x y z
#    x 2.220830 0.051540 -0.025060 
#    y 0.051540 2.018860 -0.013590 
#    z -0.025060 -0.013590 2.320700 
# 
# From -- ./inp_files/54625.got.cif
#   From: 2010.05.17/outbox.cif.g08.bks.cpg/sg2_28_cif.got.tgz:54625.got - 2010.06.03 11:33:40.
