data_PCOD9084064
_publ_section_title
;
Structure prediction by ZEFSAII (Michael W. Deem and Ramdas Pophale) SiO2 
 PCOD9084064
Probable space group: P -1
;
_chemical_formula_sum "Si O2"
_cell_formula_units_Z 16
_cell_length_a 30.732082
_cell_length_b 15.729746
_cell_length_c 9.137330
_cell_angle_alpha 132.528215
_cell_angle_beta 142.532771
_cell_angle_gamma 18.509843
_cell_volume 782.869947
_symmetry_space_group_name_H-M "P -1"
_symmetry_group_IT_number 2
_symmetry_cell_setting 'triclinic'
loop_
_space_group_symop_operation_xyz
x,y,z
-x,-y,-z
loop_
_atom_site_type_symbol
_atom_site_label
_atom_site_fract_x
_atom_site_fract_y
_atom_site_fract_z
Si Si1 0.809316 0.239908 0.334360
Si Si2 0.667988 0.335758 0.785979
Si Si3 0.115463 0.151048 0.386370
Si Si4 0.410885 0.206807 0.633032
Si Si5 0.282617 0.538077 0.160946
Si Si6 0.381180 0.099475 0.685930
Si Si7 0.742939 0.810615 0.248212
Si Si8 0.086746 0.017205 0.390651
O O1 0.702868 0.516163 0.407573
O O2 0.855922 0.086258 0.412253
O O3 0.698363 0.331652 0.025897
O O4 0.000000 0.000000 0.500000
O O5 0.500000 0.500000 0.500000
O O6 0.654186 0.473136 0.815089
O O7 0.842262 0.008371 0.807421
O O8 0.233367 0.088584 0.596053
O O9 0.154152 0.031099 0.504382
O O10 0.910841 0.497424 0.255368
O O11 0.303797 0.285558 0.558712
O O12 0.500000 0.000000 0.500000
O O13 0.567609 0.026794 0.945967
O O14 0.180338 0.770793 0.272128
O O15 0.461583 0.215174 0.326179
O O16 0.129678 0.676303 0.854768
O O17 0.257379 0.216048 0.608955
O O18 0.500000 0.000000 0.000000
#
# Coordination Sequence:
#
# PCOD9084064 Si02
#       8
#     2   2   2   2   2   2   2   2
#     4  12  25  38  62  96 130 159 212 263 308 377
#     4  11  22  40  64  90 129 164 211 254 325 371
#     4  10  22  40  64  88 121 171 206 263 308 378
#     4  11  24  39  62  93 129 164 201 260 321 368
#     4  10  19  36  59  90 115 161 209 256 305 382
#     4  10  19  34  60  84 118 156 209 252 301 366
#     4  10  22  40  62  88 122 161 222 250 308 377
#     4  10  21  36  60  88 124 157 207 258 317 365
#
# _framework density 20.437622999999999
#
# number of rings (size 3 to 8) (size 9 to 14) (size 15 to 20)
#    0.000    1.500    1.250    5.250    3.500    0.000 
#    0.000    8.125    0.000    3.000    0.000    0.000 
#    0.000    0.000    0.000    0.000    0.000    0.000 
#
# Total GULP energy -89328.256506 kJ/mol
# GULP energy per Si atom -5583.016032 kJ/mol
# Density = 2.039111 g / cm^3
# Si number density = 20.437623 Si / 1000 Ang^3
#
#
#
# Elastic Constant Matrix: (Units=GPa)
#
#
# Indices 1 2 3 4 5 6 
#
# 1 136.9004 6.7240 34.1404 12.1604 5.6547 13.1743
# 2 6.7240 98.0451 3.0261 10.2407 2.2530 1.1795
# 3 34.1404 3.0261 53.0519 4.3441 2.6105 0.5004
# 4 12.1604 10.2407 4.3441 19.3391 -0.7366 4.9866
# 5 5.6547 2.2530 2.6105 -0.7366 26.2744 1.0781
# 6 13.1743 1.1795 0.5004 4.9866 1.0781 32.5737
#
#
#
# Elastic Compliance Matrix: (Units=1/GPa)
#
#
# Indices 1 2 3 4 5 6 
#
# 1 0.009414 0.000008 -0.005637 -0.003920 -0.001450 -0.003073
# 2 0.000008 0.010838 -0.000090 -0.005907 -0.001110 0.000547
# 3 -0.005637 -0.000090 0.022695 -0.002144 -0.001188 0.002302
# 4 -0.003920 -0.005907 -0.002144 0.059838 0.003546 -0.007445
# 5 -0.001450 -0.001110 -0.001188 0.003546 0.038733 -0.001180
# 6 -0.003073 0.000547 0.002302 -0.007445 -0.001180 0.033066
#
#
# Mechanical properties :
#
#
# Convention : Reuss Voigt Hill
#
# Bulk Modulus (GPa) = 31.73856 41.75315 36.74585
# Shear Modulus (GPa) = 25.44211 31.91123 28.67667
#
# Velocity S-wave (km/s) = 3.53209 3.95574 3.74990
# Velocity P-wave (km/s) = 5.67428 6.42944 6.06363
#
# Compressibility (1/GPa) = 0.03150742
#
# Stress axis : x y z
#
# Youngs Moduli (GPa) = 106.22662 92.27208 44.06331
#
# Poissons Ratio (x) = -0.00075 0.24839
# Poissons Ratio (y) = -0.00087 0.00398
# Poissons Ratio (z) = 0.59882 0.00833
#
# Static dielectric constant tensor:
#      x y z
#    x 1.781440 -0.006290 0.017030 
#    y -0.006290 1.801880 -0.000070 
#    z 0.017030 -0.000070 1.684190 
# 
# From -- ./inp_files/358821.got.cif
#   From: 2010.05.17/outbox.cif.g08.bks.cpg/sg2_180_cif.got.tgz:358821.got - 2010.06.03 11:33:40.
