data_PCOD9084393
_publ_section_title
;
Structure prediction by ZEFSAII (Michael W. Deem and Ramdas Pophale) SiO2 
 PCOD9084393
Probable space group: P -1
;
_chemical_formula_sum "Si O2"
_cell_formula_units_Z 16
_cell_length_a 22.154969
_cell_length_b 9.936348
_cell_length_c 13.670645
_cell_angle_alpha 127.295837
_cell_angle_beta 20.429817
_cell_angle_gamma 127.356933
_cell_volume 827.406859
_symmetry_space_group_name_H-M "P -1"
_symmetry_group_IT_number 2
_symmetry_cell_setting 'triclinic'
loop_
_space_group_symop_operation_xyz
x,y,z
-x,-y,-z
loop_
_atom_site_type_symbol
_atom_site_label
_atom_site_fract_x
_atom_site_fract_y
_atom_site_fract_z
Si Si1 0.569917 0.181573 0.524258
Si Si2 0.887253 0.373025 0.544580
Si Si3 0.544930 0.510835 0.052655
Si Si4 0.697918 0.035703 0.681359
Si Si5 0.765371 0.059613 0.359776
Si Si6 0.182461 0.308601 0.589406
Si Si7 0.151951 0.578814 0.921398
Si Si8 0.116242 0.282271 0.982287
O O1 0.450887 0.315192 0.811713
O O2 0.667155 0.138388 0.456720
O O3 0.698076 0.285285 0.294736
O O4 0.500000 0.000000 0.500000
O O5 0.788149 0.205063 0.672382
O O6 0.000000 0.500000 0.500000
O O7 0.024761 0.309127 0.234386
O O8 0.732721 0.451013 0.757769
O O9 0.376822 0.387209 0.295800
O O10 0.500000 0.500000 0.000000
O O11 0.702877 0.070368 0.571845
O O12 0.803471 0.881400 0.480157
O O13 0.500000 0.000000 0.000000
O O14 0.958009 0.171262 0.112609
O O15 0.753899 0.856971 0.268177
O O16 0.134109 0.421851 0.802948
O O17 0.027426 0.337244 0.762297
O O18 0.184849 0.470054 0.919611
#
# Coordination Sequence:
#
# PCOD9084393 Si02
#       8
#     2   2   2   2   2   2   2   2
#     4  11  26  41  62  94 133 171 208 271 337 393
#     4  11  25  39  61  95 134 170 209 274 342 385
#     4  11  22  42  65  89 129 172 226 264 323 401
#     4  11  21  39  63  92 126 169 222 268 320 393
#     4  10  21  38  65  92 119 162 219 262 314 387
#     4  10  19  34  64  91 117 157 218 273 303 375
#     4  10  20  38  61  93 122 160 216 264 322 376
#     4  10  20  39  65  91 120 162 216 263 312 388
#
# _framework density 19.337524999999999
#
# number of rings (size 3 to 8) (size 9 to 14) (size 15 to 20)
#    0.000    1.500    2.500    4.500    5.250    0.000 
#    2.250    0.625    0.000    3.000    0.000    0.000 
#    0.000    0.000    0.000    0.000    0.000    0.000 
#
# Total GULP energy -89085.898965 kJ/mol
# GULP energy per Si atom -5567.868685 kJ/mol
# Density = 1.929351 g / cm^3
# Si number density = 19.337525 Si / 1000 Ang^3
#
#
#
# Elastic Constant Matrix: (Units=GPa)
#
#
# Indices 1 2 3 4 5 6 
#
# 1 31.6015 32.0926 12.4421 -0.9163 2.6336 4.9098
# 2 32.0926 143.8754 29.9045 -3.3976 -2.6349 6.4293
# 3 12.4421 29.9045 59.1252 -2.3892 6.0118 4.1926
# 4 -0.9163 -3.3976 -2.3892 26.8142 -8.8997 10.4883
# 5 2.6336 -2.6349 6.0118 -8.8997 20.0122 2.4360
# 6 4.9098 6.4293 4.1926 10.4883 2.4360 33.1056
#
#
#
# Elastic Compliance Matrix: (Units=1/GPa)
#
#
# Indices 1 2 3 4 5 6 
#
# 1 0.043049 -0.008743 -0.003843 -0.000301 -0.005344 -0.003711
# 2 -0.008743 0.009832 -0.003415 0.002834 0.004907 -0.001439
# 3 -0.003843 -0.003415 0.020100 -0.000541 -0.006139 -0.000689
# 4 -0.000301 0.002834 -0.000541 0.054262 0.027095 -0.019622
# 5 -0.005344 0.004907 -0.006139 0.027095 0.066781 -0.012881
# 6 -0.003711 -0.001439 -0.000689 -0.019622 -0.012881 0.038288
#
#
# Mechanical properties :
#
#
# Convention : Reuss Voigt Hill
#
# Bulk Modulus (GPa) = 24.40238 42.60896 33.50567
# Shear Modulus (GPa) = 17.98736 26.66392 22.32564
#
# Velocity S-wave (km/s) = 3.05319 3.71734 3.40152
# Velocity P-wave (km/s) = 5.00758 6.36451 5.72638
#
# Compressibility (1/GPa) = 0.04097960
#
# Stress axis : x y z
#
# Youngs Moduli (GPa) = 23.22933 101.71320 49.75016
#
# Poissons Ratio (x) = 0.88927 0.19117
# Poissons Ratio (y) = 0.20309 0.16990
# Poissons Ratio (z) = 0.08926 0.34736
#
# Static dielectric constant tensor:
#      x y z
#    x 1.731610 -0.004390 -0.028070 
#    y -0.004390 1.748440 0.005340 
#    z -0.028070 0.005340 1.700850 
# 
# From -- ./inp_files/391400.got.cif
#   From: 2010.05.17/outbox.cif.g08.bks.cpg/sg2_196_cif.got.tgz:391400.got - 2010.06.03 11:33:40.
