data_PCOD9084244
_publ_section_title
;
Structure prediction by ZEFSAII (Michael W. Deem and Ramdas Pophale) SiO2 
 PCOD9084244
Probable space group: P -1
;
_chemical_formula_sum "Si O2"
_cell_formula_units_Z 14
_cell_length_a 11.978266
_cell_length_b 11.668673
_cell_length_c 17.926176
_cell_angle_alpha 140.483656
_cell_angle_beta 151.378621
_cell_angle_gamma 30.043536
_cell_volume 600.192787
_symmetry_space_group_name_H-M "P -1"
_symmetry_group_IT_number 2
_symmetry_cell_setting 'triclinic'
loop_
_space_group_symop_operation_xyz
x,y,z
-x,-y,-z
loop_
_atom_site_type_symbol
_atom_site_label
_atom_site_fract_x
_atom_site_fract_y
_atom_site_fract_z
Si Si1 0.034937 0.153678 0.430368
Si Si2 0.859907 0.541519 0.280338
Si Si3 0.754944 0.718677 0.025424
Si Si4 0.874714 0.491037 0.725165
Si Si5 0.507566 0.800302 0.440098
Si Si6 0.295989 0.774903 0.593482
Si Si7 0.584306 0.464559 0.204089
O O1 0.212120 0.218917 0.615030
O O2 0.756167 0.215536 0.344614
O O3 0.900338 0.298640 0.348706
O O4 0.262412 0.896136 0.408365
O O5 0.910855 0.505023 0.203476
O O6 0.179662 0.369844 0.421391
O O7 0.646037 0.501981 0.175555
O O8 0.960425 0.685511 0.198591
O O9 0.583068 0.637219 0.925097
O O10 0.000000 0.500000 0.000000
O O11 0.500000 0.000000 0.000000
O O12 0.596132 0.724262 0.717136
O O13 0.725007 0.418588 0.545608
O O14 0.437431 0.695691 0.280715
O O15 0.500000 0.000000 0.500000
O O16 0.000000 0.000000 0.500000
#
# Coordination Sequence:
#
# PCOD9084244 Si02
#       7
#     2   2   2   2   2   2   2
#     4  10  19  34  61  99 134 172 220 287 345 415
#     4  10  20  38  62 102 137 172 229 291 357 420
#     4  12  31  52  72  99 143 196 248 295 349 436
#     4  10  24  44  65  99 137 182 236 298 353 422
#     4  11  18  34  65 104 142 174 223 291 354 419
#     4  10  21  38  68  98 133 179 227 291 356 405
#     4  11  23  39  66  98 137 185 232 281 357 417
#
# _framework density 23.325838000000001
#
# number of rings (size 3 to 8) (size 9 to 14) (size 15 to 20)
#    0.000    1.429    2.857    2.571    6.000    2.857 
#    0.000    0.000    0.000    2.571    0.000    0.000 
#    0.000    0.000    0.000    0.000    0.000    0.000 
#
# Total GULP energy -77992.497185 kJ/mol
# GULP energy per Si atom -5570.892656 kJ/mol
# Density = 2.327275 g / cm^3
# Si number density = 23.325838 Si / 1000 Ang^3
#
#
#
# Elastic Constant Matrix: (Units=GPa)
#
#
# Indices 1 2 3 4 5 6 
#
# 1 218.8298 65.8192 45.4077 1.7076 11.3754 -17.2210
# 2 65.8192 97.2192 17.4779 -1.4318 4.9322 -6.6724
# 3 45.4077 17.4779 47.5054 5.3457 5.0892 0.7665
# 4 1.7076 -1.4318 5.3457 27.3821 13.2841 4.7058
# 5 11.3754 4.9322 5.0892 13.2841 37.2835 -4.0836
# 6 -17.2210 -6.6724 0.7665 4.7058 -4.0836 41.9379
#
#
#
# Elastic Compliance Matrix: (Units=1/GPa)
#
#
# Indices 1 2 3 4 5 6 
#
# 1 0.006965 -0.003550 -0.005348 0.000440 -0.000835 0.002262
# 2 -0.003550 0.013056 -0.001493 0.001602 -0.000970 0.000373
# 3 -0.005348 -0.001493 0.027308 -0.004341 -0.000626 -0.002507
# 4 0.000440 0.001602 -0.004341 0.046844 -0.017146 -0.006411
# 5 -0.000835 -0.000970 -0.000626 -0.017146 0.033919 0.004741
# 6 0.002262 0.000373 -0.002507 -0.006411 0.004741 0.026060
#
#
# Mechanical properties :
#
#
# Convention : Reuss Voigt Hill
#
# Bulk Modulus (GPa) = 37.66880 68.99602 53.33241
# Shear Modulus (GPa) = 27.20604 36.97732 32.09168
#
# Velocity S-wave (km/s) = 3.41889 3.98584 3.71320
# Velocity P-wave (km/s) = 5.63641 7.12924 6.42632
#
# Compressibility (1/GPa) = 0.02654717
#
# Stress axis : x y z
#
# Youngs Moduli (GPa) = 143.56870 76.59190 36.61989
#
# Poissons Ratio (x) = 0.27190 0.19585
# Poissons Ratio (y) = 0.50967 0.05466
# Poissons Ratio (z) = 0.76784 0.11432
#
# Static dielectric constant tensor:
#      x y z
#    x 2.004870 -0.073610 0.028640 
#    y -0.073610 2.009530 -0.009980 
#    z 0.028640 -0.009980 1.942390 
# 
# From -- ./inp_files/410330.got.cif
#   From: 2010.05.17/outbox.cif.g08.bks.cpg/sg2_206_cif.got.tgz:410330.got - 2010.06.03 11:33:40.
