data_PCOD9084040
_publ_section_title
;
Structure prediction by ZEFSAII (Michael W. Deem and Ramdas Pophale) SiO2 
 PCOD9084040
Probable space group: P -1
;
_chemical_formula_sum "Si O2"
_cell_formula_units_Z 15
_cell_length_a 7.557080
_cell_length_b 21.129107
_cell_length_c 8.613962
_cell_angle_alpha 145.532056
_cell_angle_beta 60.944419
_cell_angle_gamma 128.862945
_cell_volume 604.548817
_symmetry_space_group_name_H-M "P -1"
_symmetry_group_IT_number 2
_symmetry_cell_setting 'triclinic'
loop_
_space_group_symop_operation_xyz
x,y,z
-x,-y,-z
loop_
_atom_site_type_symbol
_atom_site_label
_atom_site_fract_x
_atom_site_fract_y
_atom_site_fract_z
Si Si1 0.967111 0.330700 0.534256
Si Si2 0.747258 0.898675 0.709059
Si Si3 0.766161 0.166635 0.789180
Si Si4 0.669780 0.449439 0.029857
Si Si5 0.221476 0.424998 0.101249
Si Si6 0.000000 0.000000 0.500000
Si Si7 0.355117 0.704676 0.663012
Si Si8 0.183122 0.909372 0.702212
O O1 0.855355 0.294265 0.340188
O O2 0.969612 0.215341 0.386598
O O3 0.205217 0.455115 0.690865
O O4 0.793338 0.363812 0.775824
O O5 0.791669 0.925252 0.564126
O O6 0.568236 0.761542 0.568432
O O7 0.998993 0.936380 0.743259
O O8 0.678540 0.991191 0.023598
O O9 0.684652 0.113691 0.543623
O O10 0.867055 0.083938 0.666459
O O11 0.589503 0.200590 0.025858
O O12 0.976543 0.307596 0.969967
O O13 0.400624 0.385696 0.022393
O O14 0.730074 0.534394 0.018542
O O15 0.273252 0.557502 0.429450
#
# Coordination Sequence:
#
# PCOD9084040 Si02
#       8
#     2   2   2   2   2   1   2   2
#     4  10  19  34  59  95 126 162 209 271 317 378
#     4  10  23  44  65  96 122 179 213 266 322 382
#     4  11  23  41  64  98 130 174 214 267 313 384
#     4   9  19  34  62  95 121 167 217 257 328 372
#     4  10  20  39  67  94 126 173 215 263 318 391
#     4  10  24  40  66  94 130 160 220 266 318 384
#     4  11  24  39  68  95 133 167 218 263 327 378
#     4  10  21  40  67  86 133 169 215 266 317 381
#
# _framework density 24.811892
#
# number of rings (size 3 to 8) (size 9 to 14) (size 15 to 20)
#    0.000    1.867    1.333    2.000    9.333    2.667 
#    0.000    3.333    2.933    0.000    0.000    0.933 
#    0.000    0.000    0.000    0.000    0.000    0.000 
#
# Total GULP energy -83526.629358 kJ/mol
# GULP energy per Si atom -5568.441957 kJ/mol
# Density = 2.475542 g / cm^3
# Si number density = 24.811892 Si / 1000 Ang^3
#
#
#
# Elastic Constant Matrix: (Units=GPa)
#
#
# Indices 1 2 3 4 5 6 
#
# 1 42.4834 8.9022 15.7778 -7.2531 0.0386 1.4155
# 2 8.9022 87.6202 16.7364 8.8792 -14.6748 7.8159
# 3 15.7778 16.7364 105.8401 -1.6056 -14.6173 -8.2128
# 4 -7.2531 8.8792 -1.6056 27.5895 -2.2492 -3.0239
# 5 0.0386 -14.6748 -14.6173 -2.2492 14.2605 6.1140
# 6 1.4155 7.8159 -8.2128 -3.0239 6.1140 28.3876
#
#
#
# Elastic Compliance Matrix: (Units=1/GPa)
#
#
# Indices 1 2 3 4 5 6 
#
# 1 0.027311 -0.004181 -0.004320 0.007738 -0.008055 0.001098
# 2 -0.004181 0.016656 -0.000035 -0.005840 0.020208 -0.009362
# 3 -0.004320 -0.000035 0.011812 0.000646 0.011672 0.001197
# 4 0.007738 -0.005840 0.000646 0.040737 -0.001551 0.006082
# 5 -0.008055 0.020208 0.011672 -0.001551 0.114025 -0.026509
# 6 0.001098 -0.009362 0.001197 0.006082 -0.026509 0.044453
#
#
# Mechanical properties :
#
#
# Convention : Reuss Voigt Hill
#
# Bulk Modulus (GPa) = 25.83441 35.41962 30.62701
# Shear Modulus (GPa) = 17.54586 27.01600 22.28093
#
# Velocity S-wave (km/s) = 2.66212 3.30333 2.99991
# Velocity P-wave (km/s) = 4.45914 5.37173 4.93657
#
# Compressibility (1/GPa) = 0.03870807
#
# Stress axis : x y z
#
# Youngs Moduli (GPa) = 36.61558 60.03982 84.65660
#
# Poissons Ratio (x) = 0.25101 0.36571
# Poissons Ratio (y) = 0.15308 0.00294
# Poissons Ratio (z) = 0.15818 0.00208
#
# Static dielectric constant tensor:
#      x y z
#    x 1.995430 0.042120 -0.021860 
#    y 0.042120 1.970680 -0.030120 
#    z -0.021860 -0.030120 2.075010 
# 
# From -- ./inp_files/221306.got.cif
#   From: 2010.05.17/outbox.cif.g08.bks.cpg/sg2_111_cif.got.tgz:221306.got - 2010.06.03 11:33:40.
