data_PCOD9084521
_publ_section_title
;
Structure prediction by ZEFSAII (Michael W. Deem and Ramdas Pophale) SiO2 
 PCOD9084521
Probable space group: P -1
;
_chemical_formula_sum "Si O2"
_cell_formula_units_Z 16
_cell_length_a 20.561895
_cell_length_b 6.635048
_cell_length_c 9.143783
_cell_angle_alpha 55.019623
_cell_angle_beta 45.516505
_cell_angle_gamma 65.978230
_cell_volume 729.202854
_symmetry_space_group_name_H-M "P -1"
_symmetry_group_IT_number 2
_symmetry_cell_setting 'triclinic'
loop_
_space_group_symop_operation_xyz
x,y,z
-x,-y,-z
loop_
_atom_site_type_symbol
_atom_site_label
_atom_site_fract_x
_atom_site_fract_y
_atom_site_fract_z
Si Si1 0.620154 0.628866 0.759843
Si Si2 0.807170 0.821108 0.336021
Si Si3 0.104264 0.788040 0.277333
Si Si4 0.007820 0.359526 0.770682
Si Si5 0.258719 0.663334 0.880978
Si Si6 0.149552 0.336306 0.989399
Si Si7 0.516981 0.510490 0.717213
Si Si8 0.542818 0.159434 0.557916
O O1 0.724947 0.685363 0.603502
O O2 0.604187 0.472875 0.701753
O O3 0.569756 0.884663 0.680248
O O4 0.566777 0.509944 0.028162
O O5 0.910084 0.810296 0.234439
O O6 0.810826 0.702182 0.217982
O O7 0.776575 0.102530 0.254425
O O8 0.061111 0.604924 0.535997
O O9 0.041869 0.755794 0.243811
O O10 0.204136 0.697348 0.103945
O O11 0.110330 0.068175 0.201720
O O12 0.930686 0.458944 0.961040
O O13 0.224753 0.422094 0.951724
O O14 0.365529 0.703750 0.698190
O O15 0.510231 0.295180 0.699335
O O16 0.523799 0.759205 0.504158
#
# Coordination Sequence:
#
# PCOD9084521 Si02
#       8
#     2   2   2   2   2   2   2   2
#     4  10  21  38  57  85 116 143 185 236 276 334
#     4  10  21  34  54  78 107 141 178 222 275 320
#     4   9  20  35  53  76 107 143 178 224 264 318
#     4  10  20  34  53  77 107 141 182 219 269 321
#     4   9  20  35  54  78 108 141 177 223 268 324
#     4  10  19  35  54  76 108 142 179 224 266 319
#     4  10  21  36  61  84 110 149 186 226 285 336
#     4  10  20  37  60  83 114 148 186 227 280 335
#
# _framework density 21.941768
#
# number of rings (size 3 to 8) (size 9 to 14) (size 15 to 20)
#    0.000    2.250    0.000    2.250    1.750    5.500 
#    0.000    0.000    2.750    0.000    0.000    0.000 
#    0.000    0.000    0.000    0.000    0.000    0.000 
#
# Total GULP energy -89271.117083 kJ/mol
# GULP energy per Si atom -5579.444818 kJ/mol
# Density = 2.189183 g / cm^3
# Si number density = 21.941768 Si / 1000 Ang^3
#
#
#
# Elastic Constant Matrix: (Units=GPa)
#
#
# Indices 1 2 3 4 5 6 
#
# 1 37.3997 9.9465 11.2173 -0.2840 6.2448 -5.6827
# 2 9.9465 63.0764 -2.6074 -8.9324 9.2134 9.7482
# 3 11.2173 -2.6074 76.5174 -4.7970 -7.1508 2.5660
# 4 -0.2840 -8.9324 -4.7970 22.6192 0.4112 -0.1641
# 5 6.2448 9.2134 -7.1508 0.4112 35.7242 -1.8654
# 6 -5.6827 9.7482 2.5660 -0.1641 -1.8654 21.0723
#
#
#
# Elastic Compliance Matrix: (Units=1/GPa)
#
#
# Indices 1 2 3 4 5 6 
#
# 1 0.033171 -0.007302 -0.006178 -0.003605 -0.004450 0.012654
# 2 -0.007302 0.020850 0.002323 0.008625 -0.004373 -0.012217
# 3 -0.006178 0.002323 0.014734 0.003876 0.003165 -0.004224
# 4 -0.003605 0.008625 0.003876 0.048385 -0.001647 -0.005203
# 5 -0.004450 -0.004373 0.003165 -0.001647 0.030714 0.003144
# 6 0.012654 -0.012217 -0.004224 -0.005203 0.003144 0.057272
#
#
# Mechanical properties :
#
#
# Convention : Reuss Voigt Hill
#
# Bulk Modulus (GPa) = 21.53297 23.78959 22.66128
# Shear Modulus (GPa) = 20.58272 26.44563 23.51417
#
# Velocity S-wave (km/s) = 3.06610 3.47546 3.27718
# Velocity P-wave (km/s) = 4.72965 5.19334 4.96691
#
# Compressibility (1/GPa) = 0.04644042
#
# Stress axis : x y z
#
# Youngs Moduli (GPa) = 30.14643 47.96240 67.86942
#
# Poissons Ratio (x) = 0.35024 0.41929
# Poissons Ratio (y) = 0.22014 -0.15764
# Poissons Ratio (z) = 0.18624 -0.11141
#
# Static dielectric constant tensor:
#      x y z
#    x 1.848960 -0.021180 -0.017480 
#    y -0.021180 1.827420 -0.030840 
#    z -0.017480 -0.030840 1.813330 
# 
# From -- ./inp_files/51471.got.cif
#   From: 2010.05.17/outbox.cif.g08.bks.cpg/sg2_26_cif.got.tgz:51471.got - 2010.06.03 11:33:40.
