data_PCOD9084560
_publ_section_title
;
Structure prediction by ZEFSAII (Michael W. Deem and Ramdas Pophale) SiO2 
 PCOD9084560
Probable space group: P -1
;
_chemical_formula_sum "Si O2"
_cell_formula_units_Z 16
_cell_length_a 15.400517
_cell_length_b 13.804459
_cell_length_c 15.831716
_cell_angle_alpha 131.515110
_cell_angle_beta 19.363131
_cell_angle_gamma 129.801511
_cell_volume 834.100510
_symmetry_space_group_name_H-M "P -1"
_symmetry_group_IT_number 2
_symmetry_cell_setting 'triclinic'
loop_
_space_group_symop_operation_xyz
x,y,z
-x,-y,-z
loop_
_atom_site_type_symbol
_atom_site_label
_atom_site_fract_x
_atom_site_fract_y
_atom_site_fract_z
Si Si1 0.993363 0.329330 0.029611
Si Si2 0.962020 0.842829 0.950847
Si Si3 0.473290 0.762710 0.868272
Si Si4 0.485233 0.512823 0.419250
Si Si5 0.665614 0.129751 0.114999
Si Si6 0.960325 0.131380 0.558426
Si Si7 0.186754 0.985123 0.549688
Si Si8 0.413573 0.874863 0.447813
O O1 0.796858 0.429878 0.307032
O O2 0.823876 0.263400 0.071172
O O3 0.034989 0.213740 0.990887
O O4 0.268356 0.393897 0.783728
O O5 0.202611 0.792658 0.649058
O O6 0.680835 0.806922 0.148112
O O7 0.000000 0.000000 0.000000
O O8 0.489331 0.622873 0.729915
O O9 0.433645 0.861608 0.884098
O O10 0.749930 0.802196 0.680320
O O11 0.227681 0.779810 0.164379
O O12 0.500000 0.500000 0.500000
O O13 0.413118 0.098779 0.387877
O O14 0.892338 0.029463 0.857950
O O15 0.828072 0.097057 0.570217
O O16 0.000000 0.000000 0.500000
O O17 0.282918 0.917882 0.506675
O O18 0.500000 0.000000 0.500000
#
# Coordination Sequence:
#
# PCOD9084560 Si02
#       8
#     2   2   2   2   2   2   2   2
#     4  12  24  39  64  91 126 174 201 249 323 373
#     4  10  20  37  57  87 125 150 195 251 309 378
#     4  12  24  40  58  83 126 167 205 267 282 355
#     4  12  26  42  60  91 126 170 221 251 298 374
#     4  12  21  34  58  87 123 164 210 239 307 356
#     4  12  23  40  58  88 122 167 215 250 306 372
#     4  12  23  35  60  91 125 169 198 245 320 384
#     4  10  19  35  54  84 125 150 188 248 306 371
#
# _framework density 19.182341000000001
#
# number of rings (size 3 to 8) (size 9 to 14) (size 15 to 20)
#    0.000    0.500    3.750    7.500    1.750    0.000 
#    0.000    0.000    0.000    0.000    0.000   17.500 
#    0.000    0.000    0.000    0.000    0.000    0.000 
#
# Total GULP energy -89360.051031 kJ/mol
# GULP energy per Si atom -5585.003189 kJ/mol
# Density = 1.913868 g / cm^3
# Si number density = 19.182341 Si / 1000 Ang^3
#
#
#
# Elastic Constant Matrix: (Units=GPa)
#
#
# Indices 1 2 3 4 5 6 
#
# 1 103.2020 24.2638 23.6193 -1.6284 0.1089 -4.1374
# 2 24.2638 51.6395 30.2083 -1.1634 2.3871 -0.4394
# 3 23.6193 30.2083 128.4250 -13.9657 -12.1402 -3.7497
# 4 -1.6284 -1.1634 -13.9657 42.2398 1.7902 5.1377
# 5 0.1089 2.3871 -12.1402 1.7902 27.1372 -0.5269
# 6 -4.1374 -0.4394 -3.7497 5.1377 -0.5269 27.5524
#
#
#
# Elastic Compliance Matrix: (Units=1/GPa)
#
#
# Indices 1 2 3 4 5 6 
#
# 1 0.011049 -0.004647 -0.000916 -0.000187 -0.000004 0.001495
# 2 -0.004647 0.025012 -0.005607 -0.001031 -0.004641 -0.000959
# 3 -0.000916 -0.005607 0.010060 0.002846 0.004823 0.000704
# 4 -0.000187 -0.001031 0.002846 0.025125 -0.000377 -0.004349
# 5 -0.000004 -0.004641 0.004823 -0.000377 0.039468 0.001407
# 6 0.001495 -0.000959 0.000704 -0.004349 0.001407 0.037437
#
#
# Mechanical properties :
#
#
# Convention : Reuss Voigt Hill
#
# Bulk Modulus (GPa) = 42.05204 48.82768 45.43986
# Shear Modulus (GPa) = 28.02394 33.06422 30.54408
#
# Velocity S-wave (km/s) = 3.82635 4.15623 3.99469
# Velocity P-wave (km/s) = 6.44136 6.96721 6.70944
#
# Compressibility (1/GPa) = 0.02378006
#
# Stress axis : x y z
#
# Youngs Moduli (GPa) = 90.50651 39.98093 99.40221
#
# Poissons Ratio (x) = 0.18579 0.09105
# Poissons Ratio (y) = 0.42058 0.55739
# Poissons Ratio (z) = 0.08291 0.22419
#
# Static dielectric constant tensor:
#      x y z
#    x 1.656190 -0.013690 -0.009240 
#    y -0.013690 1.656440 -0.005750 
#    z -0.009240 -0.005750 1.728160 
# 
# From -- ./inp_files/522383.got.cif
#   From: 2010.05.17/outbox.cif.g08.bks.cpg/sg2_262_cif.got.tgz:522383.got - 2010.06.03 11:33:40.
