data_PCOD9084088
_publ_section_title
;
Structure prediction by ZEFSAII (Michael W. Deem and Ramdas Pophale) SiO2 
 PCOD9084088
Probable space group: P -1
;
_chemical_formula_sum "Si O2"
_cell_formula_units_Z 16
_cell_length_a 8.168697
_cell_length_b 19.678425
_cell_length_c 12.222601
_cell_angle_alpha 151.396541
_cell_angle_beta 48.107699
_cell_angle_gamma 119.122227
_cell_volume 672.312545
_symmetry_space_group_name_H-M "P -1"
_symmetry_group_IT_number 2
_symmetry_cell_setting 'triclinic'
loop_
_space_group_symop_operation_xyz
x,y,z
-x,-y,-z
loop_
_atom_site_type_symbol
_atom_site_label
_atom_site_fract_x
_atom_site_fract_y
_atom_site_fract_z
Si Si1 0.818554 0.531118 0.763608
Si Si2 0.363764 0.131047 0.665823
Si Si3 0.017201 0.980052 0.593296
Si Si4 0.769298 0.351960 0.970476
Si Si5 0.691392 0.441004 0.466794
Si Si6 0.911257 0.473752 0.868784
Si Si7 0.457596 0.063288 0.268477
Si Si8 0.598360 0.769946 0.686038
O O1 0.776075 0.435685 0.547209
O O2 0.086910 0.532617 0.652672
O O3 0.780816 0.469059 0.809450
O O4 0.660344 0.699022 0.057592
O O5 0.436215 0.099301 0.459124
O O6 0.500000 0.000000 0.500000
O O7 0.109374 0.114011 0.777446
O O8 0.190378 0.819841 0.312593
O O9 0.774083 0.968407 0.719884
O O10 0.000000 0.000000 0.500000
O O11 0.759952 0.445993 0.996950
O O12 0.541008 0.421776 0.239769
O O13 0.005168 0.376217 0.950355
O O14 0.591743 0.305248 0.289898
O O15 0.153065 0.348230 0.591961
O O16 0.480752 0.182660 0.337004
O O17 0.627584 0.903992 0.938273
#
# Coordination Sequence:
#
# PCOD9084088 Si02
#       8
#     2   2   2   2   2   2   2   2
#     4  11  24  42  61  93 126 168 203 255 318 371
#     4  11  24  40  63  92 126 168 204 257 311 379
#     4  10  19  34  60  87 120 163 203 252 299 364
#     4  10  20  37  59  92 121 162 207 257 305 366
#     4  10  24  41  62  88 130 162 208 257 309 376
#     4  10  21  36  64  90 127 157 207 261 307 368
#     4  10  21  39  64  90 127 162 212 255 311 373
#     4  10  21  40  63  95 122 166 209 263 309 365
#
# _framework density 23.798456999999999
#
# number of rings (size 3 to 8) (size 9 to 14) (size 15 to 20)
#    0.000    1.750    1.250    3.000    3.500    7.500 
#    2.250    0.000    0.000    3.750    0.000    0.000 
#    0.000    0.000    0.000    0.000    0.000    0.000 
#
# Total GULP energy -89297.687367 kJ/mol
# GULP energy per Si atom -5581.105460 kJ/mol
# Density = 2.374429 g / cm^3
# Si number density = 23.798457 Si / 1000 Ang^3
#
#
#
# Elastic Constant Matrix: (Units=GPa)
#
#
# Indices 1 2 3 4 5 6 
#
# 1 48.9302 35.7617 0.8719 -4.1420 -0.9758 -12.4924
# 2 35.7617 91.5270 17.4379 -8.5471 2.8635 -15.9525
# 3 0.8719 17.4379 82.5021 8.0675 -7.7323 -4.7409
# 4 -4.1420 -8.5471 8.0675 33.8403 2.3498 3.1194
# 5 -0.9758 2.8635 -7.7323 2.3498 37.6285 -8.8688
# 6 -12.4924 -15.9525 -4.7409 3.1194 -8.8688 48.2244
#
#
#
# Elastic Compliance Matrix: (Units=1/GPa)
#
#
# Indices 1 2 3 4 5 6 
#
# 1 0.030154 -0.011623 0.002802 -0.000604 0.003438 0.004913
# 2 -0.011623 0.016913 -0.003950 0.003808 -0.002277 0.001530
# 3 0.002802 -0.003950 0.013824 -0.004386 0.003907 0.001780
# 4 -0.000604 0.003808 -0.004386 0.031931 -0.003689 -0.002072
# 5 0.003438 -0.002277 0.003907 -0.003689 0.029321 0.006152
# 6 0.004913 0.001530 0.001780 -0.002072 0.006152 0.023956
#
#
# Mechanical properties :
#
#
# Convention : Reuss Voigt Hill
#
# Bulk Modulus (GPa) = 28.29003 36.78915 32.53959
# Shear Modulus (GPa) = 27.25901 35.19783 31.22842
#
# Velocity S-wave (km/s) = 3.38806 3.84994 3.62636
# Velocity P-wave (km/s) = 5.21713 5.93759 5.58898
#
# Compressibility (1/GPa) = 0.03534815
#
# Stress axis : x y z
#
# Youngs Moduli (GPa) = 33.16265 59.12464 72.34049
#
# Poissons Ratio (x) = 0.68723 -0.20268
# Poissons Ratio (y) = 0.38547 0.28574
# Poissons Ratio (z) = -0.09291 0.23353
#
# Static dielectric constant tensor:
#      x y z
#    x 1.978450 0.028100 -0.028330 
#    y 0.028100 1.891410 0.009560 
#    z -0.028330 0.009560 1.966920 
# 
# From -- ./inp_files/204245.got.cif
#   From: 2010.05.17/outbox.cif.g08.bks.cpg/sg2_103_cif.got.tgz:204245.got - 2010.06.03 11:33:40.
