data_PCOD9084635
_publ_section_title
;
Structure prediction by ZEFSAII (Michael W. Deem and Ramdas Pophale) SiO2 
 PCOD9084635
Probable space group: P -1
;
_chemical_formula_sum "Si O2"
_cell_formula_units_Z 16
_cell_length_a 7.912783
_cell_length_b 12.337323
_cell_length_c 7.845676
_cell_angle_alpha 95.039558
_cell_angle_beta 122.059579
_cell_angle_gamma 74.662046
_cell_volume 624.694852
_symmetry_space_group_name_H-M "P -1"
_symmetry_group_IT_number 2
_symmetry_cell_setting 'triclinic'
loop_
_space_group_symop_operation_xyz
x,y,z
-x,-y,-z
loop_
_atom_site_type_symbol
_atom_site_label
_atom_site_fract_x
_atom_site_fract_y
_atom_site_fract_z
Si Si1 0.850532 0.190580 0.192053
Si Si2 0.096649 0.373282 0.860488
Si Si3 0.795735 0.990992 0.284444
Si Si4 0.304434 0.549797 0.563045
Si Si5 0.266823 0.562052 0.910718
Si Si6 0.010203 0.826167 0.082775
Si Si7 0.247522 0.211583 0.602027
Si Si8 0.546742 0.304428 0.553709
O O1 0.747066 0.307601 0.059331
O O2 0.016772 0.213973 0.416712
O O3 0.708788 0.118425 0.189992
O O4 0.976522 0.124734 0.089952
O O5 0.177376 0.480512 0.967570
O O6 0.224737 0.297911 0.761753
O O7 0.867941 0.425262 0.671087
O O8 0.084038 0.283217 0.985741
O O9 0.668644 0.919084 0.311720
O O10 0.875108 0.913650 0.153101
O O11 0.000000 0.000000 0.500000
O O12 0.181909 0.553880 0.673451
O O13 0.467380 0.428991 0.615329
O O14 0.415514 0.652203 0.610875
O O15 0.500000 0.500000 0.000000
O O16 0.237032 0.778290 0.282633
O O17 0.373353 0.245606 0.518163
#
# Coordination Sequence:
#
# PCOD9084635 Si02
#       8
#     2   2   2   2   2   2   2   2
#     4  11  22  37  61  88 120 158 194 243 298 345
#     4  10  20  38  61  82 120 164 200 227 290 363
#     4   9  21  41  66  83 112 160 206 236 289 361
#     4  10  19  35  55  87 121 159 193 234 289 359
#     4  12  23  34  59  90 126 152 194 244 296 349
#     4  10  22  39  62  87 120 151 192 254 296 340
#     4  10  19  38  64  87 114 161 204 238 282 354
#     4  10  20  33  60  89 118 151 197 245 290 336
#
# _framework density 25.612504000000001
#
# number of rings (size 3 to 8) (size 9 to 14) (size 15 to 20)
#    0.000    1.750    2.500    2.250    1.750    1.500 
#    0.000    3.125    2.750    0.000    0.000    0.000 
#    0.000    0.000    0.000    0.000    0.000    0.000 
#
# Total GULP energy -89335.966381 kJ/mol
# GULP energy per Si atom -5583.497899 kJ/mol
# Density = 2.555421 g / cm^3
# Si number density = 25.612504 Si / 1000 Ang^3
#
#
#
# Elastic Constant Matrix: (Units=GPa)
#
#
# Indices 1 2 3 4 5 6 
#
# 1 76.2597 48.6138 -7.3403 -12.3957 0.4130 38.4757
# 2 48.6138 170.5524 9.5106 -11.3123 0.1894 51.0520
# 3 -7.3403 9.5106 39.2412 -2.0363 -10.1318 7.1337
# 4 -12.3957 -11.3123 -2.0363 20.0184 -0.9017 -17.7823
# 5 0.4130 0.1894 -10.1318 -0.9017 30.6485 -5.8326
# 6 38.4757 51.0520 7.1337 -17.7823 -5.8326 50.0407
#
#
#
# Elastic Compliance Matrix: (Units=1/GPa)
#
#
# Indices 1 2 3 4 5 6 
#
# 1 0.024168 -0.001884 0.007930 -0.001882 -0.001290 -0.018610
# 2 -0.001884 0.009032 -0.001718 -0.004819 -0.002554 -0.009532
# 3 0.007930 -0.001718 0.031047 0.000893 0.008780 -0.007429
# 4 -0.001882 -0.004819 0.000893 0.077555 0.009270 0.034877
# 5 -0.001290 -0.002554 0.008780 0.009270 0.037747 0.010040
# 6 -0.018610 -0.009532 -0.007429 0.034877 0.010040 0.058641
#
#
# Mechanical properties :
#
#
# Convention : Reuss Voigt Hill
#
# Bulk Modulus (GPa) = 13.71688 43.06906 28.39297
# Shear Modulus (GPa) = 19.69786 35.82612 27.76199
#
# Velocity S-wave (km/s) = 2.77622 3.74408 3.29587
# Velocity P-wave (km/s) = 3.95521 5.96179 5.05899
#
# Compressibility (1/GPa) = 0.07290287
#
# Stress axis : x y z
#
# Youngs Moduli (GPa) = 41.37766 110.71171 32.20926
#
# Poissons Ratio (x) = 0.20854 -0.25541
# Poissons Ratio (y) = 0.07794 0.05534
# Poissons Ratio (z) = -0.32811 0.19022
#
# Static dielectric constant tensor:
#      x y z
#    x 2.100190 0.015650 -0.113660 
#    y 0.015650 2.126380 -0.024560 
#    z -0.113660 -0.024560 2.158270 
# 
# From -- ./inp_files/179401.got.cif
#   From: 2010.05.17/outbox.cif.g08.bks.cpg/sg2_90_cif.got.tgz:179401.got - 2010.06.03 11:33:40.
