data_PCOD9084578
_publ_section_title
;
Structure prediction by ZEFSAII (Michael W. Deem and Ramdas Pophale) SiO2 
 PCOD9084578
Probable space group: P -1
;
_chemical_formula_sum "Si O2"
_cell_formula_units_Z 14
_cell_length_a 5.524795
_cell_length_b 21.568160
_cell_length_c 8.122019
_cell_angle_alpha 136.608913
_cell_angle_beta 76.536279
_cell_angle_gamma 90.743143
_cell_volume 628.667699
_symmetry_space_group_name_H-M "P -1"
_symmetry_group_IT_number 2
_symmetry_cell_setting 'triclinic'
loop_
_space_group_symop_operation_xyz
x,y,z
-x,-y,-z
loop_
_atom_site_type_symbol
_atom_site_label
_atom_site_fract_x
_atom_site_fract_y
_atom_site_fract_z
Si Si1 0.584839 0.243204 0.660020
Si Si2 0.224756 0.613151 0.687214
Si Si3 0.438343 0.070782 0.797767
Si Si4 0.000354 0.894049 0.845388
Si Si5 0.681281 0.575620 0.816439
Si Si6 0.190204 0.809075 0.129642
Si Si7 0.742615 0.898793 0.564598
O O1 0.761575 0.234968 0.778112
O O2 0.393849 0.180203 0.625211
O O3 0.738719 0.183593 0.371396
O O4 0.445634 0.351073 0.880976
O O5 0.481405 0.597236 0.732731
O O6 0.285494 0.534885 0.384008
O O7 0.963862 0.594048 0.773452
O O8 0.154156 0.721600 0.861937
O O9 0.578606 0.152480 0.904102
O O10 0.500000 0.000000 0.500000
O O11 0.567845 0.002014 0.790968
O O12 0.142173 0.104065 0.956466
O O13 0.827915 0.869849 0.679019
O O14 0.000000 0.000000 0.000000
O O15 0.965275 0.895417 0.388764
#
# Coordination Sequence:
#
# PCOD9084578 Si02
#       7
#     2   2   2   2   2   2   2
#     4  10  19  35  55  76 109 142 187 228 274 335
#     4   9  17  30  53  83 115 140 182 237 285 330
#     4  12  22  37  54  78 111 148 185 233 284 335
#     4  11  23  37  53  76 108 148 191 229 272 340
#     4   9  17  31  53  83 110 145 184 233 284 330
#     4  10  20  33  53  82 110 142 184 234 282 334
#     4  11  20  37  54  75 110 147 179 230 278 331
#
# _framework density 22.269317000000001
#
# number of rings (size 3 to 8) (size 9 to 14) (size 15 to 20)
#    0.000    1.714    4.286    1.714    0.000    0.000 
#    0.000    0.000    0.000    0.857    0.000    1.000 
#    0.000    0.000    0.000    0.000    0.000    0.143 
#
# Total GULP energy -77945.379941 kJ/mol
# GULP energy per Si atom -5567.527139 kJ/mol
# Density = 2.221863 g / cm^3
# Si number density = 22.269317 Si / 1000 Ang^3
#
#
#
# Elastic Constant Matrix: (Units=GPa)
#
#
# Indices 1 2 3 4 5 6 
#
# 1 51.4382 5.0079 4.4060 -5.4190 -10.0762 10.7451
# 2 5.0079 45.2427 45.8954 8.4391 1.5539 23.0681
# 3 4.4060 45.8954 167.7093 22.4530 -28.0000 25.6585
# 4 -5.4190 8.4391 22.4530 41.6094 5.7392 3.6267
# 5 -10.0762 1.5539 -28.0000 5.7392 29.3897 -3.7408
# 6 10.7451 23.0681 25.6585 3.6267 -3.7408 35.1558
#
#
#
# Elastic Compliance Matrix: (Units=1/GPa)
#
#
# Indices 1 2 3 4 5 6 
#
# 1 0.022698 -0.002129 0.002256 0.001494 0.008939 -0.006390
# 2 -0.002129 0.047456 -0.012659 0.001529 -0.018574 -0.023383
# 3 0.002256 -0.012659 0.012502 -0.005956 0.014601 0.000661
# 4 0.001494 0.001529 -0.005956 0.028761 -0.011019 -0.001252
# 5 0.008939 -0.018574 0.014601 -0.011019 0.054870 0.005775
# 6 -0.006390 -0.023383 0.000661 -0.001252 0.005775 0.046003
#
#
# Mechanical properties :
#
#
# Convention : Reuss Voigt Hill
#
# Bulk Modulus (GPa) = 17.36335 41.66762 29.51549
# Shear Modulus (GPa) = 19.48942 35.16969 27.32955
#
# Velocity S-wave (km/s) = 2.96154 3.97834 3.50698
# Velocity P-wave (km/s) = 4.41680 6.31303 5.44805
#
# Compressibility (1/GPa) = 0.05759256
#
# Stress axis : x y z
#
# Youngs Moduli (GPa) = 44.05641 21.07226 79.98866
#
# Poissons Ratio (x) = 0.04486 -0.18048
# Poissons Ratio (y) = 0.09378 1.01259
# Poissons Ratio (z) = -0.09940 0.26676
#
# Static dielectric constant tensor:
#      x y z
#    x 2.045120 -0.076760 -0.000030 
#    y -0.076760 1.811230 -0.013300 
#    z -0.000030 -0.013300 1.926530 
# 
# From -- ./inp_files/32551.got.cif
#   From: 2010.05.17/outbox.cif.g08.bks.cpg/sg2_17_cif.got.tgz:32551.got - 2010.06.03 11:33:40.
