data_PCOD9084710
_publ_section_title
;
Structure prediction by ZEFSAII (Michael W. Deem and Ramdas Pophale) SiO2 
 PCOD9084710
Probable space group: P -1
;
_chemical_formula_sum "Si O2"
_cell_formula_units_Z 14
_cell_length_a 16.953338
_cell_length_b 11.353996
_cell_length_c 13.753670
_cell_angle_alpha 158.640566
_cell_angle_beta 135.149900
_cell_angle_gamma 43.443199
_cell_volume 657.343021
_symmetry_space_group_name_H-M "P -1"
_symmetry_group_IT_number 2
_symmetry_cell_setting 'triclinic'
loop_
_space_group_symop_operation_xyz
x,y,z
-x,-y,-z
loop_
_atom_site_type_symbol
_atom_site_label
_atom_site_fract_x
_atom_site_fract_y
_atom_site_fract_z
Si Si1 0.322576 0.753438 0.473493
Si Si2 0.161481 0.621790 0.375994
Si Si3 0.471066 0.044747 0.123322
Si Si4 0.746609 0.159695 0.178439
Si Si5 0.041100 0.357476 0.657510
Si Si6 0.884713 0.612374 0.551449
Si Si7 0.183247 0.829012 0.225054
O O1 0.202627 0.830661 0.487389
O O2 0.390541 0.423506 0.338388
O O3 0.409908 0.985230 0.739019
O O4 0.291716 0.711456 0.302251
O O5 0.234004 0.681015 0.578947
O O6 0.031686 0.726042 0.381451
O O7 0.186721 0.233121 0.067975
O O8 0.500000 0.000000 0.000000
O O9 0.389212 0.832149 0.934702
O O10 0.805602 0.353616 0.300734
O O11 0.943310 0.638533 0.727591
O O12 0.087273 0.061674 0.392606
O O13 0.138461 0.529451 0.911167
O O14 0.000000 0.500000 0.500000
O O15 0.807819 0.935044 0.676978
#
# Coordination Sequence:
#
# PCOD9084710 Si02
#       7
#     2   2   2   2   2   2   2
#     4  10  23  36  58  87 112 147 191 240 294 330
#     4  10  19  35  56  85 113 147 190 233 278 342
#     4  10  20  40  62  79 110 151 194 242 286 336
#     4  10  20  34  61  85 107 149 199 231 274 336
#     4  10  21  36  57  83 119 156 188 223 279 343
#     4   9  19  38  59  84 117 155 188 222 277 344
#     4  11  23  36  56  86 120 151 185 235 280 338
#
# _framework density 21.29786
#
# number of rings (size 3 to 8) (size 9 to 14) (size 15 to 20)
#    0.000    2.000    1.429    3.000    2.000    4.571 
#    0.000    0.714    0.000    0.857    0.000    0.000 
#    0.000    0.000    0.000    0.000    0.000    0.000 
#
# Total GULP energy -78018.368178 kJ/mol
# GULP energy per Si atom -5572.740584 kJ/mol
# Density = 2.124939 g / cm^3
# Si number density = 21.297860 Si / 1000 Ang^3
#
#
#
# Elastic Constant Matrix: (Units=GPa)
#
#
# Indices 1 2 3 4 5 6 
#
# 1 110.4815 26.4379 40.8686 -0.0892 32.6503 1.4974
# 2 26.4379 87.4178 25.1081 -15.9531 25.8562 15.4334
# 3 40.8686 25.1081 88.1705 -8.0415 29.2616 1.7228
# 4 -0.0892 -15.9531 -8.0415 32.8013 -6.7147 5.6968
# 5 32.6503 25.8562 29.2616 -6.7147 50.6197 0.7541
# 6 1.4974 15.4334 1.7228 5.6968 0.7541 33.5566
#
#
#
# Elastic Compliance Matrix: (Units=1/GPa)
#
#
# Indices 1 2 3 4 5 6 
#
# 1 0.012450 -0.001874 -0.003777 -0.003091 -0.005317 0.001144
# 2 -0.001874 0.017152 -0.001210 0.008468 -0.005595 -0.009055
# 3 -0.003777 -0.001210 0.015501 0.002103 -0.005623 -0.000301
# 4 -0.003091 0.008468 0.002103 0.037201 0.001540 -0.010215
# 5 -0.005317 -0.005595 -0.005623 0.001540 0.029465 0.002176
# 6 0.001144 -0.009055 -0.000301 -0.010215 0.002176 0.035615
#
#
# Mechanical properties :
#
#
# Convention : Reuss Voigt Hill
#
# Bulk Modulus (GPa) = 31.86548 52.32213 42.09381
# Shear Modulus (GPa) = 29.14338 36.30585 32.72462
#
# Velocity S-wave (km/s) = 3.70316 4.13325 3.92410
# Velocity P-wave (km/s) = 5.76878 6.88466 6.35127
#
# Compressibility (1/GPa) = 0.03138192
#
# Stress axis : x y z
#
# Youngs Moduli (GPa) = 80.32029 58.30116 64.51370
#
# Poissons Ratio (x) = 0.10925 0.24366
# Poissons Ratio (y) = 0.15052 0.07804
# Poissons Ratio (z) = 0.30336 0.07053
#
# Static dielectric constant tensor:
#      x y z
#    x 1.849160 -0.069550 -0.000200 
#    y -0.069550 1.917430 0.058460 
#    z -0.000200 0.058460 1.812130 
# 
# From -- ./inp_files/63424.got.cif
#   From: 2010.05.17/outbox.cif.g08.bks.cpg/sg2_32_cif.got.tgz:63424.got - 2010.06.03 11:33:40.
