data_PCOD9084102
_publ_section_title
;
Structure prediction by ZEFSAII (Michael W. Deem and Ramdas Pophale) SiO2 
 PCOD9084102
Probable space group: P -1
;
_chemical_formula_sum "Si O2"
_cell_formula_units_Z 16
_cell_length_a 11.794960
_cell_length_b 17.535159
_cell_length_c 8.522964
_cell_angle_alpha 102.479363
_cell_angle_beta 137.988761
_cell_angle_gamma 107.943908
_cell_volume 802.768882
_symmetry_space_group_name_H-M "P -1"
_symmetry_group_IT_number 2
_symmetry_cell_setting 'triclinic'
loop_
_space_group_symop_operation_xyz
x,y,z
-x,-y,-z
loop_
_atom_site_type_symbol
_atom_site_label
_atom_site_fract_x
_atom_site_fract_y
_atom_site_fract_z
Si Si1 0.410572 0.490783 0.575897
Si Si2 0.519955 0.091196 0.631779
Si Si3 0.051248 0.310817 0.338068
Si Si4 0.908126 0.976796 0.712488
Si Si5 0.589531 0.806291 0.676316
Si Si6 0.195729 0.482156 0.814445
Si Si7 0.802402 0.410914 0.624617
Si Si8 0.372298 0.269057 0.640053
O O1 0.500000 0.500000 0.500000
O O2 0.149830 0.365420 0.291081
O O3 0.357883 0.565473 0.573639
O O4 0.611356 0.514151 0.902290
O O5 0.298784 0.026973 0.496466
O O6 0.494208 0.147444 0.493159
O O7 0.500000 0.000000 0.500000
O O8 0.776195 0.194755 0.016398
O O9 0.107443 0.405088 0.540069
O O10 0.212369 0.289425 0.536169
O O11 0.757340 0.848296 0.465984
O O12 0.000000 0.000000 0.000000
O O13 0.155598 0.084383 0.932619
O O14 0.386286 0.711388 0.545169
O O15 0.632876 0.753285 0.563144
O O16 0.969138 0.430406 0.667435
O O17 0.351957 0.611866 0.994246
O O18 0.000000 0.500000 0.000000
#
# Coordination Sequence:
#
# PCOD9084102 Si02
#       8
#     2   2   2   2   2   2   2   2
#     4  11  22  37  61  89 122 166 204 239 306 364
#     4  10  19  34  60  89 112 151 206 255 297 358
#     4  11  22  37  57  94 122 153 202 256 303 357
#     4   8  17  31  53  83 109 147 196 249 296 335
#     4  10  19  35  57  89 116 151 202 256 298 350
#     4  11  24  39  57  92 130 161 197 251 311 359
#     4  12  21  38  60  86 126 162 203 252 296 366
#     4   9  16  34  56  76 120 151 187 245 294 347
#
# _framework density 19.931018999999999
#
# number of rings (size 3 to 8) (size 9 to 14) (size 15 to 20)
#    0.000    2.000    2.500    5.250    1.750    0.500 
#    4.500    0.000    0.000    3.750    0.000    0.000 
#    0.000    0.000    0.000    0.000    0.000    0.000 
#
# Total GULP energy -89184.311997 kJ/mol
# GULP energy per Si atom -5574.019500 kJ/mol
# Density = 1.988565 g / cm^3
# Si number density = 19.931019 Si / 1000 Ang^3
#
#
#
# Elastic Constant Matrix: (Units=GPa)
#
#
# Indices 1 2 3 4 5 6 
#
# 1 111.9193 42.1076 56.7280 19.6153 23.4041 -14.8218
# 2 42.1076 81.3548 35.6980 25.5225 10.8624 -12.7566
# 3 56.7280 35.6980 97.6719 37.1398 21.5797 9.7245
# 4 19.6153 25.5225 37.1398 44.7407 1.4902 5.2691
# 5 23.4041 10.8624 21.5797 1.4902 36.0815 8.8473
# 6 -14.8218 -12.7566 9.7245 5.2691 8.8473 28.4265
#
#
#
# Elastic Compliance Matrix: (Units=1/GPa)
#
#
# Indices 1 2 3 4 5 6 
#
# 1 0.018316 -0.001468 -0.009022 -0.001172 -0.009727 0.015222
# 2 -0.001468 0.020258 -0.002618 -0.010067 -0.006370 0.013070
# 3 -0.009022 -0.002618 0.023066 -0.012360 -0.004146 -0.010188
# 4 -0.001172 -0.010067 -0.012360 0.039887 0.012526 -0.012192
# 5 -0.009727 -0.006370 -0.004146 0.012526 0.043381 -0.022335
# 6 0.015222 0.013070 -0.010188 -0.012192 -0.022335 0.061677
#
#
# Mechanical properties :
#
#
# Convention : Reuss Voigt Hill
#
# Bulk Modulus (GPa) = 28.22896 62.22371 45.22634
# Shear Modulus (GPa) = 20.44090 32.27722 26.35906
#
# Velocity S-wave (km/s) = 3.20595 4.02860 3.64058
# Velocity P-wave (km/s) = 5.28187 7.27508 6.35708
#
# Compressibility (1/GPa) = 0.03542462
#
# Stress axis : x y z
#
# Youngs Moduli (GPa) = 54.59850 49.36274 43.35455
#
# Poissons Ratio (x) = 0.07245 0.39115
# Poissons Ratio (y) = 0.08013 0.11348
# Poissons Ratio (z) = 0.49260 0.12921
#
# Static dielectric constant tensor:
#      x y z
#    x 1.691820 -0.004760 0.047100 
#    y -0.004760 1.744380 -0.008840 
#    z 0.047100 -0.008840 1.680160 
# 
# From -- ./inp_files/278191.got.cif
#   From: 2010.05.17/outbox.cif.g08.bks.cpg/sg2_140_cif.got.tgz:278191.got - 2010.06.03 11:33:40.
