data_PCOD9084596
_publ_section_title
;
Structure prediction by ZEFSAII (Michael W. Deem and Ramdas Pophale) SiO2 
 PCOD9084596
Probable space group: P -1
;
_chemical_formula_sum "Si O2"
_cell_formula_units_Z 14
_cell_length_a 16.044109
_cell_length_b 12.201255
_cell_length_c 9.437463
_cell_angle_alpha 124.934020
_cell_angle_beta 121.844085
_cell_angle_gamma 25.267734
_cell_volume 646.240886
_symmetry_space_group_name_H-M "P -1"
_symmetry_group_IT_number 2
_symmetry_cell_setting 'triclinic'
loop_
_space_group_symop_operation_xyz
x,y,z
-x,-y,-z
loop_
_atom_site_type_symbol
_atom_site_label
_atom_site_fract_x
_atom_site_fract_y
_atom_site_fract_z
Si Si1 0.469068 0.724036 0.789458
Si Si2 0.670418 0.384411 0.439269
Si Si3 0.304323 0.171911 0.882042
Si Si4 0.312356 0.166121 0.539743
Si Si5 0.877273 0.353950 0.958387
Si Si6 0.936295 0.788564 0.688430
Si Si7 0.978430 0.956970 0.627322
O O1 0.542693 0.610014 0.608867
O O2 0.428944 0.622112 0.733370
O O3 0.649589 0.574988 0.927693
O O4 0.295834 0.034714 0.842154
O O5 0.835540 0.115634 0.483830
O O6 0.795803 0.337431 0.423244
O O7 0.327808 0.142182 0.708993
O O8 0.138883 0.476900 0.992768
O O9 0.500000 0.000000 0.000000
O O10 0.123025 0.482610 0.575010
O O11 0.246103 0.096482 0.379740
O O12 0.500000 0.000000 0.500000
O O13 0.970341 0.121643 0.786798
O O14 0.993068 0.233457 0.117499
O O15 0.898622 0.953154 0.670392
#
# Coordination Sequence:
#
# PCOD9084596 Si02
#       7
#     2   2   2   2   2   2   2
#     4   9  17  34  57  79 114 148 187 241 279 327
#     4   9  19  32  54  85 110 144 196 234 276 340
#     4   9  18  35  60  80 113 149 185 235 292 327
#     4  10  22  39  61  88 113 149 198 235 283 354
#     4   9  19  36  53  80 114 149 183 233 281 344
#     4  10  21  39  59  79 119 151 186 236 292 336
#     4  10  19  35  55  80 115 149 186 230 289 337
#
# _framework density 21.663748999999999
#
# number of rings (size 3 to 8) (size 9 to 14) (size 15 to 20)
#    0.000    2.571    0.000    1.286    2.000    0.000 
#    7.714    1.429    0.000    0.000    0.000    0.000 
#    0.000    0.000    0.000    0.000    0.000    0.000 
#
# Total GULP energy -78006.824779 kJ/mol
# GULP energy per Si atom -5571.916056 kJ/mol
# Density = 2.161444 g / cm^3
# Si number density = 21.663749 Si / 1000 Ang^3
#
#
#
# Elastic Constant Matrix: (Units=GPa)
#
#
# Indices 1 2 3 4 5 6 
#
# 1 81.7766 39.5836 40.8990 -2.4887 14.9978 -7.7663
# 2 39.5836 45.3775 15.0826 -2.8974 -0.2756 -2.5803
# 3 40.8990 15.0826 94.3149 -19.7814 25.9694 1.2845
# 4 -2.4887 -2.8974 -19.7814 25.9513 -1.3985 -0.0787
# 5 14.9978 -0.2756 25.9694 -1.3985 21.7605 -3.0125
# 6 -7.7663 -2.5803 1.2845 -0.0787 -3.0125 32.6011
#
#
#
# Elastic Compliance Matrix: (Units=1/GPa)
#
#
# Indices 1 2 3 4 5 6 
#
# 1 0.029719 -0.023798 -0.006989 -0.005780 -0.012215 0.004329
# 2 -0.023798 0.043424 -0.001113 0.002707 0.018388 -0.000483
# 3 -0.006989 -0.001113 0.023510 0.015878 -0.022892 -0.004756
# 4 -0.005780 0.002707 0.015878 0.049723 -0.012121 -0.002788
# 5 -0.012215 0.018388 -0.022892 -0.012121 0.082118 0.007006
# 6 0.004329 -0.000483 -0.004756 -0.002788 0.007006 0.032495
#
#
# Mechanical properties :
#
#
# Convention : Reuss Voigt Hill
#
# Bulk Modulus (GPa) = 30.43990 45.84436 38.14213
# Shear Modulus (GPa) = 14.89244 24.45616 19.67430
#
# Velocity S-wave (km/s) = 2.62474 3.36355 3.01685
# Velocity P-wave (km/s) = 4.82362 6.02432 5.45709
#
# Compressibility (1/GPa) = 0.03285162
#
# Stress axis : x y z
#
# Youngs Moduli (GPa) = 33.64839 23.02870 42.53520
#
# Poissons Ratio (x) = 0.54805 0.29730
# Poissons Ratio (y) = 0.80078 0.04734
# Poissons Ratio (z) = 0.23518 0.02563
#
# Static dielectric constant tensor:
#      x y z
#    x 1.837780 -0.019050 0.043720 
#    y -0.019050 1.855040 0.032710 
#    z 0.043720 0.032710 1.794820 
# 
# From -- ./inp_files/239938.got.cif
#   From: 2010.05.17/outbox.cif.g08.bks.cpg/sg2_120_cif.got.tgz:239938.got - 2010.06.03 11:33:40.
