data_PCOD9084609
_publ_section_title
;
Structure prediction by ZEFSAII (Michael W. Deem and Ramdas Pophale) SiO2 
 PCOD9084609
Probable space group: P -1
;
_chemical_formula_sum "Si O2"
_cell_formula_units_Z 16
_cell_length_a 22.882454
_cell_length_b 12.935718
_cell_length_c 8.758179
_cell_angle_alpha 50.304969
_cell_angle_beta 149.374210
_cell_angle_gamma 136.844023
_cell_volume 902.865702
_symmetry_space_group_name_H-M "P -1"
_symmetry_group_IT_number 2
_symmetry_cell_setting 'triclinic'
loop_
_space_group_symop_operation_xyz
x,y,z
-x,-y,-z
loop_
_atom_site_type_symbol
_atom_site_label
_atom_site_fract_x
_atom_site_fract_y
_atom_site_fract_z
Si Si1 0.870959 0.340609 0.544516
Si Si2 0.270822 0.221649 0.386506
Si Si3 0.642895 0.316358 0.194690
Si Si4 0.527553 0.009311 0.731811
Si Si5 0.194347 0.895024 0.613351
Si Si6 0.517817 0.744361 0.415249
Si Si7 0.500648 0.524374 0.157663
Si Si8 0.074516 0.358298 0.792918
O O1 0.790297 0.344513 0.504218
O O2 0.785726 0.176313 0.432614
O O3 0.876627 0.476731 0.323200
O O4 0.015232 0.358361 0.829256
O O5 0.352712 0.217866 0.426523
O O6 0.375914 0.323905 0.651440
O O7 0.191255 0.051145 0.427687
O O8 0.179701 0.299528 0.079446
O O9 0.549194 0.156787 0.211015
O O10 0.592222 0.306483 0.915408
O O11 0.621102 0.448440 0.097713
O O12 0.500000 0.000000 0.500000
O O13 0.484622 0.119777 0.622476
O O14 0.681051 0.071222 0.039469
O O15 0.054839 0.762134 0.473077
O O16 0.497011 0.609888 0.610988
O O17 0.500000 0.500000 0.000000
#
# Coordination Sequence:
#
# PCOD9084609 Si02
#       8
#     2   2   2   2   2   2   2   2
#     4   9  18  33  59  83 109 135 191 242 267 317
#     4  11  20  34  58  82 111 147 195 228 274 333
#     4  11  19  38  57  85 109 147 195 234 274 336
#     4  12  23  36  57  86 120 147 178 238 299 338
#     4  10  19  35  55  82 112 142 185 235 269 336
#     4  11  20  33  58  81 111 147 191 230 275 328
#     4  11  23  35  52  84 123 149 178 229 297 340
#     4   9  19  34  55  90 106 145 190 240 271 314
#
# _framework density 17.721350000000001
#
# number of rings (size 3 to 8) (size 9 to 14) (size 15 to 20)
#    0.750    0.750    3.750    5.250    0.000    0.000 
#    0.000    0.000    0.000    5.250    0.000    0.000 
#    0.000    0.000    0.000    0.000    0.000    0.000 
#
# Total GULP energy -89070.047245 kJ/mol
# GULP energy per Si atom -5566.877953 kJ/mol
# Density = 1.768102 g / cm^3
# Si number density = 17.721350 Si / 1000 Ang^3
#
#
#
# Elastic Constant Matrix: (Units=GPa)
#
#
# Indices 1 2 3 4 5 6 
#
# 1 85.2947 21.5395 42.5078 0.0624 0.4797 -13.4034
# 2 21.5395 71.6513 27.5282 -25.6528 -9.7818 2.2233
# 3 42.5078 27.5282 49.7395 -15.4214 16.2213 -6.7016
# 4 0.0624 -25.6528 -15.4214 27.8925 0.7145 9.1618
# 5 0.4797 -9.7818 16.2213 0.7145 39.6982 -2.0089
# 6 -13.4034 2.2233 -6.7016 9.1618 -2.0089 28.6834
#
#
#
# Elastic Compliance Matrix: (Units=1/GPa)
#
#
# Indices 1 2 3 4 5 6 
#
# 1 0.038707 -0.006598 -0.044097 -0.038121 0.017710 0.021713
# 2 -0.006598 0.031378 -0.007897 0.029555 0.009690 -0.016122
# 3 -0.044097 -0.007897 0.087300 0.047883 -0.038838 -0.017612
# 4 -0.038121 0.029555 0.047883 0.104230 -0.015891 -0.043322
# 5 0.017710 0.009690 -0.038838 -0.015891 0.043854 0.006598
# 6 0.021713 -0.016122 -0.017612 -0.043322 0.006598 0.056444
#
#
# Mechanical properties :
#
#
# Convention : Reuss Voigt Hill
#
# Bulk Modulus (GPa) = 24.87472 43.31516 34.09494
# Shear Modulus (GPa) = 10.15237 26.92882 18.54060
#
# Velocity S-wave (km/s) = 2.39611 3.90239 3.23806
# Velocity P-wave (km/s) = 4.66070 6.69330 5.76726
#
# Compressibility (1/GPa) = 0.04020145
#
# Stress axis : x y z
#
# Youngs Moduli (GPa) = 25.83523 31.86922 11.45479
#
# Poissons Ratio (x) = 0.21028 0.50512
# Poissons Ratio (y) = 0.17046 0.09045
# Poissons Ratio (z) = 1.13926 0.25166
#
# Static dielectric constant tensor:
#      x y z
#    x 1.633190 0.002840 0.040790 
#    y 0.002840 1.602100 -0.003890 
#    z 0.040790 -0.003890 1.606300 
# 
# From -- ./inp_files/352972.got.cif
#   From: 2010.05.17/outbox.cif.g08.bks.cpg/sg2_177_cif.got.tgz:352972.got - 2010.06.03 11:33:40.
