data_PCOD9084232
_publ_section_title
;
Structure prediction by ZEFSAII (Michael W. Deem and Ramdas Pophale) SiO2 
 PCOD9084232
Probable space group: P -1
;
_chemical_formula_sum "Si O2"
_cell_formula_units_Z 16
_cell_length_a 9.699007
_cell_length_b 15.118818
_cell_length_c 8.682592
_cell_angle_alpha 107.563593
_cell_angle_beta 82.284763
_cell_angle_gamma 140.358294
_cell_volume 764.268367
_symmetry_space_group_name_H-M "P -1"
_symmetry_group_IT_number 2
_symmetry_cell_setting 'triclinic'
loop_
_space_group_symop_operation_xyz
x,y,z
-x,-y,-z
loop_
_atom_site_type_symbol
_atom_site_label
_atom_site_fract_x
_atom_site_fract_y
_atom_site_fract_z
Si Si1 0.642624 0.794262 0.989429
Si Si2 0.034283 0.869779 0.855761
Si Si3 0.764001 0.379404 0.268082
Si Si4 0.380652 0.533263 0.085889
Si Si5 0.590035 0.418941 0.545985
Si Si6 0.735551 0.168732 0.028929
Si Si7 0.986170 0.342470 0.805009
Si Si8 0.845613 0.708411 0.486183
O O1 0.447013 0.705148 0.850756
O O2 0.811663 0.806713 0.902297
O O3 0.544429 0.701704 0.110855
O O4 0.773377 0.955691 0.079246
O O5 0.093879 0.823690 0.948388
O O6 0.999170 0.811256 0.660399
O O7 0.693611 0.376803 0.447064
O O8 0.784664 0.280503 0.192540
O O9 0.964661 0.543158 0.251559
O O10 0.331610 0.510607 0.260918
O O11 0.500000 0.500000 0.000000
O O12 0.174162 0.442127 0.959472
O O13 0.689507 0.542663 0.473367
O O14 0.326513 0.296894 0.522037
O O15 0.769044 0.224376 0.879303
O O16 0.500000 0.000000 0.000000
O O17 0.022991 0.267144 0.663165
#
# Coordination Sequence:
#
# PCOD9084232 Si02
#       8
#     2   2   2   2   2   2   2   2
#     4  10  21  38  61  90 123 161 201 258 305 368
#     4  11  22  39  60  89 125 165 206 245 318 361
#     4  10  21  42  62  92 127 160 202 256 308 364
#     4  11  19  35  63  96 124 150 207 258 305 360
#     4  10  19  34  61  95 124 153 196 259 311 355
#     4  12  24  42  63  88 124 170 211 245 305 375
#     4  10  22  38  64  92 121 163 209 253 305 361
#     4  10  19  36  61  92 123 154 199 255 309 360
#
# _framework density 20.935054999999998
#
# number of rings (size 3 to 8) (size 9 to 14) (size 15 to 20)
#    0.000    1.500    3.750    2.625    0.000    0.000 
#    2.250    9.375    0.000    0.000    0.000    0.000 
#    0.000    0.000    0.000    0.000    0.000    0.000 
#
# Total GULP energy -89382.473090 kJ/mol
# GULP energy per Si atom -5586.404568 kJ/mol
# Density = 2.088741 g / cm^3
# Si number density = 20.935055 Si / 1000 Ang^3
#
#
#
# Elastic Constant Matrix: (Units=GPa)
#
#
# Indices 1 2 3 4 5 6 
#
# 1 53.9960 14.7878 -2.3173 3.2550 -14.5126 -13.4363
# 2 14.7878 88.8512 6.8611 0.3396 -14.8811 -1.2721
# 3 -2.3173 6.8611 80.3983 -2.8439 -24.1375 5.7295
# 4 3.2550 0.3396 -2.8439 19.0794 3.7049 -3.3704
# 5 -14.5126 -14.8811 -24.1375 3.7049 38.5307 4.6071
# 6 -13.4363 -1.2721 5.7295 -3.3704 4.6071 21.9493
#
#
#
# Elastic Compliance Matrix: (Units=1/GPa)
#
#
# Indices 1 2 3 4 5 6 
#
# 1 0.024966 -0.002681 0.002646 -0.003421 0.008915 0.012041
# 2 -0.002681 0.012369 0.000258 -0.000909 0.004258 -0.002025
# 3 0.002646 0.000258 0.016499 -0.001328 0.012210 -0.005439
# 4 -0.003421 -0.000909 -0.001328 0.056076 -0.008902 0.008679
# 5 0.008915 0.004258 0.012210 -0.008902 0.040335 -0.007316
# 6 0.012041 -0.002025 -0.005439 0.008679 -0.007316 0.057101
#
#
# Mechanical properties :
#
#
# Convention : Reuss Voigt Hill
#
# Bulk Modulus (GPa) = 18.42350 29.10095 23.76222
# Shear Modulus (GPa) = 22.22290 29.50614 25.86452
#
# Velocity S-wave (km/s) = 3.26163 3.75829 3.51873
# Velocity P-wave (km/s) = 4.79622 5.72396 5.28050
#
# Compressibility (1/GPa) = 0.05427851
#
# Stress axis : x y z
#
# Youngs Moduli (GPa) = 40.05427 80.84906 60.61133
#
# Poissons Ratio (x) = 0.21675 -0.16036
# Poissons Ratio (y) = 0.10738 -0.01562
# Poissons Ratio (z) = -0.10597 -0.02084
#
# Static dielectric constant tensor:
#      x y z
#    x 1.796710 0.013520 -0.023190 
#    y 0.013520 1.773010 -0.019530 
#    z -0.023190 -0.019530 1.732210 
# 
# From -- ./inp_files/208322.got.cif
#   From: 2010.05.17/outbox.cif.g08.bks.cpg/sg2_105_cif.got.tgz:208322.got - 2010.06.03 11:33:40.
