data_PCOD9084366
_publ_section_title
;
Structure prediction by ZEFSAII (Michael W. Deem and Ramdas Pophale) SiO2 
 PCOD9084366
Probable space group: P -1
;
_chemical_formula_sum "Si O2"
_cell_formula_units_Z 16
_cell_length_a 14.678065
_cell_length_b 8.957886
_cell_length_c 9.121353
_cell_angle_alpha 114.753963
_cell_angle_beta 60.061459
_cell_angle_gamma 138.573351
_cell_volume 685.575356
_symmetry_space_group_name_H-M "P -1"
_symmetry_group_IT_number 2
_symmetry_cell_setting 'triclinic'
loop_
_space_group_symop_operation_xyz
x,y,z
-x,-y,-z
loop_
_atom_site_type_symbol
_atom_site_label
_atom_site_fract_x
_atom_site_fract_y
_atom_site_fract_z
Si Si1 0.856197 0.892754 0.659102
Si Si2 0.320607 0.530565 0.181664
Si Si3 0.703717 0.270459 0.321770
Si Si4 0.656926 0.806948 0.549400
Si Si5 0.457318 0.222265 0.659896
Si Si6 0.969763 0.368194 0.823238
Si Si7 0.842970 0.322055 0.621369
Si Si8 0.417710 0.755970 0.894077
O O1 0.806020 0.720668 0.758914
O O2 0.731198 0.757606 0.578103
O O3 0.886596 0.105543 0.789999
O O4 0.000000 0.000000 0.500000
O O5 0.466198 0.635878 0.194512
O O6 0.272448 0.663904 0.321260
O O7 0.346325 0.572994 0.005769
O O8 0.582555 0.252324 0.488975
O O9 0.682236 0.281802 0.170908
O O10 0.869734 0.489273 0.314724
O O11 0.664435 0.040727 0.301677
O O12 0.599052 0.711896 0.392417
O O13 0.536446 0.772364 0.724586
O O14 0.780764 0.076874 0.537423
O O15 0.873428 0.369207 0.789157
O O16 0.000000 0.500000 0.000000
O O17 0.000000 0.500000 0.500000
O O18 0.500000 0.000000 0.000000
#
# Coordination Sequence:
#
# PCOD9084366 Si02
#       8
#     2   2   2   2   2   2   2   2
#     4  11  26  45  65  95 140 180 215 273 339 394
#     4  12  22  38  65  94 130 173 219 271 340 389
#     4  10  19  35  59  95 125 157 215 277 318 372
#     4  10  22  39  61  93 131 169 221 269 325 397
#     4  10  19  34  63  95 120 161 218 273 321 379
#     4  11  24  41  65  92 127 176 223 270 316 390
#     4  11  20  36  62  92 126 175 227 266 316 392
#     4  11  20  37  62  95 133 168 210 276 335 390
#
# _framework density 23.338061
#
# number of rings (size 3 to 8) (size 9 to 14) (size 15 to 20)
#    0.000    1.250    2.500    6.000    1.750    1.000 
#    0.000    2.500    0.000    4.500    0.000    0.000 
#    0.000    0.000    0.000    0.000    0.000    0.000 
#
# Total GULP energy -89514.911139 kJ/mol
# GULP energy per Si atom -5594.681946 kJ/mol
# Density = 2.328494 g / cm^3
# Si number density = 23.338061 Si / 1000 Ang^3
#
#
#
# Elastic Constant Matrix: (Units=GPa)
#
#
# Indices 1 2 3 4 5 6 
#
# 1 104.4499 13.7731 34.9052 -0.6371 37.7164 8.7161
# 2 13.7731 109.0216 29.6398 -16.3429 14.1130 -11.0510
# 3 34.9052 29.6398 105.7305 -13.8917 39.4552 -8.4828
# 4 -0.6371 -16.3429 -13.8917 45.9946 3.4965 8.7966
# 5 37.7164 14.1130 39.4552 3.4965 44.5543 -0.8796
# 6 8.7161 -11.0510 -8.4828 8.7966 -0.8796 33.5357
#
#
#
# Elastic Compliance Matrix: (Units=1/GPa)
#
#
# Indices 1 2 3 4 5 6 
#
# 1 0.014517 -0.000395 -0.000299 0.001805 -0.012135 -0.004771
# 2 -0.000395 0.010568 -0.001584 0.002956 -0.001796 0.002362
# 3 -0.000299 -0.001584 0.015904 0.004906 -0.013676 0.001933
# 4 0.001805 0.002956 0.004906 0.025995 -0.008954 -0.005308
# 5 -0.012135 -0.001796 -0.013676 -0.008954 0.046152 0.002662
# 6 -0.004771 0.002362 0.001933 -0.005308 0.002662 0.033788
#
#
# Mechanical properties :
#
#
# Convention : Reuss Voigt Hill
#
# Bulk Modulus (GPa) = 27.44776 52.87089 40.15933
# Shear Modulus (GPa) = 30.55794 40.87587 35.71691
#
# Velocity S-wave (km/s) = 3.62243 4.18959 3.91630
# Velocity P-wave (km/s) = 5.41133 6.79022 6.13961
#
# Compressibility (1/GPa) = 0.03643284
#
# Stress axis : x y z
#
# Youngs Moduli (GPa) = 68.88504 94.62473 62.87781
#
# Poissons Ratio (x) = 0.03735 0.01880
# Poissons Ratio (y) = 0.02719 0.09962
# Poissons Ratio (z) = 0.02060 0.14991
#
# Static dielectric constant tensor:
#      x y z
#    x 1.936650 -0.000680 0.051380 
#    y -0.000680 1.881030 -0.002780 
#    z 0.051380 -0.002780 1.932330 
# 
# From -- ./inp_files/260355.got.cif
#   From: 2010.05.17/outbox.cif.g08.bks.cpg/sg2_131_cif.got.tgz:260355.got - 2010.06.03 11:33:40.
