data_PCOD9084627
_publ_section_title
;
Structure prediction by ZEFSAII (Michael W. Deem and Ramdas Pophale) SiO2 
 PCOD9084627
Probable space group: P -1
;
_chemical_formula_sum "Si O2"
_cell_formula_units_Z 16
_cell_length_a 11.531306
_cell_length_b 5.639693
_cell_length_c 11.857579
_cell_angle_alpha 76.282100
_cell_angle_beta 116.008561
_cell_angle_gamma 94.085544
_cell_volume 672.797833
_symmetry_space_group_name_H-M "P -1"
_symmetry_group_IT_number 2
_symmetry_cell_setting 'triclinic'
loop_
_space_group_symop_operation_xyz
x,y,z
-x,-y,-z
loop_
_atom_site_type_symbol
_atom_site_label
_atom_site_fract_x
_atom_site_fract_y
_atom_site_fract_z
Si Si1 0.433539 0.650262 0.054955
Si Si2 0.742425 0.745280 0.410737
Si Si3 0.140653 0.932497 0.225269
Si Si4 0.747129 0.709492 0.930413
Si Si5 0.023575 0.666056 0.598527
Si Si6 0.255924 0.808495 0.533519
Si Si7 0.690405 0.895901 0.136631
Si Si8 0.009898 0.550102 0.852025
O O1 0.547374 0.818182 0.126087
O O2 0.500000 0.500000 0.000000
O O3 0.368793 0.463240 0.131899
O O4 0.323387 0.819739 0.929627
O O5 0.690433 0.472009 0.413580
O O6 0.776107 0.812341 0.287817
O O7 0.871386 0.734255 0.545140
O O8 0.661307 0.970793 0.407542
O O9 0.042014 0.169849 0.177154
O O10 0.204008 0.861406 0.379951
O O11 0.080182 0.686759 0.177391
O O12 0.238307 0.051868 0.165276
O O13 0.725902 0.783476 0.043526
O O14 0.878925 0.543825 0.004464
O O15 0.138494 0.812914 0.575707
O O16 0.000000 0.500000 0.500000
O O17 0.068208 0.572079 0.748221
#
# Coordination Sequence:
#
# PCOD9084627 Si02
#       8
#     2   2   2   2   2   2   2   2
#     4   9  22  44  63  98 118 155 210 275 330 371
#     4  11  22  36  63  88 121 158 204 262 314 361
#     4  12  25  42  58  91 142 176 213 245 300 387
#     4  11  25  39  66  89 128 176 209 257 318 376
#     4  10  19  35  55  85 123 162 208 256 297 353
#     4  11  22  37  56  92 125 170 208 252 307 367
#     4  10  23  41  69  95 121 154 216 275 328 369
#     4  12  25  39  59  94 135 174 219 251 299 376
#
# _framework density 23.781288
#
# number of rings (size 3 to 8) (size 9 to 14) (size 15 to 20)
#    0.000    1.250    3.750    2.625    8.750    0.000 
#    0.000    0.000    0.000    1.500    0.000    0.000 
#    0.000    0.000    0.000    0.000    0.000    0.000 
#
# Total GULP energy -89147.858604 kJ/mol
# GULP energy per Si atom -5571.741163 kJ/mol
# Density = 2.372716 g / cm^3
# Si number density = 23.781288 Si / 1000 Ang^3
#
#
#
# Elastic Constant Matrix: (Units=GPa)
#
#
# Indices 1 2 3 4 5 6 
#
# 1 44.3215 25.8712 16.6455 -5.1823 -9.9316 16.1073
# 2 25.8712 177.0999 28.0117 -6.9429 -11.4046 -7.2946
# 3 16.6455 28.0117 106.9822 -12.5624 -24.3783 5.8667
# 4 -5.1823 -6.9429 -12.5624 38.9799 1.2569 -5.1606
# 5 -9.9316 -11.4046 -24.3783 1.2569 21.9878 -9.7088
# 6 16.1073 -7.2946 5.8667 -5.1606 -9.7088 40.6446
#
#
#
# Elastic Compliance Matrix: (Units=1/GPa)
#
#
# Indices 1 2 3 4 5 6 
#
# 1 0.031232 -0.004411 -0.001922 0.001056 0.004466 -0.011690
# 2 -0.004411 0.006731 -0.000640 0.000822 0.002386 0.003723
# 3 -0.001922 -0.000640 0.013470 0.003856 0.014709 0.002705
# 4 0.001056 0.000822 0.003856 0.027534 0.005346 0.003946
# 5 0.004466 0.002386 0.014709 0.005346 0.070995 0.014173
# 6 -0.011690 0.003723 0.002705 0.003946 0.014173 0.033401
#
#
# Mechanical properties :
#
#
# Convention : Reuss Voigt Hill
#
# Bulk Modulus (GPa) = 26.67543 52.16225 39.41884
# Shear Modulus (GPa) = 23.83181 37.51412 30.67297
#
# Velocity S-wave (km/s) = 3.16907 3.97604 3.59527
# Velocity P-wave (km/s) = 4.96306 6.56203 5.81774
#
# Compressibility (1/GPa) = 0.03748768
#
# Stress axis : x y z
#
# Youngs Moduli (GPa) = 32.01879 148.55788 74.23896
#
# Poissons Ratio (x) = 0.65529 0.14266
# Poissons Ratio (y) = 0.14123 0.04752
# Poissons Ratio (z) = 0.06153 0.09508
#
# Static dielectric constant tensor:
#      x y z
#    x 2.068600 -0.018310 0.028690 
#    y -0.018310 2.096100 -0.032810 
#    z 0.028690 -0.032810 1.871130 
# 
# From -- ./inp_files/71789.got.cif
#   From: 2010.05.17/outbox.cif.g08.bks.cpg/sg2_36_cif.got.tgz:71789.got - 2010.06.03 11:33:40.
