data_PCOD9084288
_publ_section_title
;
Structure prediction by ZEFSAII (Michael W. Deem and Ramdas Pophale) SiO2 
 PCOD9084288
Probable space group: P -1
;
_chemical_formula_sum "Si O2"
_cell_formula_units_Z 14
_cell_length_a 11.817204
_cell_length_b 12.872845
_cell_length_c 10.500256
_cell_angle_alpha 149.286386
_cell_angle_beta 62.482831
_cell_angle_gamma 104.837505
_cell_volume 687.515491
_symmetry_space_group_name_H-M "P -1"
_symmetry_group_IT_number 2
_symmetry_cell_setting 'triclinic'
loop_
_space_group_symop_operation_xyz
x,y,z
-x,-y,-z
loop_
_atom_site_type_symbol
_atom_site_label
_atom_site_fract_x
_atom_site_fract_y
_atom_site_fract_z
Si Si1 0.049050 0.124915 0.219186
Si Si2 0.353151 0.669649 0.262664
Si Si3 0.179909 0.352646 0.815183
Si Si4 0.014487 0.818884 0.403952
Si Si5 0.304370 0.053516 0.885379
Si Si6 0.571657 0.023124 0.622726
Si Si7 0.137597 0.426257 0.181772
O O1 0.992934 0.097998 0.359811
O O2 0.984353 0.379458 0.499594
O O3 0.210420 0.056676 0.057934
O O4 0.000000 0.000000 0.000000
O O5 0.345441 0.819341 0.299155
O O6 0.250679 0.537410 0.201079
O O7 0.335728 0.827115 0.558547
O O8 0.500000 0.500000 0.000000
O O9 0.113634 0.264326 0.641361
O O10 0.328380 0.196422 0.604553
O O11 0.101843 0.340584 0.975728
O O12 0.141776 0.608299 0.087677
O O13 0.000000 0.000000 0.500000
O O14 0.445571 0.102968 0.868072
O O15 0.206634 0.232792 0.033924
O O16 0.500000 0.000000 0.500000
#
# Coordination Sequence:
#
# PCOD9084288 Si02
#       7
#     2   2   2   2   2   2   2
#     4  11  24  40  64  95 126 170 213 267 323 378
#     4  11  19  32  56  93 132 159 209 257 320 368
#     4  10  21  40  61  95 122 167 217 257 314 380
#     4  10  25  43  66  89 127 172 216 263 316 380
#     4  11  21  38  55  96 132 159 209 263 328 370
#     4  10  19  34  62  91 131 163 206 267 310 375
#     4  11  20  35  62  92 128 165 202 266 316 370
#
# _framework density 20.363178999999999
#
# number of rings (size 3 to 8) (size 9 to 14) (size 15 to 20)
#    0.000    1.429    5.714    1.286    6.000    0.000 
#    2.571    0.714    0.000    0.857    0.000    0.000 
#    0.000    0.000    0.000    0.000    0.000    0.000 
#
# Total GULP energy -78017.927891 kJ/mol
# GULP energy per Si atom -5572.709135 kJ/mol
# Density = 2.031683 g / cm^3
# Si number density = 20.363179 Si / 1000 Ang^3
#
#
#
# Elastic Constant Matrix: (Units=GPa)
#
#
# Indices 1 2 3 4 5 6 
#
# 1 64.1071 13.3388 25.1120 -2.8063 -7.9366 0.2714
# 2 13.3388 96.3611 32.9807 13.0780 -7.1857 -3.5284
# 3 25.1120 32.9807 126.7703 1.3392 -24.8289 -7.4785
# 4 -2.8063 13.0780 1.3392 31.9082 -6.8146 -11.3377
# 5 -7.9366 -7.1857 -24.8289 -6.8146 44.8113 0.3119
# 6 0.2714 -3.5284 -7.4785 -11.3377 0.3119 38.7459
#
#
#
# Elastic Compliance Matrix: (Units=1/GPa)
#
#
# Indices 1 2 3 4 5 6 
#
# 1 0.017338 -0.001723 -0.002679 0.002705 0.001722 -0.000018
# 2 -0.001723 0.012318 -0.003038 -0.005647 -0.000864 -0.001098
# 3 -0.002679 -0.003038 0.010331 0.002538 0.005132 0.002438
# 4 0.002705 -0.005647 0.002538 0.039306 0.006878 0.011403
# 5 0.001722 -0.000864 0.005132 0.006878 0.026353 0.002700
# 6 -0.000018 -0.001098 0.002438 0.011403 0.002700 0.029495
#
#
# Mechanical properties :
#
#
# Convention : Reuss Voigt Hill
#
# Bulk Modulus (GPa) = 39.82630 47.78905 43.80768
# Shear Modulus (GPa) = 31.56787 37.48020 34.52404
#
# Velocity S-wave (km/s) = 3.94158 4.29486 4.12201
# Velocity P-wave (km/s) = 6.34943 6.93641 6.64940
#
# Compressibility (1/GPa) = 0.02510903
#
# Stress axis : x y z
#
# Youngs Moduli (GPa) = 57.67585 81.18501 96.79312
#
# Poissons Ratio (x) = 0.13984 0.25929
# Poissons Ratio (y) = 0.09935 0.29403
# Poissons Ratio (z) = 0.15450 0.24662
#
# Static dielectric constant tensor:
#      x y z
#    x 1.831380 0.037720 0.018330 
#    y 0.037720 1.771750 0.005880 
#    z 0.018330 0.005880 1.757990 
# 
# From -- ./inp_files/260880.got.cif
#   From: 2010.05.17/outbox.cif.g08.bks.cpg/sg2_131_cif.got.tgz:260880.got - 2010.06.03 11:33:40.
