data_PCOD9084280
_publ_section_title
;
Structure prediction by ZEFSAII (Michael W. Deem and Ramdas Pophale) SiO2 
 PCOD9084280
Probable space group: P -1
;
_chemical_formula_sum "Si O2"
_cell_formula_units_Z 16
_cell_length_a 14.727776
_cell_length_b 9.010840
_cell_length_c 11.013534
_cell_angle_alpha 53.560091
_cell_angle_beta 127.369909
_cell_angle_gamma 136.463949
_cell_volume 767.811423
_symmetry_space_group_name_H-M "P -1"
_symmetry_group_IT_number 2
_symmetry_cell_setting 'triclinic'
loop_
_space_group_symop_operation_xyz
x,y,z
-x,-y,-z
loop_
_atom_site_type_symbol
_atom_site_label
_atom_site_fract_x
_atom_site_fract_y
_atom_site_fract_z
Si Si1 0.521945 0.699249 0.838811
Si Si2 0.986923 0.730027 0.142151
Si Si3 0.519703 0.948038 0.402008
Si Si4 0.800984 0.966804 0.618383
Si Si5 0.648733 0.543786 0.578252
Si Si6 0.821273 0.888994 0.043244
Si Si7 0.993156 0.617929 0.558104
Si Si8 0.736491 0.643370 0.346061
O O1 0.421566 0.560843 0.713200
O O2 0.472842 0.855746 0.764598
O O3 0.500000 0.500000 0.000000
O O4 0.687220 0.856704 0.887055
O O5 0.972951 0.497799 0.253346
O O6 0.854564 0.722023 0.088195
O O7 0.105959 0.904120 0.251270
O O8 0.046412 0.862068 0.000227
O O9 0.663351 0.967654 0.505261
O O10 0.393217 0.705386 0.366121
O O11 0.500000 0.000000 0.500000
O O12 0.747353 0.707246 0.686865
O O13 0.898724 0.121549 0.510705
O O14 0.500000 0.500000 0.500000
O O15 0.721757 0.697656 0.443945
O O16 0.789741 0.821091 0.192477
O O17 0.841703 0.567785 0.470529
O O18 0.000000 0.500000 0.500000
#
# Coordination Sequence:
#
# PCOD9084280 Si02
#       8
#     2   2   2   2   2   2   2   2
#     4  10  21  32  58  91 116 148 194 251 299 343
#     4  10  20  35  59  92 122 152 205 246 297 359
#     4  11  20  35  64  92 112 151 208 256 290 349
#     4  10  21  38  61  89 127 156 194 260 308 347
#     4  10  24  38  60  93 123 154 200 258 306 356
#     4  10  21  34  55  89 126 155 190 252 302 350
#     4  10  19  34  62  90 120 148 208 255 292 346
#     4  11  20  38  58  90 118 155 199 249 305 351
#
# _framework density 20.838449000000001
#
# number of rings (size 3 to 8) (size 9 to 14) (size 15 to 20)
#    0.000    1.750    3.750    2.250    5.250    0.500 
#    0.000    0.000    0.000   19.500    0.000    0.000 
#    0.000    0.000    0.000    0.000    0.000    0.000 
#
# Total GULP energy -89104.870041 kJ/mol
# GULP energy per Si atom -5569.054378 kJ/mol
# Density = 2.079102 g / cm^3
# Si number density = 20.838449 Si / 1000 Ang^3
#
#
#
# Elastic Constant Matrix: (Units=GPa)
#
#
# Indices 1 2 3 4 5 6 
#
# 1 87.2469 -8.0428 19.3461 10.2374 4.2241 9.5147
# 2 -8.0428 84.9959 3.7865 -1.7300 4.3706 -14.3184
# 3 19.3461 3.7865 61.9048 -14.6125 11.9315 -0.7848
# 4 10.2374 -1.7300 -14.6125 28.3395 15.1621 2.8880
# 5 4.2241 4.3706 11.9315 15.1621 37.7980 -1.5754
# 6 9.5147 -14.3184 -0.7848 2.8880 -1.5754 18.2115
#
#
#
# Elastic Compliance Matrix: (Units=1/GPa)
#
#
# Indices 1 2 3 4 5 6 
#
# 1 0.015333 0.000345 -0.009087 -0.012870 0.006046 -0.005567
# 2 0.000345 0.013633 -0.000712 -0.000276 -0.000843 0.010478
# 3 -0.009087 -0.000712 0.029919 0.029606 -0.020263 -0.000971
# 4 -0.012870 -0.000276 0.029606 0.076859 -0.039030 -0.007782
# 5 0.006046 -0.000843 -0.020263 -0.039030 0.048167 0.005662
# 6 -0.005567 0.010478 -0.000971 -0.007782 0.005662 0.067739
#
#
# Mechanical properties :
#
#
# Convention : Reuss Voigt Hill
#
# Bulk Modulus (GPa) = 25.01415 29.36967 27.19191
# Shear Modulus (GPa) = 17.61296 31.47366 24.54331
#
# Velocity S-wave (km/s) = 2.91041 3.89056 3.43562
# Velocity P-wave (km/s) = 4.82948 5.85717 5.36798
#
# Compressibility (1/GPa) = 0.03997738
#
# Stress axis : x y z
#
# Youngs Moduli (GPa) = 65.21866 73.35404 33.42405
#
# Poissons Ratio (x) = -0.02531 0.30372
# Poissons Ratio (y) = -0.02250 0.02379
# Poissons Ratio (z) = 0.59262 0.05220
#
# Static dielectric constant tensor:
#      x y z
#    x 1.762740 0.034050 -0.026310 
#    y 0.034050 1.795650 -0.037540 
#    z -0.026310 -0.037540 1.851970 
# 
# From -- ./inp_files/446819.got.cif
#   From: 2010.05.17/outbox.cif.g08.bks.cpg/sg2_224_cif.got.tgz:446819.got - 2010.06.03 11:33:40.
