data_PCOD9084087
_publ_section_title
;
Structure prediction by ZEFSAII (Michael W. Deem and Ramdas Pophale) SiO2 
 PCOD9084087
Probable space group: P -1
;
_chemical_formula_sum "Si O2"
_cell_formula_units_Z 16
_cell_length_a 7.916410
_cell_length_b 15.281462
_cell_length_c 6.817578
_cell_angle_alpha 56.213678
_cell_angle_beta 106.110140
_cell_angle_gamma 113.177080
_cell_volume 628.286163
_symmetry_space_group_name_H-M "P -1"
_symmetry_group_IT_number 2
_symmetry_cell_setting 'triclinic'
loop_
_space_group_symop_operation_xyz
x,y,z
-x,-y,-z
loop_
_atom_site_type_symbol
_atom_site_label
_atom_site_fract_x
_atom_site_fract_y
_atom_site_fract_z
Si Si1 0.924089 0.230188 0.986145
Si Si2 0.189496 0.601965 0.063878
Si Si3 0.858661 0.596926 0.437492
Si Si4 0.668132 0.936592 0.493553
Si Si5 0.999950 0.006396 0.226681
Si Si6 0.366540 0.562109 0.780019
Si Si7 0.448526 0.293629 0.676328
Si Si8 0.508865 0.112192 0.119332
O O1 0.713528 0.162719 0.035292
O O2 0.025195 0.136618 0.123790
O O3 0.944774 0.321506 0.049870
O O4 0.969938 0.307445 0.712833
O O5 0.106417 0.484238 0.287379
O O6 0.379334 0.651053 0.190976
O O7 0.253641 0.592913 0.878998
O O8 0.757889 0.519875 0.319491
O O9 0.713541 0.654982 0.397697
O O10 0.516079 0.987575 0.288974
O O11 0.819620 0.934430 0.378891
O O12 0.818965 0.016404 0.595320
O O13 0.544946 0.855239 0.720365
O O14 0.000000 0.000000 0.000000
O O15 0.481540 0.670844 0.563112
O O16 0.500000 0.500000 0.000000
O O17 0.393623 0.165597 0.873909
#
# Coordination Sequence:
#
# PCOD9084087 Si02
#       8
#     2   2   2   2   2   2   2   2
#     4  10  22  38  57  89 126 160 206 256 310 364
#     4  10  20  38  57  85 125 165 204 255 310 367
#     4  11  20  35  59  85 129 168 202 261 303 362
#     4   9  19  41  66  89 123 160 199 258 328 369
#     4  10  21  42  70  95 121 157 207 262 323 379
#     4  11  19  36  61  88 118 171 213 247 310 368
#     4  10  19  34  60  87 120 159 210 261 301 363
#     4   9  19  39  62  85 121 164 203 251 310 374
#
# _framework density 25.466104000000001
#
# number of rings (size 3 to 8) (size 9 to 14) (size 15 to 20)
#    0.000    2.000    2.500    1.875    0.000    0.500 
#    0.000   35.625    0.000    0.000    0.000    0.000 
#    0.000    0.000    0.000    0.000    0.000    0.000 
#
# Total GULP energy -89269.316211 kJ/mol
# GULP energy per Si atom -5579.332263 kJ/mol
# Density = 2.540814 g / cm^3
# Si number density = 25.466104 Si / 1000 Ang^3
#
#
#
# Elastic Constant Matrix: (Units=GPa)
#
#
# Indices 1 2 3 4 5 6 
#
# 1 112.4677 37.9817 44.2866 10.2618 -26.5482 -24.1826
# 2 37.9817 58.7959 60.6559 2.5627 4.7410 -25.9197
# 3 44.2866 60.6559 199.0061 3.1895 -39.0202 -12.7341
# 4 10.2618 2.5627 3.1895 46.1201 -3.2441 0.1856
# 5 -26.5482 4.7410 -39.0202 -3.2441 45.3768 -5.8339
# 6 -24.1826 -25.9197 -12.7341 0.1856 -5.8339 41.3345
#
#
#
# Elastic Compliance Matrix: (Units=1/GPa)
#
#
# Indices 1 2 3 4 5 6 
#
# 1 0.016734 -0.013802 0.003705 -0.002188 0.014825 0.004379
# 2 -0.013802 0.052876 -0.017171 -0.000597 -0.026341 0.016077
# 3 0.003705 -0.017171 0.011964 0.000291 0.013891 -0.002955
# 4 -0.002188 -0.000597 0.000291 0.022218 0.000415 -0.001606
# 5 0.014825 -0.026341 0.013891 0.000415 0.045810 0.002899
# 6 0.004379 0.016077 -0.002955 -0.001606 0.002899 0.036342
#
#
# Mechanical properties :
#
#
# Convention : Reuss Voigt Hill
#
# Bulk Modulus (GPa) = 36.98541 72.90202 54.94371
# Shear Modulus (GPa) = 20.04056 41.72265 30.88161
#
# Velocity S-wave (km/s) = 2.80831 4.05206 3.48610
# Velocity P-wave (km/s) = 5.00703 7.11206 6.15028
#
# Compressibility (1/GPa) = 0.02703769
#
# Stress axis : x y z
#
# Youngs Moduli (GPa) = 59.75761 18.91222 83.58362
#
# Poissons Ratio (x) = 0.26102 -0.30965
# Poissons Ratio (y) = 0.82475 1.43524
# Poissons Ratio (z) = -0.22139 0.32475
#
# Static dielectric constant tensor:
#      x y z
#    x 2.032620 0.012670 -0.002960 
#    y 0.012670 2.180330 -0.079160 
#    z -0.002960 -0.079160 2.046250 
# 
# From -- ./inp_files/43278.got.cif
#   From: 2010.05.17/outbox.cif.g08.bks.cpg/sg2_22_cif.got.tgz:43278.got - 2010.06.03 11:33:40.
