data_PCOD9084947
_publ_section_title
;
Structure prediction by ZEFSAII (Michael W. Deem and Ramdas Pophale) SiO2 
 PCOD9084947
Probable space group: P -1
;
_chemical_formula_sum "Si O2"
_cell_formula_units_Z 16
_cell_length_a 15.724013
_cell_length_b 16.303079
_cell_length_c 15.704576
_cell_angle_alpha 42.716467
_cell_angle_beta 140.006971
_cell_angle_gamma 162.327205
_cell_volume 785.251842
_symmetry_space_group_name_H-M "P -1"
_symmetry_group_IT_number 2
_symmetry_cell_setting 'triclinic'
loop_
_space_group_symop_operation_xyz
x,y,z
-x,-y,-z
loop_
_atom_site_type_symbol
_atom_site_label
_atom_site_fract_x
_atom_site_fract_y
_atom_site_fract_z
Si Si1 0.168417 0.768982 0.517712
Si Si2 0.532214 0.299429 0.813580
Si Si3 0.226134 0.488378 0.351255
Si Si4 0.178308 0.990518 0.489000
Si Si5 0.794692 0.089855 0.922990
Si Si6 0.917071 0.817203 0.788161
Si Si7 0.144348 0.734184 0.333722
Si Si8 0.828157 0.393003 0.105353
O O1 0.116272 0.836418 0.489394
O O2 0.054574 0.698107 0.388025
O O3 0.029755 0.529188 0.624071
O O4 0.517112 0.031313 0.581553
O O5 0.625676 0.397323 0.714497
O O6 0.184930 0.998733 0.791673
O O7 0.702979 0.326011 0.967411
O O8 0.641560 0.505291 0.794451
O O9 0.071017 0.239160 0.455365
O O10 0.960672 0.368723 0.233963
O O11 0.491109 0.747644 0.418770
O O12 0.151325 0.100210 0.344084
O O13 0.446050 0.803653 0.892120
O O14 0.874531 0.179178 0.818538
O O15 0.955367 0.109047 0.076838
O O16 0.913814 0.303195 0.904032
#
# Coordination Sequence:
#
# PCOD9084947 Si02
#       8
#     2   2   2   2   2   2   2   2
#     4  10  21  35  55  85 114 135 168 225 273 319
#     4  10  22  39  56  78 107 144 187 229 269 313
#     4  12  23  35  58  81 107 145 182 229 278 321
#     4  12  24  37  54  80 113 146 183 221 267 319
#     4  10  19  35  58  79 107 146 180 214 268 327
#     4  10  23  39  54  76 110 149 186 224 259 313
#     4  10  19  35  59  84 109 137 173 216 274 329
#     4  10  20  35  56  83 110 134 177 232 276 318
#
# _framework density 20.375627999999999
#
# number of rings (size 3 to 8) (size 9 to 14) (size 15 to 20)
#    0.000    1.500    0.000    6.375    0.000    3.000 
#    0.000    5.625    0.000    0.000    0.000   12.250 
#    0.000    0.000    0.000    0.000    0.000    0.000 
#
# Total GULP energy -89438.563619 kJ/mol
# GULP energy per Si atom -5589.910226 kJ/mol
# Density = 2.032925 g / cm^3
# Si number density = 20.375628 Si / 1000 Ang^3
#
#
#
# Elastic Constant Matrix: (Units=GPa)
#
#
# Indices 1 2 3 4 5 6 
#
# 1 41.2119 -3.9413 42.4369 6.6444 -18.1229 -2.9393
# 2 -3.9413 87.7659 24.8220 -11.9022 9.1411 -0.7477
# 3 42.4369 24.8220 154.3234 -14.1302 -10.8874 -7.8157
# 4 6.6444 -11.9022 -14.1302 27.1623 4.1145 -5.6227
# 5 -18.1229 9.1411 -10.8874 4.1145 26.0186 -5.6916
# 6 -2.9393 -0.7477 -7.8157 -5.6227 -5.6916 20.7995
#
#
#
# Elastic Compliance Matrix: (Units=1/GPa)
#
#
# Indices 1 2 3 4 5 6 
#
# 1 0.070229 -0.001116 -0.018371 -0.033052 0.048446 0.007303
# 2 -0.001116 0.013474 -0.001855 0.006186 -0.007426 -0.000730
# 3 -0.018371 -0.001855 0.012516 0.012061 -0.008143 0.003072
# 4 -0.033052 0.006186 0.012061 0.059883 -0.027718 0.008687
# 5 0.048446 -0.007426 -0.008143 -0.027718 0.079663 0.017826
# 6 0.007303 -0.000730 0.003072 0.008687 0.017826 0.057464
#
#
# Mechanical properties :
#
#
# Convention : Reuss Voigt Hill
#
# Bulk Modulus (GPa) = 18.67949 45.54847 32.11398
# Shear Modulus (GPa) = 14.13394 29.46166 21.79780
#
# Velocity S-wave (km/s) = 2.63662 3.80666 3.27432
# Velocity P-wave (km/s) = 4.29610 6.45940 5.48545
#
# Compressibility (1/GPa) = 0.05353466
#
# Stress axis : x y z
#
# Youngs Moduli (GPa) = 14.23913 74.21426 79.90076
#
# Poissons Ratio (x) = 0.08285 1.46786
# Poissons Ratio (y) = 0.01590 0.14819
# Poissons Ratio (z) = 0.26159 0.13765
#
# Static dielectric constant tensor:
#      x y z
#    x 1.715390 -0.003530 -0.048530 
#    y -0.003530 1.708740 0.008520 
#    z -0.048530 0.008520 1.757140 
# 
# From -- ./inp_files/367843.got.cif
#   From: 2010.05.17/outbox.cif.g08.bks.cpg/sg2_184_cif.got.tgz:367843.got - 2010.06.03 11:33:40.
