data_PCOD9084171
_publ_section_title
;
Structure prediction by ZEFSAII (Michael W. Deem and Ramdas Pophale) SiO2 
 PCOD9084171
Probable space group: P -1
;
_chemical_formula_sum "Si O2"
_cell_formula_units_Z 16
_cell_length_a 16.009900
_cell_length_b 16.661205
_cell_length_c 9.533229
_cell_angle_alpha 155.156571
_cell_angle_beta 45.462318
_cell_angle_gamma 139.708382
_cell_volume 690.507051
_symmetry_space_group_name_H-M "P -1"
_symmetry_group_IT_number 2
_symmetry_cell_setting 'triclinic'
loop_
_space_group_symop_operation_xyz
x,y,z
-x,-y,-z
loop_
_atom_site_type_symbol
_atom_site_label
_atom_site_fract_x
_atom_site_fract_y
_atom_site_fract_z
Si Si1 0.218420 0.112288 0.412836
Si Si2 0.888296 0.703720 0.945169
Si Si3 0.731072 0.188102 0.739735
Si Si4 0.115561 0.667452 0.941452
Si Si5 0.881719 0.328821 0.526259
Si Si6 0.351422 0.424748 0.511995
Si Si7 0.454019 0.153425 0.387282
Si Si8 0.700740 0.559666 0.709524
O O1 0.256168 0.230671 0.409743
O O2 0.352031 0.192510 0.470900
O O3 0.164130 0.862379 0.086769
O O4 0.118518 0.169585 0.710521
O O5 0.843141 0.461995 0.668634
O O6 0.786888 0.719672 0.978609
O O7 0.024771 0.760211 0.798938
O O8 0.849468 0.243199 0.800297
O O9 0.771220 0.173960 0.510876
O O10 0.617232 0.978929 0.603160
O O11 0.685930 0.378556 0.105747
O O12 0.204374 0.545550 0.617627
O O13 0.972869 0.508193 0.814206
O O14 0.500000 0.500000 0.500000
O O15 0.336477 0.365112 0.271246
O O16 0.573748 0.372444 0.624031
O O17 0.500000 0.000000 0.000000
#
# Coordination Sequence:
#
# PCOD9084171 Si02
#       8
#     2   2   2   2   2   2   2   2
#     4  11  20  36  62  93 115 150 202 242 292 336
#     4  10  23  38  60  83 123 157 191 245 296 349
#     4  10  19  34  61  88 111 154 199 237 286 350
#     4   9  20  35  64  86 112 155 202 244 277 345
#     4  10  20  41  60  81 118 163 200 232 295 351
#     4  11  19  33  60  91 118 148 195 244 280 353
#     4  11  18  36  61  88 119 150 193 243 294 346
#     4  10  20  38  60  87 122 159 185 234 308 353
#
# _framework density 23.171377
#
# number of rings (size 3 to 8) (size 9 to 14) (size 15 to 20)
#    0.000    1.750    6.250    0.375    0.000    1.000 
#    0.000    3.125   16.500    0.000    0.000    0.000 
#    0.000    0.000    0.000    0.000    0.000    0.000 
#
# Total GULP energy -89480.895610 kJ/mol
# GULP energy per Si atom -5592.555976 kJ/mol
# Density = 2.311864 g / cm^3
# Si number density = 23.171377 Si / 1000 Ang^3
#
#
#
# Elastic Constant Matrix: (Units=GPa)
#
#
# Indices 1 2 3 4 5 6 
#
# 1 109.1416 30.5941 16.5736 -6.7749 -3.9899 -13.0240
# 2 30.5941 145.6805 13.9338 -16.7937 5.7489 -41.2477
# 3 16.5736 13.9338 57.1299 -14.5322 -4.2399 -7.1220
# 4 -6.7749 -16.7937 -14.5322 31.4335 -4.2230 -0.8700
# 5 -3.9899 5.7489 -4.2399 -4.2230 22.2569 2.6627
# 6 -13.0240 -41.2477 -7.1220 -0.8700 2.6627 28.6189
#
#
#
# Elastic Compliance Matrix: (Units=1/GPa)
#
#
# Indices 1 2 3 4 5 6 
#
# 1 0.010207 -0.001326 -0.002039 0.000834 0.001692 0.002094
# 2 -0.001326 0.013823 0.001122 0.007563 -0.004583 0.020255
# 3 -0.002039 0.001122 0.021733 0.011026 0.004861 0.005981
# 4 0.000834 0.007563 0.011026 0.042423 0.006587 0.014701
# 5 0.001692 -0.004583 0.004861 0.006587 0.049675 -0.009047
# 6 0.002094 0.020255 0.005981 0.014701 -0.009047 0.067865
#
#
# Mechanical properties :
#
#
# Convention : Reuss Voigt Hill
#
# Bulk Modulus (GPa) = 24.22653 48.23947 36.23300
# Shear Modulus (GPa) = 22.32430 33.18522 27.75476
#
# Velocity S-wave (km/s) = 3.10730 3.78850 3.46468
# Velocity P-wave (km/s) = 4.83238 6.32461 5.62817
#
# Compressibility (1/GPa) = 0.04127707
#
# Stress axis : x y z
#
# Youngs Moduli (GPa) = 97.96892 72.34246 46.01329
#
# Poissons Ratio (x) = 0.09595 0.09382
# Poissons Ratio (y) = 0.12993 -0.05163
# Poissons Ratio (z) = 0.19975 -0.08117
#
# Static dielectric constant tensor:
#      x y z
#    x 1.905670 -0.009690 0.024480 
#    y -0.009690 1.859780 -0.005690 
#    z 0.024480 -0.005690 1.899130 
# 
# From -- ./inp_files/299571.got.cif
#   From: 2010.05.17/outbox.cif.g08.bks.cpg/sg2_150_cif.got.tgz:299571.got - 2010.06.03 11:33:40.
