data_PCOD9084434
_publ_section_title
;
Structure prediction by ZEFSAII (Michael W. Deem and Ramdas Pophale) SiO2 
 PCOD9084434
Probable space group: P -1
;
_chemical_formula_sum "Si O2"
_cell_formula_units_Z 16
_cell_length_a 8.754367
_cell_length_b 11.446217
_cell_length_c 14.096161
_cell_angle_alpha 142.074747
_cell_angle_beta 62.790144
_cell_angle_gamma 134.195259
_cell_volume 608.540066
_symmetry_space_group_name_H-M "P -1"
_symmetry_group_IT_number 2
_symmetry_cell_setting 'triclinic'
loop_
_space_group_symop_operation_xyz
x,y,z
-x,-y,-z
loop_
_atom_site_type_symbol
_atom_site_label
_atom_site_fract_x
_atom_site_fract_y
_atom_site_fract_z
Si Si1 0.562125 0.322326 0.882691
Si Si2 0.235412 0.521445 0.275430
Si Si3 0.691402 0.774876 0.352600
Si Si4 0.136912 0.955039 0.343182
Si Si5 0.175756 0.869314 0.630520
Si Si6 0.745136 0.590261 0.493714
Si Si7 0.689341 0.229591 0.969310
Si Si8 0.785297 0.213110 0.140142
O O1 0.694358 0.359541 0.773918
O O2 0.699831 0.387845 0.981308
O O3 0.347289 0.040414 0.772691
O O4 0.500000 0.500000 0.000000
O O5 0.440552 0.541901 0.269422
O O6 0.213158 0.689063 0.457692
O O7 0.002152 0.269661 0.159924
O O8 0.879559 0.746834 0.296182
O O9 0.721450 0.947354 0.539617
O O10 0.742020 0.919058 0.333722
O O11 0.240983 0.909093 0.199888
O O12 0.141264 0.179809 0.458740
O O13 0.912739 0.708841 0.612103
O O14 0.500000 0.500000 0.500000
O O15 0.750614 0.384101 0.318395
O O16 0.437194 0.055279 0.962427
O O17 0.818166 0.296451 0.074255
#
# Coordination Sequence:
#
# PCOD9084434 Si02
#       8
#     2   2   2   2   2   2   2   2
#     4  11  24  42  66  94 127 172 226 269 331 386
#     4  10  20  40  63  93 130 167 217 272 328 387
#     4   9  18  33  59  97 124 160 210 272 316 377
#     4  10  19  34  66  94 128 169 216 265 332 379
#     4   9  19  37  63  87 125 160 207 276 320 377
#     4  10  19  38  61  93 121 164 217 261 314 389
#     4  11  23  44  63  92 136 177 216 270 329 399
#     4  10  24  41  64  95 135 176 216 264 333 396
#
# _framework density 26.292437
#
# number of rings (size 3 to 8) (size 9 to 14) (size 15 to 20)
#    0.000    2.000    1.250    3.000    0.000    6.500 
#    2.250    3.750    0.000    0.000    0.000    0.000 
#    0.000    0.000    0.000    0.000    0.000    0.000 
#
# Total GULP energy -89357.222204 kJ/mol
# GULP energy per Si atom -5584.826388 kJ/mol
# Density = 2.623259 g / cm^3
# Si number density = 26.292437 Si / 1000 Ang^3
#
#
#
# Elastic Constant Matrix: (Units=GPa)
#
#
# Indices 1 2 3 4 5 6 
#
# 1 108.5386 38.7580 34.1847 5.3880 35.7759 35.8585
# 2 38.7580 67.3314 11.9609 -3.9591 8.6028 20.7750
# 3 34.1847 11.9609 90.4780 0.6847 33.7255 12.5208
# 4 5.3880 -3.9591 0.6847 20.9221 -4.8829 5.1384
# 5 35.7759 8.6028 33.7255 -4.8829 51.4709 20.3300
# 6 35.8585 20.7750 12.5208 5.1384 20.3300 57.8333
#
#
#
# Elastic Compliance Matrix: (Units=1/GPa)
#
#
# Indices 1 2 3 4 5 6 
#
# 1 0.016795 -0.007530 -0.001602 -0.006761 -0.008519 -0.003766
# 2 -0.007530 0.020821 -0.001285 0.008472 0.005454 -0.005202
# 3 -0.001602 -0.001285 0.015188 -0.003022 -0.009629 0.001820
# 4 -0.006761 0.008472 -0.003022 0.056441 0.013803 -0.008064
# 5 -0.008519 0.005454 -0.009629 0.013803 0.035307 -0.008231
# 6 -0.003766 -0.005202 0.001820 -0.008064 -0.008231 0.024711
#
#
# Mechanical properties :
#
#
# Convention : Reuss Voigt Hill
#
# Bulk Modulus (GPa) = 31.27973 48.46171 39.87072
# Shear Modulus (GPa) = 24.90626 38.14155 31.52391
#
# Velocity S-wave (km/s) = 3.08113 3.81289 3.46637
# Velocity P-wave (km/s) = 4.95787 6.15273 5.58733
#
# Compressibility (1/GPa) = 0.03196959
#
# Stress axis : x y z
#
# Youngs Moduli (GPa) = 59.54308 48.02827 65.84289
#
# Poissons Ratio (x) = 0.36165 0.10550
# Poissons Ratio (y) = 0.44835 0.08459
# Poissons Ratio (z) = 0.09540 0.06170
#
# Static dielectric constant tensor:
#      x y z
#    x 2.238070 0.135920 0.076520 
#    y 0.135920 2.217380 0.049440 
#    z 0.076520 0.049440 2.118770 
# 
# From -- ./inp_files/500979.got.cif
#   From: 2010.05.17/outbox.cif.g08.bks.cpg/sg2_251_cif.got.tgz:500979.got - 2010.06.03 11:33:40.
