data_PCOD9084775
_publ_section_title
;
Structure prediction by ZEFSAII (Michael W. Deem and Ramdas Pophale) SiO2 
 PCOD9084775
Probable space group: P -1
;
_chemical_formula_sum "Si O2"
_cell_formula_units_Z 16
_cell_length_a 7.311871
_cell_length_b 8.486923
_cell_length_c 17.035294
_cell_angle_alpha 55.606517
_cell_angle_beta 76.048927
_cell_angle_gamma 47.970174
_cell_volume 631.539541
_symmetry_space_group_name_H-M "P -1"
_symmetry_group_IT_number 2
_symmetry_cell_setting 'triclinic'
loop_
_space_group_symop_operation_xyz
x,y,z
-x,-y,-z
loop_
_atom_site_type_symbol
_atom_site_label
_atom_site_fract_x
_atom_site_fract_y
_atom_site_fract_z
Si Si1 0.150623 0.106116 0.608570
Si Si2 0.715244 0.954049 0.044661
Si Si3 0.018010 0.560873 0.890817
Si Si4 0.296043 0.755799 0.557051
Si Si5 0.446088 0.595251 0.156485
Si Si6 0.855254 0.061632 0.773238
Si Si7 0.618797 0.250657 0.111218
Si Si8 0.297317 0.387171 0.574993
O O1 0.955641 0.103485 0.675694
O O2 0.274850 0.173376 0.637207
O O3 0.973912 0.352914 0.500902
O O4 0.326887 0.853080 0.607666
O O5 0.953036 0.654084 0.100016
O O6 0.618718 0.064293 0.110344
O O7 0.500000 0.000000 0.000000
O O8 0.738953 0.144005 0.948550
O O9 0.277640 0.495970 0.859027
O O10 0.815905 0.865154 0.813772
O O11 0.000000 0.500000 0.000000
O O12 0.336419 0.498602 0.614910
O O13 0.484355 0.712978 0.483359
O O14 0.000000 0.000000 0.500000
O O15 0.477048 0.370409 0.175253
O O16 0.355669 0.684484 0.228414
O O17 0.092151 0.905237 0.853270
O O18 0.500000 0.500000 0.000000
#
# Coordination Sequence:
#
# PCOD9084775 Si02
#       8
#     2   2   2   2   2   2   2   2
#     4  10  21  37  62  93 127 166 205 248 312 371
#     4   9  17  34  56  75 102 142 201 247 299 358
#     4  10  19  35  57  79 108 149 198 249 297 354
#     4   9  18  37  67  97 123 158 205 250 297 377
#     4   9  19  35  55  79 110 149 194 251 300 359
#     4  11  22  37  56  86 121 157 201 255 305 363
#     4   9  20  37  55  78 108 152 199 249 300 355
#     4   9  19  38  66  93 127 166 203 245 308 373
#
# _framework density 25.334911999999999
#
# number of rings (size 3 to 8) (size 9 to 14) (size 15 to 20)
#    0.000    2.500    1.250    1.125    0.000    4.000 
#    6.750    0.000    5.500    0.000    0.000    0.000 
#    0.000    0.000    0.000    0.000    0.000    0.000 
#
# Total GULP energy -89268.592609 kJ/mol
# GULP energy per Si atom -5579.287038 kJ/mol
# Density = 2.527725 g / cm^3
# Si number density = 25.334912 Si / 1000 Ang^3
#
#
#
# Elastic Constant Matrix: (Units=GPa)
#
#
# Indices 1 2 3 4 5 6 
#
# 1 71.2045 58.1059 10.1435 5.1503 2.7147 11.4361
# 2 58.1059 292.4033 59.8912 25.6319 -14.0049 59.2088
# 3 10.1435 59.8912 50.3352 4.3093 -2.8906 24.7074
# 4 5.1503 25.6319 4.3093 46.1385 3.1320 0.3655
# 5 2.7147 -14.0049 -2.8906 3.1320 33.5481 -2.1619
# 6 11.4361 59.2088 24.7074 0.3655 -2.1619 56.9874
#
#
#
# Elastic Compliance Matrix: (Units=1/GPa)
#
#
# Indices 1 2 3 4 5 6 
#
# 1 0.017052 -0.003710 0.000801 0.000279 -0.002887 -0.000026
# 2 -0.003710 0.006156 -0.004421 -0.002735 0.002511 -0.003622
# 3 0.000801 -0.004421 0.028985 -0.000282 0.000089 -0.008129
# 4 0.000279 -0.002735 -0.000282 0.023385 -0.003202 0.002636
# 5 -0.002887 0.002511 0.000089 -0.003202 0.031341 -0.000859
# 6 -0.000026 -0.003622 -0.008129 0.002636 -0.000859 0.024791
#
#
# Mechanical properties :
#
#
# Convention : Reuss Voigt Hill
#
# Bulk Modulus (GPa) = 26.64311 74.46934 50.55623
# Shear Modulus (GPa) = 31.47020 46.38831 38.92925
#
# Velocity S-wave (km/s) = 3.52826 4.28366 3.92418
# Velocity P-wave (km/s) = 5.20936 7.34331 6.36638
#
# Compressibility (1/GPa) = 0.03753315
#
# Stress axis : x y z
#
# Youngs Moduli (GPa) = 58.64573 162.43952 34.50042
#
# Poissons Ratio (x) = 0.60266 -0.02764
# Poissons Ratio (y) = 0.21758 0.15253
# Poissons Ratio (z) = -0.04699 0.71815
#
# Static dielectric constant tensor:
#      x y z
#    x 2.207340 0.036540 0.033000 
#    y 0.036540 2.065340 -0.021220 
#    z 0.033000 -0.021220 2.002130 
# 
# From -- ./inp_files/556062.got.cif
#   From: 2010.05.17/outbox.cif.g08.bks.cpg/sg2_279_cif.got.tgz:556062.got - 2010.06.03 11:33:40.
