data_PCOD9084985
_publ_section_title
;
Structure prediction by ZEFSAII (Michael W. Deem and Ramdas Pophale) SiO2 
 PCOD9084985
Probable space group: P -1
;
_chemical_formula_sum "Si O2"
_cell_formula_units_Z 16
_cell_length_a 7.817364
_cell_length_b 11.977085
_cell_length_c 19.233750
_cell_angle_alpha 126.608218
_cell_angle_beta 145.408517
_cell_angle_gamma 55.687919
_cell_volume 810.160551
_symmetry_space_group_name_H-M "P -1"
_symmetry_group_IT_number 2
_symmetry_cell_setting 'triclinic'
loop_
_space_group_symop_operation_xyz
x,y,z
-x,-y,-z
loop_
_atom_site_type_symbol
_atom_site_label
_atom_site_fract_x
_atom_site_fract_y
_atom_site_fract_z
Si Si1 0.199588 0.840924 0.368581
Si Si2 0.886597 0.335929 0.049346
Si Si3 0.886413 0.827561 0.548931
Si Si4 0.701848 0.672840 0.087314
Si Si5 0.712095 0.426916 0.356296
Si Si6 0.746647 0.585717 0.681405
Si Si7 0.154585 0.706820 0.450289
Si Si8 0.276337 0.383360 0.077427
O O1 0.554822 0.799697 0.452179
O O2 0.141387 0.806037 0.416344
O O3 0.986631 0.752108 0.221842
O O4 0.113071 0.006601 0.386805
O O5 0.801206 0.506398 0.074990
O O6 0.058468 0.319760 0.174679
O O7 0.112622 0.292562 0.044591
O O8 0.572681 0.276975 0.932004
O O9 0.149592 0.738129 0.650229
O O10 0.958806 0.772421 0.474228
O O11 0.594641 0.688575 0.977261
O O12 0.465288 0.468158 0.349704
O O13 0.532177 0.446826 0.230967
O O14 0.000000 0.500000 0.500000
O O15 0.508062 0.669335 0.579322
O O16 0.928829 0.445583 0.655689
O O17 0.000000 0.500000 0.000000
#
# Coordination Sequence:
#
# PCOD9084985 Si02
#       8
#     2   2   2   2   2   2   2   2
#     4  11  22  40  54  81 120 159 200 240 282 347
#     4   9  18  35  50  82 111 143 184 240 282 347
#     4  10  24  37  58  83 116 156 199 242 289 347
#     4  10  20  33  55  76 110 156 190 232 285 341
#     4  10  20  36  61  91 118 149 190 249 298 339
#     4   9  18  33  55  88 115 140 186 248 300 345
#     4  10  19  35  58  82 113 151 186 240 299 346
#     4   9  20  35  56  85 118 149 185 233 298 358
#
# _framework density 19.749171
#
# number of rings (size 3 to 8) (size 9 to 14) (size 15 to 20)
#    0.000    2.250    1.250    1.125    3.500    5.000 
#    2.250    0.625    0.000    6.750    0.000    0.000 
#    0.000    0.000    0.000    0.000    0.000    0.000 
#
# Total GULP energy -89229.918318 kJ/mol
# GULP energy per Si atom -5576.869895 kJ/mol
# Density = 1.970422 g / cm^3
# Si number density = 19.749171 Si / 1000 Ang^3
#
#
#
# Elastic Constant Matrix: (Units=GPa)
#
#
# Indices 1 2 3 4 5 6 
#
# 1 81.1576 12.8386 38.9821 -1.0412 5.7596 -7.6072
# 2 12.8386 49.7655 18.8841 -5.0007 -2.6277 -2.1450
# 3 38.9821 18.8841 99.9231 -10.9985 -10.5675 14.7500
# 4 -1.0412 -5.0007 -10.9985 19.0299 7.4875 -3.0890
# 5 5.7596 -2.6277 -10.5675 7.4875 31.5628 -4.4315
# 6 -7.6072 -2.1450 14.7500 -3.0890 -4.4315 21.9776
#
#
#
# Elastic Compliance Matrix: (Units=1/GPa)
#
#
# Indices 1 2 3 4 5 6 
#
# 1 0.018298 -0.001080 -0.009204 -0.000913 -0.004703 0.011329
# 2 -0.001080 0.022608 -0.004123 0.004179 0.000448 0.005278
# 3 -0.009204 -0.004123 0.017349 0.004584 0.004126 -0.013756
# 4 -0.000913 0.004179 0.004584 0.061528 -0.012094 0.003225
# 5 -0.004703 0.000448 0.004126 -0.012094 0.037027 0.001413
# 6 0.011329 0.005278 -0.013756 0.003225 0.001413 0.059908
#
#
# Mechanical properties :
#
#
# Convention : Reuss Voigt Hill
#
# Bulk Modulus (GPa) = 33.96634 41.36177 37.66406
# Shear Modulus (GPa) = 19.58120 25.19014 22.38567
#
# Velocity S-wave (km/s) = 3.15222 3.57529 3.37040
# Velocity P-wave (km/s) = 5.52131 6.16706 5.85310
#
# Compressibility (1/GPa) = 0.02944091
#
# Stress axis : x y z
#
# Youngs Moduli (GPa) = 54.65189 44.23125 57.63931
#
# Poissons Ratio (x) = 0.04775 0.53054
# Poissons Ratio (y) = 0.05900 0.23766
# Poissons Ratio (z) = 0.50304 0.18238
#
# Static dielectric constant tensor:
#      x y z
#    x 1.740400 -0.005340 0.009680 
#    y -0.005340 1.711210 -0.020400 
#    z 0.009680 -0.020400 1.732560 
# 
# From -- ./inp_files/589581.got.cif
#   From: 2010.05.17/outbox.cif.g08.bks.cpg/sg2_295_cif.got.tgz:589581.got - 2010.06.03 11:33:40.
