data_PCOD9084743
_publ_section_title
;
Structure prediction by ZEFSAII (Michael W. Deem and Ramdas Pophale) SiO2 
 PCOD9084743
Probable space group: P -1
;
_chemical_formula_sum "Si O2"
_cell_formula_units_Z 16
_cell_length_a 19.537819
_cell_length_b 14.965774
_cell_length_c 13.036772
_cell_angle_alpha 43.128457
_cell_angle_beta 26.139412
_cell_angle_gamma 28.696813
_cell_volume 775.884807
_symmetry_space_group_name_H-M "P -1"
_symmetry_group_IT_number 2
_symmetry_cell_setting 'triclinic'
loop_
_space_group_symop_operation_xyz
x,y,z
-x,-y,-z
loop_
_atom_site_type_symbol
_atom_site_label
_atom_site_fract_x
_atom_site_fract_y
_atom_site_fract_z
Si Si1 0.329880 0.989126 0.267618
Si Si2 0.233145 0.357248 0.741754
Si Si3 0.700804 0.582747 0.025451
Si Si4 0.272412 0.938537 0.604830
Si Si5 0.944695 0.396718 0.423199
Si Si6 0.394669 0.989858 0.748089
Si Si7 0.242901 0.410779 0.284355
Si Si8 0.015657 0.139086 0.991259
O O1 0.089220 0.178814 0.381474
O O2 0.463078 0.773940 0.239343
O O3 0.283417 0.027183 0.419310
O O4 0.500000 0.000000 0.000000
O O5 0.464459 0.266236 0.558953
O O6 0.203388 0.455753 0.594130
O O7 0.282776 0.174554 0.808340
O O8 0.000000 0.500000 0.000000
O O9 0.837592 0.368520 0.054477
O O10 0.657816 0.597268 0.949005
O O11 0.877278 0.593416 0.802027
O O12 0.120663 0.909896 0.799309
O O13 0.159745 0.068410 0.750219
O O14 0.809607 0.460237 0.658160
O O15 0.500000 0.000000 0.500000
O O16 0.585012 0.799118 0.718833
O O17 0.197802 0.021494 0.937141
O O18 0.000000 0.500000 0.500000
#
# Coordination Sequence:
#
# PCOD9084743 Si02
#       8
#     2   2   2   2   2   2   2   2
#     4  10  22  37  59  92 128 167 209 263 321 385
#     4  12  24  38  62  96 127 166 215 270 323 373
#     4  10  20  36  58  90 122 166 208 256 318 378
#     4  11  25  41  66  95 131 175 208 269 328 381
#     4  10  19  35  56  89 122 158 209 267 310 365
#     4  12  21  39  65  93 128 164 227 267 307 383
#     4  10  20  32  58  92 116 159 208 267 305 360
#     4  11  23  44  65  95 132 169 220 264 319 385
#
# _framework density 20.621618999999999
#
# number of rings (size 3 to 8) (size 9 to 14) (size 15 to 20)
#    0.000    1.250    3.750    3.000    7.000    0.500 
#    0.000    1.250    0.000    6.000    0.000    0.000 
#    0.000    0.000    0.000    0.000    0.000    0.000 
#
# Total GULP energy -89305.890841 kJ/mol
# GULP energy per Si atom -5581.618178 kJ/mol
# Density = 2.057468 g / cm^3
# Si number density = 20.621619 Si / 1000 Ang^3
#
#
#
# Elastic Constant Matrix: (Units=GPa)
#
#
# Indices 1 2 3 4 5 6 
#
# 1 77.7902 38.2771 33.6018 7.7716 -14.7073 -20.0405
# 2 38.2771 118.3123 21.9360 38.6412 -2.6991 -18.8821
# 3 33.6018 21.9360 63.1934 14.4160 1.3708 -0.1494
# 4 7.7716 38.6412 14.4160 32.9055 -0.1376 6.6010
# 5 -14.7073 -2.6991 1.3708 -0.1376 32.0000 5.4232
# 6 -20.0405 -18.8821 -0.1494 6.6010 5.4232 42.1542
#
#
#
# Elastic Compliance Matrix: (Units=1/GPa)
#
#
# Indices 1 2 3 4 5 6 
#
# 1 0.024140 -0.006064 -0.012183 0.005481 0.010015 0.006570
# 2 -0.006064 0.019583 0.002114 -0.024535 -0.003048 0.010130
# 3 -0.012183 0.002114 0.023884 -0.009597 -0.006066 -0.002477
# 4 0.005481 -0.024535 -0.009597 0.066006 0.004419 -0.019323
# 5 0.010015 -0.003048 -0.006066 0.004419 0.036210 -0.001976
# 6 0.006570 0.010130 -0.002477 -0.019323 -0.001976 0.034655
#
#
# Mechanical properties :
#
#
# Convention : Reuss Voigt Hill
#
# Bulk Modulus (GPa) = 28.29679 49.65840 38.97760
# Shear Modulus (GPa) = 20.11882 32.44400 26.28141
#
# Velocity S-wave (km/s) = 3.12688 3.97079 3.57383
# Velocity P-wave (km/s) = 5.17573 6.71981 5.99767
#
# Compressibility (1/GPa) = 0.03533970
#
# Stress axis : x y z
#
# Youngs Moduli (GPa) = 41.42472 51.06598 41.86942
#
# Poissons Ratio (x) = 0.30968 0.51010
# Poissons Ratio (y) = 0.25121 -0.08851
# Poissons Ratio (z) = 0.50468 -0.10796
#
# Static dielectric constant tensor:
#      x y z
#    x 1.753820 -0.008360 0.159080 
#    y -0.008360 1.777570 0.538850 
#    z 0.159080 0.538850 -20.530990 
# 
# From -- ./inp_files/461886.got.cif
#   From: 2010.05.17/outbox.cif.g08.bks.cpg/sg2_231_cif.got.tgz:461886.got - 2010.06.03 11:33:40.
