data_PCOD9084903
_publ_section_title
;
Structure prediction by ZEFSAII (Michael W. Deem and Ramdas Pophale) SiO2 
 PCOD9084903
Probable space group: P -1
;
_chemical_formula_sum "Si O2"
_cell_formula_units_Z 11
_cell_length_a 7.517636
_cell_length_b 11.976207
_cell_length_c 12.404521
_cell_angle_alpha 145.824593
_cell_angle_beta 136.415538
_cell_angle_gamma 63.924097
_cell_volume 394.011299
_symmetry_space_group_name_H-M "P -1"
_symmetry_group_IT_number 2
_symmetry_cell_setting 'triclinic'
loop_
_space_group_symop_operation_xyz
x,y,z
-x,-y,-z
loop_
_atom_site_type_symbol
_atom_site_label
_atom_site_fract_x
_atom_site_fract_y
_atom_site_fract_z
Si Si1 0.943119 0.248394 0.158081
Si Si2 0.274406 0.726016 0.309796
Si Si3 0.635038 0.981641 0.215673
Si Si4 0.500000 0.500000 0.500000
Si Si5 0.557362 0.467914 0.122317
Si Si6 0.004660 0.100975 0.850100
O O1 0.852012 0.445543 0.246993
O O2 0.277129 0.368017 0.395126
O O3 0.704674 0.113281 0.033231
O O4 0.862042 0.075792 0.885036
O O5 0.520752 0.660401 0.322298
O O6 0.206947 0.875259 0.311871
O O7 0.290133 0.820622 0.511672
O O8 0.000000 0.500000 0.000000
O O9 0.846246 0.036693 0.253175
O O10 0.650634 0.774256 0.119316
O O11 0.725343 0.669455 0.820935
O O12 0.500000 0.500000 0.000000
#
# Coordination Sequence:
#
# PCOD9084903 Si02
#       6
#     2   2   2   1   2   2
#     4   8  19  36  58  89 107 156 196 238 285 349
#     4  12  21  36  59  92 120 151 196 241 300 354
#     4  10  22  36  58  93 117 156 189 241 311 332
#     4   8  18  38  62  84 108 158 212 222 286 364
#     4  10  19  35  57  89 117 154 187 246 294 348
#     4  10  19  36  61  87 115 158 193 241 287 356
#
# _framework density 27.91798
#
# number of rings (size 3 to 8) (size 9 to 14) (size 15 to 20)
#    2.182    0.000    3.636    0.545    0.000    3.636 
#    0.000    0.000    0.000    6.545    0.000    0.000 
#    0.000    0.000    0.000    0.000    0.000    0.000 
#
# Total GULP energy -61245.564388 kJ/mol
# GULP energy per Si atom -5567.778581 kJ/mol
# Density = 2.785444 g / cm^3
# Si number density = 27.917980 Si / 1000 Ang^3
#
#
#
# Elastic Constant Matrix: (Units=GPa)
#
#
# Indices 1 2 3 4 5 6 
#
# 1 179.4808 62.2712 54.1164 5.4081 -29.4481 -22.0202
# 2 62.2712 97.9978 51.8030 6.3259 -18.7417 -4.4957
# 3 54.1164 51.8030 151.1405 15.5189 -32.9214 -19.5036
# 4 5.4081 6.3259 15.5189 35.7638 1.9595 -9.4662
# 5 -29.4481 -18.7417 -32.9214 1.9595 52.6224 6.8634
# 6 -22.0202 -4.4957 -19.5036 -9.4662 6.8634 33.3399
#
#
#
# Elastic Compliance Matrix: (Units=1/GPa)
#
#
# Indices 1 2 3 4 5 6 
#
# 1 0.008055 -0.004321 -0.000479 0.000763 0.002087 0.004244
# 2 -0.004321 0.015042 -0.003675 -0.001436 0.001166 -0.003623
# 3 -0.000479 -0.003675 0.009655 -0.002856 0.004156 0.003169
# 4 0.000763 -0.001436 -0.002856 0.031826 -0.004169 0.008535
# 5 0.002087 0.001166 0.004156 -0.004169 0.023613 -0.002078
# 6 0.004244 -0.003623 0.003169 0.008535 -0.002078 0.037014
#
#
# Mechanical properties :
#
#
# Convention : Reuss Voigt Hill
#
# Bulk Modulus (GPa) = 63.27903 85.00003 74.13953
# Shear Modulus (GPa) = 33.91614 41.70714 37.81164
#
# Velocity S-wave (km/s) = 3.48925 3.86932 3.68419
# Velocity P-wave (km/s) = 6.24087 7.10455 6.68667
#
# Compressibility (1/GPa) = 0.01580302
#
# Stress axis : x y z
#
# Youngs Moduli (GPa) = 124.13995 66.48160 103.57314
#
# Poissons Ratio (x) = 0.28724 0.04965
# Poissons Ratio (y) = 0.53637 0.38058
# Poissons Ratio (z) = 0.05951 0.24429
#
# Static dielectric constant tensor:
#      x y z
#    x 2.317740 0.050640 0.020630 
#    y 0.050640 2.288520 -0.012710 
#    z 0.020630 -0.012710 2.143060 
# 
# From -- ./inp_files/246624.got.cif
#   From: 2010.05.17/outbox.cif.g08.bks.cpg/sg2_124_cif.got.tgz:246624.got - 2010.06.03 11:33:40.
