data_PCOD9084565
_publ_section_title
;
Structure prediction by ZEFSAII (Michael W. Deem and Ramdas Pophale) SiO2 
 PCOD9084565
Probable space group: P -1
;
_chemical_formula_sum "Si O2"
_cell_formula_units_Z 16
_cell_length_a 26.379636
_cell_length_b 12.289990
_cell_length_c 5.379275
_cell_angle_alpha 58.546698
_cell_angle_beta 106.834524
_cell_angle_gamma 149.347395
_cell_volume 705.795545
_symmetry_space_group_name_H-M "P -1"
_symmetry_group_IT_number 2
_symmetry_cell_setting 'triclinic'
loop_
_space_group_symop_operation_xyz
x,y,z
-x,-y,-z
loop_
_atom_site_type_symbol
_atom_site_label
_atom_site_fract_x
_atom_site_fract_y
_atom_site_fract_z
Si Si1 0.833712 0.187316 0.210922
Si Si2 0.969441 0.221980 0.310237
Si Si3 0.402935 0.974213 0.782585
Si Si4 0.004332 0.151553 0.932423
Si Si5 0.440800 0.551585 0.949347
Si Si6 0.569161 0.223581 0.131629
Si Si7 0.632669 0.818674 0.078126
Si Si8 0.777947 0.257865 0.405298
O O1 0.888209 0.169825 0.236349
O O2 0.828257 0.226167 0.440330
O O3 0.912568 0.463766 0.888488
O O4 0.709970 0.924210 0.268637
O O5 0.951110 0.121325 0.671814
O O6 0.964283 0.113691 0.196106
O O7 0.361795 0.746955 0.914929
O O8 0.300119 0.849996 0.792792
O O9 0.479763 0.209065 0.416532
O O10 0.480895 0.097902 0.969511
O O11 0.128702 0.449558 0.763298
O O12 0.000000 0.000000 0.000000
O O13 0.373436 0.529378 0.983853
O O14 0.515291 0.634992 0.160060
O O15 0.383622 0.324046 0.982582
O O16 0.500000 0.000000 0.500000
O O17 0.703189 0.077879 0.746942
#
# Coordination Sequence:
#
# PCOD9084565 Si02
#       8
#     2   2   2   2   2   2   2   2
#     4  10  21  36  61  88 122 154 202 253 308 376
#     4  10  23  40  68  93 124 163 202 255 317 367
#     4   9  18  34  55  80 112 157 202 238 300 359
#     4  11  23  44  65  92 128 163 203 255 312 373
#     4   9  19  32  54  81 117 154 193 251 299 355
#     4   9  17  33  52  75 111 155 196 246 292 353
#     4  10  19  35  54  85 117 152 199 246 308 362
#     4  10  21  36  59  86 115 156 203 247 307 374
#
# _framework density 22.669454999999999
#
# number of rings (size 3 to 8) (size 9 to 14) (size 15 to 20)
#    0.000    2.250    1.250    1.125    1.750    2.500 
#    2.250    7.500    0.000    0.000    0.000    0.000 
#    0.000    0.000    0.000    0.000    0.000    0.000 
#
# Total GULP energy -89104.444548 kJ/mol
# GULP energy per Si atom -5569.027784 kJ/mol
# Density = 2.261786 g / cm^3
# Si number density = 22.669455 Si / 1000 Ang^3
#
#
#
# Elastic Constant Matrix: (Units=GPa)
#
#
# Indices 1 2 3 4 5 6 
#
# 1 127.1657 48.2948 4.7690 -4.4340 12.6618 -20.9521
# 2 48.2948 85.6652 12.6130 -0.9679 2.4865 -8.5320
# 3 4.7690 12.6130 51.9960 17.8283 11.0644 4.5924
# 4 -4.4340 -0.9679 17.8283 29.2214 0.2220 3.0765
# 5 12.6618 2.4865 11.0644 0.2220 21.8131 1.0541
# 6 -20.9521 -8.5320 4.5924 3.0765 1.0541 16.0400
#
#
#
# Elastic Compliance Matrix: (Units=1/GPa)
#
#
# Indices 1 2 3 4 5 6 
#
# 1 0.013281 -0.005902 0.000666 -0.000058 -0.008078 0.014561
# 2 -0.005902 0.015817 -0.005208 0.002625 0.004169 0.001418
# 3 0.000666 -0.005208 0.030163 -0.017713 -0.014614 -0.006178
# 4 -0.000058 0.002625 -0.017713 0.045343 0.008396 -0.002857
# 5 -0.008078 0.004169 -0.014614 0.008396 0.057847 -0.009561
# 6 0.014561 0.001418 -0.006178 -0.002857 -0.009561 0.085064
#
#
# Mechanical properties :
#
#
# Convention : Reuss Voigt Hill
#
# Bulk Modulus (GPa) = 26.05857 44.02005 35.03931
# Shear Modulus (GPa) = 17.78131 26.69157 22.23644
#
# Velocity S-wave (km/s) = 2.80370 3.43508 3.13533
# Velocity P-wave (km/s) = 4.69052 5.93241 5.34764
#
# Compressibility (1/GPa) = 0.03837508
#
# Stress axis : x y z
#
# Youngs Moduli (GPa) = 75.29328 63.22241 33.15294
#
# Poissons Ratio (x) = 0.37312 -0.02209
# Poissons Ratio (y) = 0.44435 0.17266
# Poissons Ratio (z) = -0.05017 0.32926
#
# Static dielectric constant tensor:
#      x y z
#    x 1.906650 -0.032340 -0.009990 
#    y -0.032340 1.874430 0.042900 
#    z -0.009990 0.042900 1.896780 
# 
# From -- ./inp_files/81000.got.cif
#   From: 2010.05.17/outbox.cif.g08.bks.cpg/sg2_41_cif.got.tgz:81000.got - 2010.06.03 11:33:40.
