data_PCOD9084726
_publ_section_title
;
Structure prediction by ZEFSAII (Michael W. Deem and Ramdas Pophale) SiO2 
 PCOD9084726
Probable space group: P -1
;
_chemical_formula_sum "Si O2"
_cell_formula_units_Z 14
_cell_length_a 14.935027
_cell_length_b 5.401660
_cell_length_c 11.913585
_cell_angle_alpha 102.747450
_cell_angle_beta 139.601120
_cell_angle_gamma 71.049344
_cell_volume 588.584136
_symmetry_space_group_name_H-M "P -1"
_symmetry_group_IT_number 2
_symmetry_cell_setting 'triclinic'
loop_
_space_group_symop_operation_xyz
x,y,z
-x,-y,-z
loop_
_atom_site_type_symbol
_atom_site_label
_atom_site_fract_x
_atom_site_fract_y
_atom_site_fract_z
Si Si1 0.292888 0.517835 0.210196
Si Si2 0.663297 0.693055 0.108014
Si Si3 0.215296 0.946957 0.620773
Si Si4 0.624793 0.391642 0.462234
Si Si5 0.775808 0.997239 0.980905
Si Si6 0.925412 0.249195 0.328613
Si Si7 0.492657 0.331982 0.814050
O O1 0.464058 0.387550 0.345055
O O2 0.282890 0.599962 0.339144
O O3 0.242962 0.778247 0.111318
O O4 0.211423 0.293824 0.081092
O O5 0.822662 0.521191 0.217313
O O6 0.607272 0.632848 0.171129
O O7 0.675646 0.982093 0.177808
O O8 0.567507 0.576397 0.919871
O O9 0.295611 0.816187 0.574544
O O10 0.128030 0.792572 0.600453
O O11 0.094176 0.200252 0.490346
O O12 0.593092 0.654445 0.381714
O O13 0.623597 0.080638 0.908886
O O14 0.890628 0.038938 0.185856
#
# Coordination Sequence:
#
# PCOD9084726 Si02
#       7
#     2   2   2   2   2   2   2
#     4  10  23  41  65  88 121 159 203 256 303 356
#     4  10  19  35  56  86 124 153 195 243 308 369
#     4  11  22  37  60  86 120 163 195 252 300 365
#     4  10  21  38  60  90 120 154 203 247 308 358
#     4  10  22  41  62  89 122 158 204 252 300 357
#     4  10  23  38  56  88 121 156 209 242 302 361
#     4   9  19  34  57  93 119 153 193 248 304 369
#
# _framework density 23.785895
#
# number of rings (size 3 to 8) (size 9 to 14) (size 15 to 20)
#    0.000    2.000    1.429    1.286    6.000    6.857 
#    0.000    1.429    0.000    0.000    0.000    0.000 
#    0.000    0.000    0.000    0.000    0.000    0.000 
#
# Total GULP energy -78114.054792 kJ/mol
# GULP energy per Si atom -5579.575342 kJ/mol
# Density = 2.373176 g / cm^3
# Si number density = 23.785895 Si / 1000 Ang^3
#
#
#
# Elastic Constant Matrix: (Units=GPa)
#
#
# Indices 1 2 3 4 5 6 
#
# 1 70.3977 22.5109 44.1724 7.7563 -33.0304 -5.8521
# 2 22.5109 77.9581 27.0368 19.6920 -6.4999 5.0899
# 3 44.1724 27.0368 109.4903 12.2240 -35.7094 11.1996
# 4 7.7563 19.6920 12.2240 37.2009 -8.7237 3.7030
# 5 -33.0304 -6.4999 -35.7094 -8.7237 45.3288 0.7803
# 6 -5.8521 5.0899 11.1996 3.7030 0.7803 21.2876
#
#
#
# Elastic Compliance Matrix: (Units=1/GPa)
#
#
# Indices 1 2 3 4 5 6 
#
# 1 0.027531 -0.005693 -0.006381 0.001586 0.014326 0.011486
# 2 -0.005693 0.017078 -0.002397 -0.007975 -0.005074 -0.002814
# 3 -0.006381 -0.002397 0.015770 0.000182 0.007634 -0.009789
# 4 0.001586 -0.007975 0.000182 0.032599 0.006492 -0.003661
# 5 0.014326 -0.005074 0.007634 0.006492 0.039060 -0.001426
# 6 0.011486 -0.002814 -0.009789 -0.003661 -0.001426 0.056646
#
#
# Mechanical properties :
#
#
# Convention : Reuss Voigt Hill
#
# Bulk Modulus (GPa) = 31.80959 49.47623 40.64291
# Shear Modulus (GPa) = 21.91982 31.70518 26.81250
#
# Velocity S-wave (km/s) = 3.03899 3.65491 3.36109
# Velocity P-wave (km/s) = 5.07112 6.21747 5.67333
#
# Compressibility (1/GPa) = 0.03143706
#
# Stress axis : x y z
#
# Youngs Moduli (GPa) = 36.32284 58.55583 63.41115
#
# Poissons Ratio (x) = 0.33335 0.40462
# Poissons Ratio (y) = 0.20678 0.15200
# Poissons Ratio (z) = 0.23177 0.14036
#
# Static dielectric constant tensor:
#      x y z
#    x 1.910130 0.054530 0.011090 
#    y 0.054530 2.037430 -0.013970 
#    z 0.011090 -0.013970 1.897060 
# 
# From -- ./inp_files/79656.got.cif
#   From: 2010.05.17/outbox.cif.g08.bks.cpg/sg2_40_cif.got.tgz:79656.got - 2010.06.03 11:33:40.
