data_PCOD9084683
_publ_section_title
;
Structure prediction by ZEFSAII (Michael W. Deem and Ramdas Pophale) SiO2 
 PCOD9084683
Probable space group: P -1
;
_chemical_formula_sum "Si O2"
_cell_formula_units_Z 14
_cell_length_a 26.509387
_cell_length_b 21.624360
_cell_length_c 5.725473
_cell_angle_alpha 98.487212
_cell_angle_beta 85.979779
_cell_angle_gamma 168.457949
_cell_volume 601.740382
_symmetry_space_group_name_H-M "P -1"
_symmetry_group_IT_number 2
_symmetry_cell_setting 'triclinic'
loop_
_space_group_symop_operation_xyz
x,y,z
-x,-y,-z
loop_
_atom_site_type_symbol
_atom_site_label
_atom_site_fract_x
_atom_site_fract_y
_atom_site_fract_z
Si Si1 0.206489 0.221626 0.869713
Si Si2 0.238573 0.925031 0.411897
Si Si3 0.444131 0.289714 0.311057
Si Si4 0.219014 0.097482 0.665536
Si Si5 0.161769 0.695900 0.311455
Si Si6 0.017165 0.302508 0.242318
Si Si7 0.285972 0.719737 0.107889
O O1 0.278380 0.354827 0.706425
O O2 0.128187 0.057807 0.712559
O O3 0.500764 0.570753 0.094393
O O4 0.000000 0.000000 0.000000
O O5 0.333561 0.968876 0.414507
O O6 0.088747 0.768611 0.604354
O O7 0.449065 0.235449 0.448544
O O8 0.999493 0.631396 0.133772
O O9 0.318175 0.196566 0.433178
O O10 0.222405 0.002399 0.031299
O O11 0.993043 0.772214 0.638335
O O12 0.293007 0.787365 0.312829
O O13 0.000000 0.500000 0.500000
O O14 0.000000 0.500000 0.000000
O O15 0.278524 0.644672 0.205185
O O16 0.500000 0.000000 0.000000
#
# Coordination Sequence:
#
# PCOD9084683 Si02
#       7
#     2   2   2   2   2   2   2
#     4  10  20  35  57  86 111 138 184 233 284 345
#     4   9  18  34  57  75 105 150 190 228 284 346
#     4   9  18  34  58  76 105 147 184 224 283 346
#     4   9  19  36  58  80 107 151 180 224 290 342
#     4  10  19  35  56  81 107 151 195 236 289 350
#     4   9  17  34  56  73 105 145 188 223 280 350
#     4  10  20  33  53  81 110 144 189 242 293 336
#
# _framework density 23.265844999999999
#
# number of rings (size 3 to 8) (size 9 to 14) (size 15 to 20)
#    0.000    2.571    1.429    0.429    0.000    1.143 
#    2.571    0.000   25.143    0.000    0.000    0.000 
#    0.000    0.000    0.000    0.000    0.000    0.000 
#
# Total GULP energy -78055.721565 kJ/mol
# GULP energy per Si atom -5575.408683 kJ/mol
# Density = 2.321289 g / cm^3
# Si number density = 23.265845 Si / 1000 Ang^3
#
#
#
# Elastic Constant Matrix: (Units=GPa)
#
#
# Indices 1 2 3 4 5 6 
#
# 1 139.3615 77.4693 49.1537 -23.7430 -34.3462 -30.4501
# 2 77.4693 151.0652 37.1686 -38.8575 -7.0936 -38.3986
# 3 49.1537 37.1686 108.5326 -15.3770 -28.9406 -11.4654
# 4 -23.7430 -38.8575 -15.3770 52.7156 1.6284 16.9123
# 5 -34.3462 -7.0936 -28.9406 1.6284 45.8950 9.3884
# 6 -30.4501 -38.3986 -11.4654 16.9123 9.3884 32.3398
#
#
#
# Elastic Compliance Matrix: (Units=1/GPa)
#
#
# Indices 1 2 3 4 5 6 
#
# 1 0.013237 -0.004960 -0.001957 0.000353 0.007152 0.003619
# 2 -0.004960 0.012718 -0.001929 0.003774 -0.004982 0.009220
# 3 -0.001957 -0.001929 0.012525 0.001998 0.006608 -0.002656
# 4 0.000353 0.003774 0.001998 0.025120 0.002949 -0.008471
# 5 0.007152 -0.004982 0.006608 0.002949 0.032003 -0.007672
# 6 0.003619 0.009220 -0.002656 -0.008471 -0.007672 0.050992
#
#
# Mechanical properties :
#
#
# Convention : Reuss Voigt Hill
#
# Bulk Modulus (GPa) = 48.10309 80.72695 64.41502
# Shear Modulus (GPa) = 29.20289 41.86793 35.53541
#
# Velocity S-wave (km/s) = 3.54670 4.24671 3.91239
# Velocity P-wave (km/s) = 6.12310 7.66935 6.93943
#
# Compressibility (1/GPa) = 0.02078869
#
# Stress axis : x y z
#
# Youngs Moduli (GPa) = 75.54849 78.62746 79.83872
#
# Poissons Ratio (x) = 0.38999 0.15621
# Poissons Ratio (y) = 0.37472 0.15402
# Poissons Ratio (z) = 0.14782 0.15168
#
# Static dielectric constant tensor:
#      x y z
#    x 1.862230 -0.044130 -0.011710 
#    y -0.044130 1.910190 -0.053130 
#    z -0.011710 -0.053130 1.786190 
# 
# From -- ./inp_files/43442.got.cif
#   From: 2010.05.17/outbox.cif.g08.bks.cpg/sg2_22_cif.got.tgz:43442.got - 2010.06.03 11:33:40.
