data_PCOD9084694
_publ_section_title
;
Structure prediction by ZEFSAII (Michael W. Deem and Ramdas Pophale) SiO2 
 PCOD9084694
Probable space group: P -1
;
_chemical_formula_sum "Si O2"
_cell_formula_units_Z 16
_cell_length_a 24.728413
_cell_length_b 12.782290
_cell_length_c 8.950036
_cell_angle_alpha 53.402025
_cell_angle_beta 135.613923
_cell_angle_gamma 161.843902
_cell_volume 570.321802
_symmetry_space_group_name_H-M "P -1"
_symmetry_group_IT_number 2
_symmetry_cell_setting 'triclinic'
loop_
_space_group_symop_operation_xyz
x,y,z
-x,-y,-z
loop_
_atom_site_type_symbol
_atom_site_label
_atom_site_fract_x
_atom_site_fract_y
_atom_site_fract_z
Si Si1 0.912881 0.717286 0.587035
Si Si2 0.579560 0.589223 0.247941
Si Si3 0.189883 0.699686 0.392138
Si Si4 0.845268 0.266316 0.251416
Si Si5 0.210998 0.104118 0.119962
Si Si6 0.487841 0.803675 0.114863
Si Si7 0.866523 0.654599 0.015688
Si Si8 0.588795 0.312383 0.484204
O O1 0.914734 0.608894 0.559426
O O2 0.666118 0.358868 0.451533
O O3 0.000000 0.000000 0.500000
O O4 0.054116 0.882479 0.859952
O O5 0.677556 0.600149 0.419556
O O6 0.725523 0.939107 0.284101
O O7 0.500000 0.500000 0.000000
O O8 0.390083 0.285746 0.258379
O O9 0.003697 0.512646 0.211552
O O10 0.358539 0.972078 0.629197
O O11 0.336064 0.933143 0.333932
O O12 0.000000 0.500000 0.500000
O O13 0.654925 0.069363 0.079542
O O14 0.350465 0.455059 0.120560
O O15 0.052771 0.845052 0.172310
O O16 0.300370 0.613317 0.946494
O O17 0.708718 0.428849 0.756375
O O18 0.000000 0.000000 0.000000
#
# Coordination Sequence:
#
# PCOD9084694 Si02
#       8
#     2   2   2   2   2   2   2   2
#     4  11  21  36  58  82 109 151 196 236 284 338
#     4  11  21  37  59  85 116 153 193 237 284 344
#     4  10  19  35  56  82 114 147 187 239 285 338
#     4   9  18  34  55  80 112 150 186 233 284 332
#     4   9  18  33  55  81 112 145 184 235 281 334
#     4   8  16  32  55  77 107 146 183 229 281 332
#     4   8  15  32  54  80 112 147 185 233 282 334
#     4  10  21  35  58  87 114 151 194 236 288 340
#
# _framework density 28.054334999999998
#
# number of rings (size 3 to 8) (size 9 to 14) (size 15 to 20)
#    0.000    2.500    0.000    2.625    0.000    0.000 
#    0.000   25.625    0.000   25.500    0.000    0.000 
#    0.000    0.000    0.000    0.000    0.000    0.000 
#
# Total GULP energy -89548.408243 kJ/mol
# GULP energy per Si atom -5596.775515 kJ/mol
# Density = 2.799048 g / cm^3
# Si number density = 28.054335 Si / 1000 Ang^3
#
#
#
# Elastic Constant Matrix: (Units=GPa)
#
#
# Indices 1 2 3 4 5 6 
#
# 1 210.8037 43.4328 52.0467 28.9247 57.6312 13.2291
# 2 43.4328 116.4683 38.7473 27.8188 6.1599 14.5139
# 3 52.0467 38.7473 104.3506 6.8506 -13.8271 -19.0145
# 4 28.9247 27.8188 6.8506 46.1052 -2.3637 16.7074
# 5 57.6312 6.1599 -13.8271 -2.3637 57.4085 26.5892
# 6 13.2291 14.5139 -19.0145 16.7074 26.5892 68.8141
#
#
#
# Elastic Compliance Matrix: (Units=1/GPa)
#
#
# Indices 1 2 3 4 5 6 
#
# 1 0.011359 0.000281 -0.006512 -0.008510 -0.015148 0.003877
# 2 0.000281 0.011824 -0.004690 -0.006198 -0.002256 -0.001467
# 3 -0.006512 -0.004690 0.015929 0.004518 0.010346 0.001548
# 4 -0.008510 -0.006198 0.004518 0.034836 0.016694 -0.010717
# 5 -0.015148 -0.002256 0.010346 0.016694 0.042667 -0.014292
# 6 0.003877 -0.001467 0.001548 -0.010717 -0.014292 0.022648
#
#
# Mechanical properties :
#
#
# Convention : Reuss Voigt Hill
#
# Bulk Modulus (GPa) = 57.90376 77.78623 67.84500
# Shear Modulus (GPa) = 29.96489 54.29194 42.12842
#
# Velocity S-wave (km/s) = 3.27173 4.40391 3.87935
# Velocity P-wave (km/s) = 5.91244 7.32437 6.65595
#
# Compressibility (1/GPa) = 0.01727003
#
# Stress axis : x y z
#
# Youngs Moduli (GPa) = 88.03408 84.57315 62.77843
#
# Poissons Ratio (x) = -0.02377 0.40882
# Poissons Ratio (y) = -0.02475 0.29444
# Poissons Ratio (z) = 0.57329 0.39666
#
# Static dielectric constant tensor:
#      x y z
#    x 2.241290 0.075720 0.051560 
#    y 0.075720 2.329510 0.021540 
#    z 0.051560 0.021540 2.014570 
# 
# From -- ./inp_files/298139.got.cif
#   From: 2010.05.17/outbox.cif.g08.bks.cpg/sg2_150_cif.got.tgz:298139.got - 2010.06.03 11:33:40.
