data_PCOD9084575
_publ_section_title
;
Structure prediction by ZEFSAII (Michael W. Deem and Ramdas Pophale) SiO2 
 PCOD9084575
Probable space group: P -1
;
_chemical_formula_sum "Si O2"
_cell_formula_units_Z 12
_cell_length_a 16.452469
_cell_length_b 9.998044
_cell_length_c 12.817085
_cell_angle_alpha 148.046758
_cell_angle_beta 32.968123
_cell_angle_gamma 152.666932
_cell_volume 479.781286
_symmetry_space_group_name_H-M "P -1"
_symmetry_group_IT_number 2
_symmetry_cell_setting 'triclinic'
loop_
_space_group_symop_operation_xyz
x,y,z
-x,-y,-z
loop_
_atom_site_type_symbol
_atom_site_label
_atom_site_fract_x
_atom_site_fract_y
_atom_site_fract_z
Si Si1 0.597207 0.529498 0.136153
Si Si2 0.831168 0.419672 0.057260
Si Si3 0.912385 0.152714 0.099715
Si Si4 0.492488 0.180629 0.725987
Si Si5 0.221754 0.807530 0.245764
Si Si6 0.551002 0.835426 0.584307
O O1 0.631394 0.273876 0.951807
O O2 0.540511 0.617936 0.360355
O O3 0.807601 0.845651 0.083204
O O4 0.472876 0.507851 0.157386
O O5 0.779667 0.145104 0.845475
O O6 0.650179 0.325960 0.251503
O O7 0.924666 0.725411 0.080246
O O8 0.000000 0.500000 0.000000
O O9 0.009752 0.481741 0.277316
O O10 0.730261 0.052146 0.162636
O O11 0.605371 0.156771 0.678902
O O12 0.500000 0.000000 0.500000
O O13 0.297386 0.067977 0.425270
#
# Coordination Sequence:
#
# PCOD9084575 Si02
#       6
#     2   2   2   2   2   2
#     4   9  19  36  54  76 110 133 173 210 262 306
#     4  10  19  35  55  74 106 143 170 210 264 312
#     4   8  18  33  55  74 106 139 169 212 261 305
#     4   8  16  32  53  77 103 137 171 205 257 311
#     4  10  21  32  57  80 103 133 178 218 252 302
#     4  11  19  34  57  79 103 138 175 210 258 306
#
# _framework density 25.011396999999999
#
# number of rings (size 3 to 8) (size 9 to 14) (size 15 to 20)
#    2.000    0.667    1.667    1.000    0.000    2.000 
#    0.000    0.000    0.000    2.000    0.000    0.000 
#    0.000    0.000    0.000    0.000    0.000    0.000 
#
# Total GULP energy -66809.111449 kJ/mol
# GULP energy per Si atom -5567.425954 kJ/mol
# Density = 2.495447 g / cm^3
# Si number density = 25.011397 Si / 1000 Ang^3
#
#
#
# Elastic Constant Matrix: (Units=GPa)
#
#
# Indices 1 2 3 4 5 6 
#
# 1 143.5864 24.5940 18.8669 20.2098 30.3224 8.9805
# 2 24.5940 85.1315 27.8878 -11.5926 20.9504 11.1798
# 3 18.8669 27.8878 93.7113 -0.9536 24.9295 -0.1103
# 4 20.2098 -11.5926 -0.9536 31.7333 -10.7801 13.6435
# 5 30.3224 20.9504 24.9295 -10.7801 36.3706 3.3234
# 6 8.9805 11.1798 -0.1103 13.6435 3.3234 45.2711
#
#
#
# Elastic Compliance Matrix: (Units=1/GPa)
#
#
# Indices 1 2 3 4 5 6 
#
# 1 0.012459 -0.003407 0.002408 -0.016172 -0.015267 0.004370
# 2 -0.003407 0.016437 -0.004115 0.010946 0.000049 -0.006696
# 3 0.002408 -0.004115 0.014693 -0.008661 -0.012651 0.004113
# 4 -0.016172 0.010946 -0.008661 0.067029 0.035018 -0.022287
# 5 -0.015267 0.000049 -0.012651 0.035018 0.060342 -0.011997
# 6 0.004370 -0.006696 0.004113 -0.022287 -0.011997 0.030483
#
#
# Mechanical properties :
#
#
# Convention : Reuss Voigt Hill
#
# Bulk Modulus (GPa) = 29.97625 51.68073 40.82849
# Shear Modulus (GPa) = 22.44259 39.41370 30.92815
#
# Velocity S-wave (km/s) = 2.99874 3.97398 3.52029
# Velocity P-wave (km/s) = 4.89908 6.46254 5.73434
#
# Compressibility (1/GPa) = 0.03335974
#
# Stress axis : x y z
#
# Youngs Moduli (GPa) = 80.26533 60.84008 68.05893
#
# Poissons Ratio (x) = 0.20727 -0.16386
# Poissons Ratio (y) = 0.27345 0.28007
# Poissons Ratio (z) = -0.19325 0.25036
#
# Static dielectric constant tensor:
#      x y z
#    x 2.123580 -0.034890 -0.002600 
#    y -0.034890 2.071600 0.080170 
#    z -0.002600 0.080170 2.005840 
# 
# From -- ./inp_files/168292.got.cif
#   From: 2010.05.17/outbox.cif.g08.bks.cpg/sg2_85_cif.got.tgz:168292.got - 2010.06.03 11:33:40.
