data_PCOD9084675
_publ_section_title
;
Structure prediction by ZEFSAII (Michael W. Deem and Ramdas Pophale) SiO2 
 PCOD9084675
Probable space group: P -1
;
_chemical_formula_sum "Si O2"
_cell_formula_units_Z 16
_cell_length_a 16.959629
_cell_length_b 12.514951
_cell_length_c 11.742424
_cell_angle_alpha 47.628542
_cell_angle_beta 46.040614
_cell_angle_gamma 22.200409
_cell_volume 673.389257
_symmetry_space_group_name_H-M "P -1"
_symmetry_group_IT_number 2
_symmetry_cell_setting 'triclinic'
loop_
_space_group_symop_operation_xyz
x,y,z
-x,-y,-z
loop_
_atom_site_type_symbol
_atom_site_label
_atom_site_fract_x
_atom_site_fract_y
_atom_site_fract_z
Si Si1 0.839459 0.917181 0.565203
Si Si2 0.622076 0.898004 0.068077
Si Si3 0.716447 0.775997 0.650821
Si Si4 0.115590 0.689834 0.269651
Si Si5 0.280945 0.893955 0.222110
Si Si6 0.833058 0.399710 0.346698
Si Si7 0.495655 0.256895 0.386941
Si Si8 0.635859 0.370974 0.071065
O O1 0.779970 0.833537 0.629730
O O2 0.912827 0.942121 0.374787
O O3 0.048293 0.657401 0.623919
O O4 0.670116 0.167623 0.647495
O O5 0.744958 0.615740 0.190819
O O6 0.456139 0.117889 0.179129
O O7 0.500000 0.000000 0.000000
O O8 0.753516 0.895791 0.920420
O O9 0.895722 0.459105 0.662248
O O10 0.602334 0.984698 0.509736
O O11 0.323432 0.446771 0.321163
O O12 0.172886 0.742928 0.079973
O O13 0.471066 0.626869 0.143480
O O14 0.047040 0.080941 0.307858
O O15 0.635375 0.548098 0.505029
O O16 0.674488 0.169031 0.230762
O O17 0.500000 0.500000 0.000000
#
# Coordination Sequence:
#
# PCOD9084675 Si02
#       8
#     2   2   2   2   2   2   2   2
#     4   9  20  35  55  87 114 148 185 237 283 336
#     4  11  18  32  58  88 120 142 183 235 286 332
#     4  11  19  33  59  84 115 150 186 237 285 332
#     4  10  19  37  57  83 113 151 188 236 281 335
#     4  10  19  35  56  80 113 150 186 232 281 330
#     4   8  19  34  55  85 116 141 190 233 275 339
#     4   9  20  36  54  84 113 147 200 227 280 339
#     4  10  21  38  59  81 111 153 194 231 281 342
#
# _framework density 23.760403
#
# number of rings (size 3 to 8) (size 9 to 14) (size 15 to 20)
#    0.750    1.500    2.500    1.125    0.000    0.500 
#    0.000    1.250    0.000    0.000    0.000    0.000 
#    0.000    0.000    0.000    0.000    0.000    0.000 
#
# Total GULP energy -89213.038159 kJ/mol
# GULP energy per Si atom -5575.814885 kJ/mol
# Density = 2.370632 g / cm^3
# Si number density = 23.760403 Si / 1000 Ang^3
#
#
#
# Elastic Constant Matrix: (Units=GPa)
#
#
# Indices 1 2 3 4 5 6 
#
# 1 73.2283 13.7092 31.5566 -4.0624 13.9699 6.3456
# 2 13.7092 61.2614 62.1465 17.0927 12.1424 10.3057
# 3 31.5566 62.1465 183.7521 31.7797 -3.8461 4.0476
# 4 -4.0624 17.0927 31.7797 45.6063 -9.6135 11.3213
# 5 13.9699 12.1424 -3.8461 -9.6135 38.2869 -3.2779
# 6 6.3456 10.3057 4.0476 11.3213 -3.2779 27.0576
#
#
#
# Elastic Compliance Matrix: (Units=1/GPa)
#
#
# Indices 1 2 3 4 5 6 
#
# 1 0.017264 0.001825 -0.004277 0.004032 -0.006862 -0.006622
# 2 0.001825 0.032711 -0.010564 -0.005037 -0.014302 -0.010932
# 3 -0.004277 -0.010564 0.010423 -0.003972 0.005456 0.005790
# 4 0.004032 -0.005037 -0.003972 0.030960 0.006595 -0.010588
# 5 -0.006862 -0.014302 0.005456 0.006595 0.036034 0.007846
# 6 -0.006622 -0.010932 0.005790 -0.010588 0.007846 0.047189
#
#
# Mechanical properties :
#
#
# Convention : Reuss Voigt Hill
#
# Bulk Modulus (GPa) = 29.09896 59.22960 44.16428
# Shear Modulus (GPa) = 23.57733 36.24546 29.91139
#
# Velocity S-wave (km/s) = 3.15349 3.90995 3.55191
# Velocity P-wave (km/s) = 5.05299 6.73540 5.95392
#
# Compressibility (1/GPa) = 0.03436549
#
# Stress axis : x y z
#
# Youngs Moduli (GPa) = 57.92385 30.57114 95.94162
#
# Poissons Ratio (x) = -0.05578 0.41034
# Poissons Ratio (y) = -0.10569 1.01351
# Poissons Ratio (z) = 0.24774 0.32295
#
# Static dielectric constant tensor:
#      x y z
#    x 1.920070 -0.018200 -0.029820 
#    y -0.018200 1.955090 0.053960 
#    z -0.029820 0.053960 1.936350 
# 
# From -- ./inp_files/464368.got.cif
#   From: 2010.05.17/outbox.cif.g08.bks.cpg/sg2_233_cif.got.tgz:464368.got - 2010.06.03 11:33:40.
