data_PCOD9084740
_publ_section_title
;
Structure prediction by ZEFSAII (Michael W. Deem and Ramdas Pophale) SiO2 
 PCOD9084740
Probable space group: P -1
;
_chemical_formula_sum "Si O2"
_cell_formula_units_Z 14
_cell_length_a 6.879331
_cell_length_b 17.820947
_cell_length_c 13.833087
_cell_angle_alpha 31.806849
_cell_angle_beta 65.380145
_cell_angle_gamma 50.927373
_cell_volume 663.898388
_symmetry_space_group_name_H-M "P -1"
_symmetry_group_IT_number 2
_symmetry_cell_setting 'triclinic'
loop_
_space_group_symop_operation_xyz
x,y,z
-x,-y,-z
loop_
_atom_site_type_symbol
_atom_site_label
_atom_site_fract_x
_atom_site_fract_y
_atom_site_fract_z
Si Si1 0.652924 0.224059 0.310961
Si Si2 0.708354 0.894291 0.989150
Si Si3 0.725015 0.419603 0.785261
Si Si4 0.707458 0.189637 0.554027
Si Si5 0.844625 0.437922 0.966752
Si Si6 0.738649 0.973440 0.416585
Si Si7 0.436781 0.234835 0.022915
O O1 0.642403 0.166979 0.482435
O O2 0.354423 0.359664 0.188979
O O3 0.806960 0.077808 0.359853
O O4 0.780437 0.331529 0.166478
O O5 0.592806 0.833860 0.997469
O O6 0.763073 0.027958 0.782488
O O7 0.979195 0.718364 0.161343
O O8 0.500000 0.000000 0.000000
O O9 0.546858 0.621388 0.568690
O O10 0.762809 0.420915 0.892981
O O11 0.567446 0.338575 0.879921
O O12 0.968504 0.189207 0.494047
O O13 0.145171 0.359929 0.989273
O O14 0.607707 0.074252 0.235093
O O15 0.500000 0.000000 0.500000
#
# Coordination Sequence:
#
# PCOD9084740 Si02
#       7
#     2   2   2   2   2   2   2
#     4  10  19  35  56  88 133 170 208 244 296 368
#     4  11  25  48  70  89 120 164 212 272 331 372
#     4  10  22  43  64  96 128 160 209 264 313 379
#     4  11  23  42  63  91 137 165 209 263 304 373
#     4   9  19  35  58  89 130 172 201 248 303 367
#     4  12  22  33  58  97 129 170 211 242 301 376
#     4  11  21  40  65  90 129 164 208 261 316 369
#
# _framework density 21.087564
#
# number of rings (size 3 to 8) (size 9 to 14) (size 15 to 20)
#    0.000    1.429    2.857    3.000    2.000    1.714 
#    2.571    0.714    0.000    0.000    0.000    0.000 
#    0.000    0.000    0.000    0.000    0.000    0.000 
#
# Total GULP energy -78150.898082 kJ/mol
# GULP energy per Si atom -5582.207006 kJ/mol
# Density = 2.103957 g / cm^3
# Si number density = 21.087564 Si / 1000 Ang^3
#
#
#
# Elastic Constant Matrix: (Units=GPa)
#
#
# Indices 1 2 3 4 5 6 
#
# 1 92.3700 29.3968 19.0205 -13.9416 4.2443 -15.2319
# 2 29.3968 118.4609 22.7375 -24.8847 11.3391 -24.8953
# 3 19.0205 22.7375 48.5290 -20.5068 9.1334 -8.8627
# 4 -13.9416 -24.8847 -20.5068 32.0296 -8.6369 7.1521
# 5 4.2443 11.3391 9.1334 -8.6369 17.7920 -6.7132
# 6 -15.2319 -24.8953 -8.8627 7.1521 -6.7132 20.7458
#
#
#
# Elastic Compliance Matrix: (Units=1/GPa)
#
#
# Indices 1 2 3 4 5 6 
#
# 1 0.013164 -0.000947 -0.002964 0.002209 0.002859 0.007427
# 2 -0.000947 0.012661 -0.000719 0.006309 0.000139 0.012062
# 3 -0.002964 -0.000719 0.030156 0.015273 -0.005893 0.002671
# 4 0.002209 0.006309 0.015273 0.049698 0.012761 0.002714
# 5 0.002859 0.000139 -0.005893 0.012761 0.071647 0.018534
# 6 0.007427 0.012062 0.002671 0.002714 0.018534 0.074333
#
#
# Mechanical properties :
#
#
# Convention : Reuss Voigt Hill
#
# Bulk Modulus (GPa) = 21.40326 44.62995 33.01660
# Shear Modulus (GPa) = 18.08367 26.66049 22.37208
#
# Velocity S-wave (km/s) = 2.93158 3.55952 3.26070
# Velocity P-wave (km/s) = 4.65087 6.17282 5.46508
#
# Compressibility (1/GPa) = 0.04672186
#
# Stress axis : x y z
#
# Youngs Moduli (GPa) = 75.96205 78.98105 33.16142
#
# Poissons Ratio (x) = 0.07477 0.09830
# Poissons Ratio (y) = 0.07191 0.02383
# Poissons Ratio (z) = 0.22518 0.05676
#
# Static dielectric constant tensor:
#      x y z
#    x 1.797880 -0.001490 -0.043830 
#    y -0.001490 1.809830 -0.120930 
#    z -0.043830 -0.120930 1.882830 
# 
# From -- ./inp_files/90306.got.cif
#   From: 2010.05.17/outbox.cif.g08.bks.cpg/sg2_46_cif.got.tgz:90306.got - 2010.06.03 11:33:40.
