data_PCOD9084370
_publ_section_title
;
Structure prediction by ZEFSAII (Michael W. Deem and Ramdas Pophale) SiO2 
 PCOD9084370
Probable space group: P -1
;
_chemical_formula_sum "Si O2"
_cell_formula_units_Z 16
_cell_length_a 19.679411
_cell_length_b 9.132851
_cell_length_c 19.234108
_cell_angle_alpha 151.198858
_cell_angle_beta 153.553226
_cell_angle_gamma 36.136577
_cell_volume 737.452622
_symmetry_space_group_name_H-M "P -1"
_symmetry_group_IT_number 2
_symmetry_cell_setting 'triclinic'
loop_
_space_group_symop_operation_xyz
x,y,z
-x,-y,-z
loop_
_atom_site_type_symbol
_atom_site_label
_atom_site_fract_x
_atom_site_fract_y
_atom_site_fract_z
Si Si1 0.838590 0.088092 0.083049
Si Si2 0.832697 0.804192 0.561459
Si Si3 0.677758 0.960897 0.139364
Si Si4 0.644598 0.137399 0.653625
Si Si5 0.091455 0.665274 0.454009
Si Si6 0.848311 0.301911 0.032817
Si Si7 0.647042 0.687579 0.205487
Si Si8 0.611500 0.837117 0.876405
O O1 0.841726 0.073296 0.996153
O O2 0.772227 0.441961 0.183276
O O3 0.015760 0.025431 0.243718
O O4 0.719663 0.894712 0.933388
O O5 0.908886 0.485365 0.532540
O O6 0.727369 0.770855 0.384906
O O7 0.722433 0.949269 0.582008
O O8 0.743637 0.624371 0.084446
O O9 0.738996 0.237064 0.352608
O O10 0.699988 0.964127 0.077213
O O11 0.500000 0.000000 0.000000
O O12 0.598759 0.482682 0.729706
O O13 0.500000 0.000000 0.500000
O O14 0.778599 0.166586 0.844966
O O15 0.015501 0.428755 0.236957
O O16 0.000000 0.000000 0.500000
O O17 0.559583 0.987386 0.214509
O O18 0.500000 0.500000 0.000000
#
# Coordination Sequence:
#
# PCOD9084370 Si02
#       8
#     2   2   2   2   2   2   2   2
#     4  10  21  41  69  99 131 163 218 276 345 394
#     4  11  24  41  67  95 135 175 219 276 328 389
#     4  10  19  34  63  96 132 166 216 268 331 388
#     4  11  27  45  66  93 134 181 235 267 320 396
#     4   9  19  36  61  95 127 165 210 265 333 390
#     4   9  21  40  62  91 130 171 210 274 327 385
#     4  10  21  38  68 100 133 165 212 277 342 391
#     4  10  23  42  65  96 133 177 219 269 329 396
#
# _framework density 21.696307999999998
#
# number of rings (size 3 to 8) (size 9 to 14) (size 15 to 20)
#    0.000    2.000    0.000    2.625    7.000    4.000 
#    0.000    2.500    0.000    0.000    0.000    0.000 
#    0.000    0.000    0.000    0.000    0.000    0.000 
#
# Total GULP energy -89177.131670 kJ/mol
# GULP energy per Si atom -5573.570729 kJ/mol
# Density = 2.164693 g / cm^3
# Si number density = 21.696308 Si / 1000 Ang^3
#
#
#
# Elastic Constant Matrix: (Units=GPa)
#
#
# Indices 1 2 3 4 5 6 
#
# 1 78.4479 35.4230 38.5864 1.2786 3.4859 5.0133
# 2 35.4230 115.5705 49.2239 0.1551 9.3888 8.5242
# 3 38.5864 49.2239 111.6022 -21.3555 5.5739 9.4633
# 4 1.2786 0.1551 -21.3555 35.2056 3.6653 0.7257
# 5 3.4859 9.3888 5.5739 3.6653 40.1896 -10.6274
# 6 5.0133 8.5242 9.4633 0.7257 -10.6274 38.3458
#
#
#
# Elastic Compliance Matrix: (Units=1/GPa)
#
#
# Indices 1 2 3 4 5 6 
#
# 1 0.016679 -0.002900 -0.005217 -0.003784 0.000273 -0.000101
# 2 -0.002900 0.011695 -0.004353 -0.002333 -0.002110 -0.001687
# 3 -0.005217 -0.004353 0.014850 0.009503 -0.002198 -0.002804
# 4 -0.003784 -0.002333 0.009503 0.034850 -0.004478 -0.003233
# 5 0.000273 -0.002110 -0.002198 -0.004478 0.028429 0.008940
# 6 -0.000101 -0.001687 -0.002804 -0.003233 0.008940 0.029697
#
#
# Mechanical properties :
#
#
# Convention : Reuss Voigt Hill
#
# Bulk Modulus (GPa) = 54.69303 61.34302 58.01803
# Shear Modulus (GPa) = 29.89819 34.90736 32.40277
#
# Velocity S-wave (km/s) = 3.71621 4.01547 3.86874
# Velocity P-wave (km/s) = 6.60884 7.05929 6.83778
#
# Compressibility (1/GPa) = 0.01828387
#
# Stress axis : x y z
#
# Youngs Moduli (GPa) = 59.95674 85.50849 67.33857
#
# Poissons Ratio (x) = 0.24796 0.35128
# Poissons Ratio (y) = 0.17386 0.29316
# Poissons Ratio (z) = 0.31278 0.37226
#
# Static dielectric constant tensor:
#      x y z
#    x 1.893350 0.027240 -0.022810 
#    y 0.027240 1.870970 -0.022490 
#    z -0.022810 -0.022490 1.826020 
# 
# From -- ./inp_files/575628.got.cif
#   From: 2010.05.17/outbox.cif.g08.bks.cpg/sg2_288_cif.got.tgz:575628.got - 2010.06.03 11:33:40.
