data_PCOD9084277
_publ_section_title
;
Structure prediction by ZEFSAII (Michael W. Deem and Ramdas Pophale) SiO2 
 PCOD9084277
Probable space group: P -1
;
_chemical_formula_sum "Si O2"
_cell_formula_units_Z 16
_cell_length_a 17.133424
_cell_length_b 8.544382
_cell_length_c 10.889364
_cell_angle_alpha 60.546088
_cell_angle_beta 143.828954
_cell_angle_gamma 100.371168
_cell_volume 742.695178
_symmetry_space_group_name_H-M "P -1"
_symmetry_group_IT_number 2
_symmetry_cell_setting 'triclinic'
loop_
_space_group_symop_operation_xyz
x,y,z
-x,-y,-z
loop_
_atom_site_type_symbol
_atom_site_label
_atom_site_fract_x
_atom_site_fract_y
_atom_site_fract_z
Si Si1 0.126867 0.446046 0.509675
Si Si2 0.778644 0.982086 0.132969
Si Si3 0.070713 0.794813 0.887672
Si Si4 0.773905 0.640117 0.824199
Si Si5 0.486979 0.361732 0.647409
Si Si6 0.866241 0.986284 0.758856
Si Si7 0.207265 0.333805 0.907034
Si Si8 0.723240 0.366065 0.552360
O O1 0.211794 0.447005 0.744806
O O2 0.186721 0.527459 0.442602
O O3 0.959697 0.571155 0.290529
O O4 0.160206 0.213787 0.629416
O O5 0.890108 0.077765 0.210354
O O6 0.631441 0.161474 0.918415
O O7 0.755072 0.886011 0.011144
O O8 0.099467 0.578058 0.958247
O O9 0.434019 0.482656 0.659402
O O10 0.920636 0.929936 0.711022
O O11 0.648008 0.685657 0.547712
O O12 0.832670 0.807001 0.830535
O O13 0.708327 0.647422 0.874276
O O14 0.500000 0.500000 0.500000
O O15 0.732665 0.193263 0.538962
O O16 0.191609 0.734844 0.174582
O O17 0.000000 0.000000 0.000000
#
# Coordination Sequence:
#
# PCOD9084277 Si02
#       8
#     2   2   2   2   2   2   2   2
#     4   9  20  36  64  85 122 159 200 240 304 367
#     4  10  19  39  61  90 117 167 196 238 305 354
#     4  10  19  34  62  90 119 148 202 257 300 343
#     4  11  21  35  61  95 120 154 198 255 298 351
#     4  11  23  40  61  88 124 156 208 251 288 353
#     4  10  20  33  59  89 118 148 197 249 306 342
#     4   9  19  36  60  87 121 153 203 235 307 353
#     4  10  19  36  59  85 115 161 197 243 296 347
#
# _framework density 21.543158999999999
#
# number of rings (size 3 to 8) (size 9 to 14) (size 15 to 20)
#    0.750    1.250    2.500    4.125    0.000    2.000 
#    0.000    0.625    5.500    1.500    0.000    0.000 
#    0.000    0.000    0.000    0.000    0.000    0.000 
#
# Total GULP energy -89199.223443 kJ/mol
# GULP energy per Si atom -5574.951465 kJ/mol
# Density = 2.149413 g / cm^3
# Si number density = 21.543159 Si / 1000 Ang^3
#
#
#
# Elastic Constant Matrix: (Units=GPa)
#
#
# Indices 1 2 3 4 5 6 
#
# 1 109.4564 33.4215 49.2893 -26.2287 19.9122 -9.0040
# 2 33.4215 80.0748 28.5116 -32.9073 0.0027 -0.8145
# 3 49.2893 28.5116 75.5306 -35.3807 15.1414 -5.9629
# 4 -26.2287 -32.9073 -35.3807 38.3860 -10.5109 1.3016
# 5 19.9122 0.0027 15.1414 -10.5109 32.8488 -19.0774
# 6 -9.0040 -0.8145 -5.9629 1.3016 -19.0774 29.0164
#
#
#
# Elastic Compliance Matrix: (Units=1/GPa)
#
#
# Indices 1 2 3 4 5 6 
#
# 1 0.014503 -0.004591 -0.007967 -0.003298 -0.007280 -0.001904
# 2 -0.004591 0.022503 0.002823 0.021977 0.012644 0.007114
# 3 -0.007967 0.002823 0.028292 0.023217 0.000969 0.003017
# 4 -0.003298 0.021977 0.023217 0.069838 0.023227 0.016503
# 5 -0.007280 0.012644 0.000969 0.023227 0.065103 0.040056
# 6 -0.001904 0.007114 0.003017 0.016503 0.040056 0.060288
#
#
# Mechanical properties :
#
#
# Convention : Reuss Voigt Hill
#
# Bulk Modulus (GPa) = 21.82050 54.16740 37.99395
# Shear Modulus (GPa) = 16.93353 30.30619 23.61986
#
# Velocity S-wave (km/s) = 2.80666 3.75476 3.31478
# Velocity P-wave (km/s) = 4.54465 6.63294 5.68549
#
# Compressibility (1/GPa) = 0.04582847
#
# Stress axis : x y z
#
# Youngs Moduli (GPa) = 68.95172 44.43871 35.34514
#
# Poissons Ratio (x) = 0.20402 0.28160
# Poissons Ratio (y) = 0.31655 -0.09979
# Poissons Ratio (z) = 0.54935 -0.12546
#
# Static dielectric constant tensor:
#      x y z
#    x 1.825810 -0.037690 -0.003450 
#    y -0.037690 1.813250 0.020580 
#    z -0.003450 0.020580 1.830630 
# 
# From -- ./inp_files/540652.got.cif
#   From: 2010.05.17/outbox.cif.g08.bks.cpg/sg2_271_cif.got.tgz:540652.got - 2010.06.03 11:33:40.
