data_PCOD9084773
_publ_section_title
;
Structure prediction by ZEFSAII (Michael W. Deem and Ramdas Pophale) SiO2 
 PCOD9084773
Probable space group: P -1
;
_chemical_formula_sum "Si O2"
_cell_formula_units_Z 16
_cell_length_a 16.170759
_cell_length_b 8.494492
_cell_length_c 17.936288
_cell_angle_alpha 49.747067
_cell_angle_beta 159.059586
_cell_angle_gamma 127.482972
_cell_volume 671.916001
_symmetry_space_group_name_H-M "P -1"
_symmetry_group_IT_number 2
_symmetry_cell_setting 'triclinic'
loop_
_space_group_symop_operation_xyz
x,y,z
-x,-y,-z
loop_
_atom_site_type_symbol
_atom_site_label
_atom_site_fract_x
_atom_site_fract_y
_atom_site_fract_z
Si Si1 0.913021 0.474166 0.101773
Si Si2 0.685617 0.385997 0.784638
Si Si3 0.663010 0.275293 0.636525
Si Si4 0.254123 0.584696 0.743066
Si Si5 0.794910 0.508812 0.443078
Si Si6 0.418971 0.852302 0.041615
Si Si7 0.519954 0.018741 0.224600
Si Si8 0.557967 0.827042 0.727124
O O1 0.868201 0.391590 0.003920
O O2 0.812213 0.284479 0.123287
O O3 0.733124 0.657092 0.901325
O O4 0.149628 0.585259 0.292158
O O5 0.768389 0.305320 0.799496
O O6 0.575992 0.606860 0.610359
O O7 0.474190 0.221783 0.673876
O O8 0.609516 0.033689 0.660592
O O9 0.225425 0.488057 0.665888
O O10 0.070330 0.535121 0.668565
O O11 0.266483 0.832354 0.662928
O O12 0.500000 0.500000 0.000000
O O13 0.629075 0.688261 0.278976
O O14 0.692042 0.288655 0.452086
O O15 0.380046 0.994981 0.037538
O O16 0.500000 0.000000 0.000000
O O17 0.412117 0.122017 0.175360
#
# Coordination Sequence:
#
# PCOD9084773 Si02
#       8
#     2   2   2   2   2   2   2   2
#     4  10  20  36  57  82 115 147 186 235 277 329
#     4   9  20  36  55  84 114 143 184 233 284 332
#     4  10  19  36  60  82 110 149 190 228 278 340
#     4  10  19  35  57  79 107 147 186 223 277 334
#     4   9  20  36  53  79 114 142 180 235 274 324
#     4  10  20  36  57  84 116 151 189 231 287 343
#     4   9  19  36  55  79 114 144 181 233 277 332
#     4   9  19  37  55  81 115 147 185 233 282 331
#
# _framework density 23.812501000000001
#
# number of rings (size 3 to 8) (size 9 to 14) (size 15 to 20)
#    0.000    2.500    0.000    1.500    0.000    2.000 
#    0.000   27.500    0.000    0.000    0.000    0.000 
#    0.000    0.000    0.000    0.000    0.000    0.000 
#
# Total GULP energy -89126.842324 kJ/mol
# GULP energy per Si atom -5570.427645 kJ/mol
# Density = 2.375830 g / cm^3
# Si number density = 23.812501 Si / 1000 Ang^3
#
#
#
# Elastic Constant Matrix: (Units=GPa)
#
#
# Indices 1 2 3 4 5 6 
#
# 1 68.2573 28.4415 11.6737 21.6088 -13.0713 -14.6371
# 2 28.4415 129.8541 14.2420 8.1292 7.4070 22.0422
# 3 11.6737 14.2420 38.1249 18.3627 12.9858 7.6964
# 4 21.6088 8.1292 18.3627 23.1075 8.0651 3.3450
# 5 -13.0713 7.4070 12.9858 8.0651 33.1654 13.1926
# 6 -14.6371 22.0422 7.6964 3.3450 13.1926 42.4515
#
#
#
# Elastic Compliance Matrix: (Units=1/GPa)
#
#
# Indices 1 2 3 4 5 6 
#
# 1 0.041183 -0.010358 0.003375 -0.047703 0.022575 0.015710
# 2 -0.010358 0.011290 -0.003043 0.011005 -0.004804 -0.008256
# 3 0.003375 -0.003043 0.046392 -0.036398 -0.007063 -0.000604
# 4 -0.047703 0.011005 -0.036398 0.126187 -0.031433 -0.015738
# 5 0.022575 -0.004804 -0.007063 -0.031433 0.051289 -0.001903
# 6 0.015710 -0.008256 -0.000604 -0.015738 -0.001903 0.035201
#
#
# Mechanical properties :
#
#
# Convention : Reuss Voigt Hill
#
# Bulk Modulus (GPa) = 12.68855 38.32788 25.50821
# Shear Modulus (GPa) = 13.97174 31.87013 22.92094
#
# Velocity S-wave (km/s) = 2.42490 3.66235 3.10588
# Velocity P-wave (km/s) = 3.63046 5.83219 4.85771
#
# Compressibility (1/GPa) = 0.07881122
#
# Stress axis : x y z
#
# Youngs Moduli (GPa) = 24.28200 88.57419 21.55537
#
# Poissons Ratio (x) = 0.91747 -0.07274
# Poissons Ratio (y) = 0.25152 0.06560
# Poissons Ratio (z) = -0.08194 0.26955
#
# Static dielectric constant tensor:
#      x y z
#    x 2.002700 0.056460 -0.001470 
#    y 0.056460 1.948180 0.071600 
#    z -0.001470 0.071600 1.958880 
# 
# From -- ./inp_files/348897.got.cif
#   From: 2010.05.17/outbox.cif.g08.bks.cpg/sg2_175_cif.got.tgz:348897.got - 2010.06.03 11:33:40.
