data_PCOD9084072
_publ_section_title
;
Structure prediction by ZEFSAII (Michael W. Deem and Ramdas Pophale) SiO2 
 PCOD9084072
Probable space group: P -1
;
_chemical_formula_sum "Si O2"
_cell_formula_units_Z 10
_cell_length_a 9.024529
_cell_length_b 9.885897
_cell_length_c 16.391822
_cell_angle_alpha 145.997549
_cell_angle_beta 31.011888
_cell_angle_gamma 133.439060
_cell_volume 420.016511
_symmetry_space_group_name_H-M "P -1"
_symmetry_group_IT_number 2
_symmetry_cell_setting 'triclinic'
loop_
_space_group_symop_operation_xyz
x,y,z
-x,-y,-z
loop_
_atom_site_type_symbol
_atom_site_label
_atom_site_fract_x
_atom_site_fract_y
_atom_site_fract_z
Si Si1 0.522482 0.415171 0.040276
Si Si2 0.653974 0.733234 0.576765
Si Si3 0.203177 0.255915 0.806290
Si Si4 0.135676 0.008230 0.030566
Si Si5 0.101802 0.034552 0.577087
O O1 0.555301 0.628072 0.195690
O O2 0.500000 0.500000 0.000000
O O3 0.815889 0.230940 0.810006
O O4 0.251336 0.268554 0.117707
O O5 0.500000 0.500000 0.500000
O O6 0.424028 0.830845 0.800699
O O7 0.691007 0.897145 0.560378
O O8 0.961686 0.780370 0.497353
O O9 0.250257 0.101150 0.624544
O O10 0.000000 0.500000 0.000000
O O11 0.053157 0.086086 0.856232
O O12 0.000000 0.000000 0.000000
#
# Coordination Sequence:
#
# PCOD9084072 Si02
#       5
#     2   2   2   2   2
#     4  10  19  34  60  86 116 149 187 240 287 332
#     4  10  20  36  59  82 117 152 189 231 288 342
#     4  10  20  36  59  89 116 145 195 241 281 335
#     4  11  22  36  60  90 113 150 197 233 284 345
#     4   9  21  36  56  87 111 150 194 233 281 342
#
# _framework density 23.808589000000001
#
# number of rings (size 3 to 8) (size 9 to 14) (size 15 to 20)
#    0.000    2.000    2.000    2.400    0.000    8.800 
#    0.000    1.000    0.000    2.400    0.000    0.000 
#    0.000    0.000    0.000    0.000    0.000    0.000 
#
# Total GULP energy -55821.095560 kJ/mol
# GULP energy per Si atom -5582.109556 kJ/mol
# Density = 2.375440 g / cm^3
# Si number density = 23.808589 Si / 1000 Ang^3
#
#
#
# Elastic Constant Matrix: (Units=GPa)
#
#
# Indices 1 2 3 4 5 6 
#
# 1 185.5186 70.9881 32.4772 8.5924 38.4426 28.8083
# 2 70.9881 173.7188 32.7802 13.0334 30.0169 45.9542
# 3 32.4772 32.7802 74.4900 16.9829 32.4237 14.6982
# 4 8.5924 13.0334 16.9829 39.9198 5.6331 13.2343
# 5 38.4426 30.0169 32.4237 5.6331 56.1879 13.7621
# 6 28.8083 45.9542 14.6982 13.2343 13.7621 50.8152
#
#
#
# Elastic Compliance Matrix: (Units=1/GPa)
#
#
# Indices 1 2 3 4 5 6 
#
# 1 0.007077 -0.001890 -0.000688 0.000268 -0.003138 -0.001324
# 2 -0.001890 0.008545 -0.001372 0.000360 -0.001028 -0.006075
# 3 -0.000688 -0.001372 0.020041 -0.006620 -0.009746 0.000198
# 4 0.000268 0.000360 -0.006620 0.029666 0.002154 -0.006872
# 5 -0.003138 -0.001028 -0.009746 0.002154 0.026439 -0.002193
# 6 -0.001324 -0.006075 0.000198 -0.006872 -0.002193 0.028250
#
#
# Mechanical properties :
#
#
# Convention : Reuss Voigt Hill
#
# Bulk Modulus (GPa) = 36.01849 78.46872 57.24361
# Shear Modulus (GPa) = 36.45045 49.21671 42.83358
#
# Velocity S-wave (km/s) = 3.91702 4.55156 4.24616
# Velocity P-wave (km/s) = 5.96813 7.78794 6.93796
#
# Compressibility (1/GPa) = 0.02776352
#
# Stress axis : x y z
#
# Youngs Moduli (GPa) = 141.29574 117.02349 49.89824
#
# Poissons Ratio (x) = 0.22116 0.03433
# Poissons Ratio (y) = 0.26703 0.06847
# Poissons Ratio (z) = 0.09720 0.16058
#
# Static dielectric constant tensor:
#      x y z
#    x 2.092980 0.102650 -0.133170 
#    y 0.102650 1.922670 0.100620 
#    z -0.133170 0.100620 2.041810 
# 
# From -- ./inp_files/144070.got.cif
#   From: 2010.05.17/outbox.cif.g08.bks.cpg/sg2_73_cif.got.tgz:144070.got - 2010.06.03 11:33:40.
