data_PCOD9084214
_publ_section_title
;
Structure prediction by ZEFSAII (Michael W. Deem and Ramdas Pophale) SiO2 
 PCOD9084214
Probable space group: P -1
;
_chemical_formula_sum "Si O2"
_cell_formula_units_Z 14
_cell_length_a 11.418599
_cell_length_b 11.763968
_cell_length_c 7.390508
_cell_angle_alpha 85.147347
_cell_angle_beta 129.505174
_cell_angle_gamma 63.310682
_cell_volume 577.232798
_symmetry_space_group_name_H-M "P -1"
_symmetry_group_IT_number 2
_symmetry_cell_setting 'triclinic'
loop_
_space_group_symop_operation_xyz
x,y,z
-x,-y,-z
loop_
_atom_site_type_symbol
_atom_site_label
_atom_site_fract_x
_atom_site_fract_y
_atom_site_fract_z
Si Si1 0.104829 0.622380 0.148610
Si Si2 0.141589 0.344823 0.776026
Si Si3 0.288502 0.621705 0.995990
Si Si4 0.317958 0.134105 0.684472
Si Si5 0.486983 0.274769 0.640485
Si Si6 0.718789 0.302384 0.419820
Si Si7 0.402568 0.870035 0.618694
O O1 0.301573 0.448411 0.389937
O O2 0.113863 0.651817 0.943167
O O3 0.139611 0.721057 0.281423
O O4 0.939128 0.639006 0.102395
O O5 0.000000 0.500000 0.500000
O O6 0.376161 0.256965 0.056639
O O7 0.491668 0.446193 0.240041
O O8 0.352825 0.717771 0.111040
O O9 0.252398 0.645262 0.744753
O O10 0.152856 0.232966 0.663893
O O11 0.310134 0.040207 0.537239
O O12 0.385681 0.222916 0.661853
O O13 0.500000 0.000000 0.000000
O O14 0.577357 0.171056 0.566198
O O15 0.734564 0.160580 0.425923
#
# Coordination Sequence:
#
# PCOD9084214 Si02
#       7
#     2   2   2   2   2   2   2
#     4  11  21  38  60  95 130 152 205 263 309 356
#     4  11  24  40  60  92 130 159 203 261 313 357
#     4  10  19  34  61  91 125 156 209 257 299 360
#     4  10  22  40  62  86 123 169 209 247 304 377
#     4  11  19  38  63  93 120 161 214 259 292 370
#     4  10  20  36  64  90 119 167 208 247 306 366
#     4  11  22  40  65  92 121 169 210 247 308 374
#
# _framework density 24.253647000000001
#
# number of rings (size 3 to 8) (size 9 to 14) (size 15 to 20)
#    0.000    1.429    4.286    3.000    4.000    0.571 
#    2.571    0.714    0.000    4.286    0.000    0.000 
#    0.000    0.000    0.000    0.000    0.000    0.000 
#
# Total GULP energy -78191.531793 kJ/mol
# GULP energy per Si atom -5585.109414 kJ/mol
# Density = 2.419844 g / cm^3
# Si number density = 24.253647 Si / 1000 Ang^3
#
#
#
# Elastic Constant Matrix: (Units=GPa)
#
#
# Indices 1 2 3 4 5 6 
#
# 1 75.9273 42.7929 20.2498 -12.1455 -22.4163 -11.3787
# 2 42.7929 98.5295 -2.5460 2.2685 -5.3751 -5.1807
# 3 20.2498 -2.5460 46.8927 3.8379 -18.3494 -4.5196
# 4 -12.1455 2.2685 3.8379 28.6794 1.0125 -14.2711
# 5 -22.4163 -5.3751 -18.3494 1.0125 40.9945 -1.3469
# 6 -11.3787 -5.1807 -4.5196 -14.2711 -1.3469 40.4385
#
#
#
# Elastic Compliance Matrix: (Units=1/GPa)
#
#
# Indices 1 2 3 4 5 6 
#
# 1 0.033548 -0.013994 -0.011298 0.024006 0.011360 0.015235
# 2 -0.013994 0.016228 0.006277 -0.010404 -0.002620 -0.004916
# 3 -0.011298 0.006277 0.030517 -0.010928 0.008491 -0.002538
# 4 0.024006 -0.010404 -0.010928 0.059794 0.006233 0.025510
# 5 0.011360 -0.002620 0.008491 0.006233 0.034144 0.007147
# 6 0.015235 -0.004916 -0.002538 0.025510 0.007147 0.037343
#
#
# Mechanical properties :
#
#
# Convention : Reuss Voigt Hill
#
# Bulk Modulus (GPa) = 23.66192 38.03810 30.85001
# Shear Modulus (GPa) = 18.96154 32.74600 25.85377
#
# Velocity S-wave (km/s) = 2.79910 3.67842 3.26847
# Velocity P-wave (km/s) = 4.49709 5.81021 5.19531
#
# Compressibility (1/GPa) = 0.04226199
#
# Stress axis : x y z
#
# Youngs Moduli (GPa) = 29.80809 61.62378 32.76817
#
# Poissons Ratio (x) = 0.86238 0.37022
# Poissons Ratio (y) = 0.41714 -0.20568
# Poissons Ratio (z) = 0.33677 -0.38680
#
# Static dielectric constant tensor:
#      x y z
#    x 1.951690 0.017290 -0.008330 
#    y 0.017290 1.944450 0.042110 
#    z -0.008330 0.042110 1.947290 
# 
# From -- ./inp_files/252264.got.cif
#   From: 2010.05.17/outbox.cif.g08.bks.cpg/sg2_127_cif.got.tgz:252264.got - 2010.06.03 11:33:40.
