data_PCOD9084755
_publ_section_title
;
Structure prediction by ZEFSAII (Michael W. Deem and Ramdas Pophale) SiO2 
 PCOD9084755
Probable space group: P -1
;
_chemical_formula_sum "Si O2"
_cell_formula_units_Z 16
_cell_length_a 21.772074
_cell_length_b 15.551921
_cell_length_c 7.639267
_cell_angle_alpha 123.375979
_cell_angle_beta 111.261438
_cell_angle_gamma 20.506266
_cell_volume 645.501277
_symmetry_space_group_name_H-M "P -1"
_symmetry_group_IT_number 2
_symmetry_cell_setting 'triclinic'
loop_
_space_group_symop_operation_xyz
x,y,z
-x,-y,-z
loop_
_atom_site_type_symbol
_atom_site_label
_atom_site_fract_x
_atom_site_fract_y
_atom_site_fract_z
Si Si1 0.229791 0.292245 0.595692
Si Si2 0.826346 0.571277 0.852304
Si Si3 0.090011 0.101756 0.902793
Si Si4 0.636497 0.494601 0.562961
Si Si5 0.425823 0.199088 0.352597
Si Si6 0.665950 0.153817 0.622015
Si Si7 0.495884 0.623313 0.924699
Si Si8 0.940803 0.554916 0.742112
O O1 0.079522 0.448265 0.745486
O O2 0.200791 0.262257 0.362941
O O3 0.467782 0.940807 0.505120
O O4 0.099558 0.591852 0.816479
O O5 0.755116 0.614353 0.653913
O O6 0.012069 0.249602 0.794873
O O7 0.819425 0.704995 0.957010
O O8 0.629986 0.847336 0.084044
O O9 0.174231 0.860402 0.697668
O O10 0.284666 0.883474 0.922497
O O11 0.644107 0.596003 0.597088
O O12 0.444019 0.725744 0.527404
O O13 0.592372 0.550579 0.789231
O O14 0.644416 0.307461 0.764694
O O15 0.897865 0.776813 0.451589
O O16 0.558992 0.262961 0.806493
#
# Coordination Sequence:
#
# PCOD9084755 Si02
#       8
#     2   2   2   2   2   2   2   2
#     4  10  22  35  59  86 118 144 194 244 289 349
#     4  10  23  39  60  79 116 156 197 238 292 345
#     4  10  20  36  55  86 114 148 193 235 287 348
#     4  11  21  36  61  85 120 158 190 237 299 342
#     4  10  23  41  55  84 115 155 197 241 285 351
#     4  10  19  35  56  92 122 148 191 242 289 357
#     4  10  20  33  58  89 126 150 184 242 302 339
#     4  11  20  36  60  86 114 153 192 240 300 340
#
# _framework density 24.786940000000001
#
# number of rings (size 3 to 8) (size 9 to 14) (size 15 to 20)
#    0.000    1.750    2.500    3.000    1.750    2.000 
#    0.000    0.000    0.000    0.750    0.000    0.000 
#    0.000    0.000    0.000    0.000    0.000    0.000 
#
# Total GULP energy -89229.367917 kJ/mol
# GULP energy per Si atom -5576.835495 kJ/mol
# Density = 2.473052 g / cm^3
# Si number density = 24.786940 Si / 1000 Ang^3
#
#
#
# Elastic Constant Matrix: (Units=GPa)
#
#
# Indices 1 2 3 4 5 6 
#
# 1 74.6993 15.2515 5.0783 13.4749 6.4441 11.8232
# 2 15.2515 108.2672 28.1124 3.7575 11.8691 12.2085
# 3 5.0783 28.1124 57.8694 -0.6175 -1.9151 18.2200
# 4 13.4749 3.7575 -0.6175 41.5194 17.1017 7.3131
# 5 6.4441 11.8691 -1.9151 17.1017 26.8028 0.9452
# 6 11.8232 12.2085 18.2200 7.3131 0.9452 32.8675
#
#
#
# Elastic Compliance Matrix: (Units=1/GPa)
#
#
# Indices 1 2 3 4 5 6 
#
# 1 0.015087 -0.001691 0.000833 -0.003880 -0.000189 -0.004392
# 2 -0.001691 0.011624 -0.005356 0.002306 -0.006557 -0.001065
# 3 0.000833 -0.005356 0.023649 0.001195 0.003515 -0.011787
# 4 -0.003880 0.002306 0.001195 0.035751 -0.022552 -0.007429
# 5 -0.000189 -0.006557 0.003515 -0.022552 0.054758 0.003998
# 6 -0.004392 -0.001065 -0.011787 -0.007429 0.003998 0.040473
#
#
# Mechanical properties :
#
#
# Convention : Reuss Voigt Hill
#
# Bulk Modulus (GPa) = 26.36269 37.52446 31.94357
# Shear Modulus (GPa) = 24.22319 33.06418 28.64368
#
# Velocity S-wave (km/s) = 3.12950 3.65627 3.40309
# Velocity P-wave (km/s) = 4.87003 5.74422 5.32509
#
# Compressibility (1/GPa) = 0.03793240
#
# Stress axis : x y z
#
# Youngs Moduli (GPa) = 66.28265 86.02768 42.28502
#
# Poissons Ratio (x) = 0.14546 -0.03521
# Poissons Ratio (y) = 0.11208 0.22646
# Poissons Ratio (z) = -0.05519 0.46073
#
# Static dielectric constant tensor:
#      x y z
#    x 2.622070 -0.147000 -0.228150 
#    y -0.147000 2.117510 -0.009700 
#    z -0.228150 -0.009700 2.151030 
# 
# From -- ./inp_files/263294.got.cif
#   From: 2010.05.17/outbox.cif.g08.bks.cpg/sg2_132_cif.got.tgz:263294.got - 2010.06.03 11:33:40.
