data_PCOD9084631
_publ_section_title
;
Structure prediction by ZEFSAII (Michael W. Deem and Ramdas Pophale) SiO2 
 PCOD9084631
Probable space group: P -1
;
_chemical_formula_sum "Si O2"
_cell_formula_units_Z 14
_cell_length_a 5.373783
_cell_length_b 13.198087
_cell_length_c 26.750180
_cell_angle_alpha 27.407003
_cell_angle_beta 97.019216
_cell_angle_gamma 78.945141
_cell_volume 653.312455
_symmetry_space_group_name_H-M "P -1"
_symmetry_group_IT_number 2
_symmetry_cell_setting 'triclinic'
loop_
_space_group_symop_operation_xyz
x,y,z
-x,-y,-z
loop_
_atom_site_type_symbol
_atom_site_label
_atom_site_fract_x
_atom_site_fract_y
_atom_site_fract_z
Si Si1 0.459828 0.661882 0.635670
Si Si2 0.337798 0.125521 0.363541
Si Si3 0.854010 0.937680 0.092006
Si Si4 0.303840 0.426153 0.806586
Si Si5 0.663100 0.267797 0.039728
Si Si6 0.542434 0.150615 0.251976
Si Si7 0.998823 0.157211 0.195710
O O1 0.572939 0.767338 0.635095
O O2 0.195951 0.668903 0.656515
O O3 0.751026 0.315831 0.784287
O O4 0.386334 0.846784 0.504309
O O5 0.543042 0.074915 0.342380
O O6 0.943058 0.399903 0.228683
O O7 0.740538 0.775672 0.135029
O O8 0.714841 0.056536 0.091699
O O9 0.675571 0.222772 0.927482
O O10 0.932171 0.105004 0.161714
O O11 0.676548 0.499835 0.911882
O O12 0.295636 0.489111 0.958637
O O13 0.887335 0.032225 0.287315
O O14 0.347778 0.070536 0.252795
#
# Coordination Sequence:
#
# PCOD9084631 Si02
#       7
#     2   2   2   2   2   2   2
#     4  10  21  36  50  83 109 152 182 235 266 351
#     4  10  21  34  57  75 114 146 195 219 287 323
#     4  10  20  34  53  84 111 144 183 226 293 322
#     4  10  20  35  53  81 112 147 187 229 271 346
#     4   9  19  32  56  81 114 143 179 240 283 335
#     4  10  19  35  55  87 106 148 184 241 273 339
#     4   9  20  34  55  86 113 137 194 233 286 326
#
# _framework density 21.429255000000001
#
# number of rings (size 3 to 8) (size 9 to 14) (size 15 to 20)
#    0.857    1.429    0.000    3.000    2.000    3.429 
#    0.000    0.000    0.000    1.714    0.000    0.000 
#    0.000    0.000    0.000    0.000    0.000    0.000 
#
# Total GULP energy -77993.886205 kJ/mol
# GULP energy per Si atom -5570.991872 kJ/mol
# Density = 2.138048 g / cm^3
# Si number density = 21.429255 Si / 1000 Ang^3
#
#
#
# Elastic Constant Matrix: (Units=GPa)
#
#
# Indices 1 2 3 4 5 6 
#
# 1 62.8583 -10.4546 16.5260 1.2380 -13.4639 0.6387
# 2 -10.4546 58.2820 23.8745 10.1893 -2.4180 -11.8940
# 3 16.5260 23.8745 59.6774 8.3530 -16.2957 -9.2439
# 4 1.2380 10.1893 8.3530 14.8172 -8.3674 -5.2111
# 5 -13.4639 -2.4180 -16.2957 -8.3674 31.4016 10.6880
# 6 0.6387 -11.8940 -9.2439 -5.2111 10.6880 19.2810
#
#
#
# Elastic Compliance Matrix: (Units=1/GPa)
#
#
# Indices 1 2 3 4 5 6 
#
# 1 0.020172 0.005632 -0.006610 0.000815 0.007295 -0.004186
# 2 0.005632 0.027352 -0.011130 -0.013746 -0.009264 0.012771
# 3 -0.006610 -0.011130 0.025764 -0.000952 0.009331 0.000275
# 4 0.000815 -0.013746 -0.000952 0.090982 0.021843 0.003519
# 5 0.007295 -0.009264 0.009331 0.021843 0.053515 -0.025244
# 6 -0.004186 0.012771 0.000275 0.003519 -0.025244 0.074957
#
#
# Mechanical properties :
#
#
# Convention : Reuss Voigt Hill
#
# Bulk Modulus (GPa) = 20.37780 26.74549 23.56164
# Shear Modulus (GPa) = 15.00079 23.15810 19.07944
#
# Velocity S-wave (km/s) = 2.64865 3.29093 2.98710
# Velocity P-wave (km/s) = 4.34555 5.19117 4.78707
#
# Compressibility (1/GPa) = 0.04907301
#
# Stress axis : x y z
#
# Youngs Moduli (GPa) = 49.57289 36.56005 38.81439
#
# Poissons Ratio (x) = -0.20590 0.25656
# Poissons Ratio (y) = -0.27919 0.43199
# Poissons Ratio (z) = 0.32767 0.40690
#
# Static dielectric constant tensor:
#      x y z
#    x 1.865430 -0.022450 0.023740 
#    y -0.022450 1.760220 0.019560 
#    z 0.023740 0.019560 1.841440 
# 
# From -- ./inp_files/615408.got.cif
#   From: 2010.05.17/outbox.cif.g08.bks.cpg/sg2_308_cif.got.tgz:615408.got - 2010.06.03 11:33:40.
