data_PCOD9084814
_publ_section_title
;
Structure prediction by ZEFSAII (Michael W. Deem and Ramdas Pophale) SiO2 
 PCOD9084814
Probable space group: P -1
;
_chemical_formula_sum "Si O2"
_cell_formula_units_Z 16
_cell_length_a 12.379236
_cell_length_b 14.019559
_cell_length_c 11.236420
_cell_angle_alpha 33.157786
_cell_angle_beta 146.253055
_cell_angle_gamma 131.793566
_cell_volume 589.694286
_symmetry_space_group_name_H-M "P -1"
_symmetry_group_IT_number 2
_symmetry_cell_setting 'triclinic'
loop_
_space_group_symop_operation_xyz
x,y,z
-x,-y,-z
loop_
_atom_site_type_symbol
_atom_site_label
_atom_site_fract_x
_atom_site_fract_y
_atom_site_fract_z
Si Si1 0.787203 0.101609 0.724833
Si Si2 0.974865 0.408792 0.273499
Si Si3 0.797871 0.703522 0.949124
Si Si4 0.425349 0.194988 0.121819
Si Si5 0.961264 0.019293 0.642659
Si Si6 0.580059 0.433573 0.274450
Si Si7 0.718525 0.541452 0.683183
Si Si8 0.280750 0.045057 0.719444
O O1 0.728442 0.752570 0.966381
O O2 0.665343 0.976930 0.827682
O O3 0.765479 0.295708 0.560937
O O4 0.000000 0.000000 0.000000
O O5 0.912989 0.517533 0.220141
O O6 0.813744 0.433689 0.994389
O O7 0.999356 0.204410 0.539667
O O8 0.154322 0.488818 0.289059
O O9 0.590825 0.678822 0.718541
O O10 0.916651 0.855604 0.850073
O O11 0.639100 0.135504 0.437890
O O12 0.500000 0.500000 0.000000
O O13 0.418001 0.379298 0.854111
O O14 0.138992 0.974161 0.761967
O O15 0.770871 0.040354 0.362311
O O16 0.500000 0.500000 0.500000
O O17 0.751153 0.743878 0.531621
O O18 0.500000 0.000000 0.000000
#
# Coordination Sequence:
#
# PCOD9084814 Si02
#       8
#     2   2   2   2   2   2   2   2
#     4   9  17  33  58  83 108 146 190 227 276 338
#     4  10  21  35  53  80 109 140 187 230 276 328
#     4  10  19  35  57  82 113 147 183 236 279 330
#     4   9  20  37  58  84 115 152 188 232 283 337
#     4  10  21  35  54  81 107 141 187 231 278 328
#     4   8  18  35  57  83 112 149 189 224 283 337
#     4  10  20  35  56  78 105 145 187 227 277 333
#     4  10  20  35  56  78 106 144 185 229 281 336
#
# _framework density 27.132701000000001
#
# number of rings (size 3 to 8) (size 9 to 14) (size 15 to 20)
#    0.000    2.750    1.250    0.750    3.500    5.500 
#    0.000    5.000    0.000   12.000    0.000    0.000 
#    0.000    0.000    0.000    0.000    0.000    0.000 
#
# Total GULP energy -89506.361198 kJ/mol
# GULP energy per Si atom -5594.147575 kJ/mol
# Density = 2.707095 g / cm^3
# Si number density = 27.132701 Si / 1000 Ang^3
#
#
#
# Elastic Constant Matrix: (Units=GPa)
#
#
# Indices 1 2 3 4 5 6 
#
# 1 76.8179 23.7711 29.0126 4.7260 -3.5159 21.4785
# 2 23.7711 123.2267 56.0520 -9.4683 -4.9322 31.7954
# 3 29.0126 56.0520 172.2504 -0.8562 7.0389 5.1184
# 4 4.7260 -9.4683 -0.8562 66.1554 0.6064 1.7362
# 5 -3.5159 -4.9322 7.0389 0.6064 36.6103 -3.8975
# 6 21.4785 31.7954 5.1184 1.7362 -3.8975 46.6962
#
#
#
# Elastic Compliance Matrix: (Units=1/GPa)
#
#
# Indices 1 2 3 4 5 6 
#
# 1 0.016054 -0.000243 -0.002480 -0.001047 0.001279 -0.006801
# 2 -0.000243 0.012006 -0.003690 0.001874 0.001463 -0.007606
# 3 -0.002480 -0.003690 0.007419 -0.000309 -0.001870 0.002696
# 4 -0.001047 0.001874 -0.000309 0.015492 -0.000189 -0.001352
# 5 0.001279 0.001463 -0.001870 -0.000189 0.028101 0.000973
# 6 -0.006801 -0.007606 0.002696 -0.001352 0.000973 0.029558
#
#
# Mechanical properties :
#
#
# Convention : Reuss Voigt Hill
#
# Bulk Modulus (GPa) = 44.14711 65.55185 54.84948
# Shear Modulus (GPa) = 38.75720 47.45632 43.10676
#
# Velocity S-wave (km/s) = 3.78356 4.18670 3.99022
# Velocity P-wave (km/s) = 5.94922 6.89807 6.44114
#
# Compressibility (1/GPa) = 0.02265154
#
# Stress axis : x y z
#
# Youngs Moduli (GPa) = 62.28804 83.29397 134.79100
#
# Poissons Ratio (x) = 0.02025 0.33433
# Poissons Ratio (y) = 0.01514 0.49742
# Poissons Ratio (z) = 0.15450 0.30738
#
# Static dielectric constant tensor:
#      x y z
#    x 2.170490 -0.044310 0.002960 
#    y -0.044310 2.426600 -0.125330 
#    z 0.002960 -0.125330 2.273200 
# 
# From -- ./inp_files/534170.got.cif
#   From: 2010.05.17/outbox.cif.g08.bks.cpg/sg2_268_cif.got.tgz:534170.got - 2010.06.03 11:33:40.
