data_PCOD9084495
_publ_section_title
;
Structure prediction by ZEFSAII (Michael W. Deem and Ramdas Pophale) SiO2 
 PCOD9084495
Probable space group: P -1
;
_chemical_formula_sum "Si O2"
_cell_formula_units_Z 14
_cell_length_a 6.806464
_cell_length_b 18.116069
_cell_length_c 6.909554
_cell_angle_alpha 45.579513
_cell_angle_beta 67.982840
_cell_angle_gamma 73.193871
_cell_volume 563.673652
_symmetry_space_group_name_H-M "P -1"
_symmetry_group_IT_number 2
_symmetry_cell_setting 'triclinic'
loop_
_space_group_symop_operation_xyz
x,y,z
-x,-y,-z
loop_
_atom_site_type_symbol
_atom_site_label
_atom_site_fract_x
_atom_site_fract_y
_atom_site_fract_z
Si Si1 0.914598 0.489858 0.263619
Si Si2 0.800930 0.636385 0.342469
Si Si3 0.772906 0.930442 0.584235
Si Si4 0.999520 0.875471 0.257309
Si Si5 0.614072 0.124831 0.425340
Si Si6 0.217254 0.722334 0.181324
Si Si7 0.391718 0.176507 0.774361
O O1 0.798879 0.590776 0.212976
O O2 0.765722 0.392346 0.525593
O O3 0.124803 0.459369 0.371452
O O4 0.000000 0.500000 0.000000
O O5 0.606539 0.705267 0.370254
O O6 0.000769 0.709988 0.158683
O O7 0.956668 0.865907 0.520492
O O8 0.591783 0.927422 0.491304
O O9 0.804884 0.050106 0.408268
O O10 0.673764 0.885830 0.897686
O O11 0.800787 0.831519 0.293290
O O12 0.185285 0.807587 0.206854
O O13 0.000000 0.000000 0.000000
O O14 0.584256 0.132482 0.651826
O O15 0.621580 0.234424 0.112810
#
# Coordination Sequence:
#
# PCOD9084495 Si02
#       7
#     2   2   2   2   2   2   2
#     4   9  18  35  59  79 102 132 171 229 281 308
#     4   8  19  36  54  81 102 128 181 224 268 310
#     4  10  21  35  53  74 114 153 177 209 260 314
#     4  10  19  35  53  79 109 138 180 228 255 306
#     4  10  20  37  50  76 117 144 178 215 257 315
#     4   9  18  36  54  80 106 138 175 225 265 306
#     4  10  21  35  55  77 108 150 176 211 268 317
#
# _framework density 24.837067000000001
#
# number of rings (size 3 to 8) (size 9 to 14) (size 15 to 20)
#    0.857    1.714    1.429    0.429    2.000    0.571 
#    2.571    0.714    0.000    1.714    0.000    0.000 
#    0.000    0.000    0.000    0.000    0.000    0.000 
#
# Total GULP energy -78070.258473 kJ/mol
# GULP energy per Si atom -5576.447034 kJ/mol
# Density = 2.478054 g / cm^3
# Si number density = 24.837067 Si / 1000 Ang^3
#
#
#
# Elastic Constant Matrix: (Units=GPa)
#
#
# Indices 1 2 3 4 5 6 
#
# 1 47.4632 18.3778 -1.6331 5.5061 -2.5626 1.2754
# 2 18.3778 229.7631 85.1267 34.8309 -7.0508 2.4291
# 3 -1.6331 85.1267 135.7547 39.8453 -1.5191 1.6118
# 4 5.5061 34.8309 39.8453 51.6290 4.4997 -0.8246
# 5 -2.5626 -7.0508 -1.5191 4.4997 23.7284 1.8234
# 6 1.2754 2.4291 1.6118 -0.8246 1.8234 38.9543
#
#
#
# Elastic Compliance Matrix: (Units=1/GPa)
#
#
# Indices 1 2 3 4 5 6 
#
# 1 0.022549 -0.002204 0.002630 -0.003190 0.002623 -0.000900
# 2 -0.002204 0.006047 -0.003395 -0.001370 0.001622 -0.000269
# 3 0.002630 -0.003395 0.011633 -0.007100 0.001411 -0.000572
# 4 -0.003190 -0.001370 -0.007100 0.026690 -0.006371 0.001347
# 5 0.002623 0.001622 0.001411 -0.006371 0.044396 -0.002458
# 6 -0.000900 -0.000269 -0.000572 0.001347 -0.002458 0.025885
#
#
# Mechanical properties :
#
#
# Convention : Reuss Voigt Hill
#
# Bulk Modulus (GPa) = 29.16264 68.52486 48.84375
# Shear Modulus (GPa) = 32.34824 43.60298 37.97561
#
# Velocity S-wave (km/s) = 3.61282 4.19449 3.91447
# Velocity P-wave (km/s) = 5.40096 7.14898 6.33555
#
# Compressibility (1/GPa) = 0.03429045
#
# Stress axis : x y z
#
# Youngs Moduli (GPa) = 44.34810 165.38085 85.96115
#
# Poissons Ratio (x) = 0.36456 -0.22607
# Poissons Ratio (y) = 0.09776 0.29181
# Poissons Ratio (z) = -0.11663 0.56142
#
# Static dielectric constant tensor:
#      x y z
#    x 2.193310 -0.108250 -0.007740 
#    y -0.108250 2.013810 0.003370 
#    z -0.007740 0.003370 1.961970 
# 
# From -- ./inp_files/34411.got.cif
#   From: 2010.05.17/outbox.cif.g08.bks.cpg/sg2_18_cif.got.tgz:34411.got - 2010.06.03 11:33:40.
