data_PCOD9084763
_publ_section_title
;
Structure prediction by ZEFSAII (Michael W. Deem and Ramdas Pophale) SiO2 
 PCOD9084763
Probable space group: P -1
;
_chemical_formula_sum "Si O2"
_cell_formula_units_Z 16
_cell_length_a 15.299696
_cell_length_b 11.629957
_cell_length_c 9.228181
_cell_angle_alpha 81.567464
_cell_angle_beta 51.607734
_cell_angle_gamma 125.184518
_cell_volume 648.186924
_symmetry_space_group_name_H-M "P -1"
_symmetry_group_IT_number 2
_symmetry_cell_setting 'triclinic'
loop_
_space_group_symop_operation_xyz
x,y,z
-x,-y,-z
loop_
_atom_site_type_symbol
_atom_site_label
_atom_site_fract_x
_atom_site_fract_y
_atom_site_fract_z
Si Si1 0.397612 0.875755 0.411937
Si Si2 0.359184 0.677636 0.992860
Si Si3 0.810443 0.880915 0.318884
Si Si4 0.609527 0.351685 0.362068
Si Si5 0.329974 0.237873 0.215461
Si Si6 0.901450 0.217944 0.093600
Si Si7 0.504160 0.606370 0.266877
Si Si8 0.831183 0.508628 0.490263
O O1 0.466320 0.844583 0.469596
O O2 0.204788 0.776235 0.704662
O O3 0.306077 0.720433 0.398495
O O4 0.570911 0.126812 0.138019
O O5 0.337135 0.602075 0.871710
O O6 0.549433 0.772925 0.857949
O O7 0.160437 0.492495 0.345561
O O8 0.851326 0.910332 0.445323
O O9 0.591258 0.607797 0.578714
O O10 0.777996 0.986258 0.290874
O O11 0.000000 0.000000 0.000000
O O12 0.474655 0.317355 0.612969
O O13 0.855338 0.585546 0.131601
O O14 0.500000 0.500000 0.000000
O O15 0.292533 0.199261 0.088634
O O16 0.945682 0.285600 0.867611
O O17 0.308281 0.501715 0.407016
#
# Coordination Sequence:
#
# PCOD9084763 Si02
#       8
#     2   2   2   2   2   2   2   2
#     4  10  19  36  56  80 104 147 189 215 256 330
#     4  11  20  34  56  85 108 140 180 224 276 311
#     4  11  16  31  59  80  96 139 192 217 251 316
#     4  10  20  34  56  81 117 139 169 229 281 311
#     4   9  19  33  55  81 102 138 185 223 250 319
#     4  10  19  35  57  77 108 145 187 216 262 326
#     4   8  17  33  53  78 106 138 178 220 260 315
#     4   9  18  32  54  79 106 140 179 218 262 320
#
# _framework density 24.684237
#
# number of rings (size 3 to 8) (size 9 to 14) (size 15 to 20)
#    0.000    2.500    3.750    2.250    0.000    0.000 
#    0.000    5.000    2.750   10.500    0.000    0.000 
#    0.000    0.000    0.000    0.000    0.000    0.000 
#
# Total GULP energy -89366.079725 kJ/mol
# GULP energy per Si atom -5585.379983 kJ/mol
# Density = 2.462805 g / cm^3
# Si number density = 24.684237 Si / 1000 Ang^3
#
#
#
# Elastic Constant Matrix: (Units=GPa)
#
#
# Indices 1 2 3 4 5 6 
#
# 1 51.7183 37.3452 41.0246 19.6579 34.5070 -9.7600
# 2 37.3452 113.6988 53.8312 19.8936 25.8461 -20.6909
# 3 41.0246 53.8312 196.7531 51.0418 49.4323 11.2836
# 4 19.6579 19.8936 51.0418 51.5370 -0.6585 9.3352
# 5 34.5070 25.8461 49.4323 -0.6585 38.0899 -0.0620
# 6 -9.7600 -20.6909 11.2836 9.3352 -0.0620 39.1331
#
#
#
# Elastic Compliance Matrix: (Units=1/GPa)
#
#
# Indices 1 2 3 4 5 6 
#
# 1 1.285109 0.043396 0.375154 -0.984852 -1.696805 0.467535
# 2 0.043396 0.015296 0.012483 -0.040160 -0.066547 0.024786
# 3 0.375154 0.012483 0.121983 -0.299845 -0.511606 0.135710
# 4 -0.984852 -0.040160 -0.299845 0.790884 1.321671 -0.366976
# 5 -1.696805 -0.066547 -0.511606 1.321671 2.294392 -0.622512
# 6 0.467535 0.024786 0.135710 -0.366976 -0.622512 0.202690
#
#
# Mechanical properties :
#
#
# Convention : Reuss Voigt Hill
#
# Bulk Modulus (GPa) = 0.43774 69.61913 35.02844
# Shear Modulus (GPa) = 1.08465 41.08327 21.08396
#
# Velocity S-wave (km/s) = 0.66360 4.08407 2.92575
# Velocity P-wave (km/s) = 0.87457 7.10666 5.06308
#
# Compressibility (1/GPa) = 2.28445430
#
# Stress axis : x y z
#
# Youngs Moduli (GPa) = 0.77814 65.37558 8.19784
#
# Poissons Ratio (x) = -2.83705 -3.07545
# Poissons Ratio (y) = -0.03377 -0.10233
# Poissons Ratio (z) = -0.29192 -0.81606
#
# Static dielectric constant tensor:
#      x y z
#    x 2.063670 0.061820 -0.039470 
#    y 0.061820 1.980990 -0.005080 
#    z -0.039470 -0.005080 2.021600 
# 
# From -- ./inp_files/211920.got.cif
#   From: 2010.05.17/outbox.cif.g08.bks.cpg/sg2_106_cif.got.tgz:211920.got - 2010.06.03 11:33:40.
