data_PCOD9084200
_publ_section_title
;
Structure prediction by ZEFSAII (Michael W. Deem and Ramdas Pophale) SiO2 
 PCOD9084200
Probable space group: P -1
;
_chemical_formula_sum "Si O2"
_cell_formula_units_Z 14
_cell_length_a 8.777023
_cell_length_b 14.750303
_cell_length_c 7.607944
_cell_angle_alpha 132.612218
_cell_angle_beta 76.952399
_cell_angle_gamma 73.922508
_cell_volume 565.217309
_symmetry_space_group_name_H-M "P -1"
_symmetry_group_IT_number 2
_symmetry_cell_setting 'triclinic'
loop_
_space_group_symop_operation_xyz
x,y,z
-x,-y,-z
loop_
_atom_site_type_symbol
_atom_site_label
_atom_site_fract_x
_atom_site_fract_y
_atom_site_fract_z
Si Si1 0.536858 0.181529 0.858741
Si Si2 0.089070 0.918769 0.186972
Si Si3 0.907722 0.375321 0.235164
Si Si4 0.691016 0.857321 0.855556
Si Si5 0.330489 0.375402 0.641996
Si Si6 0.728840 0.084919 0.311734
Si Si7 0.182486 0.464803 0.174523
O O1 0.689485 0.142846 0.921551
O O2 0.637321 0.087085 0.528764
O O3 0.383544 0.166815 0.975691
O O4 0.403690 0.354198 0.047143
O O5 0.080904 0.775353 0.986052
O O6 0.000000 0.000000 0.500000
O O7 0.932798 0.051060 0.266920
O O8 0.713229 0.514762 0.366126
O O9 0.918204 0.404015 0.477719
O O10 0.073711 0.383263 0.111390
O O11 0.755267 0.716772 0.524327
O O12 0.500000 0.000000 0.000000
O O13 0.788864 0.937843 0.990657
O O14 0.555913 0.243728 0.469643
O O15 0.213994 0.477874 0.978592
#
# Coordination Sequence:
#
# PCOD9084200 Si02
#       7
#     2   2   2   2   2   2   2
#     4  10  19  39  61  89 126 169 214 249 318 376
#     4  10  23  40  65  91 127 173 208 253 320 380
#     4  11  22  41  69  90 130 162 216 260 311 377
#     4  10  19  34  61  90 125 160 207 262 306 364
#     4  10  21  39  64  99 126 153 217 266 310 369
#     4   9  20  38  64  92 127 164 207 262 314 369
#     4  10  22  39  68  97 122 166 208 267 318 359
#
# _framework density 24.769233
#
# number of rings (size 3 to 8) (size 9 to 14) (size 15 to 20)
#    0.000    2.000    1.429    1.714    2.000    6.286 
#    0.000    9.286    6.286    0.000    0.000    0.000 
#    0.000    0.000    0.000    0.000    0.000    0.000 
#
# Total GULP energy -78072.255335 kJ/mol
# GULP energy per Si atom -5576.589667 kJ/mol
# Density = 2.471286 g / cm^3
# Si number density = 24.769233 Si / 1000 Ang^3
#
#
#
# Elastic Constant Matrix: (Units=GPa)
#
#
# Indices 1 2 3 4 5 6 
#
# 1 115.4931 28.5510 22.9135 2.4110 -0.1169 -36.9235
# 2 28.5510 96.1425 45.2371 -21.1500 -2.5305 -36.4491
# 3 22.9135 45.2371 118.7786 -22.2315 16.7792 6.0294
# 4 2.4110 -21.1500 -22.2315 44.3740 -11.5632 -6.4280
# 5 -0.1169 -2.5305 16.7792 -11.5632 25.4311 -0.7558
# 6 -36.9235 -36.4491 6.0294 -6.4280 -0.7558 50.4842
#
#
#
# Elastic Compliance Matrix: (Units=1/GPa)
#
#
# Indices 1 2 3 4 5 6 
#
# 1 0.012901 0.004336 -0.005177 0.002104 0.005266 0.013532
# 2 0.004336 0.031855 -0.014223 0.017864 0.021602 0.030467
# 3 -0.005177 -0.014223 0.017014 -0.004366 -0.015151 -0.016870
# 4 0.002104 0.017864 -0.004366 0.037466 0.022299 0.020062
# 5 0.005266 0.021602 -0.015151 0.022299 0.062375 0.025030
# 6 0.013532 0.030467 -0.016870 0.020062 0.025030 0.056646
#
#
# Mechanical properties :
#
#
# Convention : Reuss Voigt Hill
#
# Bulk Modulus (GPa) = 31.60314 58.20194 44.90254
# Shear Modulus (GPa) = 19.31012 39.63869 29.47440
#
# Velocity S-wave (km/s) = 2.79516 4.00474 3.45332
# Velocity P-wave (km/s) = 4.81705 6.70318 5.83680
#
# Compressibility (1/GPa) = 0.03164243
#
# Stress axis : x y z
#
# Youngs Moduli (GPa) = 77.51228 31.39269 58.77452
#
# Poissons Ratio (x) = -0.13613 0.30428
# Poissons Ratio (y) = -0.33612 0.83595
# Poissons Ratio (z) = 0.40129 0.44650
#
# Static dielectric constant tensor:
#      x y z
#    x 2.185540 -0.192530 -0.152010 
#    y -0.192530 2.114560 0.062110 
#    z -0.152010 0.062110 2.050260 
# 
# From -- ./inp_files/213817.got.cif
#   From: 2010.05.17/outbox.cif.g08.bks.cpg/sg2_107_cif.got.tgz:213817.got - 2010.06.03 11:33:40.
