data_PCOD9084458
_publ_section_title
;
Structure prediction by ZEFSAII (Michael W. Deem and Ramdas Pophale) SiO2 
 PCOD9084458
Probable space group: P -1
;
_chemical_formula_sum "Si O2"
_cell_formula_units_Z 14
_cell_length_a 14.301102
_cell_length_b 28.360513
_cell_length_c 14.301276
_cell_angle_alpha 22.107319
_cell_angle_beta 21.625659
_cell_angle_gamma 22.107580
_cell_volume 710.033500
_symmetry_space_group_name_H-M "P -1"
_symmetry_group_IT_number 2
_symmetry_cell_setting 'triclinic'
loop_
_space_group_symop_operation_xyz
x,y,z
-x,-y,-z
loop_
_atom_site_type_symbol
_atom_site_label
_atom_site_fract_x
_atom_site_fract_y
_atom_site_fract_z
Si Si1 0.332186 0.437136 0.832181
Si Si2 0.354334 0.858949 0.854349
Si Si3 0.328888 0.649913 0.828895
Si Si4 0.250229 0.059392 0.750209
Si Si5 0.351724 0.168395 0.851717
Si Si6 0.573971 0.790604 0.074034
Si Si7 0.245240 0.618522 0.745303
O O1 0.500000 0.500000 0.500000
O O2 0.353274 0.473900 0.853269
O O3 0.486910 0.269258 0.986910
O O4 0.000000 0.500000 0.000000
O O5 0.574935 0.854453 0.580312
O O6 0.250157 0.001858 0.750157
O O7 0.080289 0.854447 0.074971
O O8 0.495801 0.745910 0.496659
O O9 0.309741 0.610726 0.809765
O O10 0.500000 0.500000 0.000000
O O11 0.996657 0.745910 0.995802
O O12 0.408857 0.931098 0.908851
O O13 0.403779 0.173961 0.903746
O O14 0.500000 0.000000 0.000000
O O15 0.397574 0.702410 0.401707
O O16 0.901638 0.702374 0.897716
#
# Coordination Sequence:
#
# PCOD9084458 Si02
#       7
#     2   2   2   2   2   2   2
#     4  12  23  37  56  81 113 148 191 235 280 323
#     4  10  21  33  51  75 107 135 182 227 266 329
#     4  10  21  40  63  88 122 163 193 245 312 357
#     4  10  19  35  51  74 105 142 175 222 280 321
#     4  10  21  39  61  92 119 150 206 247 291 364
#     4  10  20  37  60  80 110 151 188 227 287 340
#     4  10  21  37  58  84 112 149 196 227 276 361
#
# _framework density 19.717379999999999
#
# number of rings (size 3 to 8) (size 9 to 14) (size 15 to 20)
#    0.000    1.714    0.000    5.143    0.000    2.286 
#    5.143    0.000    0.000    0.000    0.000    0.000 
#    0.000    0.000    0.000    0.000    0.000    0.000 
#
# Total GULP energy -78100.156101 kJ/mol
# GULP energy per Si atom -5578.582579 kJ/mol
# Density = 1.967250 g / cm^3
# Si number density = 19.717380 Si / 1000 Ang^3
#
#
#
# Elastic Constant Matrix: (Units=GPa)
#
#
# Indices 1 2 3 4 5 6 
#
# 1 12.1539 43.0874 61.6521 18.1579 82.4424 32.8901
# 2 43.0874 109.4187 69.9195 9.3840 -29.7929 -29.7551
# 3 61.6521 69.9195 164.5357 17.0555 -62.7451 -57.8291
# 4 18.1579 9.3840 17.0555 31.5610 -44.6038 -26.9436
# 5 82.4424 -29.7929 -62.7451 -44.6038 -172.0772 -116.0908
# 6 32.8901 -29.7551 -57.8291 -26.9436 -116.0908 -18.5677
#
#
#
# Elastic Compliance Matrix: (Units=1/GPa)
#
#
# Indices 1 2 3 4 5 6 
#
# 1 0.028244 -0.005246 -0.002776 0.005681 0.007991 0.008877
# 2 -0.005246 0.013576 -0.004668 -0.002104 -0.002008 -0.000902
# 3 -0.002776 -0.004668 0.008804 -0.005212 -0.002886 0.000748
# 4 0.005681 -0.002104 -0.005212 0.028550 -0.001716 -0.001035
# 5 0.007991 -0.002008 -0.002886 -0.001716 0.006091 -0.009234
# 6 0.008877 -0.000902 0.000748 -0.001035 -0.009234 0.020215
#
#
# Mechanical properties :
#
#
# Convention : Reuss Voigt Hill
#
# Bulk Modulus (GPa) = 39.61203 70.60292 55.10747
# Shear Modulus (GPa) = 35.90013 -24.38681 5.75666
#
# Velocity S-wave (km/s) = 4.27164 -3.52066 1.71053
# Velocity P-wave (km/s) = 6.66803 4.39983 5.64895
#
# Compressibility (1/GPa) = 0.02524486
#
# Stress axis : x y z
#
# Youngs Moduli (GPa) = 35.40635 73.65674 113.57979
#
# Poissons Ratio (x) = 0.38639 0.31525
# Poissons Ratio (y) = 0.18574 0.53023
# Poissons Ratio (z) = 0.09827 0.34385
#
# Static dielectric constant tensor:
#      x y z
#    x 1.676330 0.018590 -0.025580 
#    y 0.018590 1.711240 0.026220 
#    z -0.025580 0.026220 1.732200 
# 
# From -- ./inp_files/43367.got.cif
#   From: 2010.05.17/outbox.cif.g08.bks.cpg/sg2_22_cif.got.tgz:43367.got - 2010.06.03 11:33:40.
