data_PCOD9084388
_publ_section_title
;
Structure prediction by ZEFSAII (Michael W. Deem and Ramdas Pophale) SiO2 
 PCOD9084388
Probable space group: P -1
;
_chemical_formula_sum "Si O2"
_cell_formula_units_Z 14
_cell_length_a 14.139929
_cell_length_b 9.212116
_cell_length_c 7.898700
_cell_angle_alpha 75.897952
_cell_angle_beta 39.639914
_cell_angle_gamma 67.779246
_cell_volume 605.659605
_symmetry_space_group_name_H-M "P -1"
_symmetry_group_IT_number 2
_symmetry_cell_setting 'triclinic'
loop_
_space_group_symop_operation_xyz
x,y,z
-x,-y,-z
loop_
_atom_site_type_symbol
_atom_site_label
_atom_site_fract_x
_atom_site_fract_y
_atom_site_fract_z
Si Si1 0.731375 0.176509 0.047091
Si Si2 0.910528 0.598243 0.936257
Si Si3 0.842587 0.880127 0.180092
Si Si4 0.995347 0.321076 0.667211
Si Si5 0.600895 0.049830 0.701948
Si Si6 0.548718 0.655382 0.402733
Si Si7 0.841930 0.972638 0.655995
O O1 0.557221 0.257870 0.321185
O O2 0.829156 0.055637 0.089672
O O3 0.828967 0.299349 0.849216
O O4 0.724299 0.062738 0.935318
O O5 0.892503 0.776278 0.969700
O O6 0.732278 0.602365 0.182512
O O7 0.987608 0.495515 0.692983
O O8 0.000000 0.500000 0.000000
O O9 0.952667 0.780005 0.201938
O O10 0.669857 0.921014 0.494584
O O11 0.118112 0.211405 0.394456
O O12 0.505107 0.216947 0.709300
O O13 0.759845 0.057863 0.573819
O O14 0.500000 0.000000 0.000000
O O15 0.500000 0.500000 0.500000
O O16 0.000000 0.000000 0.500000
#
# Coordination Sequence:
#
# PCOD9084388 Si02
#       7
#     2   2   2   2   2   2   2
#     4  10  19  34  64  89 118 160 215 255 301 368
#     4  10  21  38  62  90 124 161 210 258 311 371
#     4   9  20  34  61  90 117 162 212 253 305 370
#     4   9  17  37  58  84 128 158 200 257 316 362
#     4  10  23  40  63  91 129 164 205 260 316 365
#     4  11  23  41  65  92 126 166 209 260 314 367
#     4   9  20  38  61  90 124 162 208 253 310 369
#
# _framework density 23.115293000000001
#
# number of rings (size 3 to 8) (size 9 to 14) (size 15 to 20)
#    0.000    2.286    1.429    0.429    4.000    2.286 
#    0.000    1.429    6.286    0.000    0.000    0.000 
#    0.000    0.000    0.000    0.000    0.000    0.000 
#
# Total GULP energy -77946.890926 kJ/mol
# GULP energy per Si atom -5567.635066 kJ/mol
# Density = 2.306268 g / cm^3
# Si number density = 23.115293 Si / 1000 Ang^3
#
#
#
# Elastic Constant Matrix: (Units=GPa)
#
#
# Indices 1 2 3 4 5 6 
#
# 1 97.6883 38.1594 27.2489 22.4278 -4.4194 -6.4300
# 2 38.1594 124.7610 41.6254 30.5622 9.7109 8.4021
# 3 27.2489 41.6254 101.5991 36.7521 23.6858 12.7150
# 4 22.4278 30.5622 36.7521 41.7913 14.5799 6.5320
# 5 -4.4194 9.7109 23.6858 14.5799 50.3677 18.0272
# 6 -6.4300 8.4021 12.7150 6.5320 18.0272 32.0067
#
#
#
# Elastic Compliance Matrix: (Units=1/GPa)
#
#
# Indices 1 2 3 4 5 6 
#
# 1 0.013305 -0.002690 -0.001655 -0.005216 0.002691 0.003585
# 2 -0.002690 0.010685 -0.001881 -0.004627 0.000651 -0.002020
# 3 -0.001655 -0.001881 0.015779 -0.010050 -0.003559 -0.002051
# 4 -0.005216 -0.004627 -0.010050 0.041342 -0.006608 -0.000556
# 5 0.002691 0.000651 -0.003559 -0.006608 0.028093 -0.012691
# 6 0.003585 -0.002020 -0.002051 -0.000556 -0.012691 0.040570
#
#
# Mechanical properties :
#
#
# Convention : Reuss Voigt Hill
#
# Bulk Modulus (GPa) = 36.60967 59.79066 48.20016
# Shear Modulus (GPa) = 29.18299 39.30079 34.24189
#
# Velocity S-wave (km/s) = 3.55702 4.12783 3.85301
# Velocity P-wave (km/s) = 5.72207 6.97432 6.37899
#
# Compressibility (1/GPa) = 0.02731519
#
# Stress axis : x y z
#
# Youngs Moduli (GPa) = 75.16236 93.59236 63.37404
#
# Poissons Ratio (x) = 0.25178 0.10490
# Poissons Ratio (y) = 0.20220 0.11922
# Poissons Ratio (z) = 0.12441 0.17607
#
# Static dielectric constant tensor:
#      x y z
#    x 1.886410 0.003560 0.067980 
#    y 0.003560 1.892180 -0.000850 
#    z 0.067980 -0.000850 1.948240 
# 
# From -- ./inp_files/205701.got.cif
#   From: 2010.05.17/outbox.cif.g08.bks.cpg/sg2_103_cif.got.tgz:205701.got - 2010.06.03 11:33:40.
