data_PCOD9084018
_publ_section_title
;
Structure prediction by ZEFSAII (Michael W. Deem and Ramdas Pophale) SiO2 
 PCOD9084018
Probable space group: P -1
;
_chemical_formula_sum "Si O2"
_cell_formula_units_Z 16
_cell_length_a 11.032367
_cell_length_b 22.638869
_cell_length_c 7.379151
_cell_angle_alpha 127.750466
_cell_angle_beta 79.891080
_cell_angle_gamma 143.590317
_cell_volume 637.494092
_symmetry_space_group_name_H-M "P -1"
_symmetry_group_IT_number 2
_symmetry_cell_setting 'triclinic'
loop_
_space_group_symop_operation_xyz
x,y,z
-x,-y,-z
loop_
_atom_site_type_symbol
_atom_site_label
_atom_site_fract_x
_atom_site_fract_y
_atom_site_fract_z
Si Si1 0.821207 0.745936 0.254569
Si Si2 0.650018 0.016299 0.596219
Si Si3 0.547651 0.114018 0.239589
Si Si4 0.761501 0.911801 0.780839
Si Si5 0.035629 0.333822 0.316916
Si Si6 0.635999 0.607268 0.435180
Si Si7 0.252323 0.197578 0.945300
Si Si8 0.276937 0.601899 0.577600
O O1 0.755859 0.708570 0.411905
O O2 0.150536 0.921749 0.467480
O O3 0.660152 0.586814 0.914389
O O4 0.715368 0.757023 0.182565
O O5 0.500000 0.000000 0.500000
O O6 0.446532 0.866771 0.511065
O O7 0.860912 0.173846 0.968840
O O8 0.315354 0.042324 0.085776
O O9 0.838284 0.283134 0.383669
O O10 0.500000 0.000000 0.000000
O O11 0.463972 0.715492 0.558781
O O12 0.000000 0.000000 0.000000
O O13 0.932530 0.006451 0.722380
O O14 0.213936 0.385597 0.514647
O O15 0.167762 0.458106 0.362307
O O16 0.681587 0.692807 0.741438
O O17 0.481510 0.262742 0.075058
O O18 0.000000 0.500000 0.500000
#
# Coordination Sequence:
#
# PCOD9084018 Si02
#       8
#     2   2   2   2   2   2   2   2
#     4  11  21  36  62 100 128 162 203 264 340 385
#     4  11  22  36  58  95 134 165 205 273 331 385
#     4  10  19  34  59  90 124 159 209 267 324 378
#     4  10  21  36  61  91 123 173 222 257 318 394
#     4  11  20  37  63  94 132 167 213 264 330 388
#     4  11  22  37  66 102 126 159 210 272 329 396
#     4  11  20  41  66  93 130 167 214 271 322 386
#     4  11  22  37  64  92 123 180 221 257 320 392
#
# _framework density 25.098271
#
# number of rings (size 3 to 8) (size 9 to 14) (size 15 to 20)
#    0.000    1.250    5.000    2.625    0.000    1.000 
#    0.000    0.000    0.000   11.250    0.000    0.000 
#    0.000    0.000    0.000    0.000    0.000    0.000 
#
# Total GULP energy -89216.177208 kJ/mol
# GULP energy per Si atom -5576.011075 kJ/mol
# Density = 2.504115 g / cm^3
# Si number density = 25.098271 Si / 1000 Ang^3
#
#
#
# Elastic Constant Matrix: (Units=GPa)
#
#
# Indices 1 2 3 4 5 6 
#
# 1 149.9351 40.3147 47.5454 6.0661 22.0554 4.6521
# 2 40.3147 173.9738 32.0452 21.5129 15.0398 -24.7019
# 3 47.5454 32.0452 54.8801 3.8119 8.8369 7.7457
# 4 6.0661 21.5129 3.8119 36.6797 -2.2839 12.2970
# 5 22.0554 15.0398 8.8369 -2.2839 54.6233 10.3348
# 6 4.6521 -24.7019 7.7457 12.2970 10.3348 43.6674
#
#
#
# Elastic Compliance Matrix: (Units=1/GPa)
#
#
# Indices 1 2 3 4 5 6 
#
# 1 0.009655 -0.000195 -0.007883 -0.001277 -0.002868 0.001298
# 2 -0.000195 0.009598 -0.005599 -0.008527 -0.003861 0.009759
# 3 -0.007883 -0.005599 0.028977 0.004817 0.001997 -0.009296
# 4 -0.001277 -0.008527 0.004817 0.038472 0.007109 -0.018059
# 5 -0.002868 -0.003861 0.001997 0.007109 0.022303 -0.009513
# 6 0.001298 0.009759 -0.009296 -0.018059 -0.009513 0.037269
#
#
# Mechanical properties :
#
#
# Convention : Reuss Voigt Hill
#
# Bulk Modulus (GPa) = 47.90384 68.73330 58.31857
# Shear Modulus (GPa) = 27.68755 44.25299 35.97027
#
# Velocity S-wave (km/s) = 3.32500 4.20359 3.78984
# Velocity P-wave (km/s) = 5.81969 7.14180 6.51437
#
# Compressibility (1/GPa) = 0.02087515
#
# Stress axis : x y z
#
# Youngs Moduli (GPa) = 103.57052 104.18428 34.51070
#
# Poissons Ratio (x) = 0.02034 0.27206
# Poissons Ratio (y) = 0.02022 0.19322
# Poissons Ratio (z) = 0.81650 0.58331
#
# Static dielectric constant tensor:
#      x y z
#    x 1.762090 -0.069450 -0.212690 
#    y -0.069450 2.142050 0.022910 
#    z -0.212690 0.022910 1.908880 
# 
# From -- ./inp_files/284318.got.cif
#   From: 2010.05.17/outbox.cif.g08.bks.cpg/sg2_143_cif.got.tgz:284318.got - 2010.06.03 11:33:40.
