data_PCOD9084824
_publ_section_title
;
Structure prediction by ZEFSAII (Michael W. Deem and Ramdas Pophale) SiO2 
 PCOD9084824
Probable space group: P -1
;
_chemical_formula_sum "Si O2"
_cell_formula_units_Z 16
_cell_length_a 8.236521
_cell_length_b 21.411018
_cell_length_c 8.578189
_cell_angle_alpha 138.816908
_cell_angle_beta 139.126542
_cell_angle_gamma 46.000741
_cell_volume 623.563065
_symmetry_space_group_name_H-M "P -1"
_symmetry_group_IT_number 2
_symmetry_cell_setting 'triclinic'
loop_
_space_group_symop_operation_xyz
x,y,z
-x,-y,-z
loop_
_atom_site_type_symbol
_atom_site_label
_atom_site_fract_x
_atom_site_fract_y
_atom_site_fract_z
Si Si1 0.194057 0.193907 0.051717
Si Si2 0.277497 0.676881 0.938188
Si Si3 0.182778 0.975862 0.271014
Si Si4 0.832341 0.614513 0.055641
Si Si5 0.590654 0.018764 0.867465
Si Si6 0.672485 0.515676 0.508900
Si Si7 0.477670 0.668500 0.409246
Si Si8 0.985460 0.793565 0.413512
O O1 0.291568 0.283673 0.354590
O O2 0.924591 0.214291 0.992034
O O3 0.422905 0.091430 0.014869
O O4 0.121126 0.208255 0.842949
O O5 0.163598 0.592953 0.623689
O O6 0.550148 0.655609 0.006218
O O7 0.358165 0.653061 0.130056
O O8 0.384221 0.962991 0.540125
O O9 0.121506 0.093567 0.404106
O O10 0.341295 0.926796 0.139493
O O11 0.886583 0.968379 0.051242
O O12 0.942808 0.706997 0.327988
O O13 0.805376 0.595907 0.817032
O O14 0.000000 0.500000 0.000000
O O15 0.500000 0.500000 0.500000
O O16 0.518536 0.568280 0.347072
O O17 0.290202 0.756101 0.539416
#
# Coordination Sequence:
#
# PCOD9084824 Si02
#       8
#     2   2   2   2   2   2   2   2
#     4  10  20  35  56  81 114 144 189 237 293 350
#     4  10  24  37  55  80 110 151 195 238 297 346
#     4   9  17  30  56  86 118 147 190 240 296 348
#     4  11  23  40  56  78 113 155 198 243 288 347
#     4   9  17  32  53  88 119 147 185 243 298 352
#     4  10  21  38  54  74 108 147 192 240 287 338
#     4  11  20  37  57  81 109 147 188 243 289 347
#     4  10  19  35  57  83 110 149 193 239 287 348
#
# _framework density 25.658994
#
# number of rings (size 3 to 8) (size 9 to 14) (size 15 to 20)
#    0.000    2.000    2.500    1.875    1.750    1.500 
#    0.000    0.000    0.000    0.750    0.000    0.875 
#    0.000    0.000    0.000    0.000    0.000    0.000 
#
# Total GULP energy -89075.919710 kJ/mol
# GULP energy per Si atom -5567.244982 kJ/mol
# Density = 2.560059 g / cm^3
# Si number density = 25.658994 Si / 1000 Ang^3
#
#
#
# Elastic Constant Matrix: (Units=GPa)
#
#
# Indices 1 2 3 4 5 6 
#
# 1 73.6745 69.0077 38.4481 1.5159 -1.3901 -40.2312
# 2 69.0077 146.5013 38.7589 0.9087 -4.0352 -25.4199
# 3 38.4481 38.7589 87.8882 8.1696 -2.6614 -14.7370
# 4 1.5159 0.9087 8.1696 33.3296 -18.5999 -1.1253
# 5 -1.3901 -4.0352 -2.6614 -18.5999 26.0104 2.8953
# 6 -40.2312 -25.4199 -14.7370 -1.1253 2.8953 55.5950
#
#
#
# Elastic Compliance Matrix: (Units=1/GPa)
#
#
# Indices 1 2 3 4 5 6 
#
# 1 0.045137 -0.014809 -0.009299 -0.000843 -0.004069 0.023622
# 2 -0.014809 0.013077 -0.000200 0.001971 0.003173 -0.004916
# 3 -0.009299 -0.000200 0.015438 -0.004479 -0.001848 -0.002723
# 4 -0.000843 0.001971 -0.004479 0.051629 0.036920 -0.001774
# 5 -0.004069 0.003173 -0.001848 0.036920 0.065450 -0.004645
# 6 0.023622 -0.004916 -0.002723 -0.001774 -0.004645 0.032318
#
#
# Mechanical properties :
#
#
# Convention : Reuss Voigt Hill
#
# Bulk Modulus (GPa) = 39.94282 66.72149 53.33216
# Shear Modulus (GPa) = 17.85657 33.77694 25.81675
#
# Velocity S-wave (km/s) = 2.64089 3.63213 3.17543
# Velocity P-wave (km/s) = 4.98995 6.60677 5.85445
#
# Compressibility (1/GPa) = 0.02503579
#
# Stress axis : x y z
#
# Youngs Moduli (GPa) = 22.15496 76.47260 64.77533
#
# Poissons Ratio (x) = 1.13249 0.60234
# Poissons Ratio (y) = 0.32809 0.01294
# Poissons Ratio (z) = 0.20602 0.01527
#
# Static dielectric constant tensor:
#      x y z
#    x 2.089730 -0.049940 0.104610 
#    y -0.049940 2.129520 -0.068700 
#    z 0.104610 -0.068700 2.165370 
# 
# From -- ./inp_files/56491.got.cif
#   From: 2010.05.17/outbox.cif.g08.bks.cpg/sg2_29_cif.got.tgz:56491.got - 2010.06.03 11:33:40.
