data_PCOD9084826
_publ_section_title
;
Structure prediction by ZEFSAII (Michael W. Deem and Ramdas Pophale) SiO2 
 PCOD9084826
Probable space group: P -1
;
_chemical_formula_sum "Si O2"
_cell_formula_units_Z 16
_cell_length_a 14.672864
_cell_length_b 15.381363
_cell_length_c 12.766336
_cell_angle_alpha 35.557652
_cell_angle_beta 30.287812
_cell_angle_gamma 26.970330
_cell_volume 646.759118
_symmetry_space_group_name_H-M "P -1"
_symmetry_group_IT_number 2
_symmetry_cell_setting 'triclinic'
loop_
_space_group_symop_operation_xyz
x,y,z
-x,-y,-z
loop_
_atom_site_type_symbol
_atom_site_label
_atom_site_fract_x
_atom_site_fract_y
_atom_site_fract_z
Si Si1 0.739902 0.388893 0.048939
Si Si2 0.308551 0.404783 0.684824
Si Si3 0.245822 0.163761 0.659253
Si Si4 0.849097 0.026516 0.221606
Si Si5 0.001095 0.272700 0.468855
Si Si6 0.949151 0.315067 0.138616
Si Si7 0.708623 0.995279 0.754589
Si Si8 0.634630 0.747108 0.734708
O O1 0.570162 0.612568 0.962953
O O2 0.987809 0.294745 0.834868
O O3 0.690137 0.246047 0.204071
O O4 0.805593 0.360147 0.133152
O O5 0.573415 0.209981 0.633035
O O6 0.247410 0.536691 0.515008
O O7 0.222235 0.535219 0.746688
O O8 0.136316 0.351078 0.896794
O O9 0.293213 0.291477 0.423359
O O10 0.273685 0.047325 0.640138
O O11 0.415715 0.977765 0.749829
O O12 0.996114 0.877165 0.316639
O O13 0.000000 0.000000 0.000000
O O14 0.143788 0.320639 0.346885
O O15 0.157230 0.156626 0.324705
O O16 0.104019 0.096463 0.246707
O O17 0.500000 0.000000 0.000000
#
# Coordination Sequence:
#
# PCOD9084826 Si02
#       8
#     2   2   2   2   2   2   2   2
#     4  11  20  34  58  78 105 149 185 216 275 331
#     4   9  17  33  51  81 114 139 172 226 281 314
#     4   9  21  37  52  79 111 137 182 235 279 313
#     4   9  21  41  56  76 114 153 181 224 274 327
#     4  10  19  35  57  83 112 144 185 222 275 325
#     4   9  18  30  51  84 108 138 181 223 268 327
#     4   9  19  31  54  84 116 140 171 229 281 322
#     4  10  20  33  56  83 106 136 184 240 268 322
#
# _framework density 24.738731000000001
#
# number of rings (size 3 to 8) (size 9 to 14) (size 15 to 20)
#    0.000    2.500    1.250    1.125    3.500    0.500 
#    0.000    5.000    0.000    1.500    0.000    0.000 
#    0.000    0.000    0.000    0.000    0.000    0.000 
#
# Total GULP energy -89324.096370 kJ/mol
# GULP energy per Si atom -5582.756023 kJ/mol
# Density = 2.468243 g / cm^3
# Si number density = 24.738731 Si / 1000 Ang^3
#
#
#
# Elastic Constant Matrix: (Units=GPa)
#
#
# Indices 1 2 3 4 5 6 
#
# 1 101.3992 30.7431 26.0427 -11.6214 24.0241 -1.1140
# 2 30.7431 102.4729 29.3954 -15.9489 12.5213 -19.9504
# 3 26.0427 29.3954 94.9112 -24.4173 26.3257 -6.3280
# 4 -11.6214 -15.9489 -24.4173 36.5493 -6.5068 7.8835
# 5 24.0241 12.5213 26.3257 -6.5068 30.7311 -6.9945
# 6 -1.1140 -19.9504 -6.3280 7.8835 -6.9945 34.1932
#
#
#
# Elastic Compliance Matrix: (Units=1/GPa)
#
#
# Indices 1 2 3 4 5 6 
#
# 1 0.013302 -0.003339 0.000396 0.002139 -0.009822 -0.003944
# 2 -0.003339 0.012921 -0.002632 0.001602 0.001506 0.006882
# 3 0.000396 -0.002632 0.016682 0.008551 -0.012387 -0.002941
# 4 0.002139 0.001602 0.008551 0.035156 -0.003632 -0.006262
# 5 -0.009822 0.001506 -0.012387 -0.003632 0.051648 0.009669
# 6 -0.003944 0.006882 -0.002941 -0.006262 0.009669 0.036009
#
#
# Mechanical properties :
#
#
# Convention : Reuss Voigt Hill
#
# Bulk Modulus (GPa) = 31.49232 52.34952 41.92092
# Shear Modulus (GPa) = 26.67331 34.46819 30.57075
#
# Velocity S-wave (km/s) = 3.28716 3.73673 3.51913
# Velocity P-wave (km/s) = 5.21199 6.31066 5.78745
#
# Compressibility (1/GPa) = 0.03175377
#
# Stress axis : x y z
#
# Youngs Moduli (GPa) = 75.17915 77.39619 59.94334
#
# Poissons Ratio (x) = 0.25842 -0.02374
# Poissons Ratio (y) = 0.25102 0.15780
# Poissons Ratio (z) = -0.02977 0.20374
#
# Static dielectric constant tensor:
#      x y z
#    x 2.011560 -0.062840 -0.107890 
#    y -0.062840 2.034840 -0.120710 
#    z -0.107890 -0.120710 2.391000 
# 
# From -- ./inp_files/312751.got.cif
#   From: 2010.05.17/outbox.cif.g08.bks.cpg/sg2_157_cif.got.tgz:312751.got - 2010.06.03 11:33:40.
