data_PCOD9084440
_publ_section_title
;
Structure prediction by ZEFSAII (Michael W. Deem and Ramdas Pophale) SiO2 
 PCOD9084440
Probable space group: P -1
;
_chemical_formula_sum "Si O2"
_cell_formula_units_Z 14
_cell_length_a 13.125233
_cell_length_b 12.535990
_cell_length_c 7.040614
_cell_angle_alpha 116.597930
_cell_angle_beta 116.209435
_cell_angle_gamma 31.166842
_cell_volume 531.776812
_symmetry_space_group_name_H-M "P -1"
_symmetry_group_IT_number 2
_symmetry_cell_setting 'triclinic'
loop_
_space_group_symop_operation_xyz
x,y,z
-x,-y,-z
loop_
_atom_site_type_symbol
_atom_site_label
_atom_site_fract_x
_atom_site_fract_y
_atom_site_fract_z
Si Si1 0.251191 0.007613 0.547231
Si Si2 0.290959 0.641423 0.538697
Si Si3 0.625762 0.831123 0.798563
Si Si4 0.442307 0.672659 0.204393
Si Si5 0.793474 0.482810 0.883944
Si Si6 0.935388 0.682733 0.675124
Si Si7 0.678428 0.134641 0.121899
O O1 0.097082 0.205626 0.444453
O O2 0.461977 0.894695 0.601627
O O3 0.282217 0.843368 0.374994
O O4 0.228921 0.031375 0.775857
O O5 0.500000 0.500000 0.500000
O O6 0.355609 0.493697 0.640999
O O7 0.162236 0.678335 0.316528
O O8 0.220861 0.823846 0.719631
O O9 0.792978 0.601348 0.847473
O O10 0.500000 0.000000 0.000000
O O11 0.347283 0.842664 0.106472
O O12 0.500000 0.500000 0.000000
O O13 0.556496 0.671183 0.869568
O O14 0.908263 0.401526 0.109623
O O15 0.000000 0.500000 0.500000
O O16 0.735246 0.828321 0.747573
#
# Coordination Sequence:
#
# PCOD9084440 Si02
#       7
#     2   2   2   2   2   2   2
#     4  11  23  42  65  99 132 179 237 289 330 415
#     4   9  15  36  63  99 128 168 228 272 330 422
#     4  11  24  45  69  94 127 184 251 287 326 412
#     4  10  19  34  69 101 127 170 231 283 334 403
#     4  10  21  39  66  93 134 178 215 289 354 392
#     4  12  28  44  63 100 147 182 230 293 362 395
#     4   9  20  36  69  98 128 173 238 270 330 425
#
# _framework density 26.326834000000002
#
# number of rings (size 3 to 8) (size 9 to 14) (size 15 to 20)
#    0.000    1.714    4.286    1.714    6.000    0.000 
#    0.000    0.714    0.000    1.714    0.000    0.000 
#    0.000    0.000    0.000    0.000    0.000    0.000 
#
# Total GULP energy -78051.185622 kJ/mol
# GULP energy per Si atom -5575.084687 kJ/mol
# Density = 2.626691 g / cm^3
# Si number density = 26.326834 Si / 1000 Ang^3
#
#
#
# Elastic Constant Matrix: (Units=GPa)
#
#
# Indices 1 2 3 4 5 6 
#
# 1 86.4252 57.2625 50.3076 -23.2843 -8.1496 16.0444
# 2 57.2625 118.9706 68.9854 -37.6207 6.0078 31.9888
# 3 50.3076 68.9854 192.6428 -30.3484 7.0579 18.6104
# 4 -23.2843 -37.6207 -30.3484 64.2636 4.4103 -6.7044
# 5 -8.1496 6.0078 7.0579 4.4103 46.0064 -9.9314
# 6 16.0444 31.9888 18.6104 -6.7044 -9.9314 65.1811
#
#
#
# Elastic Compliance Matrix: (Units=1/GPa)
#
#
# Indices 1 2 3 4 5 6 
#
# 1 0.018563 -0.007842 -0.002142 0.000873 0.004708 0.000698
# 2 -0.007842 0.017360 -0.002468 0.005877 -0.005150 -0.006065
# 3 -0.002142 -0.002468 0.006882 0.001085 -0.001284 -0.000310
# 4 0.000873 0.005877 0.001085 0.019850 -0.003078 -0.001836
# 5 0.004708 -0.005150 -0.001284 -0.003078 0.024858 0.005206
# 6 0.000698 -0.006065 -0.000310 -0.001836 0.005206 0.018840
#
#
# Mechanical properties :
#
#
# Convention : Reuss Voigt Hill
#
# Bulk Modulus (GPa) = 55.86272 83.46108 69.66190
# Shear Modulus (GPa) = 36.43667 49.85576 43.14622
#
# Velocity S-wave (km/s) = 3.72427 4.35641 4.05269
# Velocity P-wave (km/s) = 6.30544 7.55481 6.95822
#
# Compressibility (1/GPa) = 0.01790103
#
# Stress axis : x y z
#
# Youngs Moduli (GPa) = 53.87101 57.60231 145.30414
#
# Poissons Ratio (x) = 0.45172 0.31120
# Poissons Ratio (y) = 0.42246 0.35868
# Poissons Ratio (z) = 0.11538 0.14219
#
# Static dielectric constant tensor:
#      x y z
#    x 2.157380 0.018300 -0.022230 
#    y 0.018300 2.115020 0.102260 
#    z -0.022230 0.102260 2.152190 
# 
# From -- ./inp_files/348721.got.cif
#   From: 2010.05.17/outbox.cif.g08.bks.cpg/sg2_175_cif.got.tgz:348721.got - 2010.06.03 11:33:40.
