data_PCOD9084864
_publ_section_title
;
Structure prediction by ZEFSAII (Michael W. Deem and Ramdas Pophale) SiO2 
 PCOD9084864
Probable space group: P -1
;
_chemical_formula_sum "Si O2"
_cell_formula_units_Z 16
_cell_length_a 13.059412
_cell_length_b 11.647129
_cell_length_c 10.826149
_cell_angle_alpha 40.070325
_cell_angle_beta 66.013501
_cell_angle_gamma 94.007542
_cell_volume 737.824045
_symmetry_space_group_name_H-M "P -1"
_symmetry_group_IT_number 2
_symmetry_cell_setting 'triclinic'
loop_
_space_group_symop_operation_xyz
x,y,z
-x,-y,-z
loop_
_atom_site_type_symbol
_atom_site_label
_atom_site_fract_x
_atom_site_fract_y
_atom_site_fract_z
Si Si1 0.830303 0.853799 0.946715
Si Si2 0.871008 0.557905 0.302435
Si Si3 0.255417 0.931784 0.352091
Si Si4 0.835382 0.288665 0.046846
Si Si5 0.713479 0.611119 0.790478
Si Si6 0.939319 0.712996 0.788374
Si Si7 0.103107 0.367752 0.485760
Si Si8 0.418748 0.136652 0.340892
O O1 0.891155 0.780173 0.872176
O O2 0.719279 0.878638 0.913404
O O3 0.790547 0.661804 0.225138
O O4 0.952150 0.110953 0.736075
O O5 0.790113 0.298411 0.503795
O O6 0.892947 0.565432 0.431835
O O7 0.035107 0.722299 0.024928
O O8 0.109527 0.853769 0.560092
O O9 0.380214 0.022396 0.317925
O O10 0.675243 0.047064 0.352031
O O11 0.870993 0.445761 0.021391
O O12 0.861079 0.438106 0.790229
O O13 0.858202 0.733666 0.699953
O O14 0.765290 0.634842 0.605922
O O15 0.645241 0.730424 0.746570
O O16 0.591038 0.339466 0.111449
#
# Coordination Sequence:
#
# PCOD9084864 Si02
#       8
#     2   2   2   2   2   2   2   2
#     4  12  20  34  60  86 118 154 188 250 288 336
#     4  11  23  37  58  88 121 156 199 235 289 342
#     4  11  21  37  59  89 120 148 194 248 288 344
#     4  10  21  34  58  86 120 149 191 243 293 344
#     4  10  21  38  60  83 120 153 190 241 294 354
#     4  10  19  35  57  86 117 147 190 246 297 336
#     4  11  22  39  55  87 120 158 196 240 280 351
#     4  11  22  37  59  90 118 149 192 243 303 348
#
# _framework density 21.685388
#
# number of rings (size 3 to 8) (size 9 to 14) (size 15 to 20)
#    0.000    1.250    5.000    4.125    0.000    4.000 
#    0.000    0.625    0.000    0.750    0.000    0.000 
#    0.000    0.000    0.000    0.000    0.000    0.000 
#
# Total GULP energy -89215.826788 kJ/mol
# GULP energy per Si atom -5575.989174 kJ/mol
# Density = 2.163603 g / cm^3
# Si number density = 21.685388 Si / 1000 Ang^3
#
#
#
# Elastic Constant Matrix: (Units=GPa)
#
#
# Indices 1 2 3 4 5 6 
#
# 1 53.2300 2.7708 16.5301 1.7555 30.3077 9.5765
# 2 2.7708 112.8110 27.6480 0.7080 9.7074 20.4077
# 3 16.5301 27.6480 65.9209 -13.2944 21.7196 5.1312
# 4 1.7555 0.7080 -13.2944 11.5046 1.2686 -0.1847
# 5 30.3077 9.7074 21.7196 1.2686 35.9814 2.1979
# 6 9.5765 20.4077 5.1312 -0.1847 2.1979 16.3370
#
#
#
# Elastic Compliance Matrix: (Units=1/GPa)
#
#
# Indices 1 2 3 4 5 6 
#
# 1 0.046802 0.008285 -0.000801 -0.004792 -0.039029 -0.032335
# 2 0.008285 0.014515 -0.006879 -0.009863 -0.005157 -0.020245
# 3 -0.000801 -0.006879 0.032219 0.039840 -0.018437 0.001874
# 4 -0.004792 -0.009863 0.039840 0.136907 -0.022618 0.007208
# 5 -0.039029 -0.005157 -0.018437 -0.022618 0.072452 0.025109
# 6 -0.032335 -0.020245 0.001874 0.007208 0.025109 0.101570
#
#
# Mechanical properties :
#
#
# Convention : Reuss Voigt Hill
#
# Bulk Modulus (GPa) = 10.55460 36.20663 23.38062
# Shear Modulus (GPa) = 11.49860 25.09882 18.29871
#
# Velocity S-wave (km/s) = 2.30521 3.40576 2.90802
# Velocity P-wave (km/s) = 3.45876 5.67434 4.69900
#
# Compressibility (1/GPa) = 0.09474540
#
# Stress axis : x y z
#
# Youngs Moduli (GPa) = 21.36682 68.89463 31.03756
#
# Poissons Ratio (x) = -0.57078 0.02485
# Poissons Ratio (y) = -0.17702 0.21351
# Poissons Ratio (z) = 0.01711 0.47394
#
# Static dielectric constant tensor:
#      x y z
#    x 1.876610 -0.008940 0.068850 
#    y -0.008940 1.815510 -0.018300 
#    z 0.068850 -0.018300 1.836420 
# 
# From -- ./inp_files/452143.got.cif
#   From: 2010.05.17/outbox.cif.g08.bks.cpg/sg2_227_cif.got.tgz:452143.got - 2010.06.03 11:33:40.
