data_PCOD9084736
_publ_section_title
;
Structure prediction by ZEFSAII (Michael W. Deem and Ramdas Pophale) SiO2 
 PCOD9084736
Probable space group: P -1
;
_chemical_formula_sum "Si O2"
_cell_formula_units_Z 14
_cell_length_a 19.398031
_cell_length_b 10.271231
_cell_length_c 15.783552
_cell_angle_alpha 124.881931
_cell_angle_beta 17.663950
_cell_angle_gamma 126.750441
_cell_volume 764.547911
_symmetry_space_group_name_H-M "P -1"
_symmetry_group_IT_number 2
_symmetry_cell_setting 'triclinic'
loop_
_space_group_symop_operation_xyz
x,y,z
-x,-y,-z
loop_
_atom_site_type_symbol
_atom_site_label
_atom_site_fract_x
_atom_site_fract_y
_atom_site_fract_z
Si Si1 0.073857 0.989713 0.782389
Si Si2 0.969524 0.483876 0.632090
Si Si3 0.606338 0.016565 0.752539
Si Si4 0.146693 0.880859 0.323763
Si Si5 0.287133 0.872248 0.658969
Si Si6 0.452184 0.670250 0.151828
Si Si7 0.647079 0.703476 0.115768
O O1 0.248478 0.025732 0.512573
O O2 0.214671 0.939952 0.679110
O O3 0.942257 0.132030 0.017467
O O4 0.859320 0.841236 0.953584
O O5 0.980594 0.304988 0.582215
O O6 0.000000 0.500000 0.500000
O O7 0.180458 0.615895 0.473589
O O8 0.731048 0.534398 0.956491
O O9 0.765512 0.050390 0.661471
O O10 0.531330 0.186664 0.881566
O O11 0.373946 0.889549 0.002564
O O12 0.000000 0.000000 0.500000
O O13 0.405474 0.718812 0.448132
O O14 0.500000 0.000000 0.500000
O O15 0.608948 0.733548 0.072132
O O16 0.500000 0.500000 0.000000
#
# Coordination Sequence:
#
# PCOD9084736 Si02
#       7
#     2   2   2   2   2   2   2
#     4  10  19  35  56  88 119 148 197 244 295 348
#     4  12  21  36  55  83 112 153 201 241 281 352
#     4  11  22  37  54  83 117 154 195 240 288 356
#     4  11  25  38  54  81 122 159 196 237 293 347
#     4   9  19  32  56  90 117 147 190 252 297 339
#     4  12  21  32  58  83 113 155 196 232 289 339
#     4  11  19  33  57  84 119 147 192 243 290 334
#
# _framework density 18.311475999999999
#
# number of rings (size 3 to 8) (size 9 to 14) (size 15 to 20)
#    0.000    1.143    5.714    0.857    2.000    1.143 
#    0.000    0.000    0.000    0.857    0.000   15.000 
#    0.000    0.000    0.000    0.000    0.000    0.000 
#
# Total GULP energy -78062.750925 kJ/mol
# GULP energy per Si atom -5575.910780 kJ/mol
# Density = 1.826980 g / cm^3
# Si number density = 18.311476 Si / 1000 Ang^3
#
#
#
# Elastic Constant Matrix: (Units=GPa)
#
#
# Indices 1 2 3 4 5 6 
#
# 1 113.5070 23.1125 36.1867 0.1572 -15.2848 -3.7405
# 2 23.1125 70.3187 21.6889 6.5004 -2.7281 -15.6980
# 3 36.1867 21.6889 120.7229 25.9248 18.8719 -3.4709
# 4 0.1572 6.5004 25.9248 43.5114 2.2233 -3.0538
# 5 -15.2848 -2.7281 18.8719 2.2233 43.1602 1.1033
# 6 -3.7405 -15.6980 -3.4709 -3.0538 1.1033 22.8911
#
#
#
# Elastic Compliance Matrix: (Units=1/GPa)
#
#
# Indices 1 2 3 4 5 6 
#
# 1 0.011510 -0.002525 -0.004484 0.002682 0.005750 -0.000450
# 2 -0.002525 0.018469 -0.002239 -0.000640 0.000984 0.011780
# 3 -0.004484 -0.002239 0.012540 -0.006838 -0.006836 -0.000950
# 4 0.002682 -0.000640 -0.006838 0.027192 0.002435 0.002473
# 5 0.005750 0.000984 -0.006836 0.002435 0.028143 -0.000454
# 6 -0.000450 0.011780 -0.000950 0.002473 -0.000454 0.051898
#
#
# Mechanical properties :
#
#
# Convention : Reuss Voigt Hill
#
# Bulk Modulus (GPa) = 41.62980 51.83607 46.73294
# Shear Modulus (GPa) = 28.36809 36.81658 32.59233
#
# Velocity S-wave (km/s) = 3.94025 4.48881 4.22345
# Velocity P-wave (km/s) = 6.59427 7.43204 7.02566
#
# Compressibility (1/GPa) = 0.02402125
#
# Stress axis : x y z
#
# Youngs Moduli (GPa) = 86.88396 54.14566 79.74783
#
# Poissons Ratio (x) = 0.13673 0.35760
# Poissons Ratio (y) = 0.21941 0.17854
# Poissons Ratio (z) = 0.38960 0.12122
#
# Static dielectric constant tensor:
#      x y z
#    x 1.635570 0.021150 -0.001910 
#    y 0.021150 1.617520 0.046460 
#    z -0.001910 0.046460 1.731210 
# 
# From -- ./inp_files/83004.got.cif
#   From: 2010.05.17/outbox.cif.g08.bks.cpg/sg2_42_cif.got.tgz:83004.got - 2010.06.03 11:33:40.
