data_PCOD9084079
_publ_section_title
;
Structure prediction by ZEFSAII (Michael W. Deem and Ramdas Pophale) SiO2 
 PCOD9084079
Probable space group: P -1
;
_chemical_formula_sum "Si O2"
_cell_formula_units_Z 16
_cell_length_a 5.245874
_cell_length_b 14.177338
_cell_length_c 11.952369
_cell_angle_alpha 64.858288
_cell_angle_beta 120.299744
_cell_angle_gamma 101.397196
_cell_volume 694.625995
_symmetry_space_group_name_H-M "P -1"
_symmetry_group_IT_number 2
_symmetry_cell_setting 'triclinic'
loop_
_space_group_symop_operation_xyz
x,y,z
-x,-y,-z
loop_
_atom_site_type_symbol
_atom_site_label
_atom_site_fract_x
_atom_site_fract_y
_atom_site_fract_z
Si Si1 0.054615 0.536009 0.289778
Si Si2 0.570768 0.379442 0.503776
Si Si3 0.329635 0.673352 0.686963
Si Si4 0.226065 0.429122 0.011050
Si Si5 0.335540 0.052471 0.116981
Si Si6 0.194180 0.206413 0.566813
Si Si7 0.190084 0.086425 0.842614
Si Si8 0.650694 0.995379 0.415354
O O1 0.381791 0.483269 0.376736
O O2 0.111002 0.597366 0.385779
O O3 0.838833 0.438019 0.296942
O O4 0.949265 0.599398 0.125949
O O5 0.563989 0.315293 0.421043
O O6 0.386466 0.307574 0.582191
O O7 0.607921 0.661883 0.836303
O O8 0.069981 0.759475 0.593404
O O9 0.500000 0.500000 0.000000
O O10 0.000000 0.500000 0.000000
O O11 0.528417 0.967996 0.129617
O O12 0.526912 0.078666 0.254939
O O13 0.260666 0.132236 0.958792
O O14 0.047757 0.000736 0.133695
O O15 0.079093 0.162747 0.681709
O O16 0.388371 0.116140 0.596509
O O17 0.500000 0.000000 0.500000
O O18 0.000000 0.000000 0.500000
#
# Coordination Sequence:
#
# PCOD9084079 Si02
#       8
#     2   2   2   2   2   2   2   2
#     4   9  19  35  56  93 117 167 215 249 297 367
#     4  10  19  34  60  86 126 160 208 260 307 362
#     4  10  20  34  61  88 125 168 207 255 309 368
#     4  10  19  36  59  86 120 165 210 248 294 364
#     4   9  18  35  60  88 107 149 195 247 299 369
#     4  10  23  36  59  91 121 161 204 266 321 361
#     4   9  18  34  60  85 115 143 197 247 303 367
#     4  11  23  39  64  89 118 160 207 252 309 385
#
# _framework density 23.03398
#
# number of rings (size 3 to 8) (size 9 to 14) (size 15 to 20)
#    0.000    2.250    1.250    1.875    5.250    0.000 
#    0.000    0.000    5.500    0.000    0.000    0.000 
#    0.000    0.000    0.000    0.000    0.000    0.000 
#
# Total GULP energy -89126.383768 kJ/mol
# GULP energy per Si atom -5570.398985 kJ/mol
# Density = 2.298155 g / cm^3
# Si number density = 23.033980 Si / 1000 Ang^3
#
#
#
# Elastic Constant Matrix: (Units=GPa)
#
#
# Indices 1 2 3 4 5 6 
#
# 1 121.8506 15.0219 48.3989 3.5971 -4.6444 -4.3050
# 2 15.0219 42.6408 33.0548 -4.2579 -3.1390 -0.0962
# 3 48.3989 33.0548 217.1913 14.5585 -4.7025 8.2884
# 4 3.5971 -4.2579 14.5585 25.2809 0.1959 7.3930
# 5 -4.6444 -3.1390 -4.7025 0.1959 40.4413 4.7809
# 6 -4.3050 -0.0962 8.2884 7.3930 4.7809 22.1400
#
#
#
# Elastic Compliance Matrix: (Units=1/GPa)
#
#
# Indices 1 2 3 4 5 6 
#
# 1 0.009320 -0.002026 -0.001770 -0.001494 0.000373 0.002884
# 2 -0.002026 0.028430 -0.004314 0.008044 0.001634 -0.001694
# 3 -0.001770 -0.004314 0.005953 -0.003464 0.000349 -0.001510
# 4 -0.001494 0.008044 -0.003464 0.047545 0.001615 -0.015184
# 5 0.000373 0.001634 0.000349 0.001615 0.025654 -0.006130
# 6 0.002884 -0.001694 -0.001510 -0.015184 -0.006130 0.052680
#
#
# Mechanical properties :
#
#
# Convention : Reuss Voigt Hill
#
# Bulk Modulus (GPa) = 36.38942 63.84820 50.11881
# Shear Modulus (GPa) = 25.64575 36.58627 31.11601
#
# Velocity S-wave (km/s) = 3.34037 3.98975 3.67941
# Velocity P-wave (km/s) = 5.54165 7.00024 6.31321
#
# Compressibility (1/GPa) = 0.02748051
#
# Stress axis : x y z
#
# Youngs Moduli (GPa) = 107.29624 35.17454 167.99018
#
# Poissons Ratio (x) = 0.07127 0.29740
# Poissons Ratio (y) = 0.21740 0.72478
# Poissons Ratio (z) = 0.18995 0.15176
#
# Static dielectric constant tensor:
#      x y z
#    x 1.888050 -0.020810 0.017770 
#    y -0.020810 1.937510 0.011250 
#    z 0.017770 0.011250 1.991940 
# 
# From -- ./inp_files/367703.got.cif
#   From: 2010.05.17/outbox.cif.g08.bks.cpg/sg2_184_cif.got.tgz:367703.got - 2010.06.03 11:33:40.
