data_PCOD9084264
_publ_section_title
;
Structure prediction by ZEFSAII (Michael W. Deem and Ramdas Pophale) SiO2 
 PCOD9084264
Probable space group: P -1
;
_chemical_formula_sum "Si O2"
_cell_formula_units_Z 16
_cell_length_a 9.096020
_cell_length_b 15.295048
_cell_length_c 15.613893
_cell_angle_alpha 155.012948
_cell_angle_beta 129.406741
_cell_angle_gamma 50.339721
_cell_volume 695.727246
_symmetry_space_group_name_H-M "P -1"
_symmetry_group_IT_number 2
_symmetry_cell_setting 'triclinic'
loop_
_space_group_symop_operation_xyz
x,y,z
-x,-y,-z
loop_
_atom_site_type_symbol
_atom_site_label
_atom_site_fract_x
_atom_site_fract_y
_atom_site_fract_z
Si Si1 0.820468 0.133669 0.894163
Si Si2 0.499118 0.768437 0.639523
Si Si3 0.236866 0.672380 0.597198
Si Si4 0.312610 0.169631 0.550024
Si Si5 0.996839 0.508102 0.214834
Si Si6 0.517399 0.528867 0.931031
Si Si7 0.662851 0.478124 0.773987
Si Si8 0.277327 0.850358 0.945173
O O1 0.815761 0.936248 0.656987
O O2 0.917989 0.298313 0.023008
O O3 0.589700 0.232363 0.905113
O O4 0.863673 0.141897 0.018215
O O5 0.345468 0.813554 0.700600
O O6 0.620625 0.539231 0.505876
O O7 0.390318 0.727830 0.475304
O O8 0.636307 0.936727 0.835105
O O9 0.176596 0.804727 0.778265
O O10 0.095151 0.576672 0.398002
O O11 0.178267 0.289984 0.683642
O O12 0.385949 0.362994 0.702246
O O13 0.500000 0.000000 0.500000
O O14 0.156261 0.473477 0.169287
O O15 0.697854 0.468702 0.881121
O O16 0.500000 0.500000 0.000000
O O17 0.471040 0.663168 0.857031
#
# Coordination Sequence:
#
# PCOD9084264 Si02
#       8
#     2   2   2   2   2   2   2   2
#     4  10  22  38  58  86 114 158 195 240 300 351
#     4   9  17  33  57  85 123 159 194 236 284 350
#     4   9  19  34  54  87 123 157 193 239 293 340
#     4  11  22  40  64  80 110 156 200 241 302 357
#     4  10  23  39  57  85 125 153 191 251 297 340
#     4  10  19  38  66  83 112 149 193 246 294 356
#     4   9  20  37  58  91 119 153 196 241 291 347
#     4  10  19  34  62  87 117 160 203 231 283 357
#
# _framework density 22.997516000000001
#
# number of rings (size 3 to 8) (size 9 to 14) (size 15 to 20)
#    0.000    2.250    1.250    1.875    0.000    4.500 
#    0.000    4.375    0.000    0.000    0.000    0.000 
#    0.000    0.000    0.000    0.000    0.000    0.000 
#
# Total GULP energy -89145.726549 kJ/mol
# GULP energy per Si atom -5571.607909 kJ/mol
# Density = 2.294517 g / cm^3
# Si number density = 22.997516 Si / 1000 Ang^3
#
#
#
# Elastic Constant Matrix: (Units=GPa)
#
#
# Indices 1 2 3 4 5 6 
#
# 1 125.1971 26.5090 72.7570 -13.0522 -31.2312 16.4717
# 2 26.5090 43.0683 9.5995 -18.5101 -17.3033 11.8431
# 3 72.7570 9.5995 123.0367 -12.0399 -5.9051 31.9268
# 4 -13.0522 -18.5101 -12.0399 33.6899 5.3470 -6.0241
# 5 -31.2312 -17.3033 -5.9051 5.3470 47.4848 -7.6997
# 6 16.4717 11.8431 31.9268 -6.0241 -7.6997 28.7770
#
#
#
# Elastic Compliance Matrix: (Units=1/GPa)
#
#
# Indices 1 2 3 4 5 6 
#
# 1 0.017022 -0.007243 -0.011220 -0.001379 0.008563 0.007688
# 2 -0.007243 0.040691 0.007078 0.018395 0.006461 -0.014874
# 3 -0.011220 0.007078 0.019098 0.004006 -0.005861 -0.018408
# 4 -0.001379 0.018395 0.004006 0.040024 0.001386 -0.002476
# 5 0.008563 0.006461 -0.005861 0.001386 0.029308 0.007074
# 6 0.007688 -0.014874 -0.018408 -0.002476 0.007074 0.058269
#
#
# Mechanical properties :
#
#
# Convention : Reuss Voigt Hill
#
# Bulk Modulus (GPa) = 18.50405 56.55921 37.53163
# Shear Modulus (GPa) = 20.39202 34.15277 27.27240
#
# Velocity S-wave (km/s) = 2.98099 3.85783 3.44740
# Velocity P-wave (km/s) = 4.46228 6.67015 5.67463
#
# Compressibility (1/GPa) = 0.05404221
#
# Stress axis : x y z
#
# Youngs Moduli (GPa) = 58.74751 24.57528 52.36284
#
# Poissons Ratio (x) = 0.17799 0.58749
# Poissons Ratio (y) = 0.42549 -0.37062
# Poissons Ratio (z) = 0.65912 -0.17394
#
# Static dielectric constant tensor:
#      x y z
#    x 1.897710 -0.032070 -0.030890 
#    y -0.032070 2.084320 -0.082220 
#    z -0.030890 -0.082220 1.859470 
# 
# From -- ./inp_files/505941.got.cif
#   From: 2010.05.17/outbox.cif.g08.bks.cpg/sg2_253_cif.got.tgz:505941.got - 2010.06.03 11:33:40.
