data_PCOD9084182
_publ_section_title
;
Structure prediction by ZEFSAII (Michael W. Deem and Ramdas Pophale) SiO2 
 PCOD9084182
Probable space group: P -1
;
_chemical_formula_sum "Si O2"
_cell_formula_units_Z 12
_cell_length_a 6.520297
_cell_length_b 15.066083
_cell_length_c 10.709658
_cell_angle_alpha 155.690393
_cell_angle_beta 94.439577
_cell_angle_gamma 80.945901
_cell_volume 422.029937
_symmetry_space_group_name_H-M "P -1"
_symmetry_group_IT_number 2
_symmetry_cell_setting 'triclinic'
loop_
_space_group_symop_operation_xyz
x,y,z
-x,-y,-z
loop_
_atom_site_type_symbol
_atom_site_label
_atom_site_fract_x
_atom_site_fract_y
_atom_site_fract_z
Si Si1 0.772529 0.007168 0.388484
Si Si2 0.083990 0.261038 0.350724
Si Si3 0.478561 0.189430 0.413158
Si Si4 0.721755 0.359200 0.274104
Si Si5 0.075203 0.266856 0.640134
Si Si6 0.502299 0.692075 0.035545
O O1 0.679827 0.023419 0.262657
O O2 0.640282 0.197407 0.715065
O O3 0.992562 0.078138 0.469531
O O4 0.716056 0.783858 0.151651
O O5 0.324952 0.127565 0.219434
O O6 0.144455 0.485044 0.590141
O O7 0.992915 0.282506 0.513389
O O8 0.105272 0.775777 0.794744
O O9 0.320247 0.233749 0.581146
O O10 0.529850 0.429100 0.698919
O O11 0.500000 0.500000 0.500000
O O12 0.633113 0.228721 0.994155
O O13 0.000000 0.500000 0.000000
#
# Coordination Sequence:
#
# PCOD9084182 Si02
#       6
#     2   2   2   2   2   2
#     4  11  21  39  61  89 124 146 193 254 297 339
#     4   8  20  33  56  87 109 149 211 223 279 371
#     4   9  20  37  60  83 117 157 188 238 301 340
#     4  10  19  37  59  84 118 160 194 238 291 342
#     4  10  19  34  61  89 114 152 197 242 291 355
#     4  10  22  37  60  92 116 152 203 240 286 362
#
# _framework density 28.434000000000001
#
# number of rings (size 3 to 8) (size 9 to 14) (size 15 to 20)
#    1.000    1.333    1.667    0.500    4.667    0.000 
#    0.000   11.667    0.000    0.000    0.000    0.000 
#    0.000    0.000    0.000    0.000    0.000    0.000 
#
# Total GULP energy -67087.460164 kJ/mol
# GULP energy per Si atom -5590.621680 kJ/mol
# Density = 2.836928 g / cm^3
# Si number density = 28.434000 Si / 1000 Ang^3
#
#
#
# Elastic Constant Matrix: (Units=GPa)
#
#
# Indices 1 2 3 4 5 6 
#
# 1 190.9546 63.1483 62.1062 -2.1040 21.6734 1.5713
# 2 63.1483 147.8765 31.1022 -1.1657 6.6054 8.0896
# 3 62.1062 31.1022 104.0830 27.6177 30.4361 24.5423
# 4 -2.1040 -1.1657 27.6177 40.4122 17.6733 25.7052
# 5 21.6734 6.6054 30.4361 17.6733 57.5424 12.5866
# 6 1.5713 8.0896 24.5423 25.7052 12.5866 72.7207
#
#
#
# Elastic Compliance Matrix: (Units=1/GPa)
#
#
# Indices 1 2 3 4 5 6 
#
# 1 0.007687 -0.002246 -0.004619 0.003781 -0.001478 0.000562
# 2 -0.002246 0.008052 -0.001343 0.001491 0.000390 -0.000989
# 3 -0.004619 -0.001343 0.016626 -0.009014 -0.003800 -0.001518
# 4 0.003781 0.001491 -0.009014 0.040885 -0.007104 -0.010428
# 5 -0.001478 0.000390 -0.003800 -0.007104 0.022091 -0.000042
# 6 0.000562 -0.000989 -0.001518 -0.010428 -0.000042 0.018055
#
#
# Mechanical properties :
#
#
# Convention : Reuss Voigt Hill
#
# Bulk Modulus (GPa) = 62.69677 83.95863 73.32770
# Shear Modulus (GPa) = 37.00223 53.23889 45.12056
#
# Velocity S-wave (km/s) = 3.61132 4.33178 3.98785
# Velocity P-wave (km/s) = 6.28384 7.38991 6.85920
#
# Compressibility (1/GPa) = 0.01594978
#
# Stress axis : x y z
#
# Youngs Moduli (GPa) = 130.09513 124.18823 60.14698
#
# Poissons Ratio (x) = 0.27891 0.27782
# Poissons Ratio (y) = 0.29218 0.08076
# Poissons Ratio (z) = 0.60091 0.16675
#
# Static dielectric constant tensor:
#      x y z
#    x 2.225200 -0.104140 -0.014680 
#    y -0.104140 2.249350 0.024830 
#    z -0.014680 0.024830 2.135470 
# 
# From -- ./inp_files/506449.got.cif
#   From: 2010.05.17/outbox.cif.g08.bks.cpg/sg2_254_cif.got.tgz:506449.got - 2010.06.03 11:33:40.
