data_PCOD9084316
_publ_section_title
;
Structure prediction by ZEFSAII (Michael W. Deem and Ramdas Pophale) SiO2 
 PCOD9084316
Probable space group: P -1
;
_chemical_formula_sum "Si O2"
_cell_formula_units_Z 16
_cell_length_a 16.868706
_cell_length_b 10.637014
_cell_length_c 16.449004
_cell_angle_alpha 137.479577
_cell_angle_beta 156.049342
_cell_angle_gamma 56.353442
_cell_volume 728.922104
_symmetry_space_group_name_H-M "P -1"
_symmetry_group_IT_number 2
_symmetry_cell_setting 'triclinic'
loop_
_space_group_symop_operation_xyz
x,y,z
-x,-y,-z
loop_
_atom_site_type_symbol
_atom_site_label
_atom_site_fract_x
_atom_site_fract_y
_atom_site_fract_z
Si Si1 0.478388 0.066972 0.419698
Si Si2 0.974025 0.319916 0.951263
Si Si3 0.769443 0.657772 0.644318
Si Si4 0.048606 0.103178 0.777619
Si Si5 0.867137 0.342501 0.117745
Si Si6 0.693592 0.966384 0.254319
Si Si7 0.192292 0.778635 0.681902
Si Si8 0.315921 0.393816 0.029648
O O1 0.339568 0.197741 0.358458
O O2 0.721907 0.199089 0.680771
O O3 0.500000 0.000000 0.500000
O O4 0.660933 0.142610 0.861342
O O5 0.041440 0.160049 0.890599
O O6 0.135573 0.410456 0.221611
O O7 0.000000 0.500000 0.000000
O O8 0.976574 0.743929 0.820208
O O9 0.573165 0.486592 0.327899
O O10 0.215860 0.301638 0.978861
O O11 0.820458 0.051995 0.496376
O O12 0.105016 0.916010 0.717779
O O13 0.766557 0.446950 0.007817
O O14 0.024913 0.537622 0.412515
O O15 0.756269 0.795209 0.190937
O O16 0.767100 0.143311 0.337859
O O17 0.438456 0.851483 0.975498
#
# Coordination Sequence:
#
# PCOD9084316 Si02
#       8
#     2   2   2   2   2   2   2   2
#     4  12  26  44  69  99 131 180 231 276 330 397
#     4  12  29  47  67  98 140 185 217 272 339 407
#     4  12  24  42  69 100 134 172 226 282 330 392
#     4  11  22  39  61  94 142 174 216 272 334 397
#     4  12  21  39  66  99 129 164 222 281 331 386
#     4  10  19  34  62  98 133 169 221 275 329 382
#     4  10  20  34  63  99 127 173 220 279 331 388
#     4  11  20  36  67 102 131 173 221 281 333 387
#
# _framework density 21.950218
#
# number of rings (size 3 to 8) (size 9 to 14) (size 15 to 20)
#    0.000    0.750    6.250    2.625    0.000    3.000 
#    0.000    0.625    0.000    1.500    0.000    0.000 
#    0.000    0.000    0.000    0.000    0.000    0.000 
#
# Total GULP energy -89420.088523 kJ/mol
# GULP energy per Si atom -5588.755533 kJ/mol
# Density = 2.190026 g / cm^3
# Si number density = 21.950218 Si / 1000 Ang^3
#
#
#
# Elastic Constant Matrix: (Units=GPa)
#
#
# Indices 1 2 3 4 5 6 
#
# 1 54.0928 9.1594 10.7273 -2.3822 9.9831 -11.6730
# 2 9.1594 62.8675 16.9792 -1.0324 20.7028 -16.0929
# 3 10.7273 16.9792 131.2417 -5.4628 22.0333 6.1160
# 4 -2.3822 -1.0324 -5.4628 40.0561 -4.5413 1.1001
# 5 9.9831 20.7028 22.0333 -4.5413 31.7332 1.7921
# 6 -11.6730 -16.0929 6.1160 1.1001 1.7921 25.7663
#
#
#
# Elastic Compliance Matrix: (Units=1/GPa)
#
#
# Indices 1 2 3 4 5 6 
#
# 1 0.022799 0.003604 -0.001401 -0.000174 -0.009342 0.013569
# 2 0.003604 0.027433 -0.001640 -0.002062 -0.019350 0.020590
# 3 -0.001401 -0.001640 0.008868 0.000686 -0.004351 -0.003491
# 4 -0.000174 -0.002062 0.000686 0.025615 0.004756 -0.002954
# 5 -0.009342 -0.019350 -0.004351 0.004756 0.051856 -0.019095
# 6 0.013569 0.020590 -0.003491 -0.002954 -0.019095 0.060100
#
#
# Mechanical properties :
#
#
# Convention : Reuss Voigt Hill
#
# Bulk Modulus (GPa) = 16.60445 35.77043 26.18744
# Shear Modulus (GPa) = 23.18871 33.60020 28.39445
#
# Velocity S-wave (km/s) = 3.25379 3.91672 3.60054
# Velocity P-wave (km/s) = 4.65803 6.06513 5.40754
#
# Compressibility (1/GPa) = 0.06022481
#
# Stress axis : x y z
#
# Youngs Moduli (GPa) = 43.86161 36.45192 112.76533
#
# Poissons Ratio (x) = -0.13136 0.15798
# Poissons Ratio (y) = -0.15806 0.18499
# Poissons Ratio (z) = 0.06145 0.05980
#
# Static dielectric constant tensor:
#      x y z
#    x 1.790990 -0.032790 -0.015330 
#    y -0.032790 1.829320 0.017180 
#    z -0.015330 0.017180 1.825290 
# 
# From -- ./inp_files/532690.got.cif
#   From: 2010.05.17/outbox.cif.g08.bks.cpg/sg2_267_cif.got.tgz:532690.got - 2010.06.03 11:33:40.
