data_PCOD9084625
_publ_section_title
;
Structure prediction by ZEFSAII (Michael W. Deem and Ramdas Pophale) SiO2 
 PCOD9084625
Probable space group: P -1
;
_chemical_formula_sum "Si O2"
_cell_formula_units_Z 14
_cell_length_a 9.062342
_cell_length_b 8.042953
_cell_length_c 15.847638
_cell_angle_alpha 124.726937
_cell_angle_beta 143.871385
_cell_angle_gamma 77.144861
_cell_volume 487.814456
_symmetry_space_group_name_H-M "P -1"
_symmetry_group_IT_number 2
_symmetry_cell_setting 'triclinic'
loop_
_space_group_symop_operation_xyz
x,y,z
-x,-y,-z
loop_
_atom_site_type_symbol
_atom_site_label
_atom_site_fract_x
_atom_site_fract_y
_atom_site_fract_z
Si Si1 0.552508 0.745342 0.990275
Si Si2 0.731255 0.604388 0.398913
Si Si3 0.909992 0.526477 0.184282
Si Si4 0.629635 0.761198 0.750222
Si Si5 0.176021 0.865430 0.560306
Si Si6 0.013381 0.017786 0.162834
Si Si7 0.758191 0.304596 0.772851
O O1 0.390270 0.576888 0.787521
O O2 0.328110 0.713323 0.951275
O O3 0.731647 0.632559 0.083746
O O4 0.782152 0.981518 0.117733
O O5 0.642601 0.471919 0.408218
O O6 0.551175 0.741009 0.354698
O O7 0.057849 0.765340 0.570435
O O8 0.065201 0.682704 0.380822
O O9 0.151410 0.572481 0.240633
O O10 0.511708 0.946009 0.737881
O O11 0.839992 0.850629 0.954493
O O12 0.775906 0.758074 0.728923
O O13 0.000000 0.000000 0.500000
O O14 0.204319 0.919902 0.267320
O O15 0.000000 0.500000 0.000000
#
# Coordination Sequence:
#
# PCOD9084625 Si02
#       7
#     2   2   2   2   2   2   2
#     4   8  15  32  53  84 107 140 182 233 279 316
#     4  10  19  35  62  84 112 148 191 229 285 337
#     4   9  18  32  57  84 117 141 184 238 280 328
#     4  10  19  35  55  85 113 153 186 233 279 334
#     4  11  23  38  55  83 116 158 190 224 280 342
#     4   9  18  32  58  84 114 141 192 232 279 326
#     4  11  17  34  61  93 105 140 190 237 280 336
#
# _framework density 28.699437
#
# number of rings (size 3 to 8) (size 9 to 14) (size 15 to 20)
#    0.000    2.286    4.286    1.286    0.000    0.000 
#    0.000    7.143    0.000   18.857    0.000    0.000 
#    0.000    0.000    0.000    0.000    0.000    0.000 
#
# Total GULP energy -78323.574443 kJ/mol
# GULP energy per Si atom -5594.541032 kJ/mol
# Density = 2.863412 g / cm^3
# Si number density = 28.699437 Si / 1000 Ang^3
#
#
#
# Elastic Constant Matrix: (Units=GPa)
#
#
# Indices 1 2 3 4 5 6 
#
# 1 251.5057 31.1580 48.4467 2.0256 12.7788 57.4251
# 2 31.1580 121.7123 23.4090 -33.1055 0.6681 38.0067
# 3 48.4467 23.4090 60.6116 -11.5530 -15.3926 -4.5149
# 4 2.0256 -33.1055 -11.5530 30.8171 -6.6793 7.3622
# 5 12.7788 0.6681 -15.3926 -6.6793 60.1269 -5.1326
# 6 57.4251 38.0067 -4.5149 7.3622 -5.1326 64.6550
#
#
#
# Elastic Compliance Matrix: (Units=1/GPa)
#
#
# Indices 1 2 3 4 5 6 
#
# 1 0.007923 0.003066 -0.009399 0.000562 -0.004911 -0.009950
# 2 0.003066 0.021208 -0.008010 0.023607 -0.001902 -0.018588
# 3 -0.009399 -0.008010 0.031829 0.002723 0.011896 0.015913
# 4 0.000562 0.023607 0.002723 0.065088 0.005741 -0.021142
# 5 -0.004911 -0.001902 0.011896 0.005741 0.022011 0.007404
# 6 -0.009950 -0.018588 0.015913 -0.021142 0.007404 0.039338
#
#
# Mechanical properties :
#
#
# Convention : Reuss Voigt Hill
#
# Bulk Modulus (GPa) = 30.98221 71.09523 51.03872
# Shear Modulus (GPa) = 22.04193 53.17419 37.60806
#
# Velocity S-wave (km/s) = 2.77434 4.30908 3.62389
# Velocity P-wave (km/s) = 4.59145 7.04157 5.94412
#
# Compressibility (1/GPa) = 0.03227658
#
# Stress axis : x y z
#
# Youngs Moduli (GPa) = 126.20733 47.15297 31.41741
#
# Poissons Ratio (x) = -0.14458 0.29528
# Poissons Ratio (y) = -0.38699 0.25164
# Poissons Ratio (z) = 1.18617 0.37768
#
# Static dielectric constant tensor:
#      x y z
#    x 2.232300 -0.000390 0.166140 
#    y -0.000390 2.403650 0.044430 
#    z 0.166140 0.044430 2.258520 
# 
# From -- ./inp_files/495665.got.cif
#   From: 2010.05.17/outbox.cif.g08.bks.cpg/sg2_248_cif.got.tgz:495665.got - 2010.06.03 11:33:40.
