data_PCOD9084808
_publ_section_title
;
Structure prediction by ZEFSAII (Michael W. Deem and Ramdas Pophale) SiO2 
 PCOD9084808
Probable space group: P -1
;
_chemical_formula_sum "Si O2"
_cell_formula_units_Z 16
_cell_length_a 8.571901
_cell_length_b 12.214788
_cell_length_c 10.625264
_cell_angle_alpha 47.718268
_cell_angle_beta 69.821983
_cell_angle_gamma 72.535944
_cell_volume 768.849858
_symmetry_space_group_name_H-M "P -1"
_symmetry_group_IT_number 2
_symmetry_cell_setting 'triclinic'
loop_
_space_group_symop_operation_xyz
x,y,z
-x,-y,-z
loop_
_atom_site_type_symbol
_atom_site_label
_atom_site_fract_x
_atom_site_fract_y
_atom_site_fract_z
Si Si1 0.316458 0.348193 0.587626
Si Si2 0.392365 0.227424 0.923787
Si Si3 0.063411 0.360282 0.004455
Si Si4 0.089253 0.160053 0.664420
Si Si5 0.721301 0.092671 0.854861
Si Si6 0.079701 0.553017 0.628649
Si Si7 0.878357 0.083549 0.363793
Si Si8 0.657798 0.257978 0.476858
O O1 0.386028 0.333222 0.721661
O O2 0.222220 0.203972 0.693715
O O3 0.184313 0.492356 0.523955
O O4 0.474245 0.343130 0.456887
O O5 0.587346 0.171018 0.930538
O O6 0.263162 0.309232 0.995075
O O7 0.309458 0.078441 0.021322
O O8 0.970106 0.219209 0.177777
O O9 0.000000 0.500000 0.000000
O O10 0.024383 0.414653 0.829399
O O11 0.912638 0.121363 0.800555
O O12 0.053417 0.313703 0.476632
O O13 0.148702 0.030617 0.651465
O O14 0.674602 0.162519 0.675405
O O15 0.204179 0.628144 0.630104
O O16 0.712508 0.151615 0.428629
O O17 0.000000 0.000000 0.500000
#
# Coordination Sequence:
#
# PCOD9084808 Si02
#       8
#     2   2   2   2   2   2   2   2
#     4  10  22  34  55  84 112 144 184 228 281 324
#     4   9  18  33  53  81 109 139 180 229 270 320
#     4  11  19  33  55  86 107 136 184 231 270 318
#     4  11  21  36  56  84 111 148 180 227 280 329
#     4   9  17  33  55  78 109 139 182 226 271 318
#     4  10  20  37  57  81 108 148 183 228 270 326
#     4  12  20  36  59  84 110 145 186 224 272 329
#     4  10  19  35  57  82 108 144 191 227 267 322
#
# _framework density 20.810303999999999
#
# number of rings (size 3 to 8) (size 9 to 14) (size 15 to 20)
#    0.000    1.750    5.000    0.750    0.000    2.000 
#    0.000    0.000    0.000    0.750    0.000    0.000 
#    0.000    0.000    0.000    0.000    0.000    0.000 
#
# Total GULP energy -89247.153740 kJ/mol
# GULP energy per Si atom -5577.947109 kJ/mol
# Density = 2.076294 g / cm^3
# Si number density = 20.810304 Si / 1000 Ang^3
#
#
#
# Elastic Constant Matrix: (Units=GPa)
#
#
# Indices 1 2 3 4 5 6 
#
# 1 37.0000 26.8341 2.8157 12.9611 -9.5958 -1.3479
# 2 26.8341 166.6252 14.9705 14.7934 -7.2581 -23.6306
# 3 2.8157 14.9705 83.6632 -8.3497 0.4619 -15.7225
# 4 12.9611 14.7934 -8.3497 32.7812 -13.0372 -11.0444
# 5 -9.5958 -7.2581 0.4619 -13.0372 13.9320 1.1818
# 6 -1.3479 -23.6306 -15.7225 -11.0444 1.1818 28.0195
#
#
#
# Elastic Compliance Matrix: (Units=1/GPa)
#
#
# Indices 1 2 3 4 5 6 
#
# 1 0.038663 -0.005713 -0.003344 -0.011320 0.014010 -0.009887
# 2 -0.005713 0.007798 0.000270 0.001573 0.000994 0.007031
# 3 -0.003344 0.000270 0.015919 0.013382 0.008652 0.013909
# 4 -0.011320 0.001573 0.013382 0.071831 0.056895 0.034205
# 5 0.014010 0.000994 0.008652 0.056895 0.132932 0.023187
# 6 -0.009887 0.007031 0.013909 0.034205 0.023187 0.061452
#
#
# Mechanical properties :
#
#
# Convention : Reuss Voigt Hill
#
# Bulk Modulus (GPa) = 22.31885 41.83657 32.07771
# Shear Modulus (GPa) = 13.84635 31.12442 22.48538
#
# Velocity S-wave (km/s) = 2.58226 3.87153 3.29065
# Velocity P-wave (km/s) = 4.43158 6.33501 5.46678
#
# Compressibility (1/GPa) = 0.04480517
#
# Stress axis : x y z
#
# Youngs Moduli (GPa) = 25.86419 128.23576 62.81956
#
# Poissons Ratio (x) = 0.73262 0.21008
# Poissons Ratio (y) = 0.14776 -0.01694
# Poissons Ratio (z) = 0.08649 -0.03458
#
# Static dielectric constant tensor:
#      x y z
#    x 1.785560 -0.044460 0.004340 
#    y -0.044460 1.782100 0.008470 
#    z 0.004340 0.008470 1.809360 
# 
# From -- ./inp_files/239052.got.cif
#   From: 2010.05.17/outbox.cif.g08.bks.cpg/sg2_120_cif.got.tgz:239052.got - 2010.06.03 11:33:40.
