data_PCOD9084592
_publ_section_title
;
Structure prediction by ZEFSAII (Michael W. Deem and Ramdas Pophale) SiO2 
 PCOD9084592
Probable space group: P -1
;
_chemical_formula_sum "Si O2"
_cell_formula_units_Z 16
_cell_length_a 12.295827
_cell_length_b 15.591234
_cell_length_c 10.445993
_cell_angle_alpha 55.553142
_cell_angle_beta 128.675852
_cell_angle_gamma 153.202889
_cell_volume 704.654531
_symmetry_space_group_name_H-M "P -1"
_symmetry_group_IT_number 2
_symmetry_cell_setting 'triclinic'
loop_
_space_group_symop_operation_xyz
x,y,z
-x,-y,-z
loop_
_atom_site_type_symbol
_atom_site_label
_atom_site_fract_x
_atom_site_fract_y
_atom_site_fract_z
Si Si1 0.614194 0.576000 0.231020
Si Si2 0.464521 0.825382 0.005868
Si Si3 0.040255 0.383016 0.607559
Si Si4 0.648222 0.397396 0.090002
Si Si5 0.829079 0.236794 0.970948
Si Si6 0.344972 0.745947 0.411067
Si Si7 0.247699 0.167342 0.366722
Si Si8 0.681272 0.767180 0.334706
O O1 0.880661 0.684230 0.310015
O O2 0.393461 0.350909 0.246186
O O3 0.609231 0.616881 0.336899
O O4 0.557488 0.639575 0.046216
O O5 0.231397 0.750208 0.947515
O O6 0.482952 0.732677 0.181589
O O7 0.447706 0.771894 0.894617
O O8 0.711239 0.049032 0.029949
O O9 0.226071 0.527530 0.742407
O O10 0.138692 0.521984 0.452261
O O11 0.761834 0.239895 0.573528
O O12 0.882116 0.577217 0.017538
O O13 0.672286 0.206193 0.776386
O O14 0.609862 0.853164 0.537092
O O15 0.284386 0.214643 0.504571
O O16 0.948472 0.968650 0.295530
#
# Coordination Sequence:
#
# PCOD9084592 Si02
#       8
#     2   2   2   2   2   2   2   2
#     4  10  20  35  55  80 107 143 181 221 267 317
#     4  10  20  34  55  81 110 140 178 221 270 326
#     4   9  19  36  58  78 109 147 184 220 262 315
#     4  10  20  35  55  80 107 143 181 221 267 317
#     4  10  19  35  55  79 110 141 176 223 274 316
#     4   9  18  36  57  76 107 146 177 224 266 311
#     4  10  19  35  55  79 110 141 176 223 274 316
#     4  10  20  34  55  81 110 140 178 221 270 326
#
# _framework density 22.706161999999999
#
# number of rings (size 3 to 8) (size 9 to 14) (size 15 to 20)
#    0.000    2.250    1.250    1.875    0.000    0.000 
#    0.000   12.500    0.000   13.500    0.000    0.000 
#    0.000    0.000    0.000    0.000    0.000    0.000 
#
# Total GULP energy -89318.022134 kJ/mol
# GULP energy per Si atom -5582.376383 kJ/mol
# Density = 2.265448 g / cm^3
# Si number density = 22.706162 Si / 1000 Ang^3
#
#
#
# Elastic Constant Matrix: (Units=GPa)
#
#
# Indices 1 2 3 4 5 6 
#
# 1 122.0381 29.9325 17.6718 -10.0772 30.9465 -9.0152
# 2 29.9325 55.1849 -0.6609 -1.1341 4.7110 -7.8122
# 3 17.6718 -0.6609 41.1720 -8.5130 6.6536 -14.3342
# 4 -10.0772 -1.1341 -8.5130 13.6326 -1.0173 4.1493
# 5 30.9465 4.7110 6.6536 -1.0173 34.7134 -1.9903
# 6 -9.0152 -7.8122 -14.3342 4.1493 -1.9903 29.0717
#
#
#
# Elastic Compliance Matrix: (Units=1/GPa)
#
#
# Indices 1 2 3 4 5 6 
#
# 1 0.013297 -0.006334 -0.002980 0.006900 -0.010264 -0.000735
# 2 -0.006334 0.022362 0.004740 -0.001772 0.002040 0.006775
# 3 -0.002980 0.004740 0.034481 0.014913 -0.003299 0.014997
# 4 0.006900 -0.001772 0.014913 0.088369 -0.006410 -0.004035
# 5 -0.010264 0.002040 -0.003299 -0.006410 0.038082 -0.000739
# 6 -0.000735 0.006775 0.014997 -0.004035 -0.000739 0.043910
#
#
# Mechanical properties :
#
#
# Convention : Reuss Voigt Hill
#
# Bulk Modulus (GPa) = 16.39531 34.69796 25.54663
# Shear Modulus (GPa) = 18.51984 26.91364 22.71674
#
# Velocity S-wave (km/s) = 2.85902 3.44656 3.16645
# Velocity P-wave (km/s) = 4.25852 5.58147 4.96426
#
# Compressibility (1/GPa) = 0.06099304
#
# Stress axis : x y z
#
# Youngs Moduli (GPa) = 75.20296 44.71884 29.00110
#
# Poissons Ratio (x) = 0.28326 0.08642
# Poissons Ratio (y) = 0.47636 -0.13748
# Poissons Ratio (z) = 0.22410 -0.21199
#
# Static dielectric constant tensor:
#      x y z
#    x 1.892350 -0.003080 0.006110 
#    y -0.003080 1.820600 -0.009080 
#    z 0.006110 -0.009080 1.826000 
# 
# From -- ./inp_files/432352.got.cif
#   From: 2010.05.17/outbox.cif.g08.bks.cpg/sg2_217_cif.got.tgz:432352.got - 2010.06.03 11:33:40.
