data_PCOD9084138
_publ_section_title
;
Structure prediction by ZEFSAII (Michael W. Deem and Ramdas Pophale) SiO2 
 PCOD9084138
Probable space group: P -1
;
_chemical_formula_sum "Si O2"
_cell_formula_units_Z 16
_cell_length_a 19.939812
_cell_length_b 8.729102
_cell_length_c 10.467370
_cell_angle_alpha 113.652094
_cell_angle_beta 31.994273
_cell_angle_gamma 132.061338
_cell_volume 648.898633
_symmetry_space_group_name_H-M "P -1"
_symmetry_group_IT_number 2
_symmetry_cell_setting 'triclinic'
loop_
_space_group_symop_operation_xyz
x,y,z
-x,-y,-z
loop_
_atom_site_type_symbol
_atom_site_label
_atom_site_fract_x
_atom_site_fract_y
_atom_site_fract_z
Si Si1 0.305359 0.753492 0.208440
Si Si2 0.414992 0.077789 0.519365
Si Si3 0.774725 0.986126 0.693552
Si Si4 0.596157 0.473492 0.190941
Si Si5 0.967797 0.273439 0.001173
Si Si6 0.249083 0.303428 0.570925
Si Si7 0.201375 0.018589 0.047983
Si Si8 0.595470 0.272622 0.714752
O O1 0.262841 0.653928 0.385426
O O2 0.195229 0.800425 0.337610
O O3 0.324953 0.610533 0.041751
O O4 0.500000 0.000000 0.000000
O O5 0.547372 0.344525 0.362424
O O6 0.351203 0.027024 0.752093
O O7 0.469768 0.953531 0.325889
O O8 0.227363 0.933658 0.706297
O O9 0.826416 0.901496 0.474002
O O10 0.830361 0.010384 0.759271
O O11 0.566338 0.784435 0.975303
O O12 0.408933 0.360513 0.402410
O O13 0.726712 0.742056 0.044089
O O14 0.097145 0.274321 0.874124
O O15 0.000000 0.500000 0.000000
O O16 0.959663 0.186313 0.842742
O O17 0.332905 0.531238 0.433147
#
# Coordination Sequence:
#
# PCOD9084138 Si02
#       8
#     2   2   2   2   2   2   2   2
#     4  10  19  34  60  96 127 150 195 265 316 349
#     4  10  22  40  61  86 129 165 199 252 314 359
#     4  11  20  37  61  99 119 159 208 261 304 360
#     4  12  20  39  64  97 122 156 208 269 297 358
#     4  10  24  46  59  89 125 174 203 244 313 379
#     4  12  21  36  70  88 124 161 211 248 307 371
#     4  10  24  39  61  94 126 158 214 249 313 359
#     4  11  18  36  61  95 119 156 206 257 301 360
#
# _framework density 24.657164999999999
#
# number of rings (size 3 to 8) (size 9 to 14) (size 15 to 20)
#    0.750    0.500    7.500    1.500    0.000    1.500 
#    2.250    0.000    0.000    1.500    0.000    0.000 
#    0.000    0.000    0.000    0.000    0.000    0.000 
#
# Total GULP energy -89225.288935 kJ/mol
# GULP energy per Si atom -5576.580558 kJ/mol
# Density = 2.460104 g / cm^3
# Si number density = 24.657165 Si / 1000 Ang^3
#
#
#
# Elastic Constant Matrix: (Units=GPa)
#
#
# Indices 1 2 3 4 5 6 
#
# 1 70.0567 37.1331 10.3526 7.2569 -4.0074 -12.9061
# 2 37.1331 129.7825 30.5003 21.0113 -7.1550 -6.3831
# 3 10.3526 30.5003 57.8011 22.1145 -13.4915 -5.9912
# 4 7.2569 21.0113 22.1145 42.4085 -1.7797 6.6258
# 5 -4.0074 -7.1550 -13.4915 -1.7797 22.2760 2.6590
# 6 -12.9061 -6.3831 -5.9912 6.6258 2.6590 28.5729
#
#
#
# Elastic Compliance Matrix: (Units=1/GPa)
#
#
# Indices 1 2 3 4 5 6 
#
# 1 0.018398 -0.004669 0.001409 -0.002768 0.001479 0.008067
# 2 -0.004669 0.010291 -0.003677 -0.002375 0.000053 -0.000035
# 3 0.001409 -0.003677 0.028398 -0.013825 0.014254 0.007649
# 4 -0.002768 -0.002375 -0.013825 0.034097 -0.005468 -0.012077
# 5 0.001479 0.000053 0.014254 -0.005468 0.053374 -0.000030
# 6 0.008067 -0.000035 0.007649 -0.012077 -0.000030 0.043041
#
#
# Mechanical properties :
#
#
# Convention : Reuss Voigt Hill
#
# Bulk Modulus (GPa) = 23.14099 45.95692 34.54895
# Shear Modulus (GPa) = 23.16141 30.62844 26.89492
#
# Velocity S-wave (km/s) = 3.06819 3.52827 3.30624
# Velocity P-wave (km/s) = 4.68585 5.93945 5.34950
#
# Compressibility (1/GPa) = 0.04321337
#
# Stress axis : x y z
#
# Youngs Moduli (GPa) = 54.35374 97.17529 35.21421
#
# Poissons Ratio (x) = 0.45368 -0.04961
# Poissons Ratio (y) = 0.25376 0.12947
# Poissons Ratio (z) = -0.07657 0.35728
#
# Static dielectric constant tensor:
#      x y z
#    x 2.102180 -0.021000 -0.004230 
#    y -0.021000 1.933570 0.017150 
#    z -0.004230 0.017150 2.020510 
# 
# From -- ./inp_files/470074.got.cif
#   From: 2010.05.17/outbox.cif.g08.bks.cpg/sg2_236_cif.got.tgz:470074.got - 2010.06.03 11:33:40.
