data_PCOD9084531
_publ_section_title
;
Structure prediction by ZEFSAII (Michael W. Deem and Ramdas Pophale) SiO2 
 PCOD9084531
Probable space group: P -1
;
_chemical_formula_sum "Si O2"
_cell_formula_units_Z 14
_cell_length_a 14.958412
_cell_length_b 5.242249
_cell_length_c 11.398662
_cell_angle_alpha 88.533993
_cell_angle_beta 138.275628
_cell_angle_gamma 90.443984
_cell_volume 594.608336
_symmetry_space_group_name_H-M "P -1"
_symmetry_group_IT_number 2
_symmetry_cell_setting 'triclinic'
loop_
_space_group_symop_operation_xyz
x,y,z
-x,-y,-z
loop_
_atom_site_type_symbol
_atom_site_label
_atom_site_fract_x
_atom_site_fract_y
_atom_site_fract_z
Si Si1 0.157480 0.793701 0.715724
Si Si2 0.677727 0.394006 0.667069
Si Si3 0.894690 0.703060 0.786028
Si Si4 0.646189 0.172870 0.890617
Si Si5 0.000796 0.700321 0.362780
Si Si6 0.628987 0.891430 0.478262
Si Si7 0.108655 0.071628 0.962336
O O1 0.144864 0.747387 0.563920
O O2 0.054486 0.577475 0.660296
O O3 0.292620 0.751693 0.924482
O O4 0.096916 0.075289 0.681990
O O5 0.831662 0.440190 0.772853
O O6 0.670309 0.358421 0.799833
O O7 0.629592 0.149200 0.550774
O O8 0.606453 0.652764 0.547721
O O9 0.780019 0.818666 0.585144
O O10 0.879247 0.856006 0.892618
O O11 0.038031 0.797155 0.883078
O O12 0.489764 0.109222 0.732126
O O13 0.743474 0.939135 0.947844
O O14 0.984759 0.742247 0.208575
#
# Coordination Sequence:
#
# PCOD9084531 Si02
#       7
#     2   2   2   2   2   2   2
#     4   9  19  31  53  75 104 126 171 212 262 294
#     4  10  20  35  50  73 107 141 166 207 249 313
#     4   9  21  35  50  77 108 143 166 208 251 316
#     4  11  19  33  56  79 102 137 174 215 254 304
#     4   9  18  35  48  77 103 133 161 218 258 299
#     4  10  22  35  51  72 112 135 172 206 257 301
#     4  10  19  35  54  79 105 138 173 211 255 306
#
# _framework density 23.544910000000002
#
# number of rings (size 3 to 8) (size 9 to 14) (size 15 to 20)
#    0.857    1.429    1.429    1.714    0.000    2.857 
#    5.143    0.000    0.000    0.857    0.000    1.000 
#    0.000    0.000    0.000    0.000    0.000    0.000 
#
# Total GULP energy -77990.652192 kJ/mol
# GULP energy per Si atom -5570.760871 kJ/mol
# Density = 2.349132 g / cm^3
# Si number density = 23.544910 Si / 1000 Ang^3
#
#
#
# Elastic Constant Matrix: (Units=GPa)
#
#
# Indices 1 2 3 4 5 6 
#
# 1 10.7668 -4.5390 13.2999 0.4481 3.6857 -1.9110
# 2 -4.5390 127.2580 23.7314 12.8498 -6.0303 4.8075
# 3 13.2999 23.7314 204.4464 10.3398 -5.3264 4.5156
# 4 0.4481 12.8498 10.3398 29.6056 1.7266 -5.0594
# 5 3.6857 -6.0303 -5.3264 1.7266 30.7974 1.9351
# 6 -1.9110 4.8075 4.5156 -5.0594 1.9351 13.6077
#
#
#
# Elastic Compliance Matrix: (Units=1/GPa)
#
#
# Indices 1 2 3 4 5 6 
#
# 1 0.114831 0.003741 -0.009032 0.004456 -0.016189 0.021761
# 2 0.003741 0.008838 -0.000914 -0.004379 0.001631 -0.004154
# 3 -0.009032 -0.000914 0.005854 -0.002344 0.002303 -0.004087
# 4 0.004456 -0.004379 -0.002344 0.039898 -0.005197 0.018524
# 5 -0.016189 0.001631 0.002303 -0.005197 0.036088 -0.010678
# 6 0.021761 -0.004154 -0.004087 0.018524 -0.010678 0.087773
#
#
# Mechanical properties :
#
#
# Convention : Reuss Voigt Hill
#
# Bulk Modulus (GPa) = 8.53870 45.27287 26.90578
# Shear Modulus (GPa) = 14.50413 35.46740 24.98576
#
# Velocity S-wave (km/s) = 2.48467 3.88541 3.26113
# Velocity P-wave (km/s) = 3.44469 6.27683 5.06283
#
# Compressibility (1/GPa) = 0.11711387
#
# Stress axis : x y z
#
# Youngs Moduli (GPa) = 8.70842 113.14509 170.83289
#
# Poissons Ratio (x) = -0.42327 1.54298
# Poissons Ratio (y) = -0.03258 0.15607
# Poissons Ratio (z) = 0.07866 0.10337
#
# Static dielectric constant tensor:
#      x y z
#    x 1.943950 -0.020370 0.052610 
#    y -0.020370 1.968180 -0.057510 
#    z 0.052610 -0.057510 2.036920 
# 
# From -- ./inp_files/539529.got.cif
#   From: 2010.05.17/outbox.cif.g08.bks.cpg/sg2_270_cif.got.tgz:539529.got - 2010.06.03 11:33:40.
