data_PCOD9084230
_publ_section_title
;
Structure prediction by ZEFSAII (Michael W. Deem and Ramdas Pophale) SiO2 
 PCOD9084230
Probable space group: P -1
;
_chemical_formula_sum "Si O2"
_cell_formula_units_Z 16
_cell_length_a 18.334586
_cell_length_b 11.112657
_cell_length_c 17.825677
_cell_angle_alpha 31.670394
_cell_angle_beta 154.789736
_cell_angle_gamma 131.288342
_cell_volume 706.819342
_symmetry_space_group_name_H-M "P -1"
_symmetry_group_IT_number 2
_symmetry_cell_setting 'triclinic'
loop_
_space_group_symop_operation_xyz
x,y,z
-x,-y,-z
loop_
_atom_site_type_symbol
_atom_site_label
_atom_site_fract_x
_atom_site_fract_y
_atom_site_fract_z
Si Si1 0.694101 0.342973 0.994518
Si Si2 0.069834 0.193708 0.217143
Si Si3 0.600900 0.096453 0.628288
Si Si4 0.705436 0.844858 0.412295
Si Si5 0.059587 0.227688 0.484885
Si Si6 0.675486 0.116803 0.518624
Si Si7 0.350383 0.352713 0.762133
Si Si8 0.298678 0.670355 0.266013
O O1 0.831609 0.340834 0.192573
O O2 0.838808 0.072359 0.231079
O O3 0.601609 0.619995 0.719472
O O4 0.499401 0.329535 0.845325
O O5 0.211332 0.067559 0.486081
O O6 0.177724 0.092570 0.292074
O O7 0.000000 0.500000 0.000000
O O8 0.874487 0.174601 0.036451
O O9 0.715492 0.056150 0.677464
O O10 0.700198 0.135951 0.772581
O O11 0.529438 0.883800 0.682316
O O12 0.832848 0.815618 0.472943
O O13 0.728445 0.559225 0.598077
O O14 0.480891 0.073567 0.071901
O O15 0.142959 0.385154 0.525992
O O16 0.670906 0.390314 0.353084
O O17 0.500000 0.500000 0.500000
#
# Coordination Sequence:
#
# PCOD9084230 Si02
#       8
#     2   2   2   2   2   2   2   2
#     4   9  19  33  58  92 125 155 200 254 294 357
#     4  10  23  40  57  87 114 157 210 250 301 366
#     4  10  20  38  60  88 121 165 194 250 317 349
#     4  10  20  37  63  84 118 164 195 254 307 358
#     4  10  19  34  61  95 122 158 203 252 298 368
#     4  10  22  40  60  87 123 160 199 255 304 373
#     4  10  20  40  58  92 127 156 205 241 314 370
#     4  11  23  38  62  91 121 156 208 259 298 364
#
# _framework density 22.636621000000002
#
# number of rings (size 3 to 8) (size 9 to 14) (size 15 to 20)
#    0.000    2.000    0.000    5.250    5.250    1.000 
#    9.000    0.000    0.000    1.500    0.000    0.000 
#    0.000    0.000    0.000    0.000    0.000    0.000 
#
# Total GULP energy -89302.070347 kJ/mol
# GULP energy per Si atom -5581.379397 kJ/mol
# Density = 2.258510 g / cm^3
# Si number density = 22.636621 Si / 1000 Ang^3
#
#
#
# Elastic Constant Matrix: (Units=GPa)
#
#
# Indices 1 2 3 4 5 6 
#
# 1 77.6777 16.9017 10.5889 2.4915 8.2887 -26.5899
# 2 16.9017 139.2199 31.3261 9.7344 -13.4905 -24.2797
# 3 10.5889 31.3261 47.4173 9.6602 -6.9672 -7.9109
# 4 2.4915 9.7344 9.6602 43.5966 -12.5843 -5.4615
# 5 8.2887 -13.4905 -6.9672 -12.5843 27.1124 -0.0277
# 6 -26.5899 -24.2797 -7.9109 -5.4615 -0.0277 36.1616
#
#
#
# Elastic Compliance Matrix: (Units=1/GPa)
#
#
# Indices 1 2 3 4 5 6 
#
# 1 0.018363 0.000045 -0.002820 -0.000752 -0.006652 0.012797
# 2 0.000045 0.009580 -0.005017 0.000761 0.003823 0.005486
# 3 -0.002820 -0.005017 0.026227 -0.003564 0.003451 -0.000240
# 4 -0.000752 0.000761 -0.003564 0.027637 0.012523 0.003362
# 5 -0.006652 0.003823 0.003451 0.012523 0.047519 0.000358
# 6 0.012797 0.005486 -0.000240 0.003362 0.000358 0.041202
#
#
# Mechanical properties :
#
#
# Convention : Reuss Voigt Hill
#
# Bulk Modulus (GPa) = 25.91632 42.43872 34.17752
# Shear Modulus (GPa) = 25.12905 35.07399 30.10152
#
# Velocity S-wave (km/s) = 3.33544 3.94056 3.65056
# Velocity P-wave (km/s) = 5.12906 6.28431 5.73584
#
# Compressibility (1/GPa) = 0.03858573
#
# Stress axis : x y z
#
# Youngs Moduli (GPa) = 54.45819 104.38096 38.12907
#
# Poissons Ratio (x) = -0.00469 0.10751
# Poissons Ratio (y) = -0.00244 0.19131
# Poissons Ratio (z) = 0.15355 0.52371
#
# Static dielectric constant tensor:
#      x y z
#    x 1.885670 0.018290 -0.002770 
#    y 0.018290 1.906970 0.004670 
#    z -0.002770 0.004670 1.882260 
# 
# From -- ./inp_files/601412.got.cif
#   From: 2010.05.17/outbox.cif.g08.bks.cpg/sg2_301_cif.got.tgz:601412.got - 2010.06.03 11:33:40.
