data_PCOD9084983
_publ_section_title
;
Structure prediction by ZEFSAII (Michael W. Deem and Ramdas Pophale) SiO2 
 PCOD9084983
Probable space group: P -1
;
_chemical_formula_sum "Si O2"
_cell_formula_units_Z 16
_cell_length_a 11.504156
_cell_length_b 10.993861
_cell_length_c 6.691483
_cell_angle_alpha 67.057294
_cell_angle_beta 99.525137
_cell_angle_gamma 127.432302
_cell_volume 615.905505
_symmetry_space_group_name_H-M "P -1"
_symmetry_group_IT_number 2
_symmetry_cell_setting 'triclinic'
loop_
_space_group_symop_operation_xyz
x,y,z
-x,-y,-z
loop_
_atom_site_type_symbol
_atom_site_label
_atom_site_fract_x
_atom_site_fract_y
_atom_site_fract_z
Si Si1 0.502477 0.649416 0.481437
Si Si2 0.242753 0.421142 0.837499
Si Si3 0.339614 0.822306 0.613936
Si Si4 0.954093 0.460177 0.276231
Si Si5 0.222171 0.780964 0.174998
Si Si6 0.987515 0.123464 0.783871
Si Si7 0.739293 0.824930 0.743389
Si Si8 0.461309 0.149126 0.011222
O O1 0.500000 0.500000 0.500000
O O2 0.391174 0.573387 0.685382
O O3 0.656601 0.785907 0.538925
O O4 0.482541 0.728450 0.236028
O O5 0.147642 0.482018 0.834092
O O6 0.150856 0.290037 0.714607
O O7 0.256281 0.322519 0.079871
O O8 0.163730 0.737146 0.672709
O O9 0.294730 0.764472 0.405790
O O10 0.400739 0.790520 0.847543
O O11 0.500000 0.000000 0.500000
O O12 0.000000 0.500000 0.500000
O O13 0.117168 0.603257 0.147912
O O14 0.108352 0.823464 0.177528
O O15 0.359725 0.960506 0.021516
O O16 0.894466 0.002813 0.654512
O O17 0.000000 0.000000 0.000000
O O18 0.648032 0.839481 0.883128
#
# Coordination Sequence:
#
# PCOD9084983 Si02
#       8
#     2   2   2   2   2   2   2   2
#     4  12  24  34  53  86 119 149 189 230 278 339
#     4  10  19  35  58  82 113 145 188 232 282 336
#     4   9  17  30  53  80 108 144 180 224 276 329
#     4   9  17  31  58  85 104 142 193 229 278 333
#     4   8  16  32  55  81 106 143 190 230 274 333
#     4   8  16  32  58  79 104 148 185 231 282 330
#     4  10  20  37  57  78 114 151 185 232 283 329
#     4  10  20  36  56  80 115 149 189 228 279 333
#
# _framework density 25.978010999999999
#
# number of rings (size 3 to 8) (size 9 to 14) (size 15 to 20)
#    0.000    2.500    1.250    1.125    1.750    0.000 
#    0.000    1.875    0.000   43.500    0.000    0.000 
#    0.000    0.000    0.000    0.000    0.000    0.000 
#
# Total GULP energy -89071.144722 kJ/mol
# GULP energy per Si atom -5566.946545 kJ/mol
# Density = 2.591888 g / cm^3
# Si number density = 25.978011 Si / 1000 Ang^3
#
#
#
# Elastic Constant Matrix: (Units=GPa)
#
#
# Indices 1 2 3 4 5 6 
#
# 1 75.4960 27.1080 31.9816 11.3947 15.5118 -2.1480
# 2 27.1080 214.6389 40.3787 4.3768 16.8095 46.8032
# 3 31.9816 40.3787 118.9766 -6.8438 25.0474 -3.6764
# 4 11.3947 4.3768 -6.8438 36.3293 0.7280 5.6528
# 5 15.5118 16.8095 25.0474 0.7280 42.4228 2.8264
# 6 -2.1480 46.8032 -3.6764 5.6528 2.8264 45.5784
#
#
#
# Elastic Compliance Matrix: (Units=1/GPa)
#
#
# Indices 1 2 3 4 5 6 
#
# 1 0.017174 -0.001851 -0.003483 -0.006281 -0.003610 0.003432
# 2 -0.001851 0.006885 -0.001947 0.000537 -0.000421 -0.007355
# 3 -0.003483 -0.001947 0.011285 0.003137 -0.004849 0.002657
# 4 -0.006281 0.000537 0.003137 0.030707 -0.000002 -0.004403
# 5 -0.003610 -0.000421 -0.004849 -0.000002 0.028047 -0.001868
# 6 0.003432 -0.007355 0.002657 -0.004403 -0.001868 0.030530
#
#
# Mechanical properties :
#
#
# Convention : Reuss Voigt Hill
#
# Bulk Modulus (GPa) = 48.12045 67.56089 57.84067
# Shear Modulus (GPa) = 34.21904 45.50898 39.86401
#
# Velocity S-wave (km/s) = 3.63331 4.19002 3.92156
# Velocity P-wave (km/s) = 6.01373 7.03362 6.54358
#
# Compressibility (1/GPa) = 0.02078119
#
# Stress axis : x y z
#
# Youngs Moduli (GPa) = 58.22912 145.24932 88.61040
#
# Poissons Ratio (x) = 0.26890 0.30865
# Poissons Ratio (y) = 0.10780 0.17249
# Poissons Ratio (z) = 0.20283 0.28275
#
# Static dielectric constant tensor:
#      x y z
#    x 5.019910 -0.708900 -1.240170 
#    y -0.708900 2.426880 0.207320 
#    z -1.240170 0.207320 2.578860 
# 
# From -- ./inp_files/97594.got.cif
#   From: 2010.05.17/outbox.cif.g08.bks.cpg/sg2_49_cif.got.tgz:97594.got - 2010.06.03 11:33:40.
