data_PCOD9084009
_publ_section_title
;
Structure prediction by ZEFSAII (Michael W. Deem and Ramdas Pophale) SiO2 
 PCOD9084009
Probable space group: P -1
;
_chemical_formula_sum "Si O2"
_cell_formula_units_Z 15
_cell_length_a 11.814971
_cell_length_b 7.577817
_cell_length_c 8.396434
_cell_angle_alpha 109.696899
_cell_angle_beta 80.455259
_cell_angle_gamma 114.911963
_cell_volume 641.658048
_symmetry_space_group_name_H-M "P -1"
_symmetry_group_IT_number 2
_symmetry_cell_setting 'triclinic'
loop_
_space_group_symop_operation_xyz
x,y,z
-x,-y,-z
loop_
_atom_site_type_symbol
_atom_site_label
_atom_site_fract_x
_atom_site_fract_y
_atom_site_fract_z
Si Si1 0.936437 0.731858 0.905065
Si Si2 0.693742 0.737002 0.601061
Si Si3 0.000000 0.500000 0.000000
Si Si4 0.198044 0.986014 0.047928
Si Si5 0.099492 0.388734 0.634040
Si Si6 0.354531 0.976517 0.716606
Si Si7 0.101900 0.792236 0.588174
Si Si8 0.537738 0.303465 0.581221
O O1 0.899572 0.497594 0.870446
O O2 0.844175 0.844097 0.975976
O O3 0.002822 0.807194 0.744655
O O4 0.061653 0.789663 0.014751
O O5 0.748565 0.926776 0.766707
O O6 0.798645 0.697248 0.463972
O O7 0.628726 0.533836 0.663471
O O8 0.580851 0.722017 0.508647
O O9 0.098055 0.457468 0.833672
O O10 0.297742 0.948687 0.899056
O O11 0.116451 0.584260 0.576765
O O12 0.964822 0.221498 0.565479
O O13 0.476657 0.177934 0.715878
O O14 0.235545 0.966996 0.637019
O O15 0.390504 0.801671 0.576710
#
# Coordination Sequence:
#
# PCOD9084009 Si02
#       8
#     2   2   1   2   2   2   2   2
#     4   9  19  37  55  93 118 151 184 241 301 362
#     4  11  22  41  61  86 116 161 195 245 283 357
#     4  10  22  32  56  90 126 146 192 232 296 348
#     4  10  21  37  63  85 122 151 194 240 302 345
#     4  10  19  34  59  90 115 152 186 241 296 355
#     4  10  21  41  61  86 116 156 196 251 283 349
#     4   9  17  35  62  83 115 151 188 232 303 353
#     4  10  24  40  60  81 118 161 207 234 288 334
#
# _framework density 23.376939
#
# number of rings (size 3 to 8) (size 9 to 14) (size 15 to 20)
#    0.000    2.133    2.667    0.000    1.867    2.133 
#    0.000    2.667   11.733    0.000    0.000    0.000 
#    0.000    0.000    0.000    0.000    0.000    0.000 
#
# Total GULP energy -83508.837833 kJ/mol
# GULP energy per Si atom -5567.255856 kJ/mol
# Density = 2.332373 g / cm^3
# Si number density = 23.376939 Si / 1000 Ang^3
#
#
#
# Elastic Constant Matrix: (Units=GPa)
#
#
# Indices 1 2 3 4 5 6 
#
# 1 81.5346 2.3590 46.9422 -7.7391 -27.7096 12.8619
# 2 2.3590 73.7375 19.1779 -7.1728 -9.3184 13.2597
# 3 46.9422 19.1779 106.7330 6.4921 -20.1663 29.0425
# 4 -7.7391 -7.1728 6.4921 20.5392 8.3512 6.1477
# 5 -27.7096 -9.3184 -20.1663 8.3512 33.4697 -1.0104
# 6 12.8619 13.2597 29.0425 6.1477 -1.0104 23.2460
#
#
#
# Elastic Compliance Matrix: (Units=1/GPa)
#
#
# Indices 1 2 3 4 5 6 
#
# 1 0.023014 0.005417 -0.006372 0.009850 0.013966 -0.009860
# 2 0.005417 0.018045 -0.001366 0.010754 0.005574 -0.014186
# 3 -0.006372 -0.001366 0.018731 -0.006406 0.006712 -0.017111
# 4 0.009850 0.010754 -0.006406 0.069198 -0.010651 -0.022345
# 5 0.013966 0.005574 0.006712 -0.010651 0.049261 -0.014334
# 6 -0.009860 -0.014186 -0.017111 -0.022345 -0.014334 0.083229
#
#
# Mechanical properties :
#
#
# Convention : Reuss Voigt Hill
#
# Bulk Modulus (GPa) = 18.13307 44.32925 31.23116
# Shear Modulus (GPa) = 17.57452 28.35271 22.96361
#
# Velocity S-wave (km/s) = 2.74485 3.48638 3.13760
# Velocity P-wave (km/s) = 4.22129 5.93384 5.14926
#
# Compressibility (1/GPa) = 0.05514786
#
# Stress axis : x y z
#
# Youngs Moduli (GPa) = 43.45254 55.41683 53.38774
#
# Poissons Ratio (x) = -0.30021 0.34021
# Poissons Ratio (y) = -0.23540 0.07292
# Poissons Ratio (z) = 0.27690 0.07569
#
# Static dielectric constant tensor:
#      x y z
#    x 1.910760 -0.092990 0.018420 
#    y -0.092990 2.280450 0.036100 
#    z 0.018420 0.036100 1.889040 
# 
# From -- ./inp_files/235595.got.cif
#   From: 2010.05.17/outbox.cif.g08.bks.cpg/sg2_118_cif.got.tgz:235595.got - 2010.06.03 11:33:40.
