data_PCOD9084776
_publ_section_title
;
Structure prediction by ZEFSAII (Michael W. Deem and Ramdas Pophale) SiO2 
 PCOD9084776
Probable space group: P -1
;
_chemical_formula_sum "Si O2"
_cell_formula_units_Z 13
_cell_length_a 9.117727
_cell_length_b 14.536558
_cell_length_c 6.158340
_cell_angle_alpha 54.226365
_cell_angle_beta 102.366754
_cell_angle_gamma 122.115272
_cell_volume 555.327545
_symmetry_space_group_name_H-M "P -1"
_symmetry_group_IT_number 2
_symmetry_cell_setting 'triclinic'
loop_
_space_group_symop_operation_xyz
x,y,z
-x,-y,-z
loop_
_atom_site_type_symbol
_atom_site_label
_atom_site_fract_x
_atom_site_fract_y
_atom_site_fract_z
Si Si1 0.302008 0.999520 0.869882
Si Si2 0.521649 0.386011 0.412710
Si Si3 0.106947 0.793416 0.765848
Si Si4 0.346857 0.168688 0.029310
Si Si5 0.000000 0.000000 0.500000
Si Si6 0.619959 0.216567 0.426900
Si Si7 0.750724 0.666743 0.983292
O O1 0.291649 0.036573 0.062584
O O2 0.172184 0.041230 0.657897
O O3 0.499327 0.093045 0.715717
O O4 0.228009 0.857271 0.931018
O O5 0.437084 0.287332 0.721660
O O6 0.644230 0.342917 0.386842
O O7 0.370228 0.358379 0.229476
O O8 0.636301 0.542057 0.274245
O O9 0.209049 0.770612 0.640549
O O10 0.925739 0.672443 0.959180
O O11 0.046563 0.896071 0.536706
O O12 0.489514 0.190398 0.221241
O O13 0.204779 0.192297 0.083418
#
# Coordination Sequence:
#
# PCOD9084776 Si02
#       7
#     2   2   2   2   1   2   2
#     4   9  20  37  55  80 111 144 181 220 269 321
#     4   9  20  38  59  80 107 145 184 226 272 318
#     4  10  20  35  56  82 112 142 184 223 269 326
#     4  10  19  35  57  79 111 146 180 220 273 323
#     4   8  18  34  54  76 106 134 182 220 254 316
#     4  10  20  36  56  80 113 149 176 219 276 325
#     4  10  20  37  59  82 108 142 186 228 268 316
#
# _framework density 23.409607000000001
#
# number of rings (size 3 to 8) (size 9 to 14) (size 15 to 20)
#    0.923    1.538    0.000    3.692    0.000    1.846 
#    0.000    6.923    0.000    0.000    0.000    0.000 
#    0.000    0.000    0.000    0.000    0.000    0.000 
#
# Total GULP energy -72370.435627 kJ/mol
# GULP energy per Si atom -5566.956587 kJ/mol
# Density = 2.335633 g / cm^3
# Si number density = 23.409607 Si / 1000 Ang^3
#
#
#
# Elastic Constant Matrix: (Units=GPa)
#
#
# Indices 1 2 3 4 5 6 
#
# 1 148.8923 25.6112 13.9830 11.9751 -44.2683 -13.7928
# 2 25.6112 77.3784 1.6200 1.7458 -15.8480 -17.8474
# 3 13.9830 1.6200 91.6638 1.5402 -17.4788 -3.5270
# 4 11.9751 1.7458 1.5402 18.2343 -8.3412 -15.6544
# 5 -44.2683 -15.8480 -17.4788 -8.3412 36.9785 3.7908
# 6 -13.7928 -17.8474 -3.5270 -15.6544 3.7908 27.2703
#
#
#
# Elastic Compliance Matrix: (Units=1/GPa)
#
#
# Indices 1 2 3 4 5 6 
#
# 1 0.011088 0.001041 0.001336 0.006108 0.014920 0.007895
# 2 0.001041 0.022261 0.003189 0.030891 0.016083 0.031005
# 3 0.001336 0.003189 0.012792 0.009922 0.010362 0.008673
# 4 0.006108 0.030891 0.009922 0.168757 0.051592 0.114293
# 5 0.014920 0.016083 0.010362 0.051592 0.064221 0.040101
# 6 0.007895 0.031005 0.008673 0.114293 0.040101 0.122111
#
#
# Mechanical properties :
#
#
# Convention : Reuss Voigt Hill
#
# Bulk Modulus (GPa) = 17.46053 44.48478 30.97265
# Shear Modulus (GPa) = 12.21930 34.94463 23.58197
#
# Velocity S-wave (km/s) = 2.28716 3.86780 3.17734
# Velocity P-wave (km/s) = 3.80128 6.24424 5.16915
#
# Compressibility (1/GPa) = 0.05727204
#
# Stress axis : x y z
#
# Youngs Moduli (GPa) = 90.19040 44.92234 78.17361
#
# Poissons Ratio (x) = -0.04676 -0.10446
# Poissons Ratio (y) = -0.09389 -0.24926
# Poissons Ratio (z) = -0.12052 -0.14324
#
# Static dielectric constant tensor:
#      x y z
#    x 1.909590 0.000350 0.011780 
#    y 0.000350 1.914060 -0.026700 
#    z 0.011780 -0.026700 1.733730 
# 
# From -- ./inp_files/31737.got.cif
#   From: 2010.05.17/outbox.cif.g08.bks.cpg/sg2_16_cif.got.tgz:31737.got - 2010.06.03 11:33:40.
