data_PCOD9084781
_publ_section_title
;
Structure prediction by ZEFSAII (Michael W. Deem and Ramdas Pophale) SiO2 
 PCOD9084781
Probable space group: P -1
;
_chemical_formula_sum "Si O2"
_cell_formula_units_Z 16
_cell_length_a 13.555486
_cell_length_b 12.091378
_cell_length_c 7.485274
_cell_angle_alpha 74.508626
_cell_angle_beta 74.357300
_cell_angle_gamma 32.385437
_cell_volume 630.939407
_symmetry_space_group_name_H-M "P -1"
_symmetry_group_IT_number 2
_symmetry_cell_setting 'triclinic'
loop_
_space_group_symop_operation_xyz
x,y,z
-x,-y,-z
loop_
_atom_site_type_symbol
_atom_site_label
_atom_site_fract_x
_atom_site_fract_y
_atom_site_fract_z
Si Si1 0.310140 0.786132 0.297616
Si Si2 0.932778 0.770489 0.642159
Si Si3 0.736319 0.396993 0.390010
Si Si4 0.191881 0.585557 0.013609
Si Si5 0.371914 0.209942 0.867478
Si Si6 0.572762 0.230195 0.110355
Si Si7 0.159173 0.204847 0.937930
Si Si8 0.400569 0.972110 0.501644
O O1 0.520691 0.602800 0.349188
O O2 0.240755 0.731451 0.436247
O O3 0.177931 0.007817 0.349406
O O4 0.328030 0.772578 0.075855
O O5 0.145111 0.608949 0.579450
O O6 0.816566 0.812916 0.530975
O O7 0.910031 0.721819 0.857719
O O8 0.829873 0.303886 0.185280
O O9 0.358463 0.465195 0.110186
O O10 0.994901 0.726968 0.117204
O O11 0.280009 0.389175 0.962202
O O12 0.216081 0.276768 0.818813
O O13 0.498455 0.145019 0.682916
O O14 0.500000 0.000000 0.000000
O O15 0.591697 0.151384 0.329192
O O16 0.654680 0.043189 0.047083
O O17 0.500000 0.000000 0.500000
#
# Coordination Sequence:
#
# PCOD9084781 Si02
#       8
#     2   2   2   2   2   2   2   2
#     4   9  18  37  63  83 109 140 186 241 286 325
#     4  10  20  34  58  84 111 145 191 233 270 332
#     4   9  18  34  61  89 104 137 190 243 281 320
#     4  10  20  35  59  83 108 139 191 240 276 329
#     4  12  19  36  58  77 107 151 193 231 277 323
#     4  10  20  37  54  81 117 149 179 227 286 337
#     4  10  19  35  57  80 106 146 190 236 274 322
#     4  12  22  35  57  79 121 161 184 222 282 337
#
# _framework density 25.359013000000001
#
# number of rings (size 3 to 8) (size 9 to 14) (size 15 to 20)
#    0.000    1.750    3.750    2.250    0.000    0.000 
#    0.000    5.000    0.000   12.000    0.000    0.000 
#    0.000    0.000    0.000    0.000    0.000    0.000 
#
# Total GULP energy -89107.454659 kJ/mol
# GULP energy per Si atom -5569.215916 kJ/mol
# Density = 2.530129 g / cm^3
# Si number density = 25.359013 Si / 1000 Ang^3
#
#
#
# Elastic Constant Matrix: (Units=GPa)
#
#
# Indices 1 2 3 4 5 6 
#
# 1 57.8814 20.5582 19.5613 11.4338 -16.5443 -17.8007
# 2 20.5582 81.0748 20.8130 -1.7789 -1.4519 -23.9636
# 3 19.5613 20.8130 165.4920 -0.3369 -30.9571 -1.6265
# 4 11.4338 -1.7789 -0.3369 26.7030 -11.3941 -2.2620
# 5 -16.5443 -1.4519 -30.9571 -11.3941 34.6091 -0.5208
# 6 -17.8007 -23.9636 -1.6265 -2.2620 -0.5208 38.8935
#
#
#
# Elastic Compliance Matrix: (Units=1/GPa)
#
#
# Indices 1 2 3 4 5 6 
#
# 1 0.025595 -0.003535 -0.000731 -0.006377 0.009473 0.009261
# 2 -0.003535 0.016222 -0.001851 0.002562 -0.001695 0.008426
# 3 -0.000731 -0.001851 0.007799 0.003497 0.007687 -0.000843
# 4 -0.006377 0.002562 0.003497 0.047276 0.015778 0.001767
# 5 0.009473 -0.001695 0.007687 0.015778 0.045499 0.005140
# 6 0.009261 0.008426 -0.000843 0.001767 0.005140 0.035278
#
#
# Mechanical properties :
#
#
# Convention : Reuss Voigt Hill
#
# Bulk Modulus (GPa) = 26.75148 47.36815 37.05982
# Shear Modulus (GPa) = 24.70784 36.27550 30.49167
#
# Velocity S-wave (km/s) = 3.12480 3.78627 3.47133
# Velocity P-wave (km/s) = 4.85707 6.15094 5.54189
#
# Compressibility (1/GPa) = 0.03738111
#
# Stress axis : x y z
#
# Youngs Moduli (GPa) = 39.07001 61.64327 128.22781
#
# Poissons Ratio (x) = 0.21794 0.09368
# Poissons Ratio (y) = 0.13813 0.23740
# Poissons Ratio (z) = 0.02854 0.11413
#
# Static dielectric constant tensor:
#      x y z
#    x 2.153860 -0.056550 0.055020 
#    y -0.056550 2.039150 -0.053200 
#    z 0.055020 -0.053200 2.164600 
# 
# From -- ./inp_files/312645.got.cif
#   From: 2010.05.17/outbox.cif.g08.bks.cpg/sg2_157_cif.got.tgz:312645.got - 2010.06.03 11:33:40.
