data_PCOD9084633
_publ_section_title
;
Structure prediction by ZEFSAII (Michael W. Deem and Ramdas Pophale) SiO2 
 PCOD9084633
Probable space group: P -1
;
_chemical_formula_sum "Si O2"
_cell_formula_units_Z 14
_cell_length_a 18.893503
_cell_length_b 5.388152
_cell_length_c 6.508899
_cell_angle_alpha 98.617983
_cell_angle_beta 119.069434
_cell_angle_gamma 76.947488
_cell_volume 563.554957
_symmetry_space_group_name_H-M "P -1"
_symmetry_group_IT_number 2
_symmetry_cell_setting 'triclinic'
loop_
_space_group_symop_operation_xyz
x,y,z
-x,-y,-z
loop_
_atom_site_type_symbol
_atom_site_label
_atom_site_fract_x
_atom_site_fract_y
_atom_site_fract_z
Si Si1 0.826264 0.028670 0.401431
Si Si2 0.684172 0.643019 0.691097
Si Si3 0.332399 0.798709 0.052076
Si Si4 0.914292 0.475143 0.479668
Si Si5 0.133341 0.413255 0.119137
Si Si6 0.092828 0.931778 0.047090
Si Si7 0.508716 0.719287 0.372874
O O1 0.888571 0.197787 0.411358
O O2 0.844751 0.061237 0.673106
O O3 0.845795 0.723956 0.358886
O O4 0.735920 0.157179 0.215603
O O5 0.684026 0.419921 0.835349
O O6 0.771243 0.603746 0.697210
O O7 0.604160 0.651993 0.434888
O O8 0.676988 0.923029 0.818457
O O9 0.429042 0.730723 0.117423
O O10 0.920562 0.521915 0.744149
O O11 0.000000 0.500000 0.500000
O O12 0.110466 0.645659 0.960977
O O13 0.114339 0.154730 0.968558
O O14 0.000000 0.000000 0.000000
O O15 0.500000 0.500000 0.500000
O O16 0.500000 0.000000 0.500000
#
# Coordination Sequence:
#
# PCOD9084633 Si02
#       7
#     2   2   2   2   2   2   2
#     4  10  21  38  57  79 105 144 187 232 275 331
#     4  10  19  35  55  87 115 144 182 225 280 331
#     4  10  19  35  55  87 115 144 182 225 280 331
#     4  10  21  40  57  73 104 148 188 233 279 331
#     4  10  21  38  57  79 105 144 187 232 275 331
#     4  10  21  40  57  73 104 148 188 233 279 331
#     4   8  16  30  54  78 114 148 176 216 266 338
#
# _framework density 24.842298
#
# number of rings (size 3 to 8) (size 9 to 14) (size 15 to 20)
#    0.000    2.286    0.000    2.571    0.000    0.000 
#   30.857    0.000    0.000    6.857    0.000    0.000 
#    0.000    0.000    0.000    0.000    0.000    0.000 
#
# Total GULP energy -78231.639597 kJ/mol
# GULP energy per Si atom -5587.974257 kJ/mol
# Density = 2.478576 g / cm^3
# Si number density = 24.842298 Si / 1000 Ang^3
#
#
#
# Elastic Constant Matrix: (Units=GPa)
#
#
# Indices 1 2 3 4 5 6 
#
# 1 65.0187 24.0586 28.5211 3.5950 27.3319 9.1550
# 2 24.0586 226.4449 21.1309 -8.0812 8.2112 14.7039
# 3 28.5211 21.1309 128.3780 -3.1926 34.7422 -1.5772
# 4 3.5950 -8.0812 -3.1926 41.0102 6.0655 3.5274
# 5 27.3319 8.2112 34.7422 6.0655 55.1886 -6.0828
# 6 9.1550 14.7039 -1.5772 3.5274 -6.0828 33.5650
#
#
#
# Elastic Compliance Matrix: (Units=1/GPa)
#
#
# Indices 1 2 3 4 5 6 
#
# 1 0.022128 -0.001317 -0.002010 -0.000197 -0.010291 -0.007397
# 2 -0.001317 0.004769 -0.000456 0.001199 -0.000111 -0.001897
# 3 -0.002010 -0.000456 0.009776 0.001618 -0.005259 0.000084
# 4 -0.000197 0.001199 0.001618 0.025743 -0.004357 -0.003891
# 5 -0.010291 -0.000111 -0.005259 -0.004357 0.027918 0.008126
# 6 -0.007397 -0.001897 0.000084 -0.003891 0.008126 0.034527
#
#
# Mechanical properties :
#
#
# Convention : Reuss Voigt Hill
#
# Bulk Modulus (GPa) = 34.35650 63.02921 48.69285
# Shear Modulus (GPa) = 35.17966 49.02816 42.10391
#
# Velocity S-wave (km/s) = 3.76722 4.44731 4.12132
# Velocity P-wave (km/s) = 5.72560 7.19710 6.50310
#
# Compressibility (1/GPa) = 0.02910658
#
# Stress axis : x y z
#
# Youngs Moduli (GPa) = 45.19224 209.70655 102.29546
#
# Poissons Ratio (x) = 0.27617 0.20562
# Poissons Ratio (y) = 0.05952 0.04661
# Poissons Ratio (z) = 0.09084 0.09556
#
# Static dielectric constant tensor:
#      x y z
#    x 1.962920 -0.025300 -0.016180 
#    y -0.025300 2.060890 -0.004370 
#    z -0.016180 -0.004370 2.012170 
# 
# From -- ./inp_files/52282.got.cif
#   From: 2010.05.17/outbox.cif.g08.bks.cpg/sg2_27_cif.got.tgz:52282.got - 2010.06.03 11:33:40.
