data_PCOD9084715
_publ_section_title
;
Structure prediction by ZEFSAII (Michael W. Deem and Ramdas Pophale) SiO2 
 PCOD9084715
Probable space group: P -1
;
_chemical_formula_sum "Si O2"
_cell_formula_units_Z 14
_cell_length_a 9.470889
_cell_length_b 11.062969
_cell_length_c 6.959361
_cell_angle_alpha 57.847889
_cell_angle_beta 98.239365
_cell_angle_gamma 77.740962
_cell_volume 573.591237
_symmetry_space_group_name_H-M "P -1"
_symmetry_group_IT_number 2
_symmetry_cell_setting 'triclinic'
loop_
_space_group_symop_operation_xyz
x,y,z
-x,-y,-z
loop_
_atom_site_type_symbol
_atom_site_label
_atom_site_fract_x
_atom_site_fract_y
_atom_site_fract_z
Si Si1 0.375379 0.886192 0.082667
Si Si2 0.570420 0.596332 0.573185
Si Si3 0.702030 0.305164 0.330489
Si Si4 0.133954 0.846761 0.859858
Si Si5 0.827651 0.512963 0.429902
Si Si6 0.196106 0.043309 0.395716
Si Si7 0.364267 0.173352 0.068734
O O1 0.229409 0.837243 0.075767
O O2 0.334876 0.053282 0.015601
O O3 0.504569 0.767904 0.334444
O O4 0.457380 0.860898 0.908177
O O5 0.500000 0.500000 0.500000
O O6 0.477949 0.609573 0.741108
O O7 0.746347 0.535508 0.604746
O O8 0.770869 0.291532 0.142183
O O9 0.796788 0.376938 0.425469
O O10 0.736728 0.126689 0.531451
O O11 0.140844 0.004019 0.626361
O O12 0.960296 0.862946 0.822136
O O13 0.735139 0.659248 0.158035
O O14 0.000000 0.500000 0.500000
O O15 0.313927 0.129255 0.303009
#
# Coordination Sequence:
#
# PCOD9084715 Si02
#       7
#     2   2   2   2   2   2   2
#     4  10  19  35  56  86 108 142 184 230 271 320
#     4   9  18  36  58  79 110 143 184 223 264 327
#     4   9  18  39  55  78 111 146 180 222 267 328
#     4   9  20  34  59  79 111 145 185 222 271 326
#     4  10  22  35  56  84 114 142 179 231 281 316
#     4   9  19  36  55  83 110 145 181 229 267 323
#     4  10  21  35  56  83 113 138 185 233 269 319
#
# _framework density 24.407623000000001
#
# number of rings (size 3 to 8) (size 9 to 14) (size 15 to 20)
#    0.857    1.714    1.429    0.000    2.000    3.429 
#    0.000    8.571    0.000    1.714    0.000    0.000 
#    0.000    0.000    0.000    0.000    0.000    0.000 
#
# Total GULP energy -78092.398993 kJ/mol
# GULP energy per Si atom -5578.028499 kJ/mol
# Density = 2.435207 g / cm^3
# Si number density = 24.407623 Si / 1000 Ang^3
#
#
#
# Elastic Constant Matrix: (Units=GPa)
#
#
# Indices 1 2 3 4 5 6 
#
# 1 129.6047 9.7423 9.0243 0.8379 5.0434 -10.4436
# 2 9.7423 79.4586 14.3467 -11.2031 4.5608 -8.0510
# 3 9.0243 14.3467 66.9471 -10.3629 -21.4339 7.1077
# 4 0.8379 -11.2031 -10.3629 27.4455 5.6524 -5.5269
# 5 5.0434 4.5608 -21.4339 5.6524 34.7647 1.7674
# 6 -10.4436 -8.0510 7.1077 -5.5269 1.7674 31.5121
#
#
#
# Elastic Compliance Matrix: (Units=1/GPa)
#
#
# Indices 1 2 3 4 5 6 
#
# 1 0.008271 -0.000062 -0.002358 0.000108 -0.002838 0.003435
# 2 -0.000062 0.015587 -0.005072 0.007181 -0.006673 0.006740
# 3 -0.002358 -0.005072 0.022151 0.001798 0.014758 -0.007586
# 4 0.000108 0.007181 0.001798 0.043481 -0.007402 0.009506
# 5 -0.002838 -0.006673 0.014758 -0.007402 0.040840 -0.009563
# 6 0.003435 0.006740 -0.007586 0.009506 -0.009563 0.038509
#
#
# Mechanical properties :
#
#
# Convention : Reuss Voigt Hill
#
# Bulk Modulus (GPa) = 32.23394 38.02631 35.13013
# Shear Modulus (GPa) = 25.75112 34.93762 30.34437
#
# Velocity S-wave (km/s) = 3.25167 3.78752 3.52978
# Velocity P-wave (km/s) = 5.22809 5.89411 5.57107
#
# Compressibility (1/GPa) = 0.03102320
#
# Stress axis : x y z
#
# Youngs Moduli (GPa) = 120.90140 64.15605 45.14537
#
# Poissons Ratio (x) = 0.00399 0.10646
# Poissons Ratio (y) = 0.00751 0.22900
# Poissons Ratio (z) = 0.28511 0.32543
#
# Static dielectric constant tensor:
#      x y z
#    x 1.966300 -0.025620 -0.080060 
#    y -0.025620 1.925650 0.065040 
#    z -0.080060 0.065040 2.135920 
# 
# From -- ./inp_files/175293.got.cif
#   From: 2010.05.17/outbox.cif.g08.bks.cpg/sg2_88_cif.got.tgz:175293.got - 2010.06.03 11:33:40.
