data_PCOD9084842
_publ_section_title
;
Structure prediction by ZEFSAII (Michael W. Deem and Ramdas Pophale) SiO2 
 PCOD9084842
Probable space group: P -1
;
_chemical_formula_sum "Si O2"
_cell_formula_units_Z 14
_cell_length_a 8.861194
_cell_length_b 12.556663
_cell_length_c 23.097866
_cell_angle_alpha 17.144368
_cell_angle_beta 120.195719
_cell_angle_gamma 122.822272
_cell_volume 635.481861
_symmetry_space_group_name_H-M "P -1"
_symmetry_group_IT_number 2
_symmetry_cell_setting 'triclinic'
loop_
_space_group_symop_operation_xyz
x,y,z
-x,-y,-z
loop_
_atom_site_type_symbol
_atom_site_label
_atom_site_fract_x
_atom_site_fract_y
_atom_site_fract_z
Si Si1 0.358817 0.902873 0.251886
Si Si2 0.016594 0.221365 0.209774
Si Si3 0.976706 0.069366 0.082864
Si Si4 0.413096 0.192997 0.831738
Si Si5 0.314716 0.693420 0.960638
Si Si6 0.050429 0.807694 0.665532
Si Si7 0.436713 0.253023 0.522517
O O1 0.379909 0.562884 0.391407
O O2 0.405085 0.838101 0.361072
O O3 0.157378 0.937041 0.187356
O O4 0.515681 0.250260 0.078143
O O5 0.826083 0.092890 0.207691
O O6 0.025675 0.048411 0.364453
O O7 0.191089 0.295909 0.164310
O O8 0.009876 0.639980 0.012022
O O9 0.976190 0.363177 0.878459
O O10 0.786046 0.782549 0.199792
O O11 0.515076 0.571828 0.622836
O O12 0.388023 0.899635 0.926638
O O13 0.500000 0.000000 0.000000
O O14 0.264703 0.908746 0.663220
O O15 0.000000 0.000000 0.500000
#
# Coordination Sequence:
#
# PCOD9084842 Si02
#       7
#     2   2   2   2   2   2   2
#     4  10  19  36  56  85 110 142 188 233 274 320
#     4   8  17  31  56  80 103 142 188 219 267 319
#     4   9  20  35  60  81 109 146 188 222 278 325
#     4  10  20  36  55  80 111 150 180 220 283 342
#     4   9  16  32  52  81 103 143 184 219 265 331
#     4  10  19  35  57  84 108 142 189 228 268 330
#     4  10  21  33  58  82 114 142 184 231 277 320
#
# _framework density 22.030525999999998
#
# number of rings (size 3 to 8) (size 9 to 14) (size 15 to 20)
#    0.857    1.714    1.429    0.857    0.000    2.857 
#    0.000    6.429    3.143    0.857    0.000    0.000 
#    0.000    0.000    0.000    0.000    0.000    0.000 
#
# Total GULP energy -77960.704994 kJ/mol
# GULP energy per Si atom -5568.621785 kJ/mol
# Density = 2.198038 g / cm^3
# Si number density = 22.030526 Si / 1000 Ang^3
#
#
#
# Elastic Constant Matrix: (Units=GPa)
#
#
# Indices 1 2 3 4 5 6 
#
# 1 110.6677 12.0432 45.2143 4.9955 -10.7173 23.0415
# 2 12.0432 37.9232 5.6123 16.2583 -8.7492 -3.3184
# 3 45.2143 5.6123 73.8982 27.0846 -25.7491 -7.1105
# 4 4.9955 16.2583 27.0846 42.4919 -0.7131 -10.3101
# 5 -10.7173 -8.7492 -25.7491 -0.7131 40.2065 -1.2878
# 6 23.0415 -3.3184 -7.1105 -10.3101 -1.2878 27.0154
#
#
#
# Elastic Compliance Matrix: (Units=1/GPa)
#
#
# Indices 1 2 3 4 5 6 
#
# 1 0.024653 -0.015005 -0.026024 0.013031 -0.013943 -0.025411
# 2 -0.015005 0.045606 0.024875 -0.027406 0.021867 0.015530
# 3 -0.026024 0.024875 0.054322 -0.033652 0.033575 0.028307
# 4 0.013031 -0.027406 -0.033652 0.052475 -0.023252 -0.004419
# 5 -0.013943 0.021867 0.033575 -0.023252 0.047541 0.016807
# 6 -0.025411 0.015530 0.028307 -0.004419 0.016807 0.067162
#
#
# Mechanical properties :
#
#
# Convention : Reuss Voigt Hill
#
# Bulk Modulus (GPa) = 10.83716 38.69207 24.76462
# Shear Modulus (GPa) = 14.09147 32.58405 23.33776
#
# Velocity S-wave (km/s) = 2.53184 3.85000 3.25828
# Velocity P-wave (km/s) = 3.67108 6.11264 5.04189
#
# Compressibility (1/GPa) = 0.09227508
#
# Stress axis : x y z
#
# Youngs Moduli (GPa) = 40.56228 21.92686 18.40883
#
# Poissons Ratio (x) = 0.32900 0.47907
# Poissons Ratio (y) = 0.60862 -0.45792
# Poissons Ratio (z) = 1.05558 -0.54544
#
# Static dielectric constant tensor:
#      x y z
#    x 1.879330 0.004930 -0.056970 
#    y 0.004930 1.816290 -0.040410 
#    z -0.056970 -0.040410 1.888310 
# 
# From -- ./inp_files/608049.got.cif
#   From: 2010.05.17/outbox.cif.g08.bks.cpg/sg2_305_cif.got.tgz:608049.got - 2010.06.03 11:33:40.
