data_PCOD9084142
_publ_section_title
;
Structure prediction by ZEFSAII (Michael W. Deem and Ramdas Pophale) SiO2 
 PCOD9084142
Probable space group: P -1
;
_chemical_formula_sum "Si O2"
_cell_formula_units_Z 16
_cell_length_a 15.425091
_cell_length_b 26.843356
_cell_length_c 18.677233
_cell_angle_alpha 160.056913
_cell_angle_beta 27.635421
_cell_angle_gamma 162.730814
_cell_volume 777.780445
_symmetry_space_group_name_H-M "P -1"
_symmetry_group_IT_number 2
_symmetry_cell_setting 'triclinic'
loop_
_space_group_symop_operation_xyz
x,y,z
-x,-y,-z
loop_
_atom_site_type_symbol
_atom_site_label
_atom_site_fract_x
_atom_site_fract_y
_atom_site_fract_z
Si Si1 0.602298 0.961249 0.652214
Si Si2 0.837763 0.776364 0.478686
Si Si3 0.834705 0.265891 0.119036
Si Si4 0.899346 0.112820 0.118030
Si Si5 0.135334 0.958488 0.293245
Si Si6 0.156479 0.380670 0.436611
Si Si7 0.829871 0.754363 0.617659
Si Si8 0.830754 0.529887 0.704879
O O1 0.389235 0.963711 0.790616
O O2 0.604379 0.937414 0.703932
O O3 0.476524 0.731369 0.403634
O O4 0.930707 0.178203 0.675242
O O5 0.828884 0.930042 0.655449
O O6 0.494735 0.526824 0.386610
O O7 0.947013 0.841885 0.569285
O O8 0.842480 0.445046 0.344763
O O9 0.993643 0.325123 0.156886
O O10 0.500000 0.000000 0.000000
O O11 0.003993 0.277995 0.949081
O O12 0.986487 0.194468 0.246458
O O13 0.159364 0.336070 0.179138
O O14 0.840253 0.914706 0.867457
O O15 0.000000 0.000000 0.500000
O O16 0.037350 0.277322 0.464041
O O17 0.500000 0.500000 0.500000
O O18 0.000000 0.500000 0.500000
#
# Coordination Sequence:
#
# PCOD9084142 Si02
#       8
#     2   2   2   2   2   2   2   2
#     4  10  21  38  63  94 130 156 196 259 321 364
#     4  10  21  41  59  91 130 155 203 255 300 367
#     4  12  20  34  66  89 121 161 208 250 303 373
#     4  11  21  40  65  90 124 161 209 253 303 375
#     4  10  21  35  58  89 126 155 188 249 316 362
#     4  11  22  39  66  88 120 166 217 248 302 363
#     4  10  24  41  63  88 119 168 216 255 296 362
#     4  10  19  34  60  98 121 154 200 255 309 371
#
# _framework density 20.571358
#
# number of rings (size 3 to 8) (size 9 to 14) (size 15 to 20)
#    0.000    1.500    3.750    3.375    5.250    0.000 
#    0.000   11.250    0.000    0.000    0.000    0.000 
#    0.000    0.000    0.000    0.000    0.000    0.000 
#
# Total GULP energy -89088.309336 kJ/mol
# GULP energy per Si atom -5568.019334 kJ/mol
# Density = 2.052454 g / cm^3
# Si number density = 20.571358 Si / 1000 Ang^3
#
#
#
# Elastic Constant Matrix: (Units=GPa)
#
#
# Indices 1 2 3 4 5 6 
#
# 1 144.9526 4.1482 14.7657 4.3626 25.3495 -10.9226
# 2 4.1482 35.3322 0.9670 -8.9650 1.9522 -1.6553
# 3 14.7657 0.9670 98.2801 7.7130 20.2114 -7.7470
# 4 4.3626 -8.9650 7.7130 20.3338 1.8605 -1.6120
# 5 25.3495 1.9522 20.2114 1.8605 36.1318 6.1033
# 6 -10.9226 -1.6553 -7.7470 -1.6120 6.1033 23.7197
#
#
#
# Elastic Compliance Matrix: (Units=1/GPa)
#
#
# Indices 1 2 3 4 5 6 
#
# 1 0.008624 -0.000673 0.000812 -0.001300 -0.007417 0.006010
# 2 -0.000673 0.032545 -0.000687 0.015226 -0.002252 0.003351
# 3 0.000812 -0.000687 0.012612 -0.003984 -0.008455 0.006350
# 4 -0.001300 0.015226 -0.003984 0.058069 -0.001252 0.003431
# 5 -0.007417 -0.002252 -0.008455 -0.001252 0.040646 -0.016878
# 6 0.006010 0.003351 0.006350 0.003431 -0.016878 0.051810
#
#
# Mechanical properties :
#
#
# Convention : Reuss Voigt Hill
#
# Bulk Modulus (GPa) = 18.98069 35.36964 27.17516
# Shear Modulus (GPa) = 22.42510 33.28265 27.85387
#
# Velocity S-wave (km/s) = 3.30527 4.02669 3.68368
# Velocity P-wave (km/s) = 4.87987 6.23297 5.59746
#
# Compressibility (1/GPa) = 0.05268513
#
# Stress axis : x y z
#
# Youngs Moduli (GPa) = 115.95033 30.72635 79.29168
#
# Poissons Ratio (x) = 0.02069 -0.06438
# Poissons Ratio (y) = 0.07807 0.05445
# Poissons Ratio (z) = -0.09414 0.02110
#
# Static dielectric constant tensor:
#      x y z
#    x 1.780940 -0.035320 -0.007530 
#    y -0.035320 1.895840 -0.011080 
#    z -0.007530 -0.011080 1.753700 
# 
# From -- ./inp_files/574486.got.cif
#   From: 2010.05.17/outbox.cif.g08.bks.cpg/sg2_288_cif.got.tgz:574486.got - 2010.06.03 11:33:40.
