data_PCOD9084396
_publ_section_title
;
Structure prediction by ZEFSAII (Michael W. Deem and Ramdas Pophale) SiO2 
 PCOD9084396
Probable space group: P -1
;
_chemical_formula_sum "Si O2"
_cell_formula_units_Z 16
_cell_length_a 15.621629
_cell_length_b 8.621636
_cell_length_c 15.359721
_cell_angle_alpha 132.876634
_cell_angle_beta 46.363549
_cell_angle_gamma 149.493544
_cell_volume 738.977597
_symmetry_space_group_name_H-M "P -1"
_symmetry_group_IT_number 2
_symmetry_cell_setting 'triclinic'
loop_
_space_group_symop_operation_xyz
x,y,z
-x,-y,-z
loop_
_atom_site_type_symbol
_atom_site_label
_atom_site_fract_x
_atom_site_fract_y
_atom_site_fract_z
Si Si1 0.695254 0.877586 0.093061
Si Si2 0.874714 0.932034 0.488474
Si Si3 0.896164 0.677737 0.683734
Si Si4 0.343304 0.217804 0.115327
Si Si5 0.058253 0.176471 0.888553
Si Si6 0.731118 0.391453 0.254539
Si Si7 0.294576 0.737410 0.060405
Si Si8 0.336474 0.938913 0.294961
O O1 0.541647 0.551948 0.126996
O O2 0.726476 0.154400 0.210159
O O3 0.632994 0.833933 0.019823
O O4 0.877160 0.000201 0.995231
O O5 0.778009 0.622049 0.383278
O O6 0.734211 0.917828 0.614623
O O7 0.000000 0.000000 0.500000
O O8 0.997773 0.205503 0.434497
O O9 0.774446 0.727454 0.781416
O O10 0.769420 0.314953 0.650983
O O11 0.027367 0.910027 0.761132
O O12 0.249874 0.909701 0.117590
O O13 0.123040 0.403194 0.846521
O O14 0.199229 0.423354 0.956988
O O15 0.543110 0.198441 0.269054
O O16 0.279709 0.727247 0.170024
O O17 0.500000 0.000000 0.000000
#
# Coordination Sequence:
#
# PCOD9084396 Si02
#       8
#     2   2   2   2   2   2   2   2
#     4  10  19  34  64  91 128 167 216 247 320 376
#     4  11  26  45  70  94 122 165 224 276 318 375
#     4  10  23  43  68  92 129 166 216 263 324 382
#     4  10  20  37  61  93 129 169 205 260 316 384
#     4  10  22  35  61 100 129 172 205 260 313 388
#     4  11  21  42  65  94 126 174 215 259 324 384
#     4  12  24  38  61  96 140 167 214 258 319 382
#     4  12  24  44  67  93 131 174 212 266 321 381
#
# _framework density 21.651536
#
# number of rings (size 3 to 8) (size 9 to 14) (size 15 to 20)
#    0.000    1.250    3.750    1.875    8.750    0.500 
#    0.000    0.625    2.750    0.000    0.000    0.000 
#    0.000    0.000    0.000    0.000    0.000    0.000 
#
# Total GULP energy -89356.978609 kJ/mol
# GULP energy per Si atom -5584.811163 kJ/mol
# Density = 2.160226 g / cm^3
# Si number density = 21.651536 Si / 1000 Ang^3
#
#
#
# Elastic Constant Matrix: (Units=GPa)
#
#
# Indices 1 2 3 4 5 6 
#
# 1 68.9967 17.9743 19.0137 6.1551 -0.9090 9.7163
# 2 17.9743 99.2568 3.2027 -4.8635 12.3283 8.7495
# 3 19.0137 3.2027 63.1423 -4.3444 5.0241 15.4146
# 4 6.1551 -4.8635 -4.3444 22.2382 4.8152 2.2445
# 5 -0.9090 12.3283 5.0241 4.8152 32.5124 3.5808
# 6 9.7163 8.7495 15.4146 2.2445 3.5808 31.1872
#
#
#
# Elastic Compliance Matrix: (Units=1/GPa)
#
#
# Indices 1 2 3 4 5 6 
#
# 1 0.018031 -0.003827 -0.005689 -0.007671 0.004153 -0.001656
# 2 -0.003827 0.011909 0.002084 0.005547 -0.005441 -0.002953
# 3 -0.005689 0.002084 0.020535 0.007884 -0.004295 -0.009036
# 4 -0.007671 0.005547 0.007884 0.052735 -0.010727 -0.005627
# 5 0.004153 -0.005441 -0.004295 -0.010727 0.035291 -0.000925
# 6 -0.001656 -0.002953 -0.009036 -0.005627 -0.000925 0.038386
#
#
# Mechanical properties :
#
#
# Convention : Reuss Voigt Hill
#
# Bulk Modulus (GPa) = 28.08275 34.64190 31.36232
# Shear Modulus (GPa) = 24.55546 29.93455 27.24501
#
# Velocity S-wave (km/s) = 3.37132 3.72231 3.55116
# Velocity P-wave (km/s) = 5.30593 5.87440 5.59739
#
# Compressibility (1/GPa) = 0.03560905
#
# Stress axis : x y z
#
# Youngs Moduli (GPa) = 55.46131 83.97276 48.69774
#
# Poissons Ratio (x) = 0.32139 0.27705
# Poissons Ratio (y) = 0.21226 -0.10148
# Poissons Ratio (z) = 0.31553 -0.17500
#
# Static dielectric constant tensor:
#      x y z
#    x 1.984870 -0.024490 0.004750 
#    y -0.024490 1.817710 0.018210 
#    z 0.004750 0.018210 1.790600 
# 
# From -- ./inp_files/179422.got.cif
#   From: 2010.05.17/outbox.cif.g08.bks.cpg/sg2_90_cif.got.tgz:179422.got - 2010.06.03 11:33:40.
