data_PCOD9084345
_publ_section_title
;
Structure prediction by ZEFSAII (Michael W. Deem and Ramdas Pophale) SiO2 
 PCOD9084345
Probable space group: P -1
;
_chemical_formula_sum "Si O2"
_cell_formula_units_Z 12
_cell_length_a 8.220899
_cell_length_b 9.374371
_cell_length_c 10.811886
_cell_angle_alpha 42.628778
_cell_angle_beta 119.308645
_cell_angle_gamma 94.662923
_cell_volume 433.747576
_symmetry_space_group_name_H-M "P -1"
_symmetry_group_IT_number 2
_symmetry_cell_setting 'triclinic'
loop_
_space_group_symop_operation_xyz
x,y,z
-x,-y,-z
loop_
_atom_site_type_symbol
_atom_site_label
_atom_site_fract_x
_atom_site_fract_y
_atom_site_fract_z
Si Si1 0.565755 0.203108 0.742611
Si Si2 0.258144 0.698868 0.939199
Si Si3 0.973190 0.378957 0.308565
Si Si4 0.688578 0.678857 0.203727
Si Si5 0.390355 0.199241 0.434123
Si Si6 0.052723 0.816796 0.022170
O O1 0.349663 0.326120 0.661864
O O2 0.564562 0.175357 0.614246
O O3 0.696494 0.334164 0.753616
O O4 0.678334 0.932949 0.011820
O O5 0.476518 0.706193 0.036583
O O6 0.294483 0.443986 0.167023
O O7 0.073582 0.884227 0.844654
O O8 0.179425 0.699209 0.771887
O O9 0.886876 0.445301 0.373580
O O10 0.205710 0.202901 0.452392
O O11 0.949442 0.641784 0.095885
O O12 0.500000 0.000000 0.500000
O O13 0.000000 0.000000 0.000000
#
# Coordination Sequence:
#
# PCOD9084345 Si02
#       6
#     2   2   2   2   2   2
#     4  10  22  39  63  92 125 157 205 254 306 359
#     4  10  23  40  64  92 123 163 204 250 307 365
#     4  11  22  39  65  92 123 165 206 246 308 369
#     4  10  21  41  64  89 124 162 203 250 308 369
#     4  11  24  40  61  90 127 162 205 260 298 356
#     4  10  19  34  63  90 117 158 205 248 290 363
#
# _framework density 27.665865
#
# number of rings (size 3 to 8) (size 9 to 14) (size 15 to 20)
#    0.000    1.667    1.667    3.500    2.333    6.667 
#    0.000    3.333    0.000    0.000    0.000    0.000 
#    0.000    0.000    0.000    0.000    0.000    0.000 
#
# Total GULP energy -67072.803169 kJ/mol
# GULP energy per Si atom -5589.400264 kJ/mol
# Density = 2.760290 g / cm^3
# Si number density = 27.665865 Si / 1000 Ang^3
#
#
#
# Elastic Constant Matrix: (Units=GPa)
#
#
# Indices 1 2 3 4 5 6 
#
# 1 92.1606 52.4577 5.8947 -14.9632 13.0847 -8.3422
# 2 52.4577 227.8564 38.3752 -0.2228 3.7543 -35.8804
# 3 5.8947 38.3752 44.6008 -8.7823 -11.4614 -3.1391
# 4 -14.9632 -0.2228 -8.7823 55.1095 0.1630 11.7150
# 5 13.0847 3.7543 -11.4614 0.1630 34.8524 2.6408
# 6 -8.3422 -35.8804 -3.1391 11.7150 2.6408 68.1487
#
#
#
# Elastic Compliance Matrix: (Units=1/GPa)
#
#
# Indices 1 2 3 4 5 6 
#
# 1 0.013964 -0.003305 0.000543 0.003987 -0.004688 -0.000510
# 2 -0.003305 0.006724 -0.006055 -0.002545 -0.001717 0.003361
# 3 0.000543 -0.006055 0.031282 0.005733 0.010943 -0.003090
# 4 0.003987 -0.002545 0.005733 0.021030 0.000885 -0.004237
# 5 -0.004688 -0.001717 0.010943 0.000885 0.034418 -0.002460
# 6 -0.000510 0.003361 -0.003090 -0.004237 -0.002460 0.017062
#
#
# Mechanical properties :
#
#
# Convention : Reuss Voigt Hill
#
# Bulk Modulus (GPa) = 29.12357 62.00810 45.56584
# Shear Modulus (GPa) = 32.56030 49.48147 41.02089
#
# Velocity S-wave (km/s) = 3.43434 4.23370 3.85480
# Velocity P-wave (km/s) = 5.12601 6.80888 6.02648
#
# Compressibility (1/GPa) = 0.03433645
#
# Stress axis : x y z
#
# Youngs Moduli (GPa) = 71.61222 148.71015 31.96684
#
# Poissons Ratio (x) = 0.49155 -0.01736
# Poissons Ratio (y) = 0.23671 0.19355
# Poissons Ratio (z) = -0.03888 0.90041
#
# Static dielectric constant tensor:
#      x y z
#    x 2.291010 -0.072650 0.134620 
#    y -0.072650 2.092860 -0.072120 
#    z 0.134620 -0.072120 2.243120 
# 
# From -- ./inp_files/144671.got.cif
#   From: 2010.05.17/outbox.cif.g08.bks.cpg/sg2_73_cif.got.tgz:144671.got - 2010.06.03 11:33:40.
