data_PCOD9084883
_publ_section_title
;
Structure prediction by ZEFSAII (Michael W. Deem and Ramdas Pophale) SiO2 
 PCOD9084883
Probable space group: P -1
;
_chemical_formula_sum "Si O2"
_cell_formula_units_Z 16
_cell_length_a 9.646199
_cell_length_b 11.073009
_cell_length_c 12.948004
_cell_angle_alpha 129.185059
_cell_angle_beta 46.707870
_cell_angle_gamma 119.380384
_cell_volume 776.218745
_symmetry_space_group_name_H-M "P -1"
_symmetry_group_IT_number 2
_symmetry_cell_setting 'triclinic'
loop_
_space_group_symop_operation_xyz
x,y,z
-x,-y,-z
loop_
_atom_site_type_symbol
_atom_site_label
_atom_site_fract_x
_atom_site_fract_y
_atom_site_fract_z
Si Si1 0.944938 0.835062 0.994001
Si Si2 0.277266 0.119823 0.256223
Si Si3 0.341751 0.971510 0.654732
Si Si4 0.771651 0.546992 0.805749
Si Si5 0.098001 0.749825 0.520641
Si Si6 0.278570 0.797225 0.956632
Si Si7 0.669642 0.050262 0.671021
Si Si8 0.362741 0.638153 0.024093
O O1 0.776481 0.879064 0.182343
O O2 0.873613 0.713626 0.876213
O O3 0.121707 0.778180 0.936767
O O4 0.000000 0.000000 0.000000
O O5 0.497582 0.190885 0.181711
O O6 0.125525 0.231759 0.355722
O O7 0.226869 0.060458 0.365860
O O8 0.254877 0.966255 0.111977
O O9 0.799777 0.136415 0.561114
O O10 0.476681 0.956062 0.675568
O O11 0.200807 0.823565 0.610392
O O12 0.132959 0.574214 0.380029
O O13 0.565188 0.569120 0.874899
O O14 0.747468 0.463960 0.886129
O O15 0.500000 0.000000 0.500000
O O16 0.256743 0.664627 0.985464
O O17 0.600953 0.188339 0.851708
#
# Coordination Sequence:
#
# PCOD9084883 Si02
#       8
#     2   2   2   2   2   2   2   2
#     4  12  24  41  65  91 123 164 209 249 305 374
#     4  10  19  35  57  87 122 151 203 253 298 361
#     4  10  20  36  59  91 122 152 207 250 294 356
#     4  10  22  39  63  87 125 160 201 250 308 371
#     4  10  20  36  58  89 121 158 201 249 309 355
#     4  10  22  36  60  88 118 160 205 252 296 360
#     4   9  17  33  59  88 117 158 200 247 300 355
#     4   9  19  38  61  87 120 161 201 244 304 358
#
# _framework density 20.612746000000001
#
# number of rings (size 3 to 8) (size 9 to 14) (size 15 to 20)
#    0.000    2.000    2.500    1.125    5.250    0.500 
#    0.000    4.375    0.000    0.000    0.000    0.000 
#    0.000    0.000    0.000    0.000    0.000    0.000 
#
# Total GULP energy -89304.251694 kJ/mol
# GULP energy per Si atom -5581.515731 kJ/mol
# Density = 2.056583 g / cm^3
# Si number density = 20.612746 Si / 1000 Ang^3
#
#
#
# Elastic Constant Matrix: (Units=GPa)
#
#
# Indices 1 2 3 4 5 6 
#
# 1 81.4385 22.9227 23.2178 9.8826 -8.7562 2.4606
# 2 22.9227 68.1473 23.0645 14.2177 3.5604 -0.8750
# 3 23.2178 23.0645 87.8039 10.1785 -17.3866 6.3363
# 4 9.8826 14.2177 10.1785 28.8246 -3.3896 8.3667
# 5 -8.7562 3.5604 -17.3866 -3.3896 27.5934 3.9137
# 6 2.4606 -0.8750 6.3363 8.3667 3.9137 31.1166
#
#
#
# Elastic Compliance Matrix: (Units=1/GPa)
#
#
# Indices 1 2 3 4 5 6 
#
# 1 0.014613 -0.004250 -0.001687 -0.001539 0.004079 -0.001031
# 2 -0.004250 0.020491 -0.005434 -0.009508 -0.009401 0.005758
# 3 -0.001687 -0.005434 0.015689 0.000335 0.010753 -0.004657
# 4 -0.001539 -0.009508 0.000335 0.044617 0.008310 -0.013256
# 5 0.004079 -0.009401 0.010753 0.008310 0.048113 -0.011063
# 6 -0.001031 0.005758 -0.004657 -0.013256 -0.011063 0.038284
#
#
# Mechanical properties :
#
#
# Convention : Reuss Voigt Hill
#
# Bulk Modulus (GPa) = 35.64777 41.75550 38.70163
# Shear Modulus (GPa) = 23.37539 28.71925 26.04732
#
# Velocity S-wave (km/s) = 3.37118 3.73671 3.55864
# Velocity P-wave (km/s) = 5.69954 6.23846 5.97508
#
# Compressibility (1/GPa) = 0.02805225
#
# Stress axis : x y z
#
# Youngs Moduli (GPa) = 68.43271 48.80079 63.73877
#
# Poissons Ratio (x) = 0.20738 0.10754
# Poissons Ratio (y) = 0.29081 0.34635
# Poissons Ratio (z) = 0.11546 0.26518
#
# Static dielectric constant tensor:
#      x y z
#    x 1.730760 -0.014930 0.018990 
#    y -0.014930 1.753600 -0.060510 
#    z 0.018990 -0.060510 1.779910 
# 
# From -- ./inp_files/496722.got.cif
#   From: 2010.05.17/outbox.cif.g08.bks.cpg/sg2_249_cif.got.tgz:496722.got - 2010.06.03 11:33:40.
