data_PCOD9084023
_publ_section_title
;
Structure prediction by ZEFSAII (Michael W. Deem and Ramdas Pophale) SiO2 
 PCOD9084023
Probable space group: P -1
;
_chemical_formula_sum "Si O2"
_cell_formula_units_Z 16
_cell_length_a 11.787090
_cell_length_b 19.655375
_cell_length_c 13.402492
_cell_angle_alpha 21.395620
_cell_angle_beta 132.862074
_cell_angle_gamma 139.601928
_cell_volume 728.647955
_symmetry_space_group_name_H-M "P -1"
_symmetry_group_IT_number 2
_symmetry_cell_setting 'triclinic'
loop_
_space_group_symop_operation_xyz
x,y,z
-x,-y,-z
loop_
_atom_site_type_symbol
_atom_site_label
_atom_site_fract_x
_atom_site_fract_y
_atom_site_fract_z
Si Si1 0.391276 0.944997 0.661193
Si Si2 0.159195 0.854631 0.007271
Si Si3 0.996200 0.625400 0.492343
Si Si4 0.836062 0.819955 0.992624
Si Si5 0.798377 0.920823 0.477239
Si Si6 0.763418 0.216684 0.410867
Si Si7 0.487707 0.548135 0.811243
Si Si8 0.376876 0.917576 0.225904
O O1 0.278466 0.775675 0.741236
O O2 0.269748 0.026380 0.532530
O O3 0.568803 0.135011 0.456007
O O4 0.484773 0.893199 0.880430
O O5 0.333541 0.971094 0.019719
O O6 0.089766 0.602531 0.300934
O O7 0.997961 0.870787 0.943305
O O8 0.212854 0.951417 0.798338
O O9 0.066599 0.603397 0.674688
O O10 0.184047 0.791472 0.331402
O O11 0.875281 0.730496 0.241660
O O12 0.657250 0.645372 0.072185
O O13 0.808056 0.022193 0.713736
O O14 0.690451 0.668976 0.733785
O O15 0.000000 0.000000 0.500000
O O16 0.438399 0.737954 0.506731
O O17 0.500000 0.500000 0.000000
#
# Coordination Sequence:
#
# PCOD9084023 Si02
#       8
#     2   2   2   2   2   2   2   2
#     4   9  20  37  55  83 116 156 201 237 297 346
#     4  11  20  37  63  92 125 151 192 252 309 355
#     4  10  19  34  59  91 121 157 198 246 295 351
#     4  11  19  36  61  94 116 152 208 247 292 350
#     4  11  24  39  59  93 121 153 197 253 312 351
#     4  10  20  36  61  85 120 160 204 243 286 354
#     4  11  20  33  57  86 119 148 194 252 289 343
#     4   9  17  34  58  88 114 152 195 245 292 343
#
# _framework density 21.958476999999998
#
# number of rings (size 3 to 8) (size 9 to 14) (size 15 to 20)
#    0.000    1.750    2.500    4.125    0.000    2.000 
#    0.000    0.625    2.750    0.750    0.000    0.000 
#    0.000    0.000    0.000    0.000    0.000    0.000 
#
# Total GULP energy -89157.413045 kJ/mol
# GULP energy per Si atom -5572.338315 kJ/mol
# Density = 2.190850 g / cm^3
# Si number density = 21.958477 Si / 1000 Ang^3
#
#
#
# Elastic Constant Matrix: (Units=GPa)
#
#
# Indices 1 2 3 4 5 6 
#
# 1 85.3958 27.5051 17.3400 1.6835 2.1068 2.2366
# 2 27.5051 167.0447 15.3832 39.8493 -6.2275 2.9640
# 3 17.3400 15.3832 45.9160 18.6926 -2.9029 2.2370
# 4 1.6835 39.8493 18.6926 34.6832 -1.3801 -2.5609
# 5 2.1068 -6.2275 -2.9029 -1.3801 19.9817 3.5520
# 6 2.2366 2.9640 2.2370 -2.5609 3.5520 33.1524
#
#
#
# Elastic Compliance Matrix: (Units=1/GPa)
#
#
# Indices 1 2 3 4 5 6 
#
# 1 0.014279 -0.003550 -0.007429 0.007314 -0.003324 0.000776
# 2 -0.003550 0.009413 0.003650 -0.012639 0.003354 -0.002184
# 3 -0.007429 0.003650 0.032724 -0.021553 0.005957 -0.004336
# 4 0.007314 -0.012639 -0.021553 0.054914 -0.005275 0.006898
# 5 -0.003324 0.003354 0.005957 -0.005275 0.053112 -0.006575
# 6 0.000776 -0.002184 -0.004336 0.006898 -0.006575 0.031837
#
#
# Mechanical properties :
#
#
# Convention : Reuss Voigt Hill
#
# Bulk Modulus (GPa) = 23.94616 46.53477 35.24047
# Shear Modulus (GPa) = 22.23652 33.43868 27.83760
#
# Velocity S-wave (km/s) = 3.18569 3.90656 3.56439
# Velocity P-wave (km/s) = 4.94574 6.44876 5.74660
#
# Compressibility (1/GPa) = 0.04176035
#
# Stress axis : x y z
#
# Youngs Moduli (GPa) = 70.03085 106.23055 30.55879
#
# Poissons Ratio (x) = 0.37707 0.22702
# Poissons Ratio (y) = 0.24858 -0.11155
# Poissons Ratio (z) = 0.52026 -0.38778
#
# Static dielectric constant tensor:
#      x y z
#    x 1.879430 -0.010590 0.009880 
#    y -0.010590 1.936980 0.063660 
#    z 0.009880 0.063660 1.852700 
# 
# From -- ./inp_files/416694.got.cif
#   From: 2010.05.17/outbox.cif.g08.bks.cpg/sg2_209_cif.got.tgz:416694.got - 2010.06.03 11:33:40.
