data_PCOD9084518
_publ_section_title
;
Structure prediction by ZEFSAII (Michael W. Deem and Ramdas Pophale) SiO2 
 PCOD9084518
Probable space group: P -1
;
_chemical_formula_sum "Si O2"
_cell_formula_units_Z 16
_cell_length_a 5.798121
_cell_length_b 9.021802
_cell_length_c 14.405679
_cell_angle_alpha 72.332648
_cell_angle_beta 66.815927
_cell_angle_gamma 91.363241
_cell_volume 651.139298
_symmetry_space_group_name_H-M "P -1"
_symmetry_group_IT_number 2
_symmetry_cell_setting 'triclinic'
loop_
_space_group_symop_operation_xyz
x,y,z
-x,-y,-z
loop_
_atom_site_type_symbol
_atom_site_label
_atom_site_fract_x
_atom_site_fract_y
_atom_site_fract_z
Si Si1 0.001579 0.507244 0.140496
Si Si2 0.131839 0.869705 0.052235
Si Si3 0.329552 0.129132 0.105426
Si Si4 0.426207 0.429660 0.917082
Si Si5 0.316373 0.892601 0.481496
Si Si6 0.227592 0.551885 0.617159
Si Si7 0.333729 0.502929 0.324509
Si Si8 0.228176 0.152563 0.327505
O O1 0.997343 0.692883 0.123945
O O2 0.305833 0.503903 0.083029
O O3 0.790233 0.467208 0.100147
O O4 0.896510 0.417113 0.267598
O O5 0.224216 0.955571 0.117659
O O6 0.367934 0.855526 0.950446
O O7 0.000000 0.000000 0.000000
O O8 0.231009 0.164294 0.214630
O O9 0.288262 0.264614 0.012677
O O10 0.554081 0.399634 0.802167
O O11 0.346585 0.711470 0.515469
O O12 0.043863 0.883545 0.574763
O O13 0.500000 0.000000 0.500000
O O14 0.344759 0.994966 0.363851
O O15 0.465517 0.469895 0.627921
O O16 0.963438 0.478239 0.620230
O O17 0.339482 0.319575 0.326469
#
# Coordination Sequence:
#
# PCOD9084518 Si02
#       8
#     2   2   2   2   2   2   2   2
#     4   9  17  31  53  76 103 139 178 216 263 317
#     4  10  19  35  54  75 107 141 179 220 266 317
#     4  10  21  34  52  79 109 142 179 220 265 316
#     4   9  17  31  50  76 108 142 173 209 260 322
#     4  10  19  35  54  75 107 141 179 220 266 317
#     4   9  17  31  53  76 103 139 178 216 263 317
#     4   9  17  31  50  76 108 142 173 209 260 322
#     4  10  21  34  52  79 109 142 179 220 265 316
#
# _framework density 24.572317000000002
#
# number of rings (size 3 to 8) (size 9 to 14) (size 15 to 20)
#    0.000    2.500    2.500    0.000    0.000    1.500 
#    0.000    0.000    0.000    8.250    0.000    1.750 
#    0.000    0.000    0.000    0.000    0.000    0.000 
#
# Total GULP energy -89203.713628 kJ/mol
# GULP energy per Si atom -5575.232102 kJ/mol
# Density = 2.451639 g / cm^3
# Si number density = 24.572317 Si / 1000 Ang^3
#
#
#
# Elastic Constant Matrix: (Units=GPa)
#
#
# Indices 1 2 3 4 5 6 
#
# 1 150.1667 12.3039 23.2310 2.9106 7.1892 0.3363
# 2 12.3039 76.4458 46.5142 2.1529 -10.3316 6.3408
# 3 23.2310 46.5142 110.8842 -13.0792 21.1964 3.2407
# 4 2.9106 2.1529 -13.0792 24.0982 -7.5453 0.4785
# 5 7.1892 -10.3316 21.1964 -7.5453 29.0900 -16.4160
# 6 0.3363 6.3408 3.2407 0.4785 -16.4160 28.7361
#
#
#
# Elastic Compliance Matrix: (Units=1/GPa)
#
#
# Indices 1 2 3 4 5 6 
#
# 1 0.007025 -0.000854 -0.000789 -0.002035 -0.002749 -0.001342
# 2 -0.000854 0.026403 -0.016961 -0.002917 0.028061 0.012176
# 3 -0.000789 -0.016961 0.023262 0.004900 -0.030868 -0.016587
# 4 -0.002035 -0.002917 0.004900 0.048249 0.011839 0.006074
# 5 -0.002749 0.028061 -0.030868 0.011839 0.101769 0.055262
# 6 -0.001342 0.012176 -0.016587 0.006074 0.055262 0.065467
#
#
# Mechanical properties :
#
#
# Convention : Reuss Voigt Hill
#
# Bulk Modulus (GPa) = 51.32563 55.73276 53.52919
# Shear Modulus (GPa) = 15.82890 33.41471 24.62180
#
# Velocity S-wave (km/s) = 2.54082 3.69162 3.16889
# Velocity P-wave (km/s) = 5.43513 6.39539 5.93471
#
# Compressibility (1/GPa) = 0.01948344
#
# Stress axis : x y z
#
# Youngs Moduli (GPa) = 142.34204 37.87405 42.98845
#
# Poissons Ratio (x) = 0.03233 0.03392
# Poissons Ratio (y) = 0.12151 0.72913
# Poissons Ratio (z) = 0.11231 0.64238
#
# Static dielectric constant tensor:
#      x y z
#    x 2.065910 -0.089280 0.181300 
#    y -0.089280 1.950530 0.034920 
#    z 0.181300 0.034920 1.878530 
# 
# From -- ./inp_files/70602.got.cif
#   From: 2010.05.17/outbox.cif.g08.bks.cpg/sg2_36_cif.got.tgz:70602.got - 2010.06.03 11:33:40.
