data_PCOD9084282
_publ_section_title
;
Structure prediction by ZEFSAII (Michael W. Deem and Ramdas Pophale) SiO2 
 PCOD9084282
Probable space group: P -1
;
_chemical_formula_sum "Si O2"
_cell_formula_units_Z 16
_cell_length_a 21.344155
_cell_length_b 9.347536
_cell_length_c 8.115633
_cell_angle_alpha 96.085005
_cell_angle_beta 86.295899
_cell_angle_gamma 150.824463
_cell_volume 783.581911
_symmetry_space_group_name_H-M "P -1"
_symmetry_group_IT_number 2
_symmetry_cell_setting 'triclinic'
loop_
_space_group_symop_operation_xyz
x,y,z
-x,-y,-z
loop_
_atom_site_type_symbol
_atom_site_label
_atom_site_fract_x
_atom_site_fract_y
_atom_site_fract_z
Si Si1 0.668402 0.684859 0.086563
Si Si2 0.283405 0.465371 0.700092
Si Si3 0.362082 0.907692 0.074582
Si Si4 0.543303 0.590517 0.777304
Si Si5 0.081767 0.797165 0.092188
Si Si6 0.093968 0.284662 0.908052
Si Si7 0.707222 0.715396 0.618187
Si Si8 0.482615 0.889472 0.245231
O O1 0.654365 0.499616 0.151622
O O2 0.609115 0.684661 0.220887
O O3 0.594259 0.593569 0.922825
O O4 0.815927 0.975545 0.045067
O O5 0.165899 0.327305 0.767387
O O6 0.246171 0.268233 0.552785
O O7 0.395974 0.792078 0.645792
O O8 0.401802 0.858867 0.181267
O O9 0.396979 0.132685 0.167718
O O10 0.211763 0.589486 0.026224
O O11 0.439180 0.034528 0.906018
O O12 0.602348 0.632413 0.614122
O O13 0.990801 0.750573 0.138917
O O14 0.175737 0.982629 0.258824
O O15 0.000000 0.500000 0.000000
O O16 0.000000 0.000000 0.000000
O O17 0.621053 0.419675 0.687899
#
# Coordination Sequence:
#
# PCOD9084282 Si02
#       8
#     2   2   2   2   2   2   2   2
#     4  10  19  37  61  88 117 156 205 252 294 362
#     4  11  23  39  61  93 130 159 196 253 318 366
#     4  10  19  34  62  91 112 154 211 256 294 355
#     4  10  20  36  63  89 118 155 203 253 310 359
#     4  11  23  41  63  87 119 162 217 257 285 351
#     4  11  21  36  63  87 115 163 212 250 292 353
#     4  11  24  39  61  91 129 162 195 256 313 367
#     4  10  20  36  61  91 125 150 197 258 311 362
#
# _framework density 20.419052000000001
#
# number of rings (size 3 to 8) (size 9 to 14) (size 15 to 20)
#    0.000    1.500    2.500    4.875    5.250    2.000 
#    0.000    0.625    0.000    0.000    0.000    0.000 
#    0.000    0.000    0.000    0.000    0.000    0.000 
#
# Total GULP energy -89084.360743 kJ/mol
# GULP energy per Si atom -5567.772546 kJ/mol
# Density = 2.037258 g / cm^3
# Si number density = 20.419052 Si / 1000 Ang^3
#
#
#
# Elastic Constant Matrix: (Units=GPa)
#
#
# Indices 1 2 3 4 5 6 
#
# 1 143.6990 23.7486 32.1520 -3.3982 -27.2643 13.1515
# 2 23.7486 83.6830 23.6350 3.4979 0.0063 0.8093
# 3 32.1520 23.6350 67.7236 9.9873 -27.6733 -0.8445
# 4 -3.3982 3.4979 9.9873 23.8105 -3.1072 -8.3788
# 5 -27.2643 0.0063 -27.6733 -3.1072 32.0753 -1.1910
# 6 13.1515 0.8093 -0.8445 -8.3788 -1.1910 42.5502
#
#
#
# Elastic Compliance Matrix: (Units=1/GPa)
#
#
# Indices 1 2 3 4 5 6 
#
# 1 0.009170 -0.002400 -0.000975 0.002232 0.007089 -0.002170
# 2 -0.002400 0.014741 -0.007389 -0.000523 -0.008469 -0.000025
# 3 -0.000975 -0.007389 0.028305 -0.007918 0.022828 0.000084
# 4 0.002232 -0.000523 -0.007918 0.048820 0.000122 0.008780
# 5 0.007089 -0.008469 0.022828 0.000122 0.056913 0.000040
# 6 -0.002170 -0.000025 0.000084 0.008780 0.000040 0.025904
#
#
# Mechanical properties :
#
#
# Convention : Reuss Voigt Hill
#
# Bulk Modulus (GPa) = 32.58715 50.46409 41.52562
# Shear Modulus (GPa) = 23.18995 34.05852 28.62423
#
# Velocity S-wave (km/s) = 3.37367 4.08852 3.74818
# Velocity P-wave (km/s) = 5.58296 6.85973 6.25401
#
# Compressibility (1/GPa) = 0.03068694
#
# Stress axis : x y z
#
# Youngs Moduli (GPa) = 109.04722 67.84003 35.33002
#
# Poissons Ratio (x) = 0.16280 0.03446
# Poissons Ratio (y) = 0.26169 0.26105
# Poissons Ratio (z) = 0.10637 0.50127
#
# Static dielectric constant tensor:
#      x y z
#    x 1.746090 -0.007920 -0.010580 
#    y -0.007920 1.777910 0.007710 
#    z -0.010580 0.007710 1.849810 
# 
# From -- ./inp_files/342818.got.cif
#   From: 2010.05.17/outbox.cif.g08.bks.cpg/sg2_172_cif.got.tgz:342818.got - 2010.06.03 11:33:40.
