data_PCOD9084813
_publ_section_title
;
Structure prediction by ZEFSAII (Michael W. Deem and Ramdas Pophale) SiO2 
 PCOD9084813
Probable space group: P -1
;
_chemical_formula_sum "Si O2"
_cell_formula_units_Z 14
_cell_length_a 14.728654
_cell_length_b 8.351944
_cell_length_c 16.639369
_cell_angle_alpha 55.000665
_cell_angle_beta 22.068715
_cell_angle_gamma 51.043813
_cell_volume 597.737678
_symmetry_space_group_name_H-M "P -1"
_symmetry_group_IT_number 2
_symmetry_cell_setting 'triclinic'
loop_
_space_group_symop_operation_xyz
x,y,z
-x,-y,-z
loop_
_atom_site_type_symbol
_atom_site_label
_atom_site_fract_x
_atom_site_fract_y
_atom_site_fract_z
Si Si1 0.417041 0.120438 0.334926
Si Si2 0.095730 0.663943 0.587198
Si Si3 0.184701 0.230075 0.670611
Si Si4 0.463598 0.571659 0.600264
Si Si5 0.952830 0.887809 0.931489
Si Si6 0.244491 0.558573 0.313749
Si Si7 0.919162 0.030037 0.733431
O O1 0.315405 0.176618 0.491883
O O2 0.454446 0.333329 0.211038
O O3 0.191575 0.068398 0.488740
O O4 0.668380 0.928428 0.180837
O O5 0.004775 0.466670 0.740532
O O6 0.366436 0.604658 0.430059
O O7 0.164598 0.654753 0.440152
O O8 0.908906 0.869609 0.719272
O O9 0.403433 0.250431 0.544894
O O10 0.046496 0.063572 0.847265
O O11 0.500000 0.500000 0.500000
O O12 0.166813 0.671939 0.834115
O O13 0.931669 0.933791 0.839580
O O14 0.000000 0.500000 0.500000
O O15 0.282264 0.742359 0.176591
#
# Coordination Sequence:
#
# PCOD9084813 Si02
#       7
#     2   2   2   2   2   2   2
#     4   9  20  35  55  85 108 140 190 220 269 326
#     4   9  18  35  57  81 106 147 182 216 277 325
#     4   8  19  35  54  77 113 141 180 221 265 321
#     4  10  19  35  57  82 113 143 181 219 273 333
#     4  11  19  35  59  82 108 147 180 225 270 321
#     4   9  18  36  57  79 107 145 185 226 267 320
#     4  10  19  35  59  77 113 145 179 227 274 316
#
# _framework density 23.421645000000002
#
# number of rings (size 3 to 8) (size 9 to 14) (size 15 to 20)
#    0.857    1.714    1.429    1.714    0.000    1.143 
#    0.000    6.429    0.000    5.143    0.000    0.000 
#    0.000    0.000    0.000    0.000    0.000    0.000 
#
# Total GULP energy -78123.462849 kJ/mol
# GULP energy per Si atom -5580.247346 kJ/mol
# Density = 2.336834 g / cm^3
# Si number density = 23.421645 Si / 1000 Ang^3
#
#
#
# Elastic Constant Matrix: (Units=GPa)
#
#
# Indices 1 2 3 4 5 6 
#
# 1 106.6437 12.8334 -3.7492 1.5219 2.9739 14.0524
# 2 12.8334 72.3886 6.5274 17.9266 10.1835 0.7852
# 3 -3.7492 6.5274 39.2132 10.2998 -4.4291 3.1944
# 4 1.5219 17.9266 10.2998 20.3362 0.1981 -1.7004
# 5 2.9739 10.1835 -4.4291 0.1981 15.3109 5.0385
# 6 14.0524 0.7852 3.1944 -1.7004 5.0385 42.8880
#
#
#
# Elastic Compliance Matrix: (Units=1/GPa)
#
#
# Indices 1 2 3 4 5 6 
#
# 1 0.010121 -0.002020 0.001757 -0.000173 0.001053 -0.003541
# 2 -0.002020 0.020400 -0.000694 -0.017244 -0.013565 0.001250
# 3 0.001757 -0.000694 0.031653 -0.016066 0.011083 -0.004860
# 4 -0.000173 -0.017244 -0.016066 0.072806 0.004626 0.003912
# 5 0.001053 -0.013565 0.011083 0.004626 0.080637 -0.010212
# 6 -0.003541 0.001250 -0.004860 0.003912 -0.010212 0.026171
#
#
# Mechanical properties :
#
#
# Convention : Reuss Voigt Hill
#
# Bulk Modulus (GPa) = 16.59441 27.71876 22.15658
# Shear Modulus (GPa) = 18.95462 29.21595 24.08528
#
# Velocity S-wave (km/s) = 2.84787 3.53567 3.21024
# Velocity P-wave (km/s) = 4.23252 5.34119 4.81885
#
# Compressibility (1/GPa) = 0.06026126
#
# Stress axis : x y z
#
# Youngs Moduli (GPa) = 98.79959 49.01966 31.59304
#
# Poissons Ratio (x) = 0.09900 -0.05550
# Poissons Ratio (y) = 0.19954 0.02191
# Poissons Ratio (z) = -0.17357 0.03400
#
# Static dielectric constant tensor:
#      x y z
#    x 1.885780 -0.044540 -0.026680 
#    y -0.044540 1.979220 0.003520 
#    z -0.026680 0.003520 1.845220 
# 
# From -- ./inp_files/341495.got.cif
#   From: 2010.05.17/outbox.cif.g08.bks.cpg/sg2_171_cif.got.tgz:341495.got - 2010.06.03 11:33:40.
