data_PCOD9084347
_publ_section_title
;
Structure prediction by ZEFSAII (Michael W. Deem and Ramdas Pophale) SiO2 
 PCOD9084347
Probable space group: P -1
;
_chemical_formula_sum "Si O2"
_cell_formula_units_Z 14
_cell_length_a 9.824117
_cell_length_b 9.966751
_cell_length_c 13.625195
_cell_angle_alpha 148.519832
_cell_angle_beta 111.212466
_cell_angle_gamma 56.656922
_cell_volume 564.244347
_symmetry_space_group_name_H-M "P -1"
_symmetry_group_IT_number 2
_symmetry_cell_setting 'triclinic'
loop_
_space_group_symop_operation_xyz
x,y,z
-x,-y,-z
loop_
_atom_site_type_symbol
_atom_site_label
_atom_site_fract_x
_atom_site_fract_y
_atom_site_fract_z
Si Si1 0.620539 0.167771 0.287654
Si Si2 0.432839 0.177168 0.799242
Si Si3 0.651963 0.383368 0.776324
Si Si4 0.221453 0.293346 0.640648
Si Si5 0.085101 0.651699 0.320037
Si Si6 0.300956 0.185750 0.224572
Si Si7 0.719338 0.285473 0.194323
O O1 0.500000 0.500000 0.500000
O O2 0.481582 0.088409 0.159482
O O3 0.742895 0.160791 0.232326
O O4 0.677839 0.962423 0.270226
O O5 0.380568 0.246819 0.717806
O O6 0.624833 0.922550 0.714650
O O7 0.393121 0.458477 0.031008
O O8 0.777502 0.470122 0.806193
O O9 0.482569 0.501686 0.741068
O O10 0.740803 0.028596 0.584700
O O11 0.193951 0.525843 0.694562
O O12 0.064329 0.421477 0.754213
O O13 0.181658 0.518383 0.365709
O O14 0.000000 0.000000 0.500000
O O15 0.232928 0.980928 0.035358
#
# Coordination Sequence:
#
# PCOD9084347 Si02
#       7
#     2   2   2   2   2   2   2
#     4  10  19  34  63  91 113 155 213 253 285 360
#     4   9  21  38  64  92 117 160 215 250 288 365
#     4  10  19  39  60  84 125 161 203 244 297 364
#     4  11  24  37  61  98 126 158 197 258 318 353
#     4  10  21  37  61  88 126 167 198 247 318 368
#     4   9  20  37  63  85 119 163 208 246 298 364
#     4  11  20  38  63  91 119 159 209 256 299 358
#
# _framework density 24.811948000000001
#
# number of rings (size 3 to 8) (size 9 to 14) (size 15 to 20)
#    0.857    1.143    1.429    2.571    2.000    3.429 
#    2.571    0.000    0.000    2.571    0.000    0.000 
#    0.000    0.000    0.000    0.000    0.000    0.000 
#
# Total GULP energy -78131.806739 kJ/mol
# GULP energy per Si atom -5580.843339 kJ/mol
# Density = 2.475547 g / cm^3
# Si number density = 24.811948 Si / 1000 Ang^3
#
#
#
# Elastic Constant Matrix: (Units=GPa)
#
#
# Indices 1 2 3 4 5 6 
#
# 1 86.7805 16.8857 20.8618 8.9049 4.0953 25.0406
# 2 16.8857 87.7880 14.4527 9.5630 -1.5246 2.0063
# 3 20.8618 14.4527 84.5777 7.8539 12.6201 4.5119
# 4 8.9049 9.5630 7.8539 36.7680 1.9524 -2.5493
# 5 4.0953 -1.5246 12.6201 1.9524 27.3219 12.1895
# 6 25.0406 2.0063 4.5119 -2.5493 12.1895 35.9654
#
#
#
# Elastic Compliance Matrix: (Units=1/GPa)
#
#
# Indices 1 2 3 4 5 6 
#
# 1 0.016659 -0.001804 -0.003499 -0.003998 0.005142 -0.013085
# 2 -0.001804 0.012330 -0.001718 -0.002511 0.001957 -0.000057
# 3 -0.003499 -0.001718 0.014013 -0.001084 -0.007396 0.003204
# 4 -0.003998 -0.002511 -0.001084 0.029722 -0.004087 0.006552
# 5 0.005142 0.001957 -0.007396 -0.004087 0.048314 -0.019426
# 6 -0.013085 -0.000057 0.003204 0.006552 -0.019426 0.043565
#
#
# Mechanical properties :
#
#
# Convention : Reuss Voigt Hill
#
# Bulk Modulus (GPa) = 34.52972 40.39410 37.46191
# Shear Modulus (GPa) = 26.55377 33.80746 30.18061
#
# Velocity S-wave (km/s) = 3.27494 3.69527 3.49144
# Velocity P-wave (km/s) = 5.31480 5.87556 5.60220
#
# Compressibility (1/GPa) = 0.02896056
#
# Stress axis : x y z
#
# Youngs Moduli (GPa) = 60.02817 81.10484 71.36081
#
# Poissons Ratio (x) = 0.14635 0.24966
# Poissons Ratio (y) = 0.10831 0.12257
# Poissons Ratio (z) = 0.21002 0.13931
#
# Static dielectric constant tensor:
#      x y z
#    x 2.047200 0.017150 0.031520 
#    y 0.017150 1.994870 0.034480 
#    z 0.031520 0.034480 2.005810 
# 
# From -- ./inp_files/514746.got.cif
#   From: 2010.05.17/outbox.cif.g08.bks.cpg/sg2_258_cif.got.tgz:514746.got - 2010.06.03 11:33:40.
