data_PCOD9084912
_publ_section_title
;
Structure prediction by ZEFSAII (Michael W. Deem and Ramdas Pophale) SiO2 
 PCOD9084912
Probable space group: P -1
;
_chemical_formula_sum "Si O2"
_cell_formula_units_Z 16
_cell_length_a 12.073329
_cell_length_b 12.529922
_cell_length_c 13.535715
_cell_angle_alpha 28.849540
_cell_angle_beta 61.151921
_cell_angle_gamma 73.611150
_cell_volume 816.219278
_symmetry_space_group_name_H-M "P -1"
_symmetry_group_IT_number 2
_symmetry_cell_setting 'triclinic'
loop_
_space_group_symop_operation_xyz
x,y,z
-x,-y,-z
loop_
_atom_site_type_symbol
_atom_site_label
_atom_site_fract_x
_atom_site_fract_y
_atom_site_fract_z
Si Si1 0.543573 0.899802 0.663032
Si Si2 0.327029 0.441058 0.207837
Si Si3 0.617492 0.980756 0.896875
Si Si4 0.568002 0.494746 0.678218
Si Si5 0.653087 0.311025 0.438719
Si Si6 0.839917 0.793251 0.022316
Si Si7 0.852985 0.583431 0.398089
Si Si8 0.039728 0.265609 0.556359
O O1 0.639096 0.743206 0.728747
O O2 0.500000 0.000000 0.500000
O O3 0.620626 0.120217 0.520462
O O4 0.410611 0.706875 0.923944
O O5 0.380266 0.388780 0.334152
O O6 0.170783 0.397755 0.328541
O O7 0.725516 0.914115 0.968357
O O8 0.675779 0.193517 0.625433
O O9 0.540734 0.754564 0.047189
O O10 0.500000 0.000000 0.000000
O O11 0.484146 0.624497 0.547141
O O12 0.695931 0.471877 0.584661
O O13 0.777539 0.553877 0.180401
O O14 0.860546 0.729122 0.177562
O O15 0.972739 0.998988 0.765051
O O16 0.917092 0.728213 0.351825
O O17 0.933037 0.403418 0.490446
#
# Coordination Sequence:
#
# PCOD9084912 Si02
#       8
#     2   2   2   2   2   2   2   2
#     4  11  22  41  65  91 113 151 199 263 307 343
#     4  10  22  39  64  87 116 148 206 248 300 351
#     4  11  21  34  56  85 127 162 194 239 293 358
#     4  10  19  35  57  91 117 156 196 244 295 352
#     4  11  22  36  60  90 123 154 196 250 305 351
#     4  11  22  36  57  86 124 163 198 236 293 363
#     4  10  21  38  59  86 124 165 204 236 289 349
#     4  10  22  40  59  86 122 165 199 244 286 356
#
# _framework density 19.602575999999999
#
# number of rings (size 3 to 8) (size 9 to 14) (size 15 to 20)
#    0.000    1.500    2.500    3.375    0.000    3.000 
#    2.250    0.625    0.000    3.750    0.000    0.000 
#    0.000    0.000    0.000    0.000    0.000    0.000 
#
# Total GULP energy -89231.247355 kJ/mol
# GULP energy per Si atom -5576.952960 kJ/mol
# Density = 1.955796 g / cm^3
# Si number density = 19.602576 Si / 1000 Ang^3
#
#
#
# Elastic Constant Matrix: (Units=GPa)
#
#
# Indices 1 2 3 4 5 6 
#
# 1 96.8549 40.7811 47.1217 -8.3384 0.8867 5.9211
# 2 40.7811 90.1506 45.6212 -12.2828 -18.6166 8.4508
# 3 47.1217 45.6212 106.3073 -10.8600 -10.6320 6.7065
# 4 -8.3384 -12.2828 -10.8600 26.5665 5.1538 -3.1017
# 5 0.8867 -18.6166 -10.6320 5.1538 40.9488 1.7835
# 6 5.9211 8.4508 6.7065 -3.1017 1.7835 22.3754
#
#
#
# Elastic Compliance Matrix: (Units=1/GPa)
#
#
# Indices 1 2 3 4 5 6 
#
# 1 0.014862 -0.004976 -0.004717 0.001184 -0.003951 -0.000161
# 2 -0.004976 0.017656 -0.004101 0.003098 0.006865 -0.004240
# 3 -0.004717 -0.004101 0.013674 0.001761 0.001618 -0.001186
# 4 0.001184 0.003098 0.001761 0.041318 -0.003534 0.003998
# 5 -0.003951 0.006865 0.001618 -0.003534 0.028702 -0.004810
# 6 -0.000161 -0.004240 -0.001186 0.003998 -0.004810 0.047629
#
#
# Mechanical properties :
#
#
# Convention : Reuss Voigt Hill
#
# Bulk Modulus (GPa) = 53.74713 62.26231 58.00472
# Shear Modulus (GPa) = 25.29996 28.63072 26.96534
#
# Velocity S-wave (km/s) = 3.59645 3.82587 3.71293
# Velocity P-wave (km/s) = 6.68759 7.16573 6.93078
#
# Compressibility (1/GPa) = 0.01860564
#
# Stress axis : x y z
#
# Youngs Moduli (GPa) = 67.28361 56.63835 73.13289
#
# Poissons Ratio (x) = 0.28182 0.34494
# Poissons Ratio (y) = 0.33479 0.29990
# Poissons Ratio (z) = 0.31735 0.23226
#
# Static dielectric constant tensor:
#      x y z
#    x 1.695040 0.028320 -0.021250 
#    y 0.028320 1.713290 -0.053830 
#    z -0.021250 -0.053830 1.709570 
# 
# From -- ./inp_files/93208.got.cif
#   From: 2010.05.17/outbox.cif.g08.bks.cpg/sg2_47_cif.got.tgz:93208.got - 2010.06.03 11:33:40.
