data_PCOD9084471
_publ_section_title
;
Structure prediction by ZEFSAII (Michael W. Deem and Ramdas Pophale) SiO2 
 PCOD9084471
Probable space group: P -1
;
_chemical_formula_sum "Si O2"
_cell_formula_units_Z 16
_cell_length_a 19.895969
_cell_length_b 8.073660
_cell_length_c 8.441038
_cell_angle_alpha 84.514042
_cell_angle_beta 30.962672
_cell_angle_gamma 85.872785
_cell_volume 694.261015
_symmetry_space_group_name_H-M "P -1"
_symmetry_group_IT_number 2
_symmetry_cell_setting 'triclinic'
loop_
_space_group_symop_operation_xyz
x,y,z
-x,-y,-z
loop_
_atom_site_type_symbol
_atom_site_label
_atom_site_fract_x
_atom_site_fract_y
_atom_site_fract_z
Si Si1 0.702763 0.558137 0.610832
Si Si2 0.135159 0.935063 0.809032
Si Si3 0.626777 0.318589 0.211152
Si Si4 0.217497 0.793231 0.359184
Si Si5 0.466101 0.573221 0.309475
Si Si6 0.862968 0.582780 0.733523
Si Si7 0.049096 0.353105 0.801845
Si Si8 0.937573 0.876138 0.768598
O O1 0.748407 0.390893 0.627891
O O2 0.653386 0.494079 0.547915
O O3 0.821524 0.692289 0.353385
O O4 0.579712 0.624218 0.951737
O O5 0.233102 0.918363 0.464983
O O6 0.083181 0.746953 0.961035
O O7 0.148598 0.022358 0.941778
O O8 0.000000 0.000000 0.000000
O O9 0.520877 0.417920 0.313473
O O10 0.568761 0.286267 0.505106
O O11 0.690294 0.181081 0.982342
O O12 0.745060 0.451226 0.993614
O O13 0.066144 0.801422 0.605340
O O14 0.881100 0.636680 0.510472
O O15 0.856126 0.735338 0.853778
O O16 0.000000 0.500000 0.500000
O O17 0.000000 0.500000 0.000000
O O18 0.000000 0.000000 0.500000
#
# Coordination Sequence:
#
# PCOD9084471 Si02
#       8
#     2   2   2   2   2   2   2   2
#     4  10  19  35  56  86 115 149 189 240 290 333
#     4  10  22  36  51  80 122 154 184 222 284 357
#     4  10  19  36  56  85 117 148 185 247 284 329
#     4  10  19  35  52  79 115 145 189 229 279 342
#     4   9  20  33  53  86 118 143 192 241 291 325
#     4  12  22  35  56  87 120 144 191 232 292 347
#     4  12  21  34  57  86 118 144 187 237 287 341
#     4  11  22  35  52  82 121 160 183 220 290 357
#
# _framework density 23.046088999999998
#
# number of rings (size 3 to 8) (size 9 to 14) (size 15 to 20)
#    0.000    1.500    6.250    0.000    3.500    1.000 
#    0.000    0.000    0.000    0.000    0.000  110.250 
#    0.000    0.000    0.000    0.000    0.000    0.000 
#
# Total GULP energy -89198.260316 kJ/mol
# GULP energy per Si atom -5574.891270 kJ/mol
# Density = 2.299363 g / cm^3
# Si number density = 23.046089 Si / 1000 Ang^3
#
#
#
# Elastic Constant Matrix: (Units=GPa)
#
#
# Indices 1 2 3 4 5 6 
#
# 1 112.8933 29.9173 32.3496 12.2621 7.4748 28.6132
# 2 29.9173 63.9293 25.3033 28.9920 20.9256 29.9001
# 3 32.3496 25.3033 106.4092 38.3279 31.2853 23.2310
# 4 12.2621 28.9920 38.3279 38.5236 22.1979 21.3511
# 5 7.4748 20.9256 31.2853 22.1979 49.3321 17.3930
# 6 28.6132 29.9001 23.2310 21.3511 17.3930 34.7997
#
#
#
# Elastic Compliance Matrix: (Units=1/GPa)
#
#
# Indices 1 2 3 4 5 6 
#
# 1 0.012577 -0.003457 -0.003955 0.006604 0.002663 -0.010114
# 2 -0.003457 0.030926 0.003371 -0.015832 -0.002274 -0.015130
# 3 -0.003955 0.003371 0.016584 -0.015805 -0.004706 0.001334
# 4 0.006604 -0.015832 -0.015805 0.065729 -0.007551 -0.017829
# 5 0.002663 -0.002274 -0.004706 -0.007551 0.029809 -0.007360
# 6 -0.010114 -0.015130 0.001334 -0.017829 -0.007360 0.063778
#
#
# Mechanical properties :
#
#
# Convention : Reuss Voigt Hill
#
# Bulk Modulus (GPa) = 19.22865 50.93025 35.07945
# Shear Modulus (GPa) = 20.42315 37.57518 28.99916
#
# Velocity S-wave (km/s) = 2.98012 4.04225 3.55112
# Velocity P-wave (km/s) = 4.49479 6.62824 5.66290
#
# Compressibility (1/GPa) = 0.05200574
#
# Stress axis : x y z
#
# Youngs Moduli (GPa) = 79.50972 32.33493 60.29934
#
# Poissons Ratio (x) = 0.11177 0.23851
# Poissons Ratio (y) = 0.27484 -0.20329
# Poissons Ratio (z) = 0.31449 -0.10901
#
# Static dielectric constant tensor:
#      x y z
#    x 2.056300 0.175440 0.075900 
#    y 0.175440 2.114070 0.127820 
#    z 0.075900 0.127820 1.917170 
# 
# From -- ./inp_files/170459.got.cif
#   From: 2010.05.17/outbox.cif.g08.bks.cpg/sg2_86_cif.got.tgz:170459.got - 2010.06.03 11:33:40.
