data_PCOD9084460
_publ_section_title
;
Structure prediction by ZEFSAII (Michael W. Deem and Ramdas Pophale) SiO2 
 PCOD9084460
Probable space group: P -1
;
_chemical_formula_sum "Si O2"
_cell_formula_units_Z 16
_cell_length_a 12.574990
_cell_length_b 10.713499
_cell_length_c 19.309199
_cell_angle_alpha 140.821272
_cell_angle_beta 157.983554
_cell_angle_gamma 46.961803
_cell_volume 608.839492
_symmetry_space_group_name_H-M "P -1"
_symmetry_group_IT_number 2
_symmetry_cell_setting 'triclinic'
loop_
_space_group_symop_operation_xyz
x,y,z
-x,-y,-z
loop_
_atom_site_type_symbol
_atom_site_label
_atom_site_fract_x
_atom_site_fract_y
_atom_site_fract_z
Si Si1 0.036530 0.064234 0.663457
Si Si2 0.502713 0.135096 0.201033
Si Si3 0.937317 0.139261 0.268314
Si Si4 0.652047 0.454715 0.760601
Si Si5 0.187675 0.713738 0.009430
Si Si6 0.052071 0.078147 0.162728
Si Si7 0.476098 0.553688 0.846568
Si Si8 0.703929 0.381729 0.615709
O O1 0.787324 0.188295 0.544343
O O2 0.191134 0.935964 0.647817
O O3 0.954310 0.923185 0.619620
O O4 0.280573 0.250977 0.913409
O O5 0.488661 0.364698 0.280641
O O6 0.275952 0.043842 0.082248
O O7 0.334418 0.032670 0.987205
O O8 0.811873 0.347241 0.280865
O O9 0.127714 0.122971 0.307701
O O10 0.514052 0.442523 0.748575
O O11 0.616372 0.308665 0.609373
O O12 0.000000 0.500000 0.000000
O O13 0.978629 0.555663 0.861474
O O14 0.013526 0.738346 0.844535
O O15 0.467289 0.605071 0.128244
O O16 0.222112 0.926154 0.160041
O O17 0.500000 0.500000 0.500000
#
# Coordination Sequence:
#
# PCOD9084460 Si02
#       8
#     2   2   2   2   2   2   2   2
#     4  10  16  29  48  72 101 122 162 204 248 289
#     4   9  15  27  46  75 100 122 154 207 249 282
#     4   9  15  26  45  74 101 119 151 204 256 281
#     4  12  16  28  52  76  94 124 163 210 245 277
#     4  10  19  31  45  72 105 131 163 196 246 295
#     4   9  18  28  47  74 103 129 157 203 249 287
#     4  10  16  25  46  75  96 117 157 209 243 285
#     4  11  23  34  48  72 105 133 160 201 249 294
#
# _framework density 26.279506000000001
#
# number of rings (size 3 to 8) (size 9 to 14) (size 15 to 20)
#    0.750    1.250    6.250    0.750    1.750    0.500 
#    0.000    0.625    0.000    0.750    0.000    0.875 
#    0.000    0.000    0.000    0.000    0.000    0.000 
#
# Total GULP energy -89286.096126 kJ/mol
# GULP energy per Si atom -5580.381008 kJ/mol
# Density = 2.621969 g / cm^3
# Si number density = 26.279506 Si / 1000 Ang^3
#
#
#
# Elastic Constant Matrix: (Units=GPa)
#
#
# Indices 1 2 3 4 5 6 
#
# 1 80.5687 29.2000 -1.7551 -0.9634 -9.0836 -1.5539
# 2 29.2000 185.5024 6.2607 -27.0193 -1.9692 -15.4770
# 3 -1.7551 6.2607 71.3373 3.8962 -7.7845 -6.6734
# 4 -0.9634 -27.0193 3.8962 27.0425 -4.4585 -5.1482
# 5 -9.0836 -1.9692 -7.7845 -4.4585 28.9063 4.3802
# 6 -1.5539 -15.4770 -6.6734 -5.1482 4.3802 40.8443
#
#
#
# Elastic Compliance Matrix: (Units=1/GPa)
#
#
# Indices 1 2 3 4 5 6 
#
# 1 0.013779 -0.002463 0.001029 -0.001576 0.004333 -0.000904
# 2 -0.002463 0.007263 -0.000783 0.007986 0.000209 0.003515
# 3 0.001029 -0.000783 0.014766 -0.001973 0.003714 0.001508
# 4 -0.001576 0.007986 -0.001973 0.047648 0.005648 0.008044
# 5 0.004333 0.000209 0.003714 0.005648 0.038226 -0.002537
# 6 -0.000904 0.003515 0.001508 0.008044 -0.002537 0.027313
#
#
# Mechanical properties :
#
#
# Convention : Reuss Voigt Hill
#
# Bulk Modulus (GPa) = 31.87036 44.97995 38.42516
# Shear Modulus (GPa) = 30.50889 39.60548 35.05719
#
# Velocity S-wave (km/s) = 3.41095 3.88633 3.65638
# Velocity P-wave (km/s) = 5.25990 6.10666 5.69903
#
# Compressibility (1/GPa) = 0.03137711
#
# Stress axis : x y z
#
# Youngs Moduli (GPa) = 72.57419 137.67493 67.72298
#
# Poissons Ratio (x) = 0.33904 -0.06972
# Poissons Ratio (y) = 0.17872 0.05300
# Poissons Ratio (z) = -0.07471 0.10774
#
# Static dielectric constant tensor:
#      x y z
#    x 2.088350 -0.039480 0.079460 
#    y -0.039480 2.040780 -0.042900 
#    z 0.079460 -0.042900 2.239400 
# 
# From -- ./inp_files/469461.got.cif
#   From: 2010.05.17/outbox.cif.g08.bks.cpg/sg2_235_cif.got.tgz:469461.got - 2010.06.03 11:33:40.
