data_PCOD9084439
_publ_section_title
;
Structure prediction by ZEFSAII (Michael W. Deem and Ramdas Pophale) SiO2 
 PCOD9084439
Probable space group: P -1
;
_chemical_formula_sum "Si O2"
_cell_formula_units_Z 14
_cell_length_a 20.497504
_cell_length_b 10.875705
_cell_length_c 7.915185
_cell_angle_alpha 120.255290
_cell_angle_beta 140.503486
_cell_angle_gamma 32.478143
_cell_volume 543.858592
_symmetry_space_group_name_H-M "P -1"
_symmetry_group_IT_number 2
_symmetry_cell_setting 'triclinic'
loop_
_space_group_symop_operation_xyz
x,y,z
-x,-y,-z
loop_
_atom_site_type_symbol
_atom_site_label
_atom_site_fract_x
_atom_site_fract_y
_atom_site_fract_z
Si Si1 0.015330 0.034063 0.322058
Si Si2 0.693388 0.858094 0.315102
Si Si3 0.317612 0.919679 0.869196
Si Si4 0.530574 0.256593 0.503580
Si Si5 0.945406 0.587057 0.142502
Si Si6 0.858246 0.369044 0.905614
Si Si7 0.362765 0.565547 0.024616
O O1 0.197018 0.915559 0.633271
O O2 0.061318 0.819515 0.214285
O O3 0.933417 0.205083 0.109289
O O4 0.850154 0.226498 0.257674
O O5 0.725573 0.928396 0.273224
O O6 0.875406 0.555671 0.500494
O O7 0.667532 0.981659 0.517221
O O8 0.500000 0.000000 0.000000
O O9 0.236597 0.111267 0.987041
O O10 0.522377 0.634383 0.036822
O O11 0.360333 0.388245 0.354992
O O12 0.448387 0.407589 0.263201
O O13 0.606857 0.301399 0.792637
O O14 0.913954 0.467564 0.074741
O O15 0.000000 0.500000 0.000000
#
# Coordination Sequence:
#
# PCOD9084439 Si02
#       7
#     2   2   2   2   2   2   2
#     4  10  19  34  68  99 124 162 224 285 320 374
#     4  11  23  39  68  99 127 170 230 277 314 387
#     4  11  22  39  64  98 127 167 228 276 320 389
#     4   9  17  32  58  96 130 154 209 277 326 371
#     4  12  27  44  62  93 142 181 211 266 343 403
#     4  10  19  37  61  95 132 170 212 272 335 379
#     4   9  18  31  57  99 132 154 205 280 338 370
#
# _framework density 25.741983999999999
#
# number of rings (size 3 to 8) (size 9 to 14) (size 15 to 20)
#    0.000    1.714    2.857    2.143   10.000    0.000 
#    0.000    3.571    0.000    1.714    0.000    0.000 
#    0.000    0.000    0.000    0.000    0.000    0.000 
#
# Total GULP energy -78432.613646 kJ/mol
# GULP energy per Si atom -5602.329546 kJ/mol
# Density = 2.568339 g / cm^3
# Si number density = 25.741984 Si / 1000 Ang^3
#
#
#
# Elastic Constant Matrix: (Units=GPa)
#
#
# Indices 1 2 3 4 5 6 
#
# 1 82.0262 58.4438 51.0643 -13.6288 17.5536 -23.1070
# 2 58.4438 196.1516 39.9636 -6.8924 8.2488 -33.3750
# 3 51.0643 39.9636 108.0611 -13.5241 13.3739 -10.0433
# 4 -13.6288 -6.8924 -13.5241 38.4013 -6.0038 4.0971
# 5 17.5536 8.2488 13.3739 -6.0038 45.3281 -0.9125
# 6 -23.1070 -33.3750 -10.0433 4.0971 -0.9125 55.1884
#
#
#
# Elastic Compliance Matrix: (Units=1/GPa)
#
#
# Indices 1 2 3 4 5 6 
#
# 1 0.023237 -0.004033 -0.007895 0.003312 -0.005386 0.005519
# 2 -0.004033 0.006765 -0.000504 -0.000576 0.000451 0.002361
# 3 -0.007895 -0.000504 0.013352 0.001862 -0.000570 -0.001329
# 4 0.003312 -0.000576 0.001862 0.028152 0.001988 -0.000680
# 5 -0.005386 0.000451 -0.000570 0.001988 0.024460 -0.001829
# 6 0.005519 0.002361 -0.001329 -0.000680 -0.001829 0.021636
#
#
# Mechanical properties :
#
#
# Convention : Reuss Voigt Hill
#
# Bulk Modulus (GPa) = 54.08896 76.13134 65.11015
# Shear Modulus (GPa) = 33.64034 43.56805 38.60419
#
# Velocity S-wave (km/s) = 3.61893 4.11845 3.87674
# Velocity P-wave (km/s) = 6.20643 7.22873 6.73700
#
# Compressibility (1/GPa) = 0.01848806
#
# Stress axis : x y z
#
# Youngs Moduli (GPa) = 43.03401 147.81778 74.89705
#
# Poissons Ratio (x) = 0.59618 0.59134
# Poissons Ratio (y) = 0.17357 0.03778
# Poissons Ratio (z) = 0.33977 0.07457
#
# Static dielectric constant tensor:
#      x y z
#    x 2.023510 0.002390 -0.067510 
#    y 0.002390 1.991070 -0.027370 
#    z -0.067510 -0.027370 2.039160 
# 
# From -- ./inp_files/346296.got.cif
#   From: 2010.05.17/outbox.cif.g08.bks.cpg/sg2_174_cif.got.tgz:346296.got - 2010.06.03 11:33:40.
