data_PCOD9084110
_publ_section_title
;
Structure prediction by ZEFSAII (Michael W. Deem and Ramdas Pophale) SiO2 
 PCOD9084110
Probable space group: P -1
;
_chemical_formula_sum "Si O2"
_cell_formula_units_Z 14
_cell_length_a 7.760924
_cell_length_b 5.062305
_cell_length_c 16.950701
_cell_angle_alpha 113.996711
_cell_angle_beta 104.457437
_cell_angle_gamma 89.270599
_cell_volume 586.160181
_symmetry_space_group_name_H-M "P -1"
_symmetry_group_IT_number 2
_symmetry_cell_setting 'triclinic'
loop_
_space_group_symop_operation_xyz
x,y,z
-x,-y,-z
loop_
_atom_site_type_symbol
_atom_site_label
_atom_site_fract_x
_atom_site_fract_y
_atom_site_fract_z
Si Si1 0.564525 0.437825 0.412862
Si Si2 0.220128 0.788113 0.789580
Si Si3 0.334868 0.751209 0.958933
Si Si4 0.903293 0.690504 0.397014
Si Si5 0.058837 0.138778 0.359598
Si Si6 0.597698 0.177640 0.685271
Si Si7 0.550885 0.229147 0.863808
O O1 0.500000 0.500000 0.500000
O O2 0.754529 0.612727 0.436213
O O3 0.438233 0.571262 0.349450
O O4 0.560950 0.089477 0.364211
O O5 0.421967 0.927993 0.814269
O O6 0.078347 0.937599 0.738423
O O7 0.191315 0.803144 0.881805
O O8 0.195442 0.465322 0.711138
O O9 0.415962 0.459034 0.904667
O O10 0.298834 0.750434 0.048019
O O11 0.500000 0.000000 0.000000
O O12 0.972582 0.007339 0.414601
O O13 0.063754 0.487252 0.403331
O O14 0.234896 0.987043 0.343880
O O15 0.620551 0.284820 0.790566
#
# Coordination Sequence:
#
# PCOD9084110 Si02
#       7
#     2   2   2   2   2   2   2
#     4  12  25  44  69  95 121 158 215 266 307 369
#     4   9  17  33  61  81 122 165 212 235 302 366
#     4   9  18  31  54  94 122 161 215 260 292 354
#     4  10  20  41  63  88 121 173 207 243 310 385
#     4  10  22  37  63  91 130 168 204 243 321 378
#     4  12  24  42  64  98 127 161 206 267 313 366
#     4  10  19  34  60  89 124 163 217 255 300 357
#
# _framework density 23.884255
#
# number of rings (size 3 to 8) (size 9 to 14) (size 15 to 20)
#    0.857    0.857    1.429    4.714    2.000    0.000 
#    0.000    5.000    0.000    8.571    0.000    0.000 
#    0.000    0.000    0.000    0.000    0.000    0.000 
#
# Total GULP energy -78210.380837 kJ/mol
# GULP energy per Si atom -5586.455774 kJ/mol
# Density = 2.382989 g / cm^3
# Si number density = 23.884255 Si / 1000 Ang^3
#
#
#
# Elastic Constant Matrix: (Units=GPa)
#
#
# Indices 1 2 3 4 5 6 
#
# 1 70.1749 6.6401 19.4312 -9.6963 -8.1149 -5.7715
# 2 6.6401 104.8244 18.7714 -11.7659 -2.0875 8.4319
# 3 19.4312 18.7714 166.8328 -34.6311 -3.2311 1.0938
# 4 -9.6963 -11.7659 -34.6311 44.6671 -2.2491 4.0392
# 5 -8.1149 -2.0875 -3.2311 -2.2491 30.1053 -0.9186
# 6 -5.7715 8.4319 1.0938 4.0392 -0.9186 31.1786
#
#
#
# Elastic Compliance Matrix: (Units=1/GPa)
#
#
# Indices 1 2 3 4 5 6 
#
# 1 0.015705 -0.000678 -0.001226 0.002228 0.004312 0.002972
# 2 -0.000678 0.010219 -0.000531 0.002447 0.000555 -0.003171
# 3 -0.001226 -0.000531 0.007344 0.005420 0.000795 -0.001020
# 4 0.002228 0.002447 0.005420 0.028248 0.003340 -0.004001
# 5 0.004312 0.000555 0.000795 0.003340 0.034789 0.001212
# 6 0.002972 -0.003171 -0.001020 -0.004001 0.001212 0.034071
#
#
# Mechanical properties :
#
#
# Convention : Reuss Voigt Hill
#
# Bulk Modulus (GPa) = 35.21686 47.94638 41.58162
# Shear Modulus (GPa) = 34.55134 40.98951 37.77042
#
# Velocity S-wave (km/s) = 3.80757 4.14717 3.98099
# Velocity P-wave (km/s) = 5.84011 6.56125 6.21116
#
# Compressibility (1/GPa) = 0.02839549
#
# Stress axis : x y z
#
# Youngs Moduli (GPa) = 63.67500 97.85999 136.17044
#
# Poissons Ratio (x) = 0.06638 0.16699
# Poissons Ratio (y) = 0.04319 0.07234
# Poissons Ratio (z) = 0.07808 0.05198
#
# Static dielectric constant tensor:
#      x y z
#    x 1.938220 0.021800 0.052070 
#    y 0.021800 1.964260 -0.001660 
#    z 0.052070 -0.001660 1.999990 
# 
# From -- ./inp_files/486598.got.cif
#   From: 2010.05.17/outbox.cif.g08.bks.cpg/sg2_244_cif.got.tgz:486598.got - 2010.06.03 11:33:40.
