data_PCOD9084585
_publ_section_title
;
Structure prediction by ZEFSAII (Michael W. Deem and Ramdas Pophale) SiO2 
 PCOD9084585
Probable space group: P -1
;
_chemical_formula_sum "Si O2"
_cell_formula_units_Z 16
_cell_length_a 9.201881
_cell_length_b 7.838893
_cell_length_c 14.666234
_cell_angle_alpha 104.848743
_cell_angle_beta 138.454632
_cell_angle_gamma 87.596630
_cell_volume 659.399322
_symmetry_space_group_name_H-M "P -1"
_symmetry_group_IT_number 2
_symmetry_cell_setting 'triclinic'
loop_
_space_group_symop_operation_xyz
x,y,z
-x,-y,-z
loop_
_atom_site_type_symbol
_atom_site_label
_atom_site_fract_x
_atom_site_fract_y
_atom_site_fract_z
Si Si1 0.391209 0.337875 0.560185
Si Si2 0.805096 0.316936 0.872944
Si Si3 0.432760 0.729692 0.566154
Si Si4 0.621775 0.386374 0.163242
Si Si5 0.248745 0.547646 0.963487
Si Si6 0.921548 0.966076 0.854977
Si Si7 0.044777 0.272529 0.690440
Si Si8 0.901564 0.100371 0.266561
O O1 0.570263 0.327366 0.719955
O O2 0.365904 0.541862 0.563381
O O3 0.507292 0.297441 0.514771
O O4 0.144935 0.207616 0.433722
O O5 0.775726 0.286436 0.963222
O O6 0.886371 0.162325 0.836869
O O7 0.000000 0.500000 0.000000
O O8 0.209113 0.805168 0.472840
O O9 0.670691 0.839986 0.728937
O O10 0.377714 0.425340 0.069372
O O11 0.801431 0.581754 0.286338
O O12 0.718759 0.218914 0.219871
O O13 0.608343 0.363507 0.043875
O O14 0.045231 0.412486 0.795949
O O15 0.054846 0.904152 0.823892
O O16 0.000000 0.000000 0.000000
O O17 0.144564 0.103387 0.743895
#
# Coordination Sequence:
#
# PCOD9084585 Si02
#       8
#     2   2   2   2   2   2   2   2
#     4  10  20  33  55  83 111 156 184 237 285 338
#     4  12  22  35  57  86 121 148 187 236 292 346
#     4  10  19  35  55  78 119 150 192 230 287 343
#     4   9  20  39  60  83 113 153 197 237 274 334
#     4   9  20  39  57  84 117 154 188 238 286 328
#     4  11  23  34  52  89 118 150 184 238 294 347
#     4  10  19  35  60  83 107 148 197 238 274 336
#     4  11  20  36  61  86 111 148 198 233 286 341
#
# _framework density 24.264507999999999
#
# number of rings (size 3 to 8) (size 9 to 14) (size 15 to 20)
#    0.750    1.000    1.250    4.500    0.000    2.500 
#    0.000    0.625    0.000    1.500    0.000    0.000 
#    0.000    0.000    0.000    0.000    0.000    0.000 
#
# Total GULP energy -89196.125565 kJ/mol
# GULP energy per Si atom -5574.757848 kJ/mol
# Density = 2.420928 g / cm^3
# Si number density = 24.264508 Si / 1000 Ang^3
#
#
#
# Elastic Constant Matrix: (Units=GPa)
#
#
# Indices 1 2 3 4 5 6 
#
# 1 20.8535 7.3052 4.5321 4.7561 7.5698 -9.1964
# 2 7.3052 67.6675 8.1947 8.5391 -3.6444 -11.0138
# 3 4.5321 8.1947 86.4898 15.7969 -4.7132 -7.3944
# 4 4.7561 8.5391 15.7969 32.1690 1.2256 7.3487
# 5 7.5698 -3.6444 -4.7132 1.2256 26.2589 -4.2788
# 6 -9.1964 -11.0138 -7.3944 7.3487 -4.2788 25.6169
#
#
#
# Elastic Compliance Matrix: (Units=1/GPa)
#
#
# Indices 1 2 3 4 5 6 
#
# 1 0.068967 -0.002199 0.000790 -0.015347 -0.015105 0.025921
# 2 -0.002199 0.017757 0.000925 -0.007349 0.005253 0.010098
# 3 0.000790 0.000925 0.014044 -0.009266 0.004172 0.008090
# 4 -0.015347 -0.007349 -0.009266 0.045792 -0.004508 -0.025233
# 5 -0.015105 0.005253 0.004172 -0.004508 0.045248 0.006891
# 6 0.025921 0.010098 0.008090 -0.025233 0.006891 0.063409
#
#
# Mechanical properties :
#
#
# Convention : Reuss Voigt Hill
#
# Bulk Modulus (GPa) = 10.01994 23.89721 16.95858
# Shear Modulus (GPa) = 17.27405 27.14089 22.20747
#
# Velocity S-wave (km/s) = 2.67105 3.34809 3.02855
# Velocity P-wave (km/s) = 3.69474 4.98160 4.38562
#
# Compressibility (1/GPa) = 0.09980095
#
# Stress axis : x y z
#
# Youngs Moduli (GPa) = 14.49977 56.31431 71.20257
#
# Poissons Ratio (x) = 0.12383 -0.05629
# Poissons Ratio (y) = 0.03188 -0.06584
# Poissons Ratio (z) = -0.01146 -0.05207
#
# Static dielectric constant tensor:
#      x y z
#    x 1.419780 0.383230 -0.311170 
#    y 0.383230 1.784120 0.139150 
#    z -0.311170 0.139150 1.834400 
# 
# From -- ./inp_files/566176.got.cif
#   From: 2010.05.17/outbox.cif.g08.bks.cpg/sg2_284_cif.got.tgz:566176.got - 2010.06.03 11:33:40.
