data_PCOD9084438
_publ_section_title
;
Structure prediction by ZEFSAII (Michael W. Deem and Ramdas Pophale) SiO2 
 PCOD9084438
Probable space group: P -1
;
_chemical_formula_sum "Si O2"
_cell_formula_units_Z 14
_cell_length_a 10.839575
_cell_length_b 8.626582
_cell_length_c 8.513703
_cell_angle_alpha 76.877618
_cell_angle_beta 73.004707
_cell_angle_gamma 54.252883
_cell_volume 616.277320
_symmetry_space_group_name_H-M "P -1"
_symmetry_group_IT_number 2
_symmetry_cell_setting 'triclinic'
loop_
_space_group_symop_operation_xyz
x,y,z
-x,-y,-z
loop_
_atom_site_type_symbol
_atom_site_label
_atom_site_fract_x
_atom_site_fract_y
_atom_site_fract_z
Si Si1 0.742857 0.446062 0.402147
Si Si2 0.898474 0.767629 0.579542
Si Si3 0.154739 0.758241 0.887231
Si Si4 0.572279 0.274052 0.035633
Si Si5 0.597943 0.795355 0.604583
Si Si6 0.713017 0.191989 0.687238
Si Si7 0.971907 0.181449 0.770209
O O1 0.746663 0.422838 0.218260
O O2 0.640092 0.643783 0.484982
O O3 0.678131 0.318508 0.516137
O O4 0.926265 0.361780 0.388688
O O5 0.762905 0.731375 0.637803
O O6 0.924652 0.777741 0.382292
O O7 0.820027 0.975867 0.638481
O O8 0.259399 0.809705 0.933428
O O9 0.045734 0.954276 0.789422
O O10 0.054722 0.741413 0.061984
O O11 0.491302 0.220771 0.209491
O O12 0.500000 0.500000 0.000000
O O13 0.595267 0.207507 0.859874
O O14 0.500000 0.000000 0.500000
O O15 0.808481 0.265780 0.725866
#
# Coordination Sequence:
#
# PCOD9084438 Si02
#       7
#     2   2   2   2   2   2   2
#     4  11  21  42  70 101 124 178 227 272 324 395
#     4  11  21  41  67  99 133 170 215 280 339 385
#     4  10  19  34  67  98 125 160 227 272 310 380
#     4  11  24  43  65  95 131 179 221 261 323 404
#     4  12  28  44  64  96 144 178 212 273 338 390
#     4  10  19  38  72  97 125 168 228 270 323 394
#     4   9  17  34  63 101 127 158 211 278 327 375
#
# _framework density 22.717044999999999
#
# number of rings (size 3 to 8) (size 9 to 14) (size 15 to 20)
#    0.000    1.429    4.286    2.143    0.000    2.286 
#    0.000    0.714    0.000    0.000    0.000    0.000 
#    0.000    0.000    0.000    0.000    0.000    0.000 
#
# Total GULP energy -78012.035720 kJ/mol
# GULP energy per Si atom -5572.288266 kJ/mol
# Density = 2.266534 g / cm^3
# Si number density = 22.717045 Si / 1000 Ang^3
#
#
#
# Elastic Constant Matrix: (Units=GPa)
#
#
# Indices 1 2 3 4 5 6 
#
# 1 60.5499 1.9347 26.9432 2.2522 -12.1120 -4.9136
# 2 1.9347 92.6848 38.8255 23.7315 -4.5468 1.2759
# 3 26.9432 38.8255 168.0755 26.3950 -30.7719 1.3742
# 4 2.2522 23.7315 26.3950 32.9357 1.3831 5.6805
# 5 -12.1120 -4.5468 -30.7719 1.3831 28.1584 3.7287
# 6 -4.9136 1.2759 1.3742 5.6805 3.7287 21.8664
#
#
#
# Elastic Compliance Matrix: (Units=1/GPa)
#
#
# Indices 1 2 3 4 5 6 
#
# 1 0.018867 0.001012 -0.002073 -0.001227 0.005587 0.003677
# 2 0.001012 0.013828 -0.001803 -0.008919 0.000912 0.001695
# 3 -0.002073 -0.001803 0.009467 -0.006388 0.009600 -0.000933
# 4 -0.001227 -0.008919 -0.006388 0.043976 -0.009906 -0.009089
# 5 0.005587 0.000912 0.009600 -0.009906 0.049745 -0.005310
# 6 0.003677 0.001695 -0.000933 -0.009089 -0.005310 0.049785
#
#
# Mechanical properties :
#
#
# Convention : Reuss Voigt Hill
#
# Bulk Modulus (GPa) = 27.44596 50.74635 39.09616
# Shear Modulus (GPa) = 24.56521 33.49922 29.03222
#
# Velocity S-wave (km/s) = 3.29196 3.84426 3.57878
# Velocity P-wave (km/s) = 5.15337 6.48778 5.85870
#
# Compressibility (1/GPa) = 0.03643523
#
# Stress axis : x y z
#
# Youngs Moduli (GPa) = 53.00296 72.31498 105.63031
#
# Poissons Ratio (x) = -0.07319 0.21894
# Poissons Ratio (y) = -0.05364 0.19044
# Poissons Ratio (z) = 0.10986 0.13038
#
# Static dielectric constant tensor:
#      x y z
#    x 1.949420 -0.070420 0.045670 
#    y -0.070420 1.903430 -0.054030 
#    z 0.045670 -0.054030 1.933230 
# 
# From -- ./inp_files/242844.got.cif
#   From: 2010.05.17/outbox.cif.g08.bks.cpg/sg2_122_cif.got.tgz:242844.got - 2010.06.03 11:33:40.
