data_PCOD9084410
_publ_section_title
;
Structure prediction by ZEFSAII (Michael W. Deem and Ramdas Pophale) SiO2 
 PCOD9084410
Probable space group: P -1
;
_chemical_formula_sum "Si O2"
_cell_formula_units_Z 16
_cell_length_a 14.435575
_cell_length_b 8.738209
_cell_length_c 9.540098
_cell_angle_alpha 103.692907
_cell_angle_beta 111.405732
_cell_angle_gamma 127.876934
_cell_volume 688.905477
_symmetry_space_group_name_H-M "P -1"
_symmetry_group_IT_number 2
_symmetry_cell_setting 'triclinic'
loop_
_space_group_symop_operation_xyz
x,y,z
-x,-y,-z
loop_
_atom_site_type_symbol
_atom_site_label
_atom_site_fract_x
_atom_site_fract_y
_atom_site_fract_z
Si Si1 0.157641 0.883948 0.473222
Si Si2 0.717254 0.943701 0.734790
Si Si3 0.416600 0.727698 0.401423
Si Si4 0.483316 0.150727 0.821334
Si Si5 0.669019 0.294553 0.207669
Si Si6 0.871376 0.284967 0.164360
Si Si7 0.855776 0.793563 0.776062
Si Si8 0.992538 0.832936 0.604168
O O1 0.090255 0.949203 0.539140
O O2 0.024356 0.584189 0.333101
O O3 0.202318 0.949977 0.350181
O O4 0.317584 0.030120 0.672524
O O5 0.539798 0.779899 0.573885
O O6 0.731983 0.777985 0.741605
O O7 0.812402 0.161496 0.950321
O O8 0.414468 0.686285 0.224302
O O9 0.241556 0.486901 0.312138
O O10 0.500000 0.000000 0.500000
O O11 0.435066 0.908170 0.769893
O O12 0.578292 0.296569 0.049286
O O13 0.733392 0.221185 0.141713
O O14 0.822406 0.560537 0.408996
O O15 0.914098 0.180361 0.251312
O O16 0.941899 0.906468 0.698374
O O17 0.000000 0.000000 0.000000
#
# Coordination Sequence:
#
# PCOD9084410 Si02
#       8
#     2   2   2   2   2   2   2   2
#     4  10  21  39  65 100 137 174 237 286 334 400
#     4  11  25  42  67 100 139 182 222 284 352 410
#     4  11  25  45  71 101 136 178 239 288 333 403
#     4  10  19  35  60  97 130 165 217 290 339 389
#     4  10  19  34  64  99 133 171 228 288 344 383
#     4  11  19  37  64 100 135 179 226 282 340 403
#     4  12  27  46  69  98 145 188 222 277 352 419
#     4  11  21  40  63  92 136 180 229 277 337 405
#
# _framework density 23.225245999999999
#
# number of rings (size 3 to 8) (size 9 to 14) (size 15 to 20)
#    0.000    1.250    3.750    3.000    1.750    4.500 
#    0.000    0.000    0.000    5.250    0.000    0.000 
#    0.000    0.000    0.000    0.000    0.000    0.000 
#
# Total GULP energy -89257.958845 kJ/mol
# GULP energy per Si atom -5578.622428 kJ/mol
# Density = 2.317238 g / cm^3
# Si number density = 23.225246 Si / 1000 Ang^3
#
#
#
# Elastic Constant Matrix: (Units=GPa)
#
#
# Indices 1 2 3 4 5 6 
#
# 1 81.8901 18.2281 58.9404 -0.1013 -11.5160 8.7460
# 2 18.2281 64.5096 37.6433 -12.8859 9.5181 21.9871
# 3 58.9404 37.6433 171.3227 -24.9455 8.2495 10.5338
# 4 -0.1013 -12.8859 -24.9455 27.7793 7.0566 -6.7392
# 5 -11.5160 9.5181 8.2495 7.0566 39.2685 -5.9678
# 6 8.7460 21.9871 10.5338 -6.7392 -5.9678 31.7773
#
#
#
# Elastic Compliance Matrix: (Units=1/GPa)
#
#
# Indices 1 2 3 4 5 6 
#
# 1 0.021197 -0.005362 -0.008587 -0.013054 0.011688 0.000149
# 2 -0.005362 0.027504 -0.000938 0.010907 -0.012631 -0.017303
# 3 -0.008587 -0.000938 0.010892 0.011093 -0.006491 0.000536
# 4 -0.013054 0.010907 0.011093 0.055903 -0.018741 0.000705
# 5 0.011688 -0.012631 -0.006491 -0.018741 0.038343 0.010901
# 6 0.000149 -0.017303 0.000536 0.000705 0.010901 0.045419
#
#
# Mechanical properties :
#
#
# Convention : Reuss Voigt Hill
#
# Bulk Modulus (GPa) = 33.53571 60.81622 47.17596
# Shear Modulus (GPa) = 20.92291 33.29240 27.10765
#
# Velocity S-wave (km/s) = 3.00470 3.79021 3.42008
# Velocity P-wave (km/s) = 5.14863 6.73769 5.99603
#
# Compressibility (1/GPa) = 0.02981896
#
# Stress axis : x y z
#
# Youngs Moduli (GPa) = 47.17617 36.35854 91.80846
#
# Poissons Ratio (x) = 0.19494 0.78837
# Poissons Ratio (y) = 0.25294 0.08616
# Poissons Ratio (z) = 0.40511 0.03412
#
# Static dielectric constant tensor:
#      x y z
#    x 1.924470 -0.023250 -0.030020 
#    y -0.023250 1.930390 -0.039630 
#    z -0.030020 -0.039630 1.868570 
# 
# From -- ./inp_files/298903.got.cif
#   From: 2010.05.17/outbox.cif.g08.bks.cpg/sg2_150_cif.got.tgz:298903.got - 2010.06.03 11:33:40.
