data_PCOD9084976
_publ_section_title
;
Structure prediction by ZEFSAII (Michael W. Deem and Ramdas Pophale) SiO2 
 PCOD9084976
Probable space group: P -1
;
_chemical_formula_sum "Si O2"
_cell_formula_units_Z 16
_cell_length_a 9.400279
_cell_length_b 13.186637
_cell_length_c 10.430497
_cell_angle_alpha 138.640423
_cell_angle_beta 109.956701
_cell_angle_gamma 55.020943
_cell_volume 690.507511
_symmetry_space_group_name_H-M "P -1"
_symmetry_group_IT_number 2
_symmetry_cell_setting 'triclinic'
loop_
_space_group_symop_operation_xyz
x,y,z
-x,-y,-z
loop_
_atom_site_type_symbol
_atom_site_label
_atom_site_fract_x
_atom_site_fract_y
_atom_site_fract_z
Si Si1 0.929660 0.248815 0.831956
Si Si2 0.957708 0.426483 0.246370
Si Si3 0.571712 0.294518 0.793408
Si Si4 0.245429 0.003774 0.243261
Si Si5 0.917434 0.960201 0.075865
Si Si6 0.041851 0.681425 0.376167
Si Si7 0.377223 0.249517 0.454586
Si Si8 0.369445 0.698919 0.600973
O O1 0.767160 0.221731 0.726962
O O2 0.984279 0.303408 0.770544
O O3 0.867340 0.401286 0.066498
O O4 0.069229 0.082247 0.803640
O O5 0.055705 0.227038 0.144177
O O6 0.812458 0.566858 0.431066
O O7 0.067173 0.507316 0.293366
O O8 0.458610 0.254224 0.621927
O O9 0.609819 0.181384 0.826552
O O10 0.500000 0.500000 0.000000
O O11 0.345025 0.085965 0.277257
O O12 0.089103 0.975949 0.114562
O O13 0.133548 0.155217 0.460266
O O14 0.737166 0.145209 0.179628
O O15 0.212869 0.693102 0.472432
O O16 0.510699 0.249256 0.394272
O O17 0.500000 0.500000 0.500000
#
# Coordination Sequence:
#
# PCOD9084976 Si02
#       8
#     2   2   2   2   2   2   2   2
#     4   9  17  31  57  81 113 142 175 213 277 338
#     4   9  19  36  57  84 113 142 182 219 279 346
#     4  11  18  31  49  84 120 145 168 221 280 334
#     4   9  20  32  52  80 112 148 182 210 271 344
#     4   8  19  38  56  78 114 142 183 220 276 333
#     4  10  19  35  58  82 110 150 184 218 274 333
#     4  11  20  35  54  82 112 146 182 229 274 321
#     4  11  24  40  56  79 110 146 193 238 270 308
#
# _framework density 23.171361999999998
#
# number of rings (size 3 to 8) (size 9 to 14) (size 15 to 20)
#    0.750    1.500    2.500    0.750    1.750    1.500 
#    2.250    6.875    0.000    0.000    0.000    0.000 
#    0.000    0.000    0.000    0.000    0.000    0.000 
#
# Total GULP energy -89297.876684 kJ/mol
# GULP energy per Si atom -5581.117293 kJ/mol
# Density = 2.311862 g / cm^3
# Si number density = 23.171362 Si / 1000 Ang^3
#
#
#
# Elastic Constant Matrix: (Units=GPa)
#
#
# Indices 1 2 3 4 5 6 
#
# 1 142.0657 55.3535 41.0192 17.9141 11.4486 36.1776
# 2 55.3535 89.9287 46.8493 29.4870 15.5405 0.1718
# 3 41.0192 46.8493 84.8146 27.6821 14.6914 10.7074
# 4 17.9141 29.4870 27.6821 47.7334 2.6883 7.7525
# 5 11.4486 15.5405 14.6914 2.6883 36.5633 9.7272
# 6 36.1776 0.1718 10.7074 7.7525 9.7272 32.6464
#
#
#
# Elastic Compliance Matrix: (Units=1/GPa)
#
#
# Indices 1 2 3 4 5 6 
#
# 1 0.016024 -0.011702 -0.001305 0.004923 0.005456 -0.020062
# 2 -0.011702 0.027102 -0.006484 -0.011379 -0.009894 0.020602
# 3 -0.001305 -0.006484 0.018775 -0.005832 -0.003339 -0.002298
# 4 0.004923 -0.011379 -0.005832 0.031230 0.006779 -0.012919
# 5 0.005456 -0.009894 -0.003339 0.006779 0.035213 -0.017000
# 6 -0.020062 0.020602 -0.002298 -0.012919 -0.017000 0.061642
#
#
# Mechanical properties :
#
#
# Convention : Reuss Voigt Hill
#
# Bulk Modulus (GPa) = 43.63207 67.02810 55.33008
# Shear Modulus (GPa) = 21.13211 34.96108 28.04659
#
# Velocity S-wave (km/s) = 3.02320 3.88855 3.48285
# Velocity P-wave (km/s) = 5.57291 7.01078 6.33279
#
# Compressibility (1/GPa) = 0.02291892
#
# Stress axis : x y z
#
# Youngs Moduli (GPa) = 62.40804 36.89726 53.26183
#
# Poissons Ratio (x) = 0.43177 0.06950
# Poissons Ratio (y) = 0.73029 0.34537
# Poissons Ratio (z) = 0.08144 0.23925
#
# Static dielectric constant tensor:
#      x y z
#    x 1.832090 0.007240 0.009050 
#    y 0.007240 1.960030 -0.036670 
#    z 0.009050 -0.036670 1.922510 
# 
# From -- ./inp_files/391394.got.cif
#   From: 2010.05.17/outbox.cif.g08.bks.cpg/sg2_196_cif.got.tgz:391394.got - 2010.06.03 11:33:40.
