data_PCOD9084320
_publ_section_title
;
Structure prediction by ZEFSAII (Michael W. Deem and Ramdas Pophale) SiO2 
 PCOD9084320
Probable space group: P -1
;
_chemical_formula_sum "Si O2"
_cell_formula_units_Z 16
_cell_length_a 6.113460
_cell_length_b 14.777668
_cell_length_c 13.727049
_cell_angle_alpha 31.566470
_cell_angle_beta 89.556537
_cell_angle_gamma 77.469100
_cell_volume 594.447441
_symmetry_space_group_name_H-M "P -1"
_symmetry_group_IT_number 2
_symmetry_cell_setting 'triclinic'
loop_
_space_group_symop_operation_xyz
x,y,z
-x,-y,-z
loop_
_atom_site_type_symbol
_atom_site_label
_atom_site_fract_x
_atom_site_fract_y
_atom_site_fract_z
Si Si1 0.552525 0.517840 0.131051
Si Si2 0.294752 0.262303 0.787236
Si Si3 0.884266 0.998996 0.895142
Si Si4 0.352336 0.658730 0.191801
Si Si5 0.745644 0.630389 0.842919
Si Si6 0.858019 0.633542 0.513723
Si Si7 0.829157 0.100333 0.591559
Si Si8 0.324935 0.072536 0.580401
O O1 0.521817 0.634732 0.121408
O O2 0.317906 0.482372 0.139615
O O3 0.740407 0.301995 0.348697
O O4 0.585049 0.634116 0.933060
O O5 0.543302 0.281967 0.768325
O O6 0.189299 0.254624 0.689507
O O7 0.109130 0.456607 0.658405
O O8 0.320353 0.077870 0.015308
O O9 0.821574 0.136377 0.676662
O O10 0.100395 0.814897 0.020194
O O11 0.000000 0.000000 0.000000
O O12 0.324224 0.468276 0.387522
O O13 0.712587 0.827251 0.616653
O O14 0.000000 0.500000 0.000000
O O15 0.796551 0.768564 0.481591
O O16 0.616567 0.020203 0.647407
O O17 0.112789 0.988337 0.662582
#
# Coordination Sequence:
#
# PCOD9084320 Si02
#       8
#     2   2   2   2   2   2   2   2
#     4  10  21  38  64  99 126 165 211 276 326 390
#     4  10  23  37  60  86 127 170 217 268 316 385
#     4  11  27  42  58  89 128 179 222 267 318 388
#     4  11  22  39  63  90 124 169 216 270 325 381
#     4  10  19  34  63 100 129 155 211 272 336 383
#     4  10  20  37  59  94 122 163 216 268 325 373
#     4  11  23  40  64  93 133 170 216 261 329 385
#     4  11  22  38  68  96 130 170 210 275 322 394
#
# _framework density 26.915754
#
# number of rings (size 3 to 8) (size 9 to 14) (size 15 to 20)
#    0.000    1.500    3.750    1.875    3.500    2.500 
#    0.000    0.000    0.000    7.500    0.000    0.000 
#    0.000    0.000    0.000    0.000    0.000    0.000 
#
# Total GULP energy -89269.765562 kJ/mol
# GULP energy per Si atom -5579.360348 kJ/mol
# Density = 2.685449 g / cm^3
# Si number density = 26.915754 Si / 1000 Ang^3
#
#
#
# Elastic Constant Matrix: (Units=GPa)
#
#
# Indices 1 2 3 4 5 6 
#
# 1 157.0049 14.6006 36.2948 6.0605 19.0346 2.9183
# 2 14.6006 68.7278 22.2634 13.0842 10.3620 -2.2154
# 3 36.2948 22.2634 96.8048 30.7770 -14.0244 -2.2788
# 4 6.0605 13.0842 30.7770 42.4783 -5.9673 7.2284
# 5 19.0346 10.3620 -14.0244 -5.9673 43.7198 7.4512
# 6 2.9183 -2.2154 -2.2788 7.2284 7.4512 34.9072
#
#
#
# Elastic Compliance Matrix: (Units=1/GPa)
#
#
# Indices 1 2 3 4 5 6 
#
# 1 0.007778 0.000083 -0.003947 0.001124 -0.004489 -0.000177
# 2 0.000083 0.017583 -0.003578 -0.004279 -0.006471 0.003143
# 3 -0.003947 -0.003578 0.016733 -0.009905 0.006257 0.001911
# 4 0.001124 -0.004279 -0.009905 0.033853 0.003461 -0.008761
# 5 -0.004489 -0.006471 0.006257 0.003461 0.029990 -0.006745
# 6 -0.000177 0.003143 0.001911 -0.008761 -0.006745 0.032240
#
#
# Mechanical properties :
#
#
# Convention : Reuss Voigt Hill
#
# Bulk Modulus (GPa) = 36.75042 52.09500 44.42271
# Shear Modulus (GPa) = 30.83914 40.84630 35.84272
#
# Velocity S-wave (km/s) = 3.38859 3.89981 3.65316
# Velocity P-wave (km/s) = 5.38457 6.29880 5.85954
#
# Compressibility (1/GPa) = 0.02721058
#
# Stress axis : x y z
#
# Youngs Moduli (GPa) = 128.56701 56.87268 59.76110
#
# Poissons Ratio (x) = -0.00474 0.23589
# Poissons Ratio (y) = -0.01071 0.21383
# Poissons Ratio (z) = 0.50748 0.20349
#
# Static dielectric constant tensor:
#      x y z
#    x 2.214080 -0.055390 -0.034050 
#    y -0.055390 2.190790 0.040400 
#    z -0.034050 0.040400 2.131180 
# 
# From -- ./inp_files/124812.got.cif
#   From: 2010.05.17/outbox.cif.g08.bks.cpg/sg2_63_cif.got.tgz:124812.got - 2010.06.03 11:33:40.
