data_PCOD9084804
_publ_section_title
;
Structure prediction by ZEFSAII (Michael W. Deem and Ramdas Pophale) SiO2 
 PCOD9084804
Probable space group: P -1
;
_chemical_formula_sum "Si O2"
_cell_formula_units_Z 15
_cell_length_a 10.117254
_cell_length_b 5.612656
_cell_length_c 18.881191
_cell_angle_alpha 98.547608
_cell_angle_beta 136.864651
_cell_angle_gamma 56.305810
_cell_volume 544.558846
_symmetry_space_group_name_H-M "P -1"
_symmetry_group_IT_number 2
_symmetry_cell_setting 'triclinic'
loop_
_space_group_symop_operation_xyz
x,y,z
-x,-y,-z
loop_
_atom_site_type_symbol
_atom_site_label
_atom_site_fract_x
_atom_site_fract_y
_atom_site_fract_z
Si Si1 0.635845 0.126080 0.023848
Si Si2 0.469751 0.568140 0.575781
Si Si3 0.886535 0.987745 0.248559
Si Si4 0.365217 0.958615 0.147663
Si Si5 0.484538 0.056177 0.581430
Si Si6 0.542415 0.602300 0.789432
Si Si7 0.000000 0.000000 0.500000
Si Si8 0.961118 0.461216 0.344666
O O1 0.663950 0.060290 0.948479
O O2 0.500000 0.500000 0.000000
O O3 0.883720 0.947393 0.162225
O O4 0.500000 0.000000 0.000000
O O5 0.500000 0.500000 0.500000
O O6 0.579503 0.242210 0.641769
O O7 0.579504 0.740555 0.641769
O O8 0.166460 0.826732 0.486381
O O9 0.600969 0.240737 0.183412
O O10 0.988547 0.176188 0.308232
O O11 0.988547 0.654951 0.308232
O O12 0.291185 0.777849 0.152842
O O13 0.675154 0.711750 0.273808
O O14 0.291185 0.292622 0.152841
O O15 0.173454 0.317871 0.482648
O O16 0.500000 0.000000 0.500000
O O17 0.288075 0.785436 0.647021
#
# Coordination Sequence:
#
# PCOD9084804 Si02
#       8
#     2   2   2   2   2   2   1   2
#     4  12  16  28  46  68  97 148 180 218 307 349
#     4  10  22  38  56  80 108 148 203 249 290 344
#     4  10  18  28  43  69  99 138 176 230 278 341
#     4  10  18  30  45  68 103 137 184 231 281 339
#     4  10  20  36  55  75 106 151 192 245 296 332
#     4  10  20  30  44  70 100 141 187 230 267 337
#     4  12  24  38  60  82 116 166 204 238 304 346
#     4  10  16  26  42  65  95 129 175 221 275 333
#
# _framework density 27.545231000000001
#
# number of rings (size 3 to 8) (size 9 to 14) (size 15 to 20)
#    0.000    1.600    5.333    4.000    0.000    2.133 
#    0.000    0.000    0.000    0.000    0.000    0.000 
#    0.000    0.000    0.000  249.600    0.000    0.000 
#
# Total GULP energy -83526.666328 kJ/mol
# GULP energy per Si atom -5568.444422 kJ/mol
# Density = 2.748254 g / cm^3
# Si number density = 27.545231 Si / 1000 Ang^3
#
#
#
# Elastic Constant Matrix: (Units=GPa)
#
#
# Indices 1 2 3 4 5 6 
#
# 1 61.3291 100.7424 14.6734 29.0491 1.9041 3.5828
# 2 100.7424 199.3511 52.2935 -14.4279 -24.2960 115.9232
# 3 14.6734 52.2935 125.4128 21.2443 -37.2950 33.6308
# 4 29.0491 -14.4279 21.2443 9.6424 -20.3468 14.0421
# 5 1.9041 -24.2960 -37.2950 -20.3468 33.7158 6.4966
# 6 3.5828 115.9232 33.6308 14.0421 6.4966 79.6578
#
#
#
# Elastic Compliance Matrix: (Units=1/GPa)
#
#
# Indices 1 2 3 4 5 6 
#
# 1 0.007199 0.002132 0.001435 0.011249 0.010835 -0.006899
# 2 0.002132 0.002908 -0.001057 -0.013471 -0.007145 -0.000925
# 3 0.001435 -0.001057 0.013814 -0.006573 0.011265 -0.004119
# 4 0.011249 -0.013471 -0.006573 0.024473 -0.006327 0.018074
# 5 0.010835 -0.007145 0.011265 -0.006327 0.031834 0.003673
# 6 -0.006899 -0.000925 -0.004119 0.018074 0.003673 0.012463
#
#
# Mechanical properties :
#
#
# Convention : Reuss Voigt Hill
#
# Bulk Modulus (GPa) = 34.55197 80.16794 57.35996
# Shear Modulus (GPa) = 51.37755 39.16212 45.26983
#
# Velocity S-wave (km/s) = 4.32349 3.77469 4.05837
# Velocity P-wave (km/s) = 6.12326 6.94010 6.54444
#
# Compressibility (1/GPa) = 0.02894191
#
# Stress axis : x y z
#
# Youngs Moduli (GPa) = 138.90895 343.82568 72.38872
#
# Poissons Ratio (x) = -0.73291 -0.10391
# Poissons Ratio (y) = -0.29610 0.07651
# Poissons Ratio (z) = -0.19939 0.36341
#
# Static dielectric constant tensor:
#      x y z
#    x 2.005240 -0.397660 0.023370 
#    y -0.397660 1.547490 -0.018480 
#    z 0.023370 -0.018480 2.222980 
# 
# From -- ./inp_files/563908.got.cif
#   From: 2010.05.17/outbox.cif.g08.bks.cpg/sg2_282_cif.got.tgz:563908.got - 2010.06.03 11:33:40.
