data_PCOD9084499
_publ_section_title
;
Structure prediction by ZEFSAII (Michael W. Deem and Ramdas Pophale) SiO2 
 PCOD9084499
Probable space group: P -1
;
_chemical_formula_sum "Si O2"
_cell_formula_units_Z 14
_cell_length_a 18.921484
_cell_length_b 15.184249
_cell_length_c 6.899065
_cell_angle_alpha 36.768757
_cell_angle_beta 45.550629
_cell_angle_gamma 32.581902
_cell_volume 636.963711
_symmetry_space_group_name_H-M "P -1"
_symmetry_group_IT_number 2
_symmetry_cell_setting 'triclinic'
loop_
_space_group_symop_operation_xyz
x,y,z
-x,-y,-z
loop_
_atom_site_type_symbol
_atom_site_label
_atom_site_fract_x
_atom_site_fract_y
_atom_site_fract_z
Si Si1 0.655605 0.661841 0.115959
Si Si2 0.679607 0.529067 0.877470
Si Si3 0.434694 0.650539 0.679651
Si Si4 0.126352 0.753519 0.514953
Si Si5 0.042697 0.837363 0.977759
Si Si6 0.455040 0.949153 0.491173
Si Si7 0.240643 0.938586 0.850204
O O1 0.534178 0.670723 0.368580
O O2 0.788297 0.473912 0.294995
O O3 0.692161 0.604346 0.920189
O O4 0.604894 0.877471 0.852919
O O5 0.581607 0.724408 0.591243
O O6 0.611551 0.438149 0.209212
O O7 0.824588 0.342584 0.855738
O O8 0.308909 0.852179 0.663064
O O9 0.500000 0.500000 0.000000
O O10 0.074840 0.792484 0.765332
O O11 0.229436 0.789459 0.236700
O O12 0.005186 0.944846 0.290005
O O13 0.912333 0.869109 0.210705
O O14 0.336307 0.953015 0.757111
O O15 0.500000 0.000000 0.500000
#
# Coordination Sequence:
#
# PCOD9084499 Si02
#       7
#     2   2   2   2   2   2   2
#     4  10  20  35  55  83 111 145 182 221 270 325
#     4  10  20  37  56  83 110 143 184 222 271 324
#     4  12  20  33  58  85 109 142 179 237 271 312
#     4   8  15  34  57  80 104 141 184 225 265 317
#     4   8  17  33  60  77 109 140 182 229 264 318
#     4  10  21  35  54  80 112 147 180 224 266 326
#     4  10  19  35  53  81 109 139 184 218 274 319
#
# _framework density 21.979274
#
# number of rings (size 3 to 8) (size 9 to 14) (size 15 to 20)
#    0.857    1.429    2.857    0.429    0.000    4.571 
#    0.000    6.429    0.000    0.857    0.000    0.000 
#    0.000    0.000    0.000    0.000    0.000    0.000 
#
# Total GULP energy -77972.038558 kJ/mol
# GULP energy per Si atom -5569.431326 kJ/mol
# Density = 2.192925 g / cm^3
# Si number density = 21.979274 Si / 1000 Ang^3
#
#
#
# Elastic Constant Matrix: (Units=GPa)
#
#
# Indices 1 2 3 4 5 6 
#
# 1 51.6103 10.5736 9.0657 -14.2483 0.2357 -7.8922
# 2 10.5736 184.4947 60.6195 -28.3327 5.8291 -29.8893
# 3 9.0657 60.6195 83.2177 -26.9793 6.5347 -18.3120
# 4 -14.2483 -28.3327 -26.9793 32.0024 -4.3634 6.8913
# 5 0.2357 5.8291 6.5347 -4.3634 31.0721 -2.9849
# 6 -7.8922 -29.8893 -18.3120 6.8913 -2.9849 34.9823
#
#
#
# Elastic Compliance Matrix: (Units=1/GPa)
#
#
# Indices 1 2 3 4 5 6 
#
# 1 0.022736 0.000553 0.001606 0.011218 0.001379 0.004351
# 2 0.000553 0.007789 -0.003847 0.003021 0.000170 0.004186
# 3 0.001606 -0.003847 0.020021 0.012968 -0.001209 0.004898
# 4 0.011218 0.003021 0.012968 0.049856 0.003853 0.002408
# 5 0.001379 0.000170 -0.001209 0.003853 0.033118 0.001890
# 6 0.004351 0.004186 0.004898 0.002408 0.001890 0.035394
#
#
# Mechanical properties :
#
#
# Convention : Reuss Voigt Hill
#
# Bulk Modulus (GPa) = 21.19960 53.31559 37.25760
# Shear Modulus (GPa) = 26.59367 35.54897 31.07132
#
# Velocity S-wave (km/s) = 3.48220 4.02604 3.76395
# Velocity P-wave (km/s) = 5.08270 6.77657 5.98981
#
# Compressibility (1/GPa) = 0.04717070
#
# Stress axis : x y z
#
# Youngs Moduli (GPa) = 43.98221 128.38267 49.94715
#
# Poissons Ratio (x) = -0.07103 -0.08021
# Poissons Ratio (y) = -0.02433 0.19216
# Poissons Ratio (z) = -0.07063 0.49392
#
# Static dielectric constant tensor:
#      x y z
#    x 1.839300 -0.007810 0.047490 
#    y -0.007810 1.884030 -0.059860 
#    z 0.047490 -0.059860 1.818510 
# 
# From -- ./inp_files/348192.got.cif
#   From: 2010.05.17/outbox.cif.g08.bks.cpg/sg2_175_cif.got.tgz:348192.got - 2010.06.03 11:33:40.
