data_PCOD9084267
_publ_section_title
;
Structure prediction by ZEFSAII (Michael W. Deem and Ramdas Pophale) SiO2 
 PCOD9084267
Probable space group: P -1
;
_chemical_formula_sum "Si O2"
_cell_formula_units_Z 14
_cell_length_a 9.075131
_cell_length_b 16.252349
_cell_length_c 5.273663
_cell_angle_alpha 87.640226
_cell_angle_beta 99.778273
_cell_angle_gamma 59.707450
_cell_volume 654.469120
_symmetry_space_group_name_H-M "P -1"
_symmetry_group_IT_number 2
_symmetry_cell_setting 'triclinic'
loop_
_space_group_symop_operation_xyz
x,y,z
-x,-y,-z
loop_
_atom_site_type_symbol
_atom_site_label
_atom_site_fract_x
_atom_site_fract_y
_atom_site_fract_z
Si Si1 0.125682 0.639579 0.080250
Si Si2 0.167022 0.207838 0.712703
Si Si3 0.857247 0.643103 0.686668
Si Si4 0.446700 0.633459 0.935159
Si Si5 0.528564 0.792434 0.906680
Si Si6 0.603264 0.000062 0.281841
Si Si7 0.331228 0.461935 0.495151
O O1 0.262843 0.643507 0.935490
O O2 0.232233 0.571115 0.355712
O O3 0.974547 0.745614 0.111956
O O4 0.019466 0.593486 0.932362
O O5 0.096364 0.291021 0.474928
O O6 0.350965 0.199040 0.845462
O O7 0.215487 0.102116 0.657801
O O8 0.806215 0.574609 0.538057
O O9 0.678532 0.720590 0.764851
O O10 0.435283 0.735137 0.965423
O O11 0.576943 0.562574 0.202325
O O12 0.529866 0.594857 0.686642
O O13 0.403374 0.899110 0.746178
O O14 0.500000 0.000000 0.500000
O O15 0.500000 0.000000 0.000000
#
# Coordination Sequence:
#
# PCOD9084267 Si02
#       7
#     2   2   2   2   2   2   2
#     4  11  25  37  58  89 123 159 193 252 295 348
#     4  10  20  36  59  87 119 149 197 245 298 342
#     4  10  20  37  60  87 119 152 200 247 294 341
#     4  11  24  41  61  86 120 161 201 239 294 357
#     4   9  19  38  59  88 115 154 198 242 287 355
#     4  10  19  34  62  89 113 149 195 242 289 347
#     4  11  24  42  61  84 118 164 206 238 288 355
#
# _framework density 21.391386000000001
#
# number of rings (size 3 to 8) (size 9 to 14) (size 15 to 20)
#    0.000    1.714    2.857    1.286    4.000    0.571 
#    0.000    0.714    0.000    0.857    0.000    0.000 
#    0.000    0.000    0.000    0.000    0.000    0.000 
#
# Total GULP energy -78177.781565 kJ/mol
# GULP energy per Si atom -5584.127255 kJ/mol
# Density = 2.134270 g / cm^3
# Si number density = 21.391386 Si / 1000 Ang^3
#
#
#
# Elastic Constant Matrix: (Units=GPa)
#
#
# Indices 1 2 3 4 5 6 
#
# 1 111.6695 62.6650 22.7207 0.4772 -5.2003 -2.4110
# 2 62.6650 93.7422 7.6578 -12.9666 -9.8781 12.7998
# 3 22.7207 7.6578 81.9266 0.9512 -7.7482 -4.4093
# 4 0.4772 -12.9666 0.9512 26.9410 6.4185 -8.4970
# 5 -5.2003 -9.8781 -7.7482 6.4185 21.2140 -2.4163
# 6 -2.4110 12.7998 -4.4093 -8.4970 -2.4163 20.3520
#
#
#
# Elastic Compliance Matrix: (Units=1/GPa)
#
#
# Indices 1 2 3 4 5 6 
#
# 1 0.016812 -0.012626 -0.003117 -0.003638 -0.000927 0.007628
# 2 -0.012626 0.021938 0.001148 0.005893 0.004382 -0.012064
# 3 -0.003117 0.001148 0.013574 -0.000360 0.005099 0.002305
# 4 -0.003638 0.005893 -0.000360 0.047096 -0.010917 0.014151
# 5 -0.000927 0.004382 0.005099 -0.010917 0.054130 0.000108
# 6 0.007628 -0.012064 0.002305 0.014151 0.000108 0.064046
#
#
# Mechanical properties :
#
#
# Convention : Reuss Voigt Hill
#
# Bulk Modulus (GPa) = 43.22869 52.60281 47.91575
# Shear Modulus (GPa) = 19.64659 26.65440 23.15050
#
# Velocity S-wave (km/s) = 3.03386 3.53375 3.29330
# Velocity P-wave (km/s) = 5.70304 6.42603 6.07530
#
# Compressibility (1/GPa) = 0.02313279
#
# Stress axis : x y z
#
# Youngs Moduli (GPa) = 59.48285 45.58249 73.67177
#
# Poissons Ratio (x) = 0.57553 0.22964
# Poissons Ratio (y) = 0.75103 -0.08456
# Poissons Ratio (z) = 0.18541 -0.05232
#
# Static dielectric constant tensor:
#      x y z
#    x 1.758080 0.008530 -0.001410 
#    y 0.008530 1.812810 0.007700 
#    z -0.001410 0.007700 1.868520 
# 
# From -- ./inp_files/41995.got.cif
#   From: 2010.05.17/outbox.cif.g08.bks.cpg/sg2_21_cif.got.tgz:41995.got - 2010.06.03 11:33:40.
