data_PCOD9084213
_publ_section_title
;
Structure prediction by ZEFSAII (Michael W. Deem and Ramdas Pophale) SiO2 
 PCOD9084213
Probable space group: P -1
;
_chemical_formula_sum "Si O2"
_cell_formula_units_Z 14
_cell_length_a 12.253216
_cell_length_b 6.836699
_cell_length_c 13.966948
_cell_angle_alpha 93.332688
_cell_angle_beta 148.745345
_cell_angle_gamma 70.165676
_cell_volume 502.456617
_symmetry_space_group_name_H-M "P -1"
_symmetry_group_IT_number 2
_symmetry_cell_setting 'triclinic'
loop_
_space_group_symop_operation_xyz
x,y,z
-x,-y,-z
loop_
_atom_site_type_symbol
_atom_site_label
_atom_site_fract_x
_atom_site_fract_y
_atom_site_fract_z
Si Si1 0.293145 0.814903 0.681124
Si Si2 0.735707 0.517966 0.696340
Si Si3 0.096689 0.828798 0.344153
Si Si4 0.530761 0.207125 0.993078
Si Si5 0.795426 0.241241 0.909183
Si Si6 0.129187 0.214936 0.315196
Si Si7 0.651205 0.777606 0.338583
O O1 0.250751 0.697847 0.553077
O O2 0.457177 0.679017 0.894802
O O3 0.389367 0.973440 0.715803
O O4 0.000000 0.000000 0.500000
O O5 0.500000 0.500000 0.500000
O O6 0.935105 0.318290 0.764243
O O7 0.716473 0.741571 0.645532
O O8 0.783336 0.440347 0.838589
O O9 0.239722 0.941985 0.410446
O O10 0.820509 0.052416 0.169476
O O11 0.343515 0.328939 0.764997
O O12 0.500000 0.000000 0.000000
O O13 0.876264 0.294838 0.071030
O O14 0.572316 0.204698 0.766188
O O15 0.000000 0.000000 0.000000
O O16 0.121230 0.324615 0.415780
#
# Coordination Sequence:
#
# PCOD9084213 Si02
#       7
#     2   2   2   2   2   2   2
#     4   8  17  32  61  95 120 163 216 261 322 382
#     4  12  25  41  63  95 133 173 216 266 316 387
#     4  10  20  39  63  96 129 168 217 262 320 389
#     4   9  16  34  65  95 123 163 215 264 322 383
#     4  12  23  41  62  92 130 172 218 262 319 383
#     4  11  23  40  63  89 129 172 213 264 323 370
#     4  10  19  34  61  91 124 164 207 264 314 385
#
# _framework density 27.863102999999999
#
# number of rings (size 3 to 8) (size 9 to 14) (size 15 to 20)
#    0.000    1.714    4.286    0.429    0.000    3.429 
#    0.000    4.286    0.000   32.571    0.000    0.000 
#    0.000    0.000    0.000    0.000    0.000    0.000 
#
# Total GULP energy -78195.513797 kJ/mol
# GULP energy per Si atom -5585.393843 kJ/mol
# Density = 2.779969 g / cm^3
# Si number density = 27.863103 Si / 1000 Ang^3
#
#
#
# Elastic Constant Matrix: (Units=GPa)
#
#
# Indices 1 2 3 4 5 6 
#
# 1 181.4438 61.3305 75.5293 -2.9119 -31.2557 23.7986
# 2 61.3305 105.5770 24.7217 16.6192 5.9168 11.0309
# 3 75.5293 24.7217 137.6537 21.5881 -62.0400 1.3876
# 4 -2.9119 16.6192 21.5881 37.6491 7.0553 -4.6475
# 5 -31.2557 5.9168 -62.0400 7.0553 92.0278 4.3741
# 6 23.7986 11.0309 1.3876 -4.6475 4.3741 56.7741
#
#
#
# Elastic Compliance Matrix: (Units=1/GPa)
#
#
# Indices 1 2 3 4 5 6 
#
# 1 0.009949 -0.005117 -0.005673 0.006058 -0.000462 -0.002506
# 2 -0.005117 0.013496 0.000715 -0.006580 -0.001576 -0.000912
# 3 -0.005673 0.000715 0.016836 -0.012340 0.010322 0.000022
# 4 0.006058 -0.006580 -0.012340 0.039053 -0.008971 0.002929
# 5 -0.000462 -0.001576 0.010322 -0.008971 0.018548 -0.001916
# 6 -0.002506 -0.000912 0.000022 0.002929 -0.001916 0.019228
#
#
# Mechanical properties :
#
#
# Convention : Reuss Voigt Hill
#
# Bulk Modulus (GPa) = 49.67426 83.09305 66.38365
# Shear Modulus (GPa) = 34.72942 54.82974 44.77958
#
# Velocity S-wave (km/s) = 3.53431 4.44083 4.01325
# Velocity P-wave (km/s) = 5.87553 7.49542 6.73436
#
# Compressibility (1/GPa) = 0.02013115
#
# Stress axis : x y z
#
# Youngs Moduli (GPa) = 100.51629 74.09442 59.39665
#
# Poissons Ratio (x) = 0.37913 0.33694
# Poissons Ratio (y) = 0.51433 -0.04245
# Poissons Ratio (z) = 0.57019 -0.05295
#
# Static dielectric constant tensor:
#      x y z
#    x 1.947370 -0.077740 0.054290 
#    y -0.077740 2.234540 0.014410 
#    z 0.054290 0.014410 2.421990 
# 
# From -- ./inp_files/491305.got.cif
#   From: 2010.05.17/outbox.cif.g08.bks.cpg/sg2_246_cif.got.tgz:491305.got - 2010.06.03 11:33:40.
