data_PCOD9084680
_publ_section_title
;
Structure prediction by ZEFSAII (Michael W. Deem and Ramdas Pophale) SiO2 
 PCOD9084680
Probable space group: P -1
;
_chemical_formula_sum "Si O2"
_cell_formula_units_Z 16
_cell_length_a 12.374403
_cell_length_b 8.964949
_cell_length_c 9.074725
_cell_angle_alpha 78.779337
_cell_angle_beta 55.076329
_cell_angle_gamma 106.671186
_cell_volume 703.390024
_symmetry_space_group_name_H-M "P -1"
_symmetry_group_IT_number 2
_symmetry_cell_setting 'triclinic'
loop_
_space_group_symop_operation_xyz
x,y,z
-x,-y,-z
loop_
_atom_site_type_symbol
_atom_site_label
_atom_site_fract_x
_atom_site_fract_y
_atom_site_fract_z
Si Si1 0.258733 0.409880 0.418035
Si Si2 0.161335 0.878695 0.707027
Si Si3 0.361112 0.064973 0.024267
Si Si4 0.979502 0.025099 0.684168
Si Si5 0.793967 0.330309 0.759242
Si Si6 0.572968 0.789193 0.740034
Si Si7 0.921637 0.457069 0.332077
Si Si8 0.603087 0.052959 0.265296
O O1 0.105204 0.225170 0.569124
O O2 0.391612 0.360567 0.316780
O O3 0.215140 0.497578 0.569998
O O4 0.262230 0.529984 0.255332
O O5 0.105722 0.679924 0.745269
O O6 0.237222 0.910926 0.801095
O O7 0.023728 0.912882 0.778589
O O8 0.290944 0.024828 0.467520
O O9 0.333832 0.871078 0.118856
O O10 0.415196 0.192586 0.096305
O O11 0.444933 0.094693 0.796041
O O12 0.809933 0.976577 0.858608
O O13 0.000000 0.000000 0.500000
O O14 0.893267 0.352937 0.529847
O O15 0.908142 0.385830 0.798454
O O16 0.420425 0.788522 0.808214
O O17 0.500000 0.000000 0.500000
#
# Coordination Sequence:
#
# PCOD9084680 Si02
#       8
#     2   2   2   2   2   2   2   2
#     4   9  16  27  53  88 116 129 168 231 278 322
#     4  10  19  35  56  80 119 147 173 223 279 333
#     4  12  19  34  61  85 109 141 185 234 270 325
#     4  11  17  29  58  94 112 129 174 231 285 327
#     4   9  16  27  51  88 112 132 169 221 286 329
#     4  10  19  35  58  82 106 145 193 232 255 318
#     4   9  15  28  52  83 118 139 161 212 296 330
#     4  10  25  41  52  74 112 157 194 222 267 314
#
# _framework density 22.746981999999999
#
# number of rings (size 3 to 8) (size 9 to 14) (size 15 to 20)
#    0.750    1.250    5.000    1.125    0.000    0.500 
#    0.000    1.875    0.000    3.000    0.000    0.000 
#    0.000    0.000    0.000    0.000    0.000    0.000 
#
# Total GULP energy -89083.291809 kJ/mol
# GULP energy per Si atom -5567.705738 kJ/mol
# Density = 2.269521 g / cm^3
# Si number density = 22.746982 Si / 1000 Ang^3
#
#
#
# Elastic Constant Matrix: (Units=GPa)
#
#
# Indices 1 2 3 4 5 6 
#
# 1 123.9874 25.0177 18.5249 16.1713 3.0214 -33.0025
# 2 25.0177 82.3340 9.2802 10.2647 2.2829 -17.7324
# 3 18.5249 9.2802 68.4017 2.8376 -0.4694 -5.3723
# 4 16.1713 10.2647 2.8376 19.0449 1.6937 -10.7471
# 5 3.0214 2.2829 -0.4694 1.6937 28.7359 8.4813
# 6 -33.0025 -17.7324 -5.3723 -10.7471 8.4813 39.8323
#
#
#
# Elastic Compliance Matrix: (Units=1/GPa)
#
#
# Indices 1 2 3 4 5 6 
#
# 1 0.011397 -0.000818 -0.002174 -0.003814 -0.003450 0.008491
# 2 -0.000818 0.014118 -0.001167 -0.003760 -0.002286 0.004922
# 3 -0.002174 -0.001167 0.015342 -0.000119 0.000707 -0.000434
# 4 -0.003814 -0.003760 -0.000119 0.066817 -0.007608 0.014798
# 5 -0.003450 -0.002286 0.000707 -0.007608 0.040042 -0.014359
# 6 0.008491 0.004922 -0.000434 0.014798 -0.014359 0.041323
#
#
# Mechanical properties :
#
#
# Convention : Reuss Voigt Hill
#
# Bulk Modulus (GPa) = 30.73262 42.26319 36.49791
# Shear Modulus (GPa) = 24.01488 32.31596 28.16542
#
# Velocity S-wave (km/s) = 3.25274 3.77327 3.52263
# Velocity P-wave (km/s) = 5.25805 6.13216 5.71185
#
# Compressibility (1/GPa) = 0.03253872
#
# Stress axis : x y z
#
# Youngs Moduli (GPa) = 87.74364 70.83175 65.17909
#
# Poissons Ratio (x) = 0.05795 0.14171
# Poissons Ratio (y) = 0.07178 0.07606
# Poissons Ratio (z) = 0.19077 0.08266
#
# Static dielectric constant tensor:
#      x y z
#    x 1.987840 0.006330 -0.062480 
#    y 0.006330 1.875860 -0.043330 
#    z -0.062480 -0.043330 1.978670 
# 
# From -- ./inp_files/295750.got.cif
#   From: 2010.05.17/outbox.cif.g08.bks.cpg/sg2_148_cif.got.tgz:295750.got - 2010.06.03 11:33:40.
