data_PCOD9084996
_publ_section_title
;
Structure prediction by ZEFSAII (Michael W. Deem and Ramdas Pophale) SiO2 
 PCOD9084996
Probable space group: P -1
;
_chemical_formula_sum "Si O2"
_cell_formula_units_Z 14
_cell_length_a 11.257456
_cell_length_b 15.226780
_cell_length_c 7.906327
_cell_angle_alpha 61.360208
_cell_angle_beta 61.294919
_cell_angle_gamma 28.396992
_cell_volume 560.057555
_symmetry_space_group_name_H-M "P -1"
_symmetry_group_IT_number 2
_symmetry_cell_setting 'triclinic'
loop_
_space_group_symop_operation_xyz
x,y,z
-x,-y,-z
loop_
_atom_site_type_symbol
_atom_site_label
_atom_site_fract_x
_atom_site_fract_y
_atom_site_fract_z
Si Si1 0.408595 0.094607 0.203667
Si Si2 0.938211 0.148937 0.277363
Si Si3 0.815785 0.875223 0.377450
Si Si4 0.511925 0.257154 0.368189
Si Si5 0.630976 0.508437 0.007304
Si Si6 0.509514 0.165279 0.796950
Si Si7 0.280924 0.690376 0.365266
O O1 0.237325 0.181970 0.403825
O O2 0.695737 0.924140 0.234720
O O3 0.400116 0.996532 0.197382
O O4 0.347595 0.228468 0.007145
O O5 0.736307 0.198595 0.291181
O O6 0.861598 0.308315 0.123734
O O7 0.901922 0.163781 0.490857
O O8 0.226904 0.950767 0.217647
O O9 0.101998 0.731363 0.334898
O O10 0.640610 0.078161 0.369008
O O11 0.408352 0.294561 0.591261
O O12 0.325388 0.425975 0.207255
O O13 0.434847 0.659027 0.152132
O O14 0.500000 0.500000 0.000000
O O15 0.500000 0.500000 0.500000
#
# Coordination Sequence:
#
# PCOD9084996 Si02
#       7
#     2   2   2   2   2   2   2
#     4   9  20  35  56  84 111 155 189 231 275 325
#     4  10  19  36  55  84 119 148 182 230 295 341
#     4  10  20  36  57  88 115 143 198 235 269 339
#     4  10  20  34  55  88 120 139 188 241 283 331
#     4   9  21  35  52  83 116 149 179 222 302 338
#     4  10  19  35  58  83 111 150 194 231 274 333
#     4  10  20  35  55  83 114 151 182 228 290 337
#
# _framework density 24.997429
#
# number of rings (size 3 to 8) (size 9 to 14) (size 15 to 20)
#    0.000    2.286    2.857    0.429    4.000    1.714 
#    0.000    0.000    0.000    8.571    0.000    0.000 
#    0.000    0.000    0.000    0.000    0.000    0.000 
#
# Total GULP energy -78184.546739 kJ/mol
# GULP energy per Si atom -5584.610481 kJ/mol
# Density = 2.494053 g / cm^3
# Si number density = 24.997429 Si / 1000 Ang^3
#
#
#
# Elastic Constant Matrix: (Units=GPa)
#
#
# Indices 1 2 3 4 5 6 
#
# 1 75.2252 17.1490 0.0578 -3.1099 1.1574 -5.6512
# 2 17.1490 62.5427 40.5738 -11.4606 4.4020 6.8421
# 3 0.0578 40.5738 227.6080 -30.5090 -12.5818 7.9719
# 4 -3.1099 -11.4606 -30.5090 35.7953 0.4650 9.5915
# 5 1.1574 4.4020 -12.5818 0.4650 28.8144 1.6445
# 6 -5.6512 6.8421 7.9719 9.5915 1.6445 25.4929
#
#
#
# Elastic Compliance Matrix: (Units=1/GPa)
#
#
# Indices 1 2 3 4 5 6 
#
# 1 0.014802 -0.005224 0.000606 -0.001194 0.000206 0.004930
# 2 -0.005224 0.021649 -0.002970 0.006169 -0.004032 -0.008101
# 3 0.000606 -0.002970 0.005840 0.004818 0.003067 -0.002905
# 4 -0.001194 0.006169 0.004818 0.038746 0.001618 -0.018109
# 5 0.000206 -0.004032 0.003067 0.001618 0.036786 -0.002813
# 6 0.004930 -0.008101 -0.002905 -0.018109 -0.002813 0.050397
#
#
# Mechanical properties :
#
#
# Convention : Reuss Voigt Hill
#
# Bulk Modulus (GPa) = 36.88122 53.43746 45.15934
# Shear Modulus (GPa) = 25.98296 38.52688 32.25492
#
# Velocity S-wave (km/s) = 3.22751 3.93011 3.59601
# Velocity P-wave (km/s) = 5.35492 6.48213 5.94530
#
# Compressibility (1/GPa) = 0.02711407
#
# Stress axis : x y z
#
# Youngs Moduli (GPa) = 67.55940 46.19203 171.23505
#
# Poissons Ratio (x) = 0.24133 -0.10382
# Poissons Ratio (y) = 0.35296 0.50858
# Poissons Ratio (z) = -0.04096 0.13719
#
# Static dielectric constant tensor:
#      x y z
#    x 2.062710 0.031010 -0.003310 
#    y 0.031010 2.016380 -0.014700 
#    z -0.003310 -0.014700 2.037560 
# 
# From -- ./inp_files/277418.got.cif
#   From: 2010.05.17/outbox.cif.g08.bks.cpg/sg2_139_cif.got.tgz:277418.got - 2010.06.03 11:33:40.
