data_PCOD9084497
_publ_section_title
;
Structure prediction by ZEFSAII (Michael W. Deem and Ramdas Pophale) SiO2 
 PCOD9084497
Probable space group: P -1
;
_chemical_formula_sum "Si O2"
_cell_formula_units_Z 16
_cell_length_a 23.844784
_cell_length_b 10.296991
_cell_length_c 5.868670
_cell_angle_alpha 139.324983
_cell_angle_beta 125.535347
_cell_angle_gamma 45.414613
_cell_volume 665.160433
_symmetry_space_group_name_H-M "P -1"
_symmetry_group_IT_number 2
_symmetry_cell_setting 'triclinic'
loop_
_space_group_symop_operation_xyz
x,y,z
-x,-y,-z
loop_
_atom_site_type_symbol
_atom_site_label
_atom_site_fract_x
_atom_site_fract_y
_atom_site_fract_z
Si Si1 0.479952 0.194346 0.985631
Si Si2 0.843363 0.523051 0.362246
Si Si3 0.724550 0.995285 0.516326
Si Si4 0.563862 0.375905 0.787545
Si Si5 0.748929 0.299371 0.593542
Si Si6 0.374504 0.216229 0.152630
Si Si7 0.126636 0.826261 0.637388
Si Si8 0.989509 0.184361 0.032031
O O1 0.522135 0.292390 0.390151
O O2 0.427992 0.412037 0.001360
O O3 0.419103 0.150442 0.926065
O O4 0.553022 0.959288 0.751405
O O5 0.792421 0.791902 0.553668
O O6 0.848959 0.401544 0.456750
O O7 0.796319 0.418221 0.972678
O O8 0.932918 0.424061 0.343088
O O9 0.652212 0.165589 0.736333
O O10 0.742949 0.144090 0.573672
O O11 0.689993 0.864732 0.103160
O O12 0.500000 0.500000 0.000000
O O13 0.666625 0.509834 0.585836
O O14 0.801705 0.176810 0.334433
O O15 0.065400 0.822249 0.306385
O O16 0.077909 0.062640 0.978184
O O17 0.000000 0.000000 0.000000
#
# Coordination Sequence:
#
# PCOD9084497 Si02
#       8
#     2   2   2   2   2   2   2   2
#     4   9  18  36  55  78 105 139 189 236 282 329
#     4   9  19  35  55  80 113 148 181 225 273 327
#     4  10  20  36  56  78 115 149 184 233 284 326
#     4  10  20  35  56  79 106 144 188 234 282 331
#     4  10  19  35  53  79 115 148 182 231 278 326
#     4   9  18  35  58  75 106 148 183 232 285 323
#     4   9  17  32  58  85 109 146 186 216 272 332
#     4   8  15  32  60  86 110 142 181 225 267 320
#
# _framework density 24.054348000000001
#
# number of rings (size 3 to 8) (size 9 to 14) (size 15 to 20)
#    0.000    2.750    1.250    0.000    0.000    1.000 
#    2.250   11.250    0.000   25.500    0.000    0.000 
#    0.000    0.000    0.000    0.000    0.000    0.000 
#
# Total GULP energy -89159.658380 kJ/mol
# GULP energy per Si atom -5572.478649 kJ/mol
# Density = 2.399960 g / cm^3
# Si number density = 24.054348 Si / 1000 Ang^3
#
#
#
# Elastic Constant Matrix: (Units=GPa)
#
#
# Indices 1 2 3 4 5 6 
#
# 1 122.4343 65.7431 35.9212 30.3132 -20.5340 2.8194
# 2 65.7431 220.0259 62.3992 38.5825 -23.0634 -11.3510
# 3 35.9212 62.3992 70.6772 25.2723 -10.4489 4.0608
# 4 30.3132 38.5825 25.2723 44.3673 -10.0022 -0.1939
# 5 -20.5340 -23.0634 -10.4489 -10.0022 39.6719 15.3118
# 6 2.8194 -11.3510 4.0608 -0.1939 15.3118 32.4797
#
#
#
# Elastic Compliance Matrix: (Units=1/GPa)
#
#
# Indices 1 2 3 4 5 6 
#
# 1 0.011668 -0.001928 -0.001794 -0.004198 0.004842 -0.003770
# 2 -0.001928 0.006957 -0.004578 -0.002085 0.000117 0.003103
# 3 -0.001794 -0.004578 0.022286 -0.006909 0.002673 -0.005532
# 4 -0.004198 -0.002085 -0.006909 0.031858 0.003131 -0.000786
# 5 0.004842 0.000117 0.002673 0.003131 0.036114 -0.017720
# 6 -0.003770 0.003103 -0.005532 -0.000786 -0.017720 0.041241
#
#
# Mechanical properties :
#
#
# Convention : Reuss Voigt Hill
#
# Bulk Modulus (GPa) = 41.13425 82.36271 61.74848
# Shear Modulus (GPa) = 28.59949 39.90870 34.25409
#
# Velocity S-wave (km/s) = 3.45186 4.07763 3.77773
# Velocity P-wave (km/s) = 5.74672 7.51558 6.68987
#
# Compressibility (1/GPa) = 0.02431064
#
# Stress axis : x y z
#
# Youngs Moduli (GPa) = 85.70638 143.73151 44.87149
#
# Poissons Ratio (x) = 0.27716 0.08050
# Poissons Ratio (y) = 0.16527 0.20541
# Poissons Ratio (z) = 0.15376 0.65798
#
# Static dielectric constant tensor:
#      x y z
#    x 1.972810 0.011070 -0.058290 
#    y 0.011070 2.007340 -0.026960 
#    z -0.058290 -0.026960 2.035780 
# 
# From -- ./inp_files/122409.got.cif
#   From: 2010.05.17/outbox.cif.g08.bks.cpg/sg2_62_cif.got.tgz:122409.got - 2010.06.03 11:33:40.
