data_PCOD9084508
_publ_section_title
;
Structure prediction by ZEFSAII (Michael W. Deem and Ramdas Pophale) SiO2 
 PCOD9084508
Probable space group: P -1
;
_chemical_formula_sum "Si O2"
_cell_formula_units_Z 16
_cell_length_a 25.213071
_cell_length_b 12.858227
_cell_length_c 5.463893
_cell_angle_alpha 65.428510
_cell_angle_beta 67.511761
_cell_angle_gamma 31.622978
_cell_volume 843.169799
_symmetry_space_group_name_H-M "P -1"
_symmetry_group_IT_number 2
_symmetry_cell_setting 'triclinic'
loop_
_space_group_symop_operation_xyz
x,y,z
-x,-y,-z
loop_
_atom_site_type_symbol
_atom_site_label
_atom_site_fract_x
_atom_site_fract_y
_atom_site_fract_z
Si Si1 0.859453 0.656193 0.935735
Si Si2 0.318923 0.460241 0.585165
Si Si3 0.730065 0.700425 0.411324
Si Si4 0.872783 0.228998 0.120844
Si Si5 0.140177 0.868213 0.266040
Si Si6 0.916390 0.393797 0.711544
Si Si7 0.478263 0.964419 0.322604
Si Si8 0.066685 0.220625 0.243169
O O1 0.874325 0.581107 0.712415
O O2 0.862521 0.786948 0.824509
O O3 0.763646 0.752487 0.135945
O O4 0.963057 0.439137 0.092196
O O5 0.301352 0.358236 0.631232
O O6 0.250153 0.579100 0.832482
O O7 0.259308 0.640745 0.325900
O O8 0.438686 0.273542 0.589212
O O9 0.833658 0.492919 0.561641
O O10 0.639643 0.874101 0.592078
O O11 0.906197 0.111909 0.424736
O O12 0.897928 0.127396 0.920389
O O13 0.907706 0.303000 0.001352
O O14 0.116458 0.041011 0.165967
O O15 0.025023 0.235520 0.555409
O O16 0.500000 0.000000 0.500000
O O17 0.500000 0.000000 0.000000
#
# Coordination Sequence:
#
# PCOD9084508 Si02
#       8
#     2   2   2   2   2   2   2   2
#     4  10  21  39  56  76 110 150 196 240 272 323
#     4   9  19  35  54  84 117 142 177 222 286 339
#     4  10  19  35  53  86 114 147 180 234 279 337
#     4  10  20  35  56  80 115 144 178 226 287 333
#     4  10  22  37  55  81 114 153 182 227 280 338
#     4  11  19  35  57  79 113 143 191 235 284 325
#     4  10  21  31  57  86 118 145 178 220 285 344
#     4  10  24  37  53  79 107 153 202 231 276 322
#
# _framework density 18.976011
#
# number of rings (size 3 to 8) (size 9 to 14) (size 15 to 20)
#    0.750    1.250    2.500    1.125    7.000    1.000 
#    0.000    0.000    0.000    0.750    0.000    1.750 
#    0.000    0.000    0.000    0.000    0.000    0.000 
#
# Total GULP energy -89120.798273 kJ/mol
# GULP energy per Si atom -5570.049892 kJ/mol
# Density = 1.893282 g / cm^3
# Si number density = 18.976011 Si / 1000 Ang^3
#
#
#
# Elastic Constant Matrix: (Units=GPa)
#
#
# Indices 1 2 3 4 5 6 
#
# 1 72.5477 25.0126 30.3005 3.1373 -6.2249 25.1389
# 2 25.0126 97.5509 27.5519 14.1151 -9.6275 2.4027
# 3 30.3005 27.5519 64.3406 11.2657 6.5644 9.8383
# 4 3.1373 14.1151 11.2657 30.2500 1.0280 0.2173
# 5 -6.2249 -9.6275 6.5644 1.0280 27.0966 2.8948
# 6 25.1389 2.4027 9.8383 0.2173 2.8948 26.5304
#
#
#
# Elastic Compliance Matrix: (Units=1/GPa)
#
#
# Indices 1 2 3 4 5 6 
#
# 1 0.027809 -0.003162 -0.009490 0.001955 0.010017 -0.023654
# 2 -0.003162 0.013368 -0.004405 -0.004458 0.004948 0.002916
# 3 -0.009490 -0.004405 0.023544 -0.005420 -0.009429 0.001734
# 4 0.001955 -0.004458 -0.005420 0.036994 -0.001268 0.000397
# 5 0.010017 0.004948 -0.009429 -0.001268 0.044503 -0.011289
# 6 -0.023654 0.002916 0.001734 0.000397 -0.011289 0.060428
#
#
# Mechanical properties :
#
#
# Convention : Reuss Voigt Hill
#
# Bulk Modulus (GPa) = 32.67257 44.46322 38.56790
# Shear Modulus (GPa) = 19.92338 26.88035 23.40186
#
# Velocity S-wave (km/s) = 3.24377 3.76778 3.51555
# Velocity P-wave (km/s) = 5.59326 6.51233 6.07021
#
# Compressibility (1/GPa) = 0.03060671
#
# Stress axis : x y z
#
# Youngs Moduli (GPa) = 35.95924 74.80792 42.47401
#
# Poissons Ratio (x) = 0.23653 0.40307
# Poissons Ratio (y) = 0.11370 0.18711
# Poissons Ratio (z) = 0.34125 0.32955
#
# Static dielectric constant tensor:
#      x y z
#    x 1.678590 -0.029740 0.050160 
#    y -0.029740 1.749410 -0.005390 
#    z 0.050160 -0.005390 1.743880 
# 
# From -- ./inp_files/118064.got.cif
#   From: 2010.05.17/outbox.cif.g08.bks.cpg/sg2_60_cif.got.tgz:118064.got - 2010.06.03 11:33:40.
