data_PCOD9084767
_publ_section_title
;
Structure prediction by ZEFSAII (Michael W. Deem and Ramdas Pophale) SiO2 
 PCOD9084767
Probable space group: P -1
;
_chemical_formula_sum "Si O2"
_cell_formula_units_Z 10
_cell_length_a 8.988694
_cell_length_b 8.775234
_cell_length_c 13.881116
_cell_angle_alpha 136.902763
_cell_angle_beta 39.425442
_cell_angle_gamma 115.457420
_cell_volume 451.796470
_symmetry_space_group_name_H-M "P -1"
_symmetry_group_IT_number 2
_symmetry_cell_setting 'triclinic'
loop_
_space_group_symop_operation_xyz
x,y,z
-x,-y,-z
loop_
_atom_site_type_symbol
_atom_site_label
_atom_site_fract_x
_atom_site_fract_y
_atom_site_fract_z
Si Si1 0.375360 0.262017 0.358814
Si Si2 0.878203 0.906563 0.295233
Si Si3 0.190621 0.684072 0.326241
Si Si4 0.459324 0.740641 0.508883
Si Si5 0.392095 0.776066 0.058390
O O1 0.422275 0.489755 0.396458
O O2 0.508764 0.220051 0.375878
O O3 0.083657 0.326468 0.553197
O O4 0.443865 0.025127 0.152694
O O5 0.705918 0.748876 0.334612
O O6 0.169490 0.786190 0.101731
O O7 0.819367 0.105169 0.499609
O O8 0.769829 0.049532 0.319671
O O9 0.287790 0.740014 0.200471
O O10 0.366301 0.444189 0.172236
#
# Coordination Sequence:
#
# PCOD9084767 Si02
#       5
#     2   2   2   2   2
#     4  10  19  38  55  79 105 141 171 222 255 316
#     4  10  19  38  55  79 105 141 171 222 255 316
#     4  10  19  35  57  78 103 143 180 210 256 316
#     4  10  20  34  58  78 110 136 172 214 278 298
#     4  10  19  35  57  78 103 143 180 210 256 316
#
# _framework density 22.133863000000002
#
# number of rings (size 3 to 8) (size 9 to 14) (size 15 to 20)
#    0.000    2.000    4.000    1.200    0.000    3.200 
#    0.000   16.000    0.000    0.000    0.000    0.000 
#    0.000    0.000    0.000    0.000    0.000    0.000 
#
# Total GULP energy -55966.545109 kJ/mol
# GULP energy per Si atom -5596.654511 kJ/mol
# Density = 2.208349 g / cm^3
# Si number density = 22.133863 Si / 1000 Ang^3
#
#
#
# Elastic Constant Matrix: (Units=GPa)
#
#
# Indices 1 2 3 4 5 6 
#
# 1 112.7332 33.8208 19.8831 -1.2925 -8.2210 -8.8767
# 2 33.8208 129.0060 6.5976 11.6603 3.0793 16.8592
# 3 19.8831 6.5976 51.3959 13.0767 -2.8817 -4.4014
# 4 -1.2925 11.6603 13.0767 19.8829 -12.5366 2.1002
# 5 -8.2210 3.0793 -2.8817 -12.5366 18.5700 4.0227
# 6 -8.8767 16.8592 -4.4014 2.1002 4.0227 37.5725
#
#
#
# Elastic Compliance Matrix: (Units=1/GPa)
#
#
# Indices 1 2 3 4 5 6 
#
# 1 0.014581 -0.006330 -0.009926 0.025504 0.022913 0.001244
# 2 -0.006330 0.011967 0.005224 -0.021984 -0.018149 -0.003081
# 3 -0.009926 0.005224 0.033144 -0.046788 -0.032858 0.005327
# 4 0.025504 -0.021984 -0.046788 0.180774 0.132728 -0.013907
# 5 0.022913 -0.018149 -0.032858 0.132728 0.154599 -0.014263
# 6 0.001244 -0.003081 0.005327 -0.013907 -0.014263 0.031220
#
#
# Mechanical properties :
#
#
# Convention : Reuss Voigt Hill
#
# Bulk Modulus (GPa) = 26.57501 45.97091 36.27296
# Shear Modulus (GPa) = 10.84853 30.72732 20.78793
#
# Velocity S-wave (km/s) = 2.21630 3.72996 3.06795
# Velocity P-wave (km/s) = 4.31067 6.27413 5.38269
#
# Compressibility (1/GPa) = 0.03762934
#
# Stress axis : x y z
#
# Youngs Moduli (GPa) = 68.58030 83.56543 30.17094
#
# Poissons Ratio (x) = 0.52895 0.29949
# Poissons Ratio (y) = 0.43409 -0.15763
# Poissons Ratio (z) = 0.68075 -0.43658
#
# Static dielectric constant tensor:
#      x y z
#    x 1.811920 -0.019610 0.010980 
#    y -0.019610 1.817910 -0.016630 
#    z 0.010980 -0.016630 1.800390 
# 
# From -- ./inp_files/60264.got.cif
#   From: 2010.05.17/outbox.cif.g08.bks.cpg/sg2_31_cif.got.tgz:60264.got - 2010.06.03 11:33:40.
