data_PCOD9084032
_publ_section_title
;
Structure prediction by ZEFSAII (Michael W. Deem and Ramdas Pophale) SiO2 
 PCOD9084032
Probable space group: P -1
;
_chemical_formula_sum "Si O2"
_cell_formula_units_Z 14
_cell_length_a 9.223767
_cell_length_b 11.992015
_cell_length_c 12.172063
_cell_angle_alpha 105.839481
_cell_angle_beta 37.934916
_cell_angle_gamma 81.215525
_cell_volume 623.362752
_symmetry_space_group_name_H-M "P -1"
_symmetry_group_IT_number 2
_symmetry_cell_setting 'triclinic'
loop_
_space_group_symop_operation_xyz
x,y,z
-x,-y,-z
loop_
_atom_site_type_symbol
_atom_site_label
_atom_site_fract_x
_atom_site_fract_y
_atom_site_fract_z
Si Si1 0.815423 0.284784 0.299910
Si Si2 0.213845 0.615875 0.120319
Si Si3 0.774758 0.696553 0.681618
Si Si4 0.516926 0.996891 0.121277
Si Si5 0.269973 0.420498 0.526354
Si Si6 0.359331 0.800739 0.171595
Si Si7 0.598596 0.360725 0.683220
O O1 0.617279 0.304615 0.321802
O O2 0.822489 0.422905 0.335945
O O3 0.623777 0.309061 0.530350
O O4 0.151676 0.133512 0.067774
O O5 0.145144 0.770380 0.232480
O O6 0.941716 0.613068 0.304907
O O7 0.500000 0.500000 0.000000
O O8 0.346636 0.535926 0.902283
O O9 0.789667 0.577791 0.566845
O O10 0.075286 0.681069 0.503705
O O11 0.622082 0.723054 0.898625
O O12 0.570753 0.843961 0.765412
O O13 0.298495 0.955628 0.269765
O O14 0.500000 0.000000 0.000000
O O15 0.445058 0.721755 0.217817
#
# Coordination Sequence:
#
# PCOD9084032 Si02
#       7
#     2   2   2   2   2   2   2
#     4  11  23  41  64  91 130 165 203 256 315 370
#     4  10  19  34  59  93 118 155 209 252 299 362
#     4  11  22  40  65  93 124 162 209 257 307 363
#     4  10  21  40  64  95 120 164 214 251 304 371
#     4  11  24  41  63  94 127 167 202 255 321 365
#     4  10  20  36  61  95 119 152 215 253 298 358
#     4  11  21  36  65  94 121 165 202 264 301 359
#
# _framework density 22.458835000000001
#
# number of rings (size 3 to 8) (size 9 to 14) (size 15 to 20)
#    0.000    1.429    5.714    2.571    0.000    2.857 
#    0.000    1.429    0.000    4.286    0.000    0.000 
#    0.000    0.000    0.000    0.000    0.000    0.000 
#
# Total GULP energy -78090.655294 kJ/mol
# GULP energy per Si atom -5577.903950 kJ/mol
# Density = 2.240772 g / cm^3
# Si number density = 22.458835 Si / 1000 Ang^3
#
#
#
# Elastic Constant Matrix: (Units=GPa)
#
#
# Indices 1 2 3 4 5 6 
#
# 1 101.2010 10.1697 14.8955 -7.5230 -18.4466 -4.8623
# 2 10.1697 95.7166 27.6012 -26.4306 -15.7542 14.0844
# 3 14.8955 27.6012 76.3487 -23.0163 -9.9653 0.6888
# 4 -7.5230 -26.4306 -23.0163 44.0232 -4.8445 -5.0845
# 5 -18.4466 -15.7542 -9.9653 -4.8445 40.6707 3.6214
# 6 -4.8623 14.0844 0.6888 -5.0845 3.6214 32.8009
#
#
#
# Elastic Compliance Matrix: (Units=1/GPa)
#
#
# Indices 1 2 3 4 5 6 
#
# 1 0.011158 0.000397 -0.000946 0.002367 0.005149 0.001302
# 2 0.000397 0.015361 -0.002160 0.008251 0.007118 -0.005998
# 3 -0.000946 -0.002160 0.016934 0.007949 0.003718 0.001253
# 4 0.002367 0.008251 0.007949 0.033426 0.010136 0.000703
# 5 0.005149 0.007118 0.003718 0.010136 0.032186 -0.004354
# 6 0.001302 -0.005998 0.001253 0.000703 -0.004354 0.033819
#
#
# Mechanical properties :
#
#
# Convention : Reuss Voigt Hill
#
# Bulk Modulus (GPa) = 26.29287 42.06654 34.17971
# Shear Modulus (GPa) = 31.05970 38.20562 34.63266
#
# Velocity S-wave (km/s) = 3.72285 4.12896 3.93116
# Velocity P-wave (km/s) = 5.49655 6.44223 5.98809
#
# Compressibility (1/GPa) = 0.03803312
#
# Stress axis : x y z
#
# Youngs Moduli (GPa) = 89.62395 65.10041 59.05429
#
# Poissons Ratio (x) = -0.02584 0.05589
# Poissons Ratio (y) = -0.03557 0.12756
# Poissons Ratio (z) = 0.08483 0.14061
#
# Static dielectric constant tensor:
#      x y z
#    x 1.835130 0.043600 0.075280 
#    y 0.043600 1.983970 0.069270 
#    z 0.075280 0.069270 1.930920 
# 
# From -- ./inp_files/390137.got.cif
#   From: 2010.05.17/outbox.cif.g08.bks.cpg/sg2_196_cif.got.tgz:390137.got - 2010.06.03 11:33:40.
