data_PCOD9084816
_publ_section_title
;
Structure prediction by ZEFSAII (Michael W. Deem and Ramdas Pophale) SiO2 
 PCOD9084816
Probable space group: P -1
;
_chemical_formula_sum "Si O2"
_cell_formula_units_Z 16
_cell_length_a 20.579821
_cell_length_b 13.325280
_cell_length_c 8.840810
_cell_angle_alpha 54.340535
_cell_angle_beta 146.420140
_cell_angle_gamma 134.382770
_cell_volume 958.354217
_symmetry_space_group_name_H-M "P -1"
_symmetry_group_IT_number 2
_symmetry_cell_setting 'triclinic'
loop_
_space_group_symop_operation_xyz
x,y,z
-x,-y,-z
loop_
_atom_site_type_symbol
_atom_site_label
_atom_site_fract_x
_atom_site_fract_y
_atom_site_fract_z
Si Si1 0.000078 0.105857 0.541023
Si Si2 0.246558 0.115646 0.554714
Si Si3 0.000060 0.350859 0.124455
Si Si4 0.553715 0.660170 0.820008
Si Si5 0.716463 0.104537 0.714052
Si Si6 0.246656 0.130868 0.185386
Si Si7 0.446375 0.106823 0.158924
Si Si8 0.716515 0.611974 0.435313
O O1 0.000188 0.245127 0.352117
O O2 0.872881 0.014547 0.478309
O O3 0.000000 0.000000 0.500000
O O4 0.127188 0.141405 0.860039
O O5 0.228066 0.114058 0.342174
O O6 0.256330 0.254926 0.527418
O O7 0.381182 0.115503 0.868698
O O8 0.144030 0.390404 0.295935
O O9 0.856072 0.246233 0.864309
O O10 0.000000 0.500000 0.000000
O O11 0.618839 0.734210 0.725126
O O12 0.535269 0.767436 0.803026
O O13 0.411422 0.527276 0.633649
O O14 0.660433 0.628817 0.147001
O O15 0.588697 0.116315 0.399443
O O16 0.743337 0.998597 0.757346
O O17 0.660314 0.031273 0.834134
#
# Coordination Sequence:
#
# PCOD9084816 Si02
#       8
#     2   2   2   2   2   2   2   2
#     4  12  19  40  61  85 115 145 195 244 273 337
#     4  11  21  34  59  87 114 154 191 230 288 344
#     4  12  22  34  62  90 108 142 190 250 290 324
#     4   9  18  34  56  84 112 148 191 240 277 328
#     4  10  19  35  57  82 114 146 194 237 279 330
#     4  11  21  34  59  87 114 154 191 230 288 344
#     4   9  18  34  56  84 112 148 191 240 277 328
#     4  10  19  35  57  82 114 146 194 237 279 330
#
# _framework density 16.695288999999999
#
# number of rings (size 3 to 8) (size 9 to 14) (size 15 to 20)
#    0.000    1.500    5.000    1.875    0.000    1.000 
#    0.000    0.000    0.000    1.500    0.000    0.000 
#    0.000    0.000    0.000    0.000    0.000    0.000 
#
# Total GULP energy -89083.674019 kJ/mol
# GULP energy per Si atom -5567.729626 kJ/mol
# Density = 1.665729 g / cm^3
# Si number density = 16.695289 Si / 1000 Ang^3
#
#
#
# Elastic Constant Matrix: (Units=GPa)
#
#
# Indices 1 2 3 4 5 6 
#
# 1 82.8394 46.6296 65.8374 -0.6851 1.6329 15.0474
# 2 46.6296 151.8360 35.6739 26.1020 2.1213 38.6740
# 3 65.8374 35.6739 147.3918 -24.9845 26.1743 -11.2521
# 4 -0.6851 26.1020 -24.9845 47.2503 -4.5635 23.6434
# 5 1.6329 2.1213 26.1743 -4.5635 37.7557 -9.1092
# 6 15.0474 38.6740 -11.2521 23.6434 -9.1092 30.5658
#
#
#
# Elastic Compliance Matrix: (Units=1/GPa)
#
#
# Indices 1 2 3 4 5 6 
#
# 1 0.026050 -0.001171 -0.012830 0.003374 0.004025 -0.017477
# 2 -0.001171 0.011894 -0.003266 -0.000574 -0.002260 -0.015905
# 3 -0.012830 -0.003266 0.016094 0.003778 -0.007237 0.011294
# 4 0.003374 -0.000574 0.003778 0.038488 -0.005553 -0.030970
# 5 0.004025 -0.002260 -0.007237 -0.005553 0.033822 0.012589
# 6 -0.017477 -0.015905 0.011294 -0.030970 0.012589 0.093310
#
#
# Mechanical properties :
#
#
# Convention : Reuss Voigt Hill
#
# Bulk Modulus (GPa) = 51.26802 75.37211 63.32007
# Shear Modulus (GPa) = 19.17952 38.70944 28.94448
#
# Velocity S-wave (km/s) = 3.39307 4.82039 4.16828
# Velocity P-wave (km/s) = 6.79156 8.73071 7.82146
#
# Compressibility (1/GPa) = 0.01950534
#
# Stress axis : x y z
#
# Youngs Moduli (GPa) = 38.38721 84.07321 62.13546
#
# Poissons Ratio (x) = 0.09841 0.79719
# Poissons Ratio (y) = 0.04493 0.20295
# Poissons Ratio (z) = 0.49250 0.27460
#
# Static dielectric constant tensor:
#      x y z
#    x 1.539990 0.020760 0.015630 
#    y 0.020760 1.590980 -0.019410 
#    z 0.015630 -0.019410 1.577990 
# 
# From -- ./inp_files/260218.got.cif
#   From: 2010.05.17/outbox.cif.g08.bks.cpg/sg2_131_cif.got.tgz:260218.got - 2010.06.03 11:33:40.
