data_PCOD9084810
_publ_section_title
;
Structure prediction by ZEFSAII (Michael W. Deem and Ramdas Pophale) SiO2 
 PCOD9084810
Probable space group: P -1
;
_chemical_formula_sum "Si O2"
_cell_formula_units_Z 14
_cell_length_a 11.582611
_cell_length_b 12.184394
_cell_length_c 8.064355
_cell_angle_alpha 95.915460
_cell_angle_beta 110.690904
_cell_angle_gamma 139.773782
_cell_volume 541.047710
_symmetry_space_group_name_H-M "P -1"
_symmetry_group_IT_number 2
_symmetry_cell_setting 'triclinic'
loop_
_space_group_symop_operation_xyz
x,y,z
-x,-y,-z
loop_
_atom_site_type_symbol
_atom_site_label
_atom_site_fract_x
_atom_site_fract_y
_atom_site_fract_z
Si Si1 0.333877 0.228478 0.753082
Si Si2 0.239169 0.219404 0.066737
Si Si3 0.315563 0.955097 0.362841
Si Si4 0.393819 0.740517 0.945603
Si Si5 0.373861 0.612986 0.556245
Si Si6 0.844499 0.218806 0.114725
Si Si7 0.932822 0.784789 0.293414
O O1 0.144020 0.030851 0.498874
O O2 0.257909 0.160511 0.899042
O O3 0.559070 0.316594 0.899219
O O4 0.293419 0.332876 0.737099
O O5 0.451284 0.355913 0.321128
O O6 0.000000 0.000000 0.000000
O O7 0.178068 0.287439 0.958911
O O8 0.479907 0.190315 0.454945
O O9 0.098972 0.803973 0.363494
O O10 0.500000 0.000000 0.500000
O O11 0.205993 0.849194 0.110630
O O12 0.341343 0.643613 0.726570
O O13 0.192424 0.677786 0.869834
O O14 0.641484 0.001881 0.089381
O O15 0.109429 0.383809 0.323968
#
# Coordination Sequence:
#
# PCOD9084810 Si02
#       7
#     2   2   2   2   2   2   2
#     4   8  16  30  57  79 102 152 186 218 278 339
#     4   9  15  30  57  81 106 144 185 227 272 328
#     4  11  22  35  55  79 115 149 184 235 283 334
#     4   9  18  35  57  80 114 142 185 233 283 332
#     4  10  19  35  57  82 110 147 190 233 279 331
#     4  10  21  34  54  88 109 145 190 232 282 335
#     4   9  17  32  55  80 109 148 187 221 280 334
#
# _framework density 25.875720999999999
#
# number of rings (size 3 to 8) (size 9 to 14) (size 15 to 20)
#    0.857    1.714    1.429    1.286    0.000    0.571 
#    0.000    0.714    0.000    2.571    0.000    0.000 
#    0.000    0.000    0.000    0.000    0.000    0.000 
#
# Total GULP energy -78017.714153 kJ/mol
# GULP energy per Si atom -5572.693868 kJ/mol
# Density = 2.581683 g / cm^3
# Si number density = 25.875721 Si / 1000 Ang^3
#
#
#
# Elastic Constant Matrix: (Units=GPa)
#
#
# Indices 1 2 3 4 5 6 
#
# 1 137.6831 27.1776 35.5520 0.2280 35.7720 -5.1332
# 2 27.1776 85.7278 39.4779 0.3991 11.1656 -19.1695
# 3 35.5520 39.4779 157.9222 12.7780 48.0699 2.9646
# 4 0.2280 0.3991 12.7780 15.9729 1.6627 7.7103
# 5 35.7720 11.1656 48.0699 1.6627 53.7330 -5.1486
# 6 -5.1332 -19.1695 2.9646 7.7103 -5.1486 25.1651
#
#
#
# Elastic Compliance Matrix: (Units=1/GPa)
#
#
# Indices 1 2 3 4 5 6 
#
# 1 0.009225 -0.002742 0.000430 0.001137 -0.006170 -0.001868
# 2 -0.002742 0.017914 -0.005124 -0.004460 0.004353 0.015947
# 3 0.000430 -0.005124 0.010850 -0.004944 -0.009301 -0.005482
# 4 0.001137 -0.004460 -0.004944 0.079802 -0.000477 -0.027131
# 5 -0.006170 0.004353 -0.009301 -0.000477 0.031074 0.009657
# 6 -0.001868 0.015947 -0.005482 -0.027131 0.009657 0.062438
#
#
# Mechanical properties :
#
#
# Convention : Reuss Voigt Hill
#
# Bulk Modulus (GPa) = 43.25991 65.08314 54.17153
# Shear Modulus (GPa) = 21.37832 37.58257 29.48045
#
# Velocity S-wave (km/s) = 2.87747 3.81521 3.37903
# Velocity P-wave (km/s) = 5.27204 6.67941 6.01702
#
# Compressibility (1/GPa) = 0.02311609
#
# Stress axis : x y z
#
# Youngs Moduli (GPa) = 108.40238 55.82356 92.16287
#
# Poissons Ratio (x) = 0.15306 -0.03963
# Poissons Ratio (y) = 0.29723 0.47228
# Poissons Ratio (z) = -0.04661 0.28606
#
# Static dielectric constant tensor:
#      x y z
#    x 2.342810 -1.095800 -0.320100 
#    y -1.095800 7.384800 1.845140 
#    z -0.320100 1.845140 2.616190 
# 
# From -- ./inp_files/270725.got.cif
#   From: 2010.05.17/outbox.cif.g08.bks.cpg/sg2_136_cif.got.tgz:270725.got - 2010.06.03 11:33:40.
