data_PCOD9084857
_publ_section_title
;
Structure prediction by ZEFSAII (Michael W. Deem and Ramdas Pophale) SiO2 
 PCOD9084857
Probable space group: P -1
;
_chemical_formula_sum "Si O2"
_cell_formula_units_Z 16
_cell_length_a 17.754548
_cell_length_b 11.481806
_cell_length_c 18.268649
_cell_angle_alpha 26.692367
_cell_angle_beta 32.873823
_cell_angle_gamma 31.872602
_cell_volume 830.038312
_symmetry_space_group_name_H-M "P -1"
_symmetry_group_IT_number 2
_symmetry_cell_setting 'triclinic'
loop_
_space_group_symop_operation_xyz
x,y,z
-x,-y,-z
loop_
_atom_site_type_symbol
_atom_site_label
_atom_site_fract_x
_atom_site_fract_y
_atom_site_fract_z
Si Si1 0.795092 0.559009 0.799774
Si Si2 0.608187 0.766780 0.486792
Si Si3 0.278775 0.970944 0.886386
Si Si4 0.512294 0.903571 0.254108
Si Si5 0.440153 0.561799 0.627901
Si Si6 0.046086 0.782973 0.014374
Si Si7 0.875415 0.978513 0.329822
Si Si8 0.900276 0.456272 0.518701
O O1 0.950867 0.538349 0.646706
O O2 0.656736 0.858216 0.736903
O O3 0.743610 0.319889 0.943219
O O4 0.833293 0.493770 0.891098
O O5 0.518513 0.594973 0.620091
O O6 0.761674 0.550665 0.522234
O O7 0.500000 0.000000 0.500000
O O8 0.645410 0.951680 0.289668
O O9 0.372173 0.965499 0.885700
O O10 0.110050 0.219966 0.884657
O O11 0.524954 0.670835 0.436147
O O12 0.545449 0.742865 0.240068
O O13 0.265227 0.783088 0.649503
O O14 0.107291 0.897625 0.832194
O O15 0.000000 0.000000 0.000000
O O16 0.844726 0.702118 0.488019
O O17 0.029439 0.844633 0.327289
#
# Coordination Sequence:
#
# PCOD9084857 Si02
#       8
#     2   2   2   2   2   2   2   2
#     4  11  19  37  62  87 118 152 196 243 289 347
#     4  11  21  36  60  90 117 151 192 245 294 342
#     4  10  20  35  59  88 118 152 194 240 296 346
#     4  10  22  40  56  86 119 163 194 235 292 352
#     4  10  22  39  60  82 124 157 194 240 294 344
#     4  10  19  35  57  85 121 150 184 247 299 337
#     4  11  20  35  60  86 120 151 191 243 288 343
#     4  11  20  34  60  94 113 144 202 243 288 338
#
# _framework density 19.276219000000001
#
# number of rings (size 3 to 8) (size 9 to 14) (size 15 to 20)
#    0.000    1.500    6.250    1.125    0.000    0.000 
#    2.250    3.125    0.000    0.000    0.000    0.000 
#    0.000    0.000    0.000    0.000    0.000    0.000 
#
# Total GULP energy -89176.110575 kJ/mol
# GULP energy per Si atom -5573.506911 kJ/mol
# Density = 1.923235 g / cm^3
# Si number density = 19.276219 Si / 1000 Ang^3
#
#
#
# Elastic Constant Matrix: (Units=GPa)
#
#
# Indices 1 2 3 4 5 6 
#
# 1 129.3315 72.1045 23.7647 -1.5363 -3.3972 -13.2182
# 2 72.1045 90.7237 7.8557 0.5071 -24.0077 -3.7287
# 3 23.7647 7.8557 41.9705 2.8093 7.5329 1.3319
# 4 -1.5363 0.5071 2.8093 16.0624 -7.2830 4.2611
# 5 -3.3972 -24.0077 7.5329 -7.2830 20.1869 2.3394
# 6 -13.2182 -3.7287 1.3319 4.2611 2.3394 29.4177
#
#
#
# Elastic Compliance Matrix: (Units=1/GPa)
#
#
# Indices 1 2 3 4 5 6 
#
# 1 0.022944 -0.026656 -0.001169 -0.015529 -0.034394 0.011968
# 2 -0.026656 0.052779 -0.010676 0.037162 0.077570 -0.016356
# 3 -0.001169 -0.010676 0.033884 -0.021565 -0.033594 0.002382
# 4 -0.015529 0.037162 -0.021565 0.112140 0.092976 -0.024928
# 5 -0.034394 0.077570 -0.033594 0.092976 0.185828 -0.032346
# 6 0.011968 -0.016356 0.002382 -0.024928 -0.032346 0.043373
#
#
# Mechanical properties :
#
#
# Convention : Reuss Voigt Hill
#
# Bulk Modulus (GPa) = 30.67135 52.16395 41.41765
# Shear Modulus (GPa) = 9.27955 23.68679 16.48317
#
# Velocity S-wave (km/s) = 2.19646 3.50924 2.92739
# Velocity P-wave (km/s) = 4.73060 6.59846 5.74101
#
# Compressibility (1/GPa) = 0.03260372
#
# Stress axis : x y z
#
# Youngs Moduli (GPa) = 43.58518 18.94676 29.51262
#
# Poissons Ratio (x) = 0.50505 0.03451
# Poissons Ratio (y) = 1.16182 0.31508
# Poissons Ratio (z) = 0.05096 0.20228
#
# Static dielectric constant tensor:
#      x y z
#    x 1.731140 -0.020070 0.015300 
#    y -0.020070 1.678480 -0.010510 
#    z 0.015300 -0.010510 1.728600 
# 
# From -- ./inp_files/419338.got.cif
#   From: 2010.05.17/outbox.cif.g08.bks.cpg/sg2_210_cif.got.tgz:419338.got - 2010.06.03 11:33:40.
