data_PCOD9084351
_publ_section_title
;
Structure prediction by ZEFSAII (Michael W. Deem and Ramdas Pophale) SiO2 
 PCOD9084351
Probable space group: P -1
;
_chemical_formula_sum "Si O2"
_cell_formula_units_Z 16
_cell_length_a 7.975768
_cell_length_b 13.874803
_cell_length_c 16.057502
_cell_angle_alpha 35.430232
_cell_angle_beta 134.390968
_cell_angle_gamma 137.291716
_cell_volume 675.345025
_symmetry_space_group_name_H-M "P -1"
_symmetry_group_IT_number 2
_symmetry_cell_setting 'triclinic'
loop_
_space_group_symop_operation_xyz
x,y,z
-x,-y,-z
loop_
_atom_site_type_symbol
_atom_site_label
_atom_site_fract_x
_atom_site_fract_y
_atom_site_fract_z
Si Si1 0.909162 0.101170 0.826790
Si Si2 0.183559 0.779382 0.596429
Si Si3 0.450629 0.261840 0.818942
Si Si4 0.754138 0.840232 0.733079
Si Si5 0.711763 0.041974 0.148888
Si Si6 0.968602 0.519403 0.375381
Si Si7 0.396769 0.366728 0.327172
Si Si8 0.642141 0.006294 0.340651
O O1 0.150002 0.195563 0.782811
O O2 0.871406 0.271886 0.735279
O O3 0.640585 0.989250 0.767005
O O4 0.000000 0.000000 0.000000
O O5 0.458520 0.763159 0.711250
O O6 0.002792 0.617250 0.587823
O O7 0.155330 0.835912 0.642272
O O8 0.212652 0.961204 0.428836
O O9 0.606092 0.478102 0.720945
O O10 0.449166 0.148191 0.816918
O O11 0.575518 0.178708 0.990670
O O12 0.779902 0.710479 0.759587
O O13 0.002855 0.873334 0.851105
O O14 0.731918 0.010795 0.274936
O O15 0.668904 0.474200 0.301186
O O16 0.000000 0.500000 0.500000
O O17 0.402204 0.187980 0.498154
#
# Coordination Sequence:
#
# PCOD9084351 Si02
#       8
#     2   2   2   2   2   2   2   2
#     4  11  21  38  63  86 117 154 191 250 288 340
#     4   9  20  36  60  92 112 149 198 241 285 348
#     4  10  23  39  58  85 118 154 201 233 291 348
#     4   9  19  36  61  83 117 153 191 232 295 345
#     4  11  23  37  58  84 118 164 188 237 292 347
#     4  10  19  34  63  92 113 143 196 243 291 337
#     4   9  20  36  59  88 113 148 196 241 282 348
#     4  11  21  38  60  88 120 151 196 240 292 337
#
# _framework density 23.691593999999998
#
# number of rings (size 3 to 8) (size 9 to 14) (size 15 to 20)
#    0.000    2.000    2.500    1.500    3.500    3.000 
#    0.000    1.875    2.750    0.000    0.000    0.000 
#    0.000    0.000    0.000    0.000    0.000    0.000 
#
# Total GULP energy -89150.812594 kJ/mol
# GULP energy per Si atom -5571.925787 kJ/mol
# Density = 2.363767 g / cm^3
# Si number density = 23.691594 Si / 1000 Ang^3
#
#
#
# Elastic Constant Matrix: (Units=GPa)
#
#
# Indices 1 2 3 4 5 6 
#
# 1 45.7920 4.2519 4.0815 -6.7111 1.7167 -2.8317
# 2 4.2519 149.4197 33.8548 -7.9454 0.2582 -36.7268
# 3 4.0815 33.8548 56.2462 -1.1399 9.2994 -17.6652
# 4 -6.7111 -7.9454 -1.1399 21.3252 1.8107 13.7673
# 5 1.7167 0.2582 9.2994 1.8107 27.0902 14.3162
# 6 -2.8317 -36.7268 -17.6652 13.7673 14.3162 46.8963
#
#
#
# Elastic Compliance Matrix: (Units=1/GPa)
#
#
# Indices 1 2 3 4 5 6 
#
# 1 0.023146 -0.000235 -0.001859 0.008288 -0.000436 -0.001787
# 2 -0.000235 0.009045 -0.002646 -0.001356 -0.002971 0.007378
# 3 -0.001859 -0.002646 0.027076 -0.008875 -0.016896 0.015778
# 4 0.008288 -0.001356 -0.008875 0.064679 0.012292 -0.026645
# 5 -0.000436 -0.002971 -0.016896 0.012292 0.057784 -0.029966
# 6 -0.001787 0.007378 0.015778 -0.026645 -0.029966 0.049907
#
#
# Mechanical properties :
#
#
# Convention : Reuss Voigt Hill
#
# Bulk Modulus (GPa) = 20.08617 37.31492 28.70054
# Shear Modulus (GPa) = 19.40137 33.01367 26.20752
#
# Velocity S-wave (km/s) = 2.86477 3.73698 3.32956
# Velocity P-wave (km/s) = 4.40898 5.86553 5.18862
#
# Compressibility (1/GPa) = 0.04978549
#
# Stress axis : x y z
#
# Youngs Moduli (GPa) = 43.20422 110.55387 36.93357
#
# Poissons Ratio (x) = 0.02599 0.06866
# Poissons Ratio (y) = 0.01016 0.09774
# Poissons Ratio (z) = 0.08032 0.29257
#
# Static dielectric constant tensor:
#      x y z
#    x 2.111690 -0.118580 0.112680 
#    y -0.118580 2.031960 -0.090480 
#    z 0.112680 -0.090480 1.989610 
# 
# From -- ./inp_files/205282.got.cif
#   From: 2010.05.17/outbox.cif.g08.bks.cpg/sg2_103_cif.got.tgz:205282.got - 2010.06.03 11:33:40.
