data_PCOD9084678
_publ_section_title
;
Structure prediction by ZEFSAII (Michael W. Deem and Ramdas Pophale) SiO2 
 PCOD9084678
Probable space group: P -1
;
_chemical_formula_sum "Si O2"
_cell_formula_units_Z 16
_cell_length_a 19.875977
_cell_length_b 12.588257
_cell_length_c 8.639695
_cell_angle_alpha 55.819950
_cell_angle_beta 145.440631
_cell_angle_gamma 138.203178
_cell_volume 809.460044
_symmetry_space_group_name_H-M "P -1"
_symmetry_group_IT_number 2
_symmetry_cell_setting 'triclinic'
loop_
_space_group_symop_operation_xyz
x,y,z
-x,-y,-z
loop_
_atom_site_type_symbol
_atom_site_label
_atom_site_fract_x
_atom_site_fract_y
_atom_site_fract_z
Si Si1 0.487963 0.592954 0.259589
Si Si2 0.994888 0.243394 0.283246
Si Si3 0.792161 0.464318 0.339418
Si Si4 0.214917 0.286809 0.407482
Si Si5 0.921501 0.632117 0.155777
Si Si6 0.891302 0.057838 0.541744
Si Si7 0.393549 0.051698 0.727358
Si Si8 0.203915 0.796993 0.336844
O O1 0.500000 0.500000 0.500000
O O2 0.613777 0.641445 0.330949
O O3 0.523984 0.758480 0.260208
O O4 0.329743 0.504698 0.947806
O O5 0.073672 0.403986 0.404111
O O6 0.126873 0.269772 0.407876
O O7 0.924731 0.099549 0.390574
O O8 0.866084 0.212525 0.952036
O O9 0.855660 0.485689 0.268376
O O10 0.721515 0.293575 0.426289
O O11 0.127548 0.104529 0.327412
O O12 0.199421 0.392712 0.170646
O O13 0.060191 0.688589 0.264929
O O14 0.979248 0.786661 0.246381
O O15 0.738854 0.026743 0.332465
O O16 0.309595 0.972373 0.470029
O O17 0.500000 0.000000 0.000000
#
# Coordination Sequence:
#
# PCOD9084678 Si02
#       8
#     2   2   2   2   2   2   2   2
#     4  11  22  38  60  88 117 152 195 237 290 346
#     4  10  22  37  55  86 117 154 190 236 288 339
#     4  11  20  36  58  82 122 151 191 235 289 343
#     4  10  19  35  56  80 118 152 194 233 286 342
#     4   9  18  32  56  86 108 148 193 246 285 328
#     4   9  19  34  57  84 114 149 193 238 287 338
#     4  10  20  39  64  85 113 152 194 244 286 337
#     4  10  20  37  60  85 114 148 198 240 285 339
#
# _framework density 19.766264
#
# number of rings (size 3 to 8) (size 9 to 14) (size 15 to 20)
#    0.000    2.000    2.500    1.500    0.000    1.500 
#    2.250    1.875    0.000    0.000    0.000    0.000 
#    0.000    0.000    0.000    0.000    0.000    0.000 
#
# Total GULP energy -89174.989284 kJ/mol
# GULP energy per Si atom -5573.436830 kJ/mol
# Density = 1.972127 g / cm^3
# Si number density = 19.766264 Si / 1000 Ang^3
#
#
#
# Elastic Constant Matrix: (Units=GPa)
#
#
# Indices 1 2 3 4 5 6 
#
# 1 70.2919 5.8041 32.5123 -8.2405 -8.5664 3.2779
# 2 5.8041 53.9481 19.6925 -6.4058 -5.1830 2.0616
# 3 32.5123 19.6925 104.4731 -3.6865 -13.9379 1.8873
# 4 -8.2405 -6.4058 -3.6865 28.3392 1.1500 1.3364
# 5 -8.5664 -5.1830 -13.9379 1.1500 26.8331 -2.0080
# 6 3.2779 2.0616 1.8873 1.3364 -2.0080 19.0822
#
#
#
# Elastic Compliance Matrix: (Units=1/GPa)
#
#
# Indices 1 2 3 4 5 6 
#
# 1 0.017480 0.000869 -0.005027 0.004639 0.002741 -0.002636
# 2 0.000869 0.020590 -0.003691 0.004446 0.001989 -0.002111
# 3 -0.005027 -0.003691 0.012348 -0.000885 0.004175 0.000542
# 4 0.004639 0.004446 -0.000885 0.037707 -0.000023 -0.003833
# 5 0.002741 0.001989 0.004175 -0.000023 0.040936 0.003211
# 6 -0.002636 -0.002111 0.000542 -0.003833 0.003211 0.053638
#
#
# Mechanical properties :
#
#
# Convention : Reuss Voigt Hill
#
# Bulk Modulus (GPa) = 28.80147 38.30344 33.55246
# Shear Modulus (GPa) = 23.81280 26.23119 25.02199
#
# Velocity S-wave (km/s) = 3.47467 3.64685 3.56180
# Velocity P-wave (km/s) = 5.54080 6.09532 5.82466
#
# Compressibility (1/GPa) = 0.03472045
#
# Stress axis : x y z
#
# Youngs Moduli (GPa) = 57.20673 48.56773 80.98564
#
# Poissons Ratio (x) = -0.04221 0.40710
# Poissons Ratio (y) = -0.04972 0.29894
# Poissons Ratio (z) = 0.28756 0.17927
#
# Static dielectric constant tensor:
#      x y z
#    x 1.715870 -0.019720 0.038410 
#    y -0.019720 1.707450 -0.015140 
#    z 0.038410 -0.015140 1.712170 
# 
# From -- ./inp_files/346065.got.cif
#   From: 2010.05.17/outbox.cif.g08.bks.cpg/sg2_174_cif.got.tgz:346065.got - 2010.06.03 11:33:40.
