data_PCOD9084031
_publ_section_title
;
Structure prediction by ZEFSAII (Michael W. Deem and Ramdas Pophale) SiO2 
 PCOD9084031
Probable space group: P -1
;
_chemical_formula_sum "Si O2"
_cell_formula_units_Z 16
_cell_length_a 8.920418
_cell_length_b 18.936494
_cell_length_c 5.422533
_cell_angle_alpha 49.048104
_cell_angle_beta 106.406949
_cell_angle_gamma 115.178438
_cell_volume 626.065703
_symmetry_space_group_name_H-M "P -1"
_symmetry_group_IT_number 2
_symmetry_cell_setting 'triclinic'
loop_
_space_group_symop_operation_xyz
x,y,z
-x,-y,-z
loop_
_atom_site_type_symbol
_atom_site_label
_atom_site_fract_x
_atom_site_fract_y
_atom_site_fract_z
Si Si1 0.731782 0.071613 0.948597
Si Si2 0.648480 0.522417 0.325128
Si Si3 0.876136 0.393475 0.111148
Si Si4 0.008478 0.669081 0.203336
Si Si5 0.682269 0.852492 0.417744
Si Si6 0.820186 0.122138 0.365206
Si Si7 0.449900 0.637095 0.736778
Si Si8 0.877746 0.909800 0.885483
O O1 0.729843 0.127378 0.567140
O O2 0.695878 0.109364 0.107961
O O3 0.930346 0.082872 0.042743
O O4 0.640014 0.954342 0.155532
O O5 0.500000 0.500000 0.500000
O O6 0.641430 0.422258 0.409946
O O7 0.825650 0.592487 0.338499
O O8 0.599427 0.593850 0.941967
O O9 0.900571 0.324062 0.506364
O O10 0.690187 0.393027 0.050286
O O11 0.920244 0.371668 0.906889
O O12 0.000000 0.500000 0.000000
O O13 0.031320 0.778496 0.860017
O O14 0.529886 0.754149 0.525059
O O15 0.770826 0.858133 0.714184
O O16 0.800048 0.859022 0.220707
O O17 0.866752 0.021256 0.634291
#
# Coordination Sequence:
#
# PCOD9084031 Si02
#       8
#     2   2   2   2   2   2   2   2
#     4  10  19  34  59  92 138 172 221 264 343 402
#     4  11  27  45  67 108 136 174 220 305 353 390
#     4  12  26  51  71  97 134 196 236 277 329 430
#     4  12  27  44  77  98 138 185 237 273 352 400
#     4  10  21  35  59  94 126 178 211 274 333 403
#     4  10  20  36  59  95 130 165 223 281 315 397
#     4  11  27  44  70  98 145 173 232 284 353 406
#     4  10  20  34  58  94 136 174 220 263 343 408
#
# _framework density 25.556425999999998
#
# number of rings (size 3 to 8) (size 9 to 14) (size 15 to 20)
#    0.000    1.250    1.250    5.625   10.500    0.000 
#    0.000    0.000    0.000   18.000    0.000    0.000 
#    0.000    0.000    0.000    0.000    0.000    0.000 
#
# Total GULP energy -89536.245485 kJ/mol
# GULP energy per Si atom -5596.015343 kJ/mol
# Density = 2.549826 g / cm^3
# Si number density = 25.556426 Si / 1000 Ang^3
#
#
#
# Elastic Constant Matrix: (Units=GPa)
#
#
# Indices 1 2 3 4 5 6 
#
# 1 75.5883 47.6819 29.6013 4.6017 -8.4542 5.6192
# 2 47.6819 169.8736 74.9816 -8.9479 -15.0563 1.8564
# 3 29.6013 74.9816 144.0452 18.7750 -18.0686 3.1218
# 4 4.6017 -8.9479 18.7750 64.2429 1.4401 -9.9544
# 5 -8.4542 -15.0563 -18.0686 1.4401 43.3651 8.3302
# 6 5.6192 1.8564 3.1218 -9.9544 8.3302 35.7873
#
#
#
# Elastic Compliance Matrix: (Units=1/GPa)
#
#
# Indices 1 2 3 4 5 6 
#
# 1 0.016854 -0.004375 -0.000525 -0.002263 0.002303 -0.003539
# 2 -0.004375 0.009164 -0.004277 0.003051 0.000178 0.001392
# 3 -0.000525 -0.004277 0.010267 -0.004016 0.003300 -0.002477
# 4 -0.002263 0.003051 -0.004016 0.018372 -0.002881 0.006328
# 5 0.002303 0.000178 0.003300 -0.002881 0.026507 -0.007630
# 6 -0.003539 0.001392 -0.002477 0.006328 -0.007630 0.032179
#
#
# Mechanical properties :
#
#
# Convention : Reuss Voigt Hill
#
# Bulk Modulus (GPa) = 55.77086 77.11519 66.44302
# Shear Modulus (GPa) = 36.31774 44.49522 40.40648
#
# Velocity S-wave (km/s) = 3.77381 4.17713 3.98058
# Velocity P-wave (km/s) = 6.39210 7.31468 6.86889
#
# Compressibility (1/GPa) = 0.01793051
#
# Stress axis : x y z
#
# Youngs Moduli (GPa) = 59.33439 109.12577 97.39489
#
# Poissons Ratio (x) = 0.47744 0.05118
# Poissons Ratio (y) = 0.25960 0.41651
# Poissons Ratio (z) = 0.03118 0.46668
#
# Static dielectric constant tensor:
#      x y z
#    x 2.057140 -0.038110 0.015240 
#    y -0.038110 2.042620 0.077040 
#    z 0.015240 0.077040 2.167440 
# 
# From -- ./inp_files/52242.got.cif
#   From: 2010.05.17/outbox.cif.g08.bks.cpg/sg2_27_cif.got.tgz:52242.got - 2010.06.03 11:33:40.
