data_PCOD9084700
_publ_section_title
;
Structure prediction by ZEFSAII (Michael W. Deem and Ramdas Pophale) SiO2 
 PCOD9084700
Probable space group: P -1
;
_chemical_formula_sum "Si O2"
_cell_formula_units_Z 12
_cell_length_a 15.711110
_cell_length_b 12.129230
_cell_length_c 11.612284
_cell_angle_alpha 144.427766
_cell_angle_beta 141.564555
_cell_angle_gamma 26.847532
_cell_volume 567.221196
_symmetry_space_group_name_H-M "P -1"
_symmetry_group_IT_number 2
_symmetry_cell_setting 'triclinic'
loop_
_space_group_symop_operation_xyz
x,y,z
-x,-y,-z
loop_
_atom_site_type_symbol
_atom_site_label
_atom_site_fract_x
_atom_site_fract_y
_atom_site_fract_z
Si Si1 0.702039 0.391911 0.081503
Si Si2 0.787353 0.588966 0.747641
Si Si3 0.913132 0.065949 0.802271
Si Si4 0.473054 0.198521 0.937788
Si Si5 0.128129 0.473054 0.946604
Si Si6 0.523065 0.422083 0.590838
O O1 0.500000 0.500000 0.000000
O O2 0.806337 0.166951 0.899951
O O3 0.639042 0.646572 0.167491
O O4 0.875705 0.233066 0.222321
O O5 0.638686 0.571368 0.541326
O O6 0.980246 0.444139 0.758961
O O7 0.842283 0.508380 0.871551
O O8 0.669605 0.898926 0.875465
O O9 0.745963 0.145121 0.611430
O O10 0.934674 0.267987 0.961125
O O11 0.505300 0.365660 0.179044
O O12 0.331739 0.221782 0.892011
O O13 0.500000 0.500000 0.500000
#
# Coordination Sequence:
#
# PCOD9084700 Si02
#       6
#     2   2   2   2   2   2
#     4   9  17  33  58  78 102 145 189 221 263 321
#     4  11  19  35  56  79 114 146 175 224 269 330
#     4   9  18  34  55  79 110 143 179 226 270 315
#     4  10  21  36  57  80 109 146 182 222 275 319
#     4   9  19  32  53  81 109 143 182 214 272 325
#     4  10  19  35  56  83 114 144 177 223 277 324
#
# _framework density 21.155768999999999
#
# number of rings (size 3 to 8) (size 9 to 14) (size 15 to 20)
#    0.000    2.667    3.333    1.500    0.000    0.000 
#    0.000   10.833    0.000   32.000    0.000    0.000 
#    0.000    0.000    0.000    0.000    0.000    0.000 
#
# Total GULP energy -66902.993344 kJ/mol
# GULP energy per Si atom -5575.249445 kJ/mol
# Density = 2.110762 g / cm^3
# Si number density = 21.155769 Si / 1000 Ang^3
#
#
#
# Elastic Constant Matrix: (Units=GPa)
#
#
# Indices 1 2 3 4 5 6 
#
# 1 86.0682 36.4170 11.5393 -29.8915 22.4993 -20.6880
# 2 36.4170 100.4326 41.6282 -29.1919 0.9265 -4.1875
# 3 11.5393 41.6282 64.9318 -31.1514 23.9094 -4.9712
# 4 -29.8915 -29.1919 -31.1514 33.5870 -10.5652 4.7737
# 5 22.4993 0.9265 23.9094 -10.5652 27.5387 -14.6435
# 6 -20.6880 -4.1875 -4.9712 4.7737 -14.6435 34.8660
#
#
#
# Elastic Compliance Matrix: (Units=1/GPa)
#
#
# Indices 1 2 3 4 5 6 
#
# 1 0.066729 -0.036578 0.083913 0.074620 -0.100258 -0.005158
# 2 -0.036578 0.038163 -0.060345 -0.033701 0.073182 0.009626
# 3 0.083913 -0.060345 0.155428 0.116523 -0.168469 -0.022006
# 4 0.074620 -0.033701 0.116523 0.141113 -0.111898 -0.009474
# 5 -0.100258 0.073182 -0.168469 -0.111898 0.241432 0.042001
# 6 -0.005158 0.009626 -0.022006 -0.009474 0.042001 0.042576
#
#
# Mechanical properties :
#
#
# Convention : Reuss Voigt Hill
#
# Bulk Modulus (GPa) = 4.26802 47.84463 26.05633
# Shear Modulus (GPa) = 6.33263 29.98822 18.16042
#
# Velocity S-wave (km/s) = 1.73200 3.76905 2.93305
# Velocity P-wave (km/s) = 2.45389 6.45023 4.87991
#
# Compressibility (1/GPa) = 0.23430052
#
# Stress axis : x y z
#
# Youngs Moduli (GPa) = 14.98589 26.20326 6.43386
#
# Poissons Ratio (x) = 0.95848 -0.53989
# Poissons Ratio (y) = 0.54816 0.38825
# Poissons Ratio (z) = -1.25752 1.58123
#
# Static dielectric constant tensor:
#      x y z
#    x 1.796000 0.030900 -0.017120 
#    y 0.030900 1.806660 -0.046460 
#    z -0.017120 -0.046460 1.790370 
# 
# From -- ./inp_files/160916.got.cif
#   From: 2010.05.17/outbox.cif.g08.bks.cpg/sg2_81_cif.got.tgz:160916.got - 2010.06.03 11:33:40.
