data_PCOD9084292
_publ_section_title
;
Structure prediction by ZEFSAII (Michael W. Deem and Ramdas Pophale) SiO2 
 PCOD9084292
Probable space group: P -1
;
_chemical_formula_sum "Si O2"
_cell_formula_units_Z 16
_cell_length_a 19.640141
_cell_length_b 9.606826
_cell_length_c 10.940319
_cell_angle_alpha 116.654971
_cell_angle_beta 127.414319
_cell_angle_gamma 30.505991
_cell_volume 817.801651
_symmetry_space_group_name_H-M "P -1"
_symmetry_group_IT_number 2
_symmetry_cell_setting 'triclinic'
loop_
_space_group_symop_operation_xyz
x,y,z
-x,-y,-z
loop_
_atom_site_type_symbol
_atom_site_label
_atom_site_fract_x
_atom_site_fract_y
_atom_site_fract_z
Si Si1 0.125883 0.417165 0.774514
Si Si2 0.899975 0.831123 0.500453
Si Si3 0.720102 0.373778 0.418494
Si Si4 0.662116 0.332020 0.075168
Si Si5 0.638401 0.709140 0.107474
Si Si6 0.832545 0.766070 0.979620
Si Si7 0.219713 0.395504 0.531721
Si Si8 0.404383 0.984644 0.372901
O O1 0.186637 0.185652 0.660844
O O2 0.213927 0.445288 0.861024
O O3 0.149715 0.320822 0.897550
O O4 0.957962 0.702146 0.647794
O O5 0.054981 0.617349 0.502077
O O6 0.808163 0.127946 0.508337
O O7 0.733854 0.278992 0.261214
O O8 0.790467 0.440144 0.505464
O O9 0.541449 0.655477 0.372365
O O10 0.633943 0.529448 0.042025
O O11 0.769401 0.038106 0.018811
O O12 0.500000 0.500000 0.000000
O O13 0.661667 0.734047 0.282390
O O14 0.500000 0.000000 0.000000
O O15 0.706823 0.857180 0.802785
O O16 0.000000 0.500000 0.000000
O O17 0.293760 0.146546 0.434149
O O18 0.500000 0.000000 0.500000
#
# Coordination Sequence:
#
# PCOD9084292 Si02
#       8
#     2   2   2   2   2   2   2   2
#     4  10  22  38  61  91 129 164 207 261 327 374
#     4  10  19  37  62  90 122 165 207 262 318 374
#     4  10  19  34  62  92 124 161 215 263 305 380
#     4  11  21  39  65  94 125 163 225 264 307 383
#     4  10  22  37  64  94 127 163 210 267 321 373
#     4  12  24  42  69  93 128 172 221 265 318 386
#     4   9  20  37  58  92 124 161 210 253 315 382
#     4  10  22  37  58  93 128 164 207 260 321 368
#
# _framework density 19.564646
#
# number of rings (size 3 to 8) (size 9 to 14) (size 15 to 20)
#    0.000    1.750    2.500    1.875    3.500    0.000 
#    4.500    1.875    0.000    8.250    0.000    0.000 
#    0.000    0.000    0.000    0.000    0.000    0.000 
#
# Total GULP energy -89230.165933 kJ/mol
# GULP energy per Si atom -5576.885371 kJ/mol
# Density = 1.952012 g / cm^3
# Si number density = 19.564646 Si / 1000 Ang^3
#
#
#
# Elastic Constant Matrix: (Units=GPa)
#
#
# Indices 1 2 3 4 5 6 
#
# 1 92.7036 56.3800 32.8185 -8.1324 10.3008 22.5178
# 2 56.3800 137.5145 52.3949 -13.7298 -5.4621 12.2752
# 3 32.8185 52.3949 100.3015 -11.4058 -8.6581 10.4054
# 4 -8.1324 -13.7298 -11.4058 28.6790 5.5369 -6.0608
# 5 10.3008 -5.4621 -8.6581 5.5369 29.5622 -5.8675
# 6 22.5178 12.2752 10.4054 -6.0608 -5.8675 40.2674
#
#
#
# Elastic Compliance Matrix: (Units=1/GPa)
#
#
# Indices 1 2 3 4 5 6 
#
# 1 0.019209 -0.006246 -0.002811 0.001425 -0.010818 -0.009473
# 2 -0.006246 0.011366 -0.003568 0.001996 0.003198 0.001717
# 3 -0.002811 -0.003568 0.013311 0.002065 0.003850 0.000092
# 4 0.001425 0.001996 0.002065 0.038884 -0.006209 0.003009
# 5 -0.010818 0.003198 0.003850 -0.006209 0.042326 0.009313
# 6 -0.009473 0.001717 0.000092 0.003009 0.009313 0.031394
#
#
# Mechanical properties :
#
#
# Convention : Reuss Voigt Hill
#
# Bulk Modulus (GPa) = 53.66443 68.18962 60.92702
# Shear Modulus (GPa) = 26.60222 32.29681 29.44951
#
# Velocity S-wave (km/s) = 3.69142 4.06738 3.88395
# Velocity P-wave (km/s) = 6.75704 7.54899 7.16397
#
# Compressibility (1/GPa) = 0.01863432
#
# Stress axis : x y z
#
# Youngs Moduli (GPa) = 52.05819 87.98502 75.12347
#
# Poissons Ratio (x) = 0.54958 0.21120
# Poissons Ratio (y) = 0.32517 0.26807
# Poissons Ratio (z) = 0.14635 0.31396
#
# Static dielectric constant tensor:
#      x y z
#    x 1.724650 -0.009270 0.031830 
#    y -0.009270 1.705990 0.001560 
#    z 0.031830 0.001560 1.740480 
# 
# From -- ./inp_files/435799.got.cif
#   From: 2010.05.17/outbox.cif.g08.bks.cpg/sg2_218_cif.got.tgz:435799.got - 2010.06.03 11:33:40.
