data_PCOD9084699
_publ_section_title
;
Structure prediction by ZEFSAII (Michael W. Deem and Ramdas Pophale) SiO2 
 PCOD9084699
Probable space group: P -1
;
_chemical_formula_sum "Si O2"
_cell_formula_units_Z 15
_cell_length_a 7.055072
_cell_length_b 7.923200
_cell_length_c 20.246599
_cell_angle_alpha 56.763907
_cell_angle_beta 126.724202
_cell_angle_gamma 142.986030
_cell_volume 540.221092
_symmetry_space_group_name_H-M "P -1"
_symmetry_group_IT_number 2
_symmetry_cell_setting 'triclinic'
loop_
_space_group_symop_operation_xyz
x,y,z
-x,-y,-z
loop_
_atom_site_type_symbol
_atom_site_label
_atom_site_fract_x
_atom_site_fract_y
_atom_site_fract_z
Si Si1 0.469814 0.001390 0.879278
Si Si2 0.928750 0.546065 0.778385
Si Si3 0.119213 0.102886 0.154399
Si Si4 0.586610 0.384153 0.611560
Si Si5 0.422752 0.337244 0.951755
Si Si6 0.005908 0.294126 0.582906
Si Si7 0.440627 0.250207 0.319062
Si Si8 0.000000 0.000000 0.500000
O O1 0.537441 0.871555 0.975003
O O2 0.309809 0.802265 0.822940
O O3 0.776941 0.318334 0.853075
O O4 0.198429 0.992648 0.853606
O O5 0.792214 0.403771 0.708793
O O6 0.767583 0.671381 0.725344
O O7 0.946018 0.867649 0.111697
O O8 0.346063 0.136339 0.249982
O O9 0.324038 0.411853 0.100575
O O10 0.245365 0.286261 0.592223
O O11 0.824829 0.697462 0.564173
O O12 0.386190 0.142075 0.566249
O O13 0.500000 0.500000 0.000000
O O14 0.185615 0.457246 0.653924
O O15 0.000000 0.500000 0.500000
O O16 0.683184 0.974954 0.601737
#
# Coordination Sequence:
#
# PCOD9084699 Si02
#       8
#     2   2   2   2   2   2   2   1
#     4  11  21  37  64  94 115 146 216 254 296 346
#     4  10  19  35  62  89 112 145 198 270 288 338
#     4  11  21  40  65  88 120 157 211 257 289 360
#     4  10  19  35  56  83 113 153 200 234 308 337
#     4  12  25  40  61  88 128 167 193 243 317 369
#     4  11  21  36  62  90 124 154 196 253 307 365
#     4  10  20  36  60  92 116 155 199 253 315 339
#     4  10  20  32  56  76 114 152 196 238 276 364
#
# _framework density 27.76641
#
# number of rings (size 3 to 8) (size 9 to 14) (size 15 to 20)
#    0.000    1.333    0.000   10.400    0.000    0.000 
#    0.000    0.000   29.333    0.000    0.000    0.000 
#    0.000    0.000    0.000    0.000    0.000    0.000 
#
# Total GULP energy -83892.167402 kJ/mol
# GULP energy per Si atom -5592.811160 kJ/mol
# Density = 2.770321 g / cm^3
# Si number density = 27.766410 Si / 1000 Ang^3
#
#
#
# Elastic Constant Matrix: (Units=GPa)
#
#
# Indices 1 2 3 4 5 6 
#
# 1 75.9411 16.7463 12.4680 -13.3290 -3.8068 -19.0786
# 2 16.7463 141.6269 13.9190 -36.6726 -10.1448 30.0636
# 3 12.4680 13.9190 99.1112 -0.3832 -9.3320 -3.3556
# 4 -13.3290 -36.6726 -0.3832 47.5311 14.4254 4.4627
# 5 -3.8068 -10.1448 -9.3320 14.4254 29.3784 -1.9417
# 6 -19.0786 30.0636 -3.3556 4.4627 -1.9417 30.8566
#
#
#
# Elastic Compliance Matrix: (Units=1/GPa)
#
#
# Indices 1 2 3 4 5 6 
#
# 1 0.019115 -0.006512 -0.000656 -0.002101 0.002277 0.018539
# 2 -0.006512 0.016155 -0.002573 0.014074 -0.004471 -0.022363
# 3 -0.000656 -0.002573 0.011107 -0.003914 0.004752 0.004175
# 4 -0.002101 0.014074 -0.003914 0.038518 -0.017028 -0.022079
# 5 0.002277 -0.004471 0.004752 -0.017028 0.043419 0.011476
# 6 0.018539 -0.022363 0.004175 -0.022079 0.011476 0.070028
#
#
# Mechanical properties :
#
#
# Convention : Reuss Voigt Hill
#
# Bulk Modulus (GPa) = 37.18310 44.77174 40.97742
# Shear Modulus (GPa) = 22.04697 39.78963 30.91830
#
# Velocity S-wave (km/s) = 2.82089 3.78962 3.34056
# Velocity P-wave (km/s) = 4.90207 5.94203 5.44693
#
# Compressibility (1/GPa) = 0.02689394
#
# Stress axis : x y z
#
# Youngs Moduli (GPa) = 52.31558 61.90165 90.03097
#
# Poissons Ratio (x) = 0.40310 0.05907
# Poissons Ratio (y) = 0.34068 0.23168
# Poissons Ratio (z) = 0.03433 0.15929
#
# Static dielectric constant tensor:
#      x y z
#    x 1.561910 0.682510 0.574550 
#    y 0.682510 1.246730 -0.530130 
#    z 0.574550 -0.530130 1.699150 
# 
# From -- ./inp_files/214971.got.cif
#   From: 2010.05.17/outbox.cif.g08.bks.cpg/sg2_108_cif.got.tgz:214971.got - 2010.06.03 11:33:40.
