data_PCOD9084780
_publ_section_title
;
Structure prediction by ZEFSAII (Michael W. Deem and Ramdas Pophale) SiO2 
 PCOD9084780
Probable space group: P -1
;
_chemical_formula_sum "Si O2"
_cell_formula_units_Z 16
_cell_length_a 20.795016
_cell_length_b 15.639053
_cell_length_c 7.371408
_cell_angle_alpha 49.426142
_cell_angle_beta 137.616782
_cell_angle_gamma 157.931240
_cell_volume 601.623161
_symmetry_space_group_name_H-M "P -1"
_symmetry_group_IT_number 2
_symmetry_cell_setting 'triclinic'
loop_
_space_group_symop_operation_xyz
x,y,z
-x,-y,-z
loop_
_atom_site_type_symbol
_atom_site_label
_atom_site_fract_x
_atom_site_fract_y
_atom_site_fract_z
Si Si1 0.168388 0.752242 0.089304
Si Si2 0.180726 0.863877 0.598430
Si Si3 0.241686 0.653098 0.653017
Si Si4 0.392154 0.569225 0.937613
Si Si5 0.013199 0.927956 0.295272
Si Si6 0.689448 0.603022 0.613497
Si Si7 0.465711 0.242030 0.372682
Si Si8 0.822534 0.506979 0.898895
O O1 0.290540 0.809666 0.413386
O O2 0.030221 0.697673 0.982440
O O3 0.273162 0.903946 0.916564
O O4 0.000000 0.500000 0.000000
O O5 0.991627 0.601345 0.505654
O O6 0.106201 0.907854 0.451563
O O7 0.313061 0.022364 0.483236
O O8 0.332134 0.631854 0.791455
O O9 0.259257 0.668515 0.885871
O O10 0.569553 0.762215 0.901629
O O11 0.409986 0.513981 0.233794
O O12 0.211270 0.330509 0.774809
O O13 0.161729 0.141751 0.444485
O O14 0.000000 0.000000 0.000000
O O15 0.530341 0.418034 0.382238
O O16 0.822024 0.625592 0.840245
O O17 0.655142 0.354694 0.612436
#
# Coordination Sequence:
#
# PCOD9084780 Si02
#       8
#     2   2   2   2   2   2   2   2
#     4  10  19  35  57  80 106 146 189 226 270 321
#     4  10  21  35  54  83 112 141 185 229 270 327
#     4   9  18  36  59  78 107 149 187 228 265 322
#     4   9  17  36  58  79 112 148 182 226 268 322
#     4   9  17  35  60  79 107 147 187 223 266 325
#     4   8  19  33  57  78 110 143 183 221 273 319
#     4  10  20  35  54  81 120 141 180 224 284 318
#     4   9  18  35  55  82 107 144 185 225 269 332
#
# _framework density 26.594722999999998
#
# number of rings (size 3 to 8) (size 9 to 14) (size 15 to 20)
#    0.750    2.000    0.000    3.375    0.000    1.000 
#    2.250    8.750    0.000    0.000    0.000    0.000 
#    0.000    0.000    0.000    0.000    0.000    0.000 
#
# Total GULP energy -89494.979639 kJ/mol
# GULP energy per Si atom -5593.436227 kJ/mol
# Density = 2.653419 g / cm^3
# Si number density = 26.594723 Si / 1000 Ang^3
#
#
#
# Elastic Constant Matrix: (Units=GPa)
#
#
# Indices 1 2 3 4 5 6 
#
# 1 84.9720 31.9716 32.0328 -15.7429 -24.0188 11.8185
# 2 31.9716 112.1303 24.8952 -15.2323 -17.1518 18.8134
# 3 32.0328 24.8952 117.5835 -24.6513 -11.8531 12.8544
# 4 -15.7429 -15.2323 -24.6513 30.6713 6.4419 -20.0527
# 5 -24.0188 -17.1518 -11.8531 6.4419 41.2368 -12.0714
# 6 11.8185 18.8134 12.8544 -20.0527 -12.0714 29.2116
#
#
#
# Elastic Compliance Matrix: (Units=1/GPa)
#
#
# Indices 1 2 3 4 5 6 
#
# 1 0.016502 -0.002770 -0.002263 0.005810 0.007882 0.003348
# 2 -0.002770 0.010931 -0.000965 -0.000528 0.001164 -0.005376
# 3 -0.002263 -0.000965 0.010986 0.009241 0.001009 0.003464
# 4 0.005810 -0.000528 0.009241 0.071250 0.008224 0.046232
# 5 0.007882 0.001164 0.001009 0.008224 0.032650 0.014755
# 6 0.003348 -0.005376 0.003464 0.046232 0.014755 0.072650
#
#
# Mechanical properties :
#
#
# Convention : Reuss Voigt Hill
#
# Bulk Modulus (GPa) = 37.84573 54.72054 46.28313
# Shear Modulus (GPa) = 21.20690 35.27635 28.24163
#
# Velocity S-wave (km/s) = 2.82691 3.64599 3.26226
# Velocity P-wave (km/s) = 4.99166 6.19231 5.62411
#
# Compressibility (1/GPa) = 0.02642306
#
# Stress axis : x y z
#
# Youngs Moduli (GPa) = 60.59694 91.48629 91.02585
#
# Poissons Ratio (x) = 0.25340 0.20597
# Poissons Ratio (y) = 0.16784 0.08787
# Poissons Ratio (z) = 0.13711 0.08832
#
# Static dielectric constant tensor:
#      x y z
#    x 2.111690 -0.047970 0.006050 
#    y -0.047970 2.131660 -0.007370 
#    z 0.006050 -0.007370 2.137660 
# 
# From -- ./inp_files/348873.got.cif
#   From: 2010.05.17/outbox.cif.g08.bks.cpg/sg2_175_cif.got.tgz:348873.got - 2010.06.03 11:33:40.
