data_PCOD9084624
_publ_section_title
;
Structure prediction by ZEFSAII (Michael W. Deem and Ramdas Pophale) SiO2 
 PCOD9084624
Probable space group: P -1
;
_chemical_formula_sum "Si O2"
_cell_formula_units_Z 14
_cell_length_a 10.224360
_cell_length_b 5.467248
_cell_length_c 18.646982
_cell_angle_alpha 107.004014
_cell_angle_beta 36.602859
_cell_angle_gamma 106.247403
_cell_volume 592.491162
_symmetry_space_group_name_H-M "P -1"
_symmetry_group_IT_number 2
_symmetry_cell_setting 'triclinic'
loop_
_space_group_symop_operation_xyz
x,y,z
-x,-y,-z
loop_
_atom_site_type_symbol
_atom_site_label
_atom_site_fract_x
_atom_site_fract_y
_atom_site_fract_z
Si Si1 0.305005 0.664954 0.574438
Si Si2 0.421373 0.954904 0.420726
Si Si3 0.954041 0.048103 0.607547
Si Si4 0.821308 0.597340 0.739492
Si Si5 0.326244 0.549041 0.978964
Si Si6 0.155481 0.017185 0.042316
Si Si7 0.309220 0.124051 0.839436
O O1 0.500000 0.500000 0.500000
O O2 0.345843 0.696003 0.473778
O O3 0.042845 0.628070 0.692489
O O4 0.376439 0.921362 0.610866
O O5 0.496964 0.912317 0.303660
O O6 0.202968 0.108936 0.534050
O O7 0.819163 0.297108 0.693596
O O8 0.000000 0.000000 0.500000
O O9 0.855216 0.803340 0.676540
O O10 0.583616 0.623489 0.880445
O O11 0.199598 0.803922 0.062202
O O12 0.295294 0.410771 0.901770
O O13 0.774584 0.685799 0.948421
O O14 0.310596 0.968933 0.900119
O O15 0.911304 0.970264 0.114508
#
# Coordination Sequence:
#
# PCOD9084624 Si02
#       7
#     2   2   2   2   2   2   2
#     4  10  21  40  54  79 112 158 197 234 264 333
#     4  10  21  37  57  81 115 148 198 229 278 333
#     4  11  22  35  52  86 115 144 180 234 281 349
#     4  11  22  36  58  77 115 153 186 225 285 333
#     4  10  19  35  55  85 113 146 179 227 288 335
#     4   9  20  36  57  84 119 141 182 229 289 346
#     4   9  20  34  58  85 111 150 182 231 288 335
#
# _framework density 23.629044
#
# number of rings (size 3 to 8) (size 9 to 14) (size 15 to 20)
#    0.857    1.143    1.429    2.571    2.000    2.286 
#    0.000    0.000    0.000    1.714    0.000    0.000 
#    0.000    0.000    0.000    0.000    0.000    0.000 
#
# Total GULP energy -78022.027069 kJ/mol
# GULP energy per Si atom -5573.001934 kJ/mol
# Density = 2.357526 g / cm^3
# Si number density = 23.629044 Si / 1000 Ang^3
#
#
#
# Elastic Constant Matrix: (Units=GPa)
#
#
# Indices 1 2 3 4 5 6 
#
# 1 96.8229 44.7739 16.4862 -22.8760 -19.1790 8.4430
# 2 44.7739 132.3366 14.5969 -19.3979 -12.8526 -26.0295
# 3 16.4862 14.5969 64.3868 -20.8886 2.9484 -7.2481
# 4 -22.8760 -19.3979 -20.8886 10.1535 8.9991 -17.7290
# 5 -19.1790 -12.8526 2.9484 8.9991 33.3662 -2.7649
# 6 8.4430 -26.0295 -7.2481 -17.7290 -2.7649 33.3584
#
#
#
# Elastic Compliance Matrix: (Units=1/GPa)
#
#
# Indices 1 2 3 4 5 6 
#
# 1 0.015709 -0.005232 -0.002773 0.003256 0.005847 -0.006445
# 2 -0.005232 0.007873 -0.005762 -0.015228 0.004517 -0.001503
# 3 -0.002773 -0.005762 0.009179 -0.021249 0.000022 -0.013091
# 4 0.003256 -0.015228 -0.021249 -0.056167 0.009186 -0.046414
# 5 0.005847 0.004517 0.000022 0.009186 0.033396 0.009700
# 6 -0.006445 -0.001503 -0.013091 -0.046414 0.009700 0.003728
#
#
# Mechanical properties :
#
#
# Convention : Reuss Voigt Hill
#
# Bulk Modulus (GPa) = 191.26799 49.47336 120.37067
# Shear Modulus (GPa) = 116.29828 29.88824 73.09326
#
# Velocity S-wave (km/s) = 7.02319 3.56039 5.56784
# Velocity P-wave (km/s) = 12.11977 6.15507 9.61181
#
# Compressibility (1/GPa) = 0.00522827
#
# Stress axis : x y z
#
# Youngs Moduli (GPa) = 63.65675 127.01764 108.94426
#
# Poissons Ratio (x) = 0.66451 0.30212
# Poissons Ratio (y) = 0.33303 0.62770
# Poissons Ratio (z) = 0.17653 0.73184
#
# Static dielectric constant tensor:
#      x y z
#    x 1.941920 0.004160 -0.017160 
#    y 0.004160 1.975380 -0.020200 
#    z -0.017160 -0.020200 1.912500 
# 
# From -- ./inp_files/552896.got.cif
#   From: 2010.05.17/outbox.cif.g08.bks.cpg/sg2_277_cif.got.tgz:552896.got - 2010.06.03 11:33:40.
