data_PCOD9084782
_publ_section_title
;
Structure prediction by ZEFSAII (Michael W. Deem and Ramdas Pophale) SiO2 
 PCOD9084782
Probable space group: P -1
;
_chemical_formula_sum "Si O2"
_cell_formula_units_Z 14
_cell_length_a 11.730375
_cell_length_b 15.968341
_cell_length_c 10.535627
_cell_angle_alpha 133.544337
_cell_angle_beta 53.068479
_cell_angle_gamma 152.223102
_cell_volume 666.416598
_symmetry_space_group_name_H-M "P -1"
_symmetry_group_IT_number 2
_symmetry_cell_setting 'triclinic'
loop_
_space_group_symop_operation_xyz
x,y,z
-x,-y,-z
loop_
_atom_site_type_symbol
_atom_site_label
_atom_site_fract_x
_atom_site_fract_y
_atom_site_fract_z
Si Si1 0.287345 0.201060 0.003910
Si Si2 0.353243 0.063761 0.625384
Si Si3 0.491705 0.522600 0.359325
Si Si4 0.069809 0.077534 0.390668
Si Si5 0.010610 0.361613 0.497941
Si Si6 0.870186 0.508282 0.727983
Si Si7 0.798511 0.709769 0.092707
O O1 0.374773 0.135983 0.826292
O O2 0.309475 0.303929 0.976798
O O3 0.402241 0.333505 0.189629
O O4 0.000000 0.000000 0.000000
O O5 0.142110 0.989263 0.607500
O O6 0.615183 0.275264 0.615797
O O7 0.231634 0.858649 0.512896
O O8 0.252479 0.445419 0.450138
O O9 0.637421 0.638425 0.248497
O O10 0.313464 0.314194 0.493188
O O11 0.057674 0.946205 0.189819
O O12 0.000000 0.000000 0.500000
O O13 0.005335 0.363946 0.350403
O O14 0.021853 0.502364 0.680126
O O15 0.828193 0.592383 0.931346
#
# Coordination Sequence:
#
# PCOD9084782 Si02
#       7
#     2   2   2   2   2   2   2
#     4  11  18  30  56  84 109 134 188 241 272 320
#     4  11  21  37  58  86 112 147 191 229 280 333
#     4  11  19  36  54  84 111 141 185 230 280 324
#     4   9  21  33  58  85 110 147 185 234 280 330
#     4  11  23  35  57  88 116 144 188 232 282 332
#     4  11  21  37  59  84 115 150 183 237 277 329
#     4  10  19  35  57  80 107 147 189 226 280 328
#
# _framework density 21.007881999999999
#
# number of rings (size 3 to 8) (size 9 to 14) (size 15 to 20)
#    0.000    1.429    4.286    3.429    0.000    0.571 
#    0.000    0.714    0.000    3.429    0.000    0.000 
#    0.000    0.000    0.000    0.000    0.000    0.000 
#
# Total GULP energy -77988.559743 kJ/mol
# GULP energy per Si atom -5570.611410 kJ/mol
# Density = 2.096007 g / cm^3
# Si number density = 21.007882 Si / 1000 Ang^3
#
#
#
# Elastic Constant Matrix: (Units=GPa)
#
#
# Indices 1 2 3 4 5 6 
#
# 1 58.5602 17.0337 41.0607 13.3292 0.1231 0.0488
# 2 17.0337 115.1258 15.0043 15.1815 6.4021 4.2157
# 3 41.0607 15.0043 100.9926 21.4244 4.5540 8.5813
# 4 13.3292 15.1815 21.4244 44.6054 5.2098 2.1744
# 5 0.1231 6.4021 4.5540 5.2098 39.6054 7.9778
# 6 0.0488 4.2157 8.5813 2.1744 7.9778 37.2692
#
#
#
# Elastic Compliance Matrix: (Units=1/GPa)
#
#
# Indices 1 2 3 4 5 6 
#
# 1 0.024984 -0.002293 -0.009571 -0.002345 0.001238 0.002302
# 2 -0.002293 0.009412 0.000161 -0.002435 -0.001066 -0.000728
# 3 -0.009571 0.000161 0.014937 -0.004155 -0.000546 -0.003086
# 4 -0.002345 -0.002435 -0.004155 0.026238 -0.002626 0.000267
# 5 0.001238 -0.001066 -0.000546 -0.002626 0.026906 -0.005362
# 6 0.002302 -0.000728 -0.003086 0.000267 -0.005362 0.028754
#
#
# Mechanical properties :
#
#
# Convention : Reuss Voigt Hill
#
# Bulk Modulus (GPa) = 38.57177 46.76401 42.66789
# Shear Modulus (GPa) = 30.62255 37.73467 34.17861
#
# Velocity S-wave (km/s) = 3.82209 4.24278 4.03791
# Velocity P-wave (km/s) = 6.15453 6.80515 6.48800
#
# Compressibility (1/GPa) = 0.02592570
#
# Stress axis : x y z
#
# Youngs Moduli (GPa) = 40.02640 106.25246 66.94629
#
# Poissons Ratio (x) = 0.24364 0.64073
# Poissons Ratio (y) = 0.09178 -0.01075
# Poissons Ratio (z) = 0.38309 -0.01706
#
# Static dielectric constant tensor:
#      x y z
#    x 1.773040 -0.018810 -0.020870 
#    y -0.018810 1.968450 0.005470 
#    z -0.020870 0.005470 1.804920 
# 
# From -- ./inp_files/431333.got.cif
#   From: 2010.05.17/outbox.cif.g08.bks.cpg/sg2_216_cif.got.tgz:431333.got - 2010.06.03 11:33:40.
