data_PCOD9084974
_publ_section_title
;
Structure prediction by ZEFSAII (Michael W. Deem and Ramdas Pophale) SiO2 
 PCOD9084974
Probable space group: P -1
;
_chemical_formula_sum "Si O2"
_cell_formula_units_Z 16
_cell_length_a 10.411894
_cell_length_b 15.638595
_cell_length_c 9.884016
_cell_angle_alpha 144.151987
_cell_angle_beta 106.758189
_cell_angle_gamma 56.085720
_cell_volume 736.333726
_symmetry_space_group_name_H-M "P -1"
_symmetry_group_IT_number 2
_symmetry_cell_setting 'triclinic'
loop_
_space_group_symop_operation_xyz
x,y,z
-x,-y,-z
loop_
_atom_site_type_symbol
_atom_site_label
_atom_site_fract_x
_atom_site_fract_y
_atom_site_fract_z
Si Si1 0.991505 0.839455 0.839487
Si Si2 0.977512 0.290297 0.587847
Si Si3 0.367555 0.497223 0.553618
Si Si4 0.860462 0.041047 0.316890
Si Si5 0.472438 0.845665 0.305935
Si Si6 0.498887 0.364476 0.721391
Si Si7 0.323031 0.317457 0.087248
Si Si8 0.158132 0.140745 0.699284
O O1 0.929535 0.782562 0.620781
O O2 0.181175 0.675413 0.714692
O O3 0.000000 0.000000 0.000000
O O4 0.878284 0.921478 0.041505
O O5 0.932570 0.152844 0.442431
O O6 0.818868 0.485082 0.756245
O O7 0.069787 0.287717 0.744678
O O8 0.500000 0.500000 0.500000
O O9 0.410670 0.460978 0.678448
O O10 0.363714 0.340155 0.279921
O O11 0.676228 0.195632 0.506314
O O12 0.943571 0.896851 0.278838
O O13 0.564430 0.722008 0.306055
O O14 0.500000 0.000000 0.500000
O O15 0.279855 0.956100 0.418003
O O16 0.528479 0.746522 0.053732
O O17 0.500000 0.500000 0.000000
O O18 0.259783 0.192528 0.886942
#
# Coordination Sequence:
#
# PCOD9084974 Si02
#       8
#     2   2   2   2   2   2   2   2
#     4   9  20  36  55  86 117 148 190 234 285 341
#     4  10  19  35  58  82 109 149 189 227 277 339
#     4  11  22  38  61  86 116 154 192 240 290 342
#     4  10  21  37  56  84 116 144 188 238 281 337
#     4   9  20  38  56  81 116 149 189 235 284 340
#     4  11  22  37  60  89 113 147 195 242 287 341
#     4  10  21  39  57  81 114 149 189 233 284 342
#     4  10  21  36  56  83 114 148 185 233 286 334
#
# _framework density 21.729278999999998
#
# number of rings (size 3 to 8) (size 9 to 14) (size 15 to 20)
#    0.000    2.000    0.000    4.500    0.000    9.000 
#    0.000   10.625    0.000    0.000    0.000    0.000 
#    0.000    0.000    0.000    0.000    0.000    0.000 
#
# Total GULP energy -89122.401051 kJ/mol
# GULP energy per Si atom -5570.150066 kJ/mol
# Density = 2.167982 g / cm^3
# Si number density = 21.729279 Si / 1000 Ang^3
#
#
#
# Elastic Constant Matrix: (Units=GPa)
#
#
# Indices 1 2 3 4 5 6 
#
# 1 35.6916 10.9596 26.8145 -8.3520 0.7597 16.1892
# 2 10.9596 123.2777 49.2312 -22.8983 -1.0374 15.8715
# 3 26.8145 49.2312 146.8977 -21.3907 -13.2521 9.9190
# 4 -8.3520 -22.8983 -21.3907 33.7095 -0.0054 -4.1452
# 5 0.7597 -1.0374 -13.2521 -0.0054 28.8548 -4.1778
# 6 16.1892 15.8715 9.9190 -4.1452 -4.1778 23.2239
#
#
#
# Elastic Compliance Matrix: (Units=1/GPa)
#
#
# Indices 1 2 3 4 5 6 
#
# 1 0.050685 0.004430 -0.008400 0.005862 -0.010180 -0.035557
# 2 0.004430 0.011201 -0.003404 0.005467 -0.002546 -0.008771
# 3 -0.008400 -0.003404 0.009992 0.002608 0.005465 0.005363
# 4 0.005862 0.005467 0.002608 0.036202 0.000912 -0.002311
# 5 -0.010180 -0.002546 0.005465 0.000912 0.039332 0.013741
# 6 -0.035557 -0.008771 0.005363 -0.002311 0.013741 0.073608
#
#
# Mechanical properties :
#
#
# Convention : Reuss Voigt Hill
#
# Bulk Modulus (GPa) = 17.50421 53.31974 35.41198
# Shear Modulus (GPa) = 19.62229 31.74843 25.68536
#
# Velocity S-wave (km/s) = 3.00831 3.82657 3.44184
# Velocity P-wave (km/s) = 4.48773 6.64191 5.66810
#
# Compressibility (1/GPa) = 0.05712910
#
# Stress axis : x y z
#
# Youngs Moduli (GPa) = 19.72965 89.28168 100.07841
#
# Poissons Ratio (x) = -0.39550 0.84070
# Poissons Ratio (y) = -0.08740 0.34064
# Poissons Ratio (z) = 0.16574 0.30389
#
# Static dielectric constant tensor:
#      x y z
#    x 2.066490 0.056370 -0.170000 
#    y 0.056370 1.899130 -0.096690 
#    z -0.170000 -0.096690 1.964830 
# 
# From -- ./inp_files/243318.got.cif
#   From: 2010.05.17/outbox.cif.g08.bks.cpg/sg2_122_cif.got.tgz:243318.got - 2010.06.03 11:33:40.
