data_PCOD9084321
_publ_section_title
;
Structure prediction by ZEFSAII (Michael W. Deem and Ramdas Pophale) SiO2 
 PCOD9084321
Probable space group: P -1
;
_chemical_formula_sum "Si O2"
_cell_formula_units_Z 14
_cell_length_a 10.554557
_cell_length_b 7.244167
_cell_length_c 8.845447
_cell_angle_alpha 106.148061
_cell_angle_beta 49.648084
_cell_angle_gamma 98.350680
_cell_volume 494.510547
_symmetry_space_group_name_H-M "P -1"
_symmetry_group_IT_number 2
_symmetry_cell_setting 'triclinic'
loop_
_space_group_symop_operation_xyz
x,y,z
-x,-y,-z
loop_
_atom_site_type_symbol
_atom_site_label
_atom_site_fract_x
_atom_site_fract_y
_atom_site_fract_z
Si Si1 0.827214 0.787982 0.168351
Si Si2 0.641501 0.466000 0.642398
Si Si3 0.613777 0.985348 0.144873
Si Si4 0.261414 0.604711 0.900994
Si Si5 0.717921 0.871054 0.711326
Si Si6 0.154381 0.719734 0.321002
Si Si7 0.094574 0.815326 0.702241
O O1 0.805356 0.570201 0.184714
O O2 0.876821 0.956813 0.280153
O O3 0.963846 0.788792 0.928652
O O4 0.658695 0.863424 0.229761
O O5 0.453621 0.536594 0.772078
O O6 0.754248 0.651886 0.588087
O O7 0.673144 0.372637 0.761724
O O8 0.727721 0.298828 0.434938
O O9 0.652184 0.867023 0.934252
O O10 0.725952 0.172701 0.103252
O O11 0.427232 0.063114 0.280279
O O12 0.146494 0.616534 0.143807
O O13 0.827623 0.055210 0.672308
O O14 0.041327 0.725295 0.561509
#
# Coordination Sequence:
#
# PCOD9084321 Si02
#       7
#     2   2   2   2   2   2   2
#     4  11  21  43  52  76 116 157 171 237 256 336
#     4   9  18  35  55  87 104 144 177 229 268 332
#     4   9  19  33  58  86 106 145 181 221 276 334
#     4  10  19  34  63  82 106 134 196 223 281 308
#     4   9  16  34  58  85 114 132 176 237 282 305
#     4   9  18  35  55  87 104 144 177 229 268 332
#     4   9  24  39  54  76 118 147 192 205 288 320
#
# _framework density 28.31082
#
# number of rings (size 3 to 8) (size 9 to 14) (size 15 to 20)
#    0.857    1.714    0.000    3.000    0.000    1.143 
#    5.143    4.286    0.000    0.000    0.000    0.000 
#    0.000    0.000    0.000    0.000    0.000    0.000 
#
# Total GULP energy -78302.550238 kJ/mol
# GULP energy per Si atom -5593.039303 kJ/mol
# Density = 2.824638 g / cm^3
# Si number density = 28.310820 Si / 1000 Ang^3
#
#
#
# Elastic Constant Matrix: (Units=GPa)
#
#
# Indices 1 2 3 4 5 6 
#
# 1 109.6483 16.0455 28.2341 15.0004 -7.6888 5.4947
# 2 16.0455 139.5643 49.0120 47.5502 2.1394 -0.7138
# 3 28.2341 49.0120 152.6937 29.8669 11.6415 15.8880
# 4 15.0004 47.5502 29.8669 40.1572 1.6692 4.2478
# 5 -7.6888 2.1394 11.6415 1.6692 46.1279 8.1976
# 6 5.4947 -0.7138 15.8880 4.2478 8.1976 28.2484
#
#
#
# Elastic Compliance Matrix: (Units=1/GPa)
#
#
# Indices 1 2 3 4 5 6 
#
# 1 0.010091 0.000339 -0.001410 -0.003073 0.002380 -0.001390
# 2 0.000339 0.012523 -0.001666 -0.014063 -0.000192 0.003358
# 3 -0.001410 -0.001666 0.008496 -0.003375 -0.001542 -0.003591
# 4 -0.003073 -0.014063 -0.003375 0.045711 0.000188 -0.004788
# 5 0.002380 -0.000192 -0.001542 0.000188 0.023619 -0.006483
# 6 -0.001390 0.003358 -0.003591 -0.004788 -0.006483 0.040377
#
#
# Mechanical properties :
#
#
# Convention : Reuss Voigt Hill
#
# Bulk Modulus (GPa) = 39.01139 65.38772 52.19955
# Shear Modulus (GPa) = 32.29223 43.48100 37.88661
#
# Velocity S-wave (km/s) = 3.38099 3.92324 3.66216
# Velocity P-wave (km/s) = 5.38990 6.60824 6.02992
#
# Compressibility (1/GPa) = 0.02563354
#
# Stress axis : x y z
#
# Youngs Moduli (GPa) = 99.10161 79.85500 117.70126
#
# Poissons Ratio (x) = -0.02704 0.16599
# Poissons Ratio (y) = -0.03356 0.19613
# Poissons Ratio (z) = 0.13976 0.13307
#
# Static dielectric constant tensor:
#      x y z
#    x 2.301890 0.003100 -0.030870 
#    y 0.003100 2.154630 -0.052590 
#    z -0.030870 -0.052590 2.169410 
# 
# From -- ./inp_files/445151.got.cif
#   From: 2010.05.17/outbox.cif.g08.bks.cpg/sg2_223_cif.got.tgz:445151.got - 2010.06.03 11:33:40.
