data_PCOD9084913
_publ_section_title
;
Structure prediction by ZEFSAII (Michael W. Deem and Ramdas Pophale) SiO2 
 PCOD9084913
Probable space group: P -1
;
_chemical_formula_sum "Si O2"
_cell_formula_units_Z 16
_cell_length_a 24.360538
_cell_length_b 14.559479
_cell_length_c 16.285795
_cell_angle_alpha 26.818381
_cell_angle_beta 20.184929
_cell_angle_gamma 18.098807
_cell_volume 619.162085
_symmetry_space_group_name_H-M "P -1"
_symmetry_group_IT_number 2
_symmetry_cell_setting 'triclinic'
loop_
_space_group_symop_operation_xyz
x,y,z
-x,-y,-z
loop_
_atom_site_type_symbol
_atom_site_label
_atom_site_fract_x
_atom_site_fract_y
_atom_site_fract_z
Si Si1 0.042898 0.044471 0.654529
Si Si2 0.502633 0.186262 0.014687
Si Si3 0.311930 0.298302 0.606765
Si Si4 0.210646 0.321448 0.562172
Si Si5 0.146275 0.792517 0.540175
Si Si6 0.902200 0.296924 0.937355
Si Si7 0.434710 0.553501 0.953024
Si Si8 0.535196 0.784344 0.188973
O O1 0.920722 0.363502 0.538999
O O2 0.838448 0.156323 0.910677
O O3 0.042949 0.902367 0.687845
O O4 0.299634 0.872677 0.457938
O O5 0.501648 0.279792 0.032664
O O6 0.578107 0.884736 0.129562
O O7 0.654400 0.217956 0.728690
O O8 0.247325 0.452054 0.123546
O O9 0.147364 0.369937 0.708934
O O10 0.206010 0.501989 0.671650
O O11 0.513789 0.950073 0.612013
O O12 0.428119 0.393259 0.326598
O O13 0.122795 0.221808 0.710396
O O14 0.000000 0.000000 0.500000
O O15 0.736748 0.464253 0.117953
O O16 0.000000 0.000000 0.000000
O O17 0.500000 0.500000 0.000000
O O18 0.500000 0.000000 0.000000
#
# Coordination Sequence:
#
# PCOD9084913 Si02
#       8
#     2   2   2   2   2   2   2   2
#     4  12  20  36  62  90 120 154 198 256 294 347
#     4  10  20  36  57  85 120 153 201 245 291 356
#     4  10  23  37  59  89 120 156 203 245 297 367
#     4  11  20  37  61  88 115 156 202 248 293 349
#     4  11  18  32  56  86 111 154 200 244 290 346
#     4  11  20  35  62  91 117 152 199 259 295 342
#     4  11  22  38  57  91 129 158 194 246 308 355
#     4  10  19  35  57  91 118 145 209 254 285 352
#
# _framework density 25.841373000000001
#
# number of rings (size 3 to 8) (size 9 to 14) (size 15 to 20)
#    0.000    1.250    7.500    2.250    0.000    0.500 
#    0.000    0.000    0.000   12.000    0.000    0.000 
#    0.000    0.000    0.000    0.000    0.000    0.000 
#
# Total GULP energy -89434.827676 kJ/mol
# GULP energy per Si atom -5589.676730 kJ/mol
# Density = 2.578256 g / cm^3
# Si number density = 25.841373 Si / 1000 Ang^3
#
#
#
# Elastic Constant Matrix: (Units=GPa)
#
#
# Indices 1 2 3 4 5 6 
#
# 1 116.5356 43.5823 18.1501 -17.0079 -18.6057 45.6079
# 2 43.5823 161.9125 -0.2305 -1.0979 -4.6649 50.0716
# 3 18.1501 -0.2305 35.2676 4.1478 -6.5218 0.0684
# 4 -17.0079 -1.0979 4.1478 30.6104 0.4850 -3.2028
# 5 -18.6057 -4.6649 -6.5218 0.4850 40.1650 -1.6140
# 6 45.6079 50.0716 0.0684 -3.2028 -1.6140 67.1760
#
#
#
# Elastic Compliance Matrix: (Units=1/GPa)
#
#
# Indices 1 2 3 4 5 6 
#
# 1 0.016313 -0.001214 -0.008424 0.009070 0.005553 -0.009596
# 2 -0.001214 0.008142 0.000873 -0.001059 0.000325 -0.005288
# 3 -0.008424 0.000873 0.034099 -0.008814 0.002029 0.004663
# 4 0.009070 -0.001059 -0.008814 0.038468 0.002043 -0.003476
# 5 0.005553 0.000325 0.002029 0.002043 0.027681 -0.003252
# 6 -0.009596 -0.005288 0.004663 -0.003476 -0.003252 0.025094
#
#
# Mechanical properties :
#
#
# Convention : Reuss Voigt Hill
#
# Bulk Modulus (GPa) = 24.37687 48.52440 36.45063
# Shear Modulus (GPa) = 27.62391 44.40455 36.01423
#
# Velocity S-wave (km/s) = 3.27307 4.14980 3.73723
# Velocity P-wave (km/s) = 4.87214 6.46372 5.72352
#
# Compressibility (1/GPa) = 0.04102250
#
# Stress axis : x y z
#
# Youngs Moduli (GPa) = 61.30102 122.82454 29.32657
#
# Poissons Ratio (x) = 0.14909 0.24706
# Poissons Ratio (y) = 0.07441 -0.02560
# Poissons Ratio (z) = 0.51643 -0.10721
#
# Static dielectric constant tensor:
#      x y z
#    x 2.090190 0.003440 0.041370 
#    y 0.003440 2.096980 0.026300 
#    z 0.041370 0.026300 2.135440 
# 
# From -- ./inp_files/579835.got.cif
#   From: 2010.05.17/outbox.cif.g08.bks.cpg/sg2_290_cif.got.tgz:579835.got - 2010.06.03 11:33:40.
