data_PCOD9084285
_publ_section_title
;
Structure prediction by ZEFSAII (Michael W. Deem and Ramdas Pophale) SiO2 
 PCOD9084285
Probable space group: P -1
;
_chemical_formula_sum "Si O2"
_cell_formula_units_Z 16
_cell_length_a 11.056968
_cell_length_b 14.476257
_cell_length_c 11.613744
_cell_angle_alpha 28.102232
_cell_angle_beta 129.167253
_cell_angle_gamma 110.892355
_cell_volume 567.412978
_symmetry_space_group_name_H-M "P -1"
_symmetry_group_IT_number 2
_symmetry_cell_setting 'triclinic'
loop_
_space_group_symop_operation_xyz
x,y,z
-x,-y,-z
loop_
_atom_site_type_symbol
_atom_site_label
_atom_site_fract_x
_atom_site_fract_y
_atom_site_fract_z
Si Si1 0.928275 0.663141 0.992965
Si Si2 0.037972 0.644239 0.458731
Si Si3 0.415447 0.602482 0.707926
Si Si4 0.487165 0.884245 0.979964
Si Si5 0.549851 0.290854 0.634777
Si Si6 0.499066 0.045707 0.582709
Si Si7 0.978827 0.999441 0.211586
Si Si8 0.961271 0.817265 0.620555
O O1 0.715369 0.742836 0.756571
O O2 0.025595 0.624390 0.970586
O O3 0.024296 0.444277 0.372713
O O4 0.914033 0.877425 0.821214
O O5 0.249429 0.562257 0.647130
O O6 0.000000 0.500000 0.500000
O O7 0.982935 0.895754 0.204249
O O8 0.515614 0.553095 0.694209
O O9 0.364693 0.867791 0.404950
O O10 0.500000 0.500000 0.000000
O O11 0.555045 0.053857 0.868684
O O12 0.534097 0.849670 0.910824
O O13 0.261597 0.047578 0.671615
O O14 0.544566 0.670958 0.336570
O O15 0.763739 0.204197 0.875042
O O16 0.500000 0.000000 0.500000
O O17 0.042372 0.791708 0.571354
O O18 0.000000 0.000000 0.500000
#
# Coordination Sequence:
#
# PCOD9084285 Si02
#       8
#     2   2   2   2   2   2   2   2
#     4  10  20  38  60  90 123 161 202 260 313 366
#     4  12  26  39  59  90 127 166 209 256 312 381
#     4  11  22  40  59  86 119 163 202 254 316 367
#     4   8  16  31  56  90 109 153 205 244 304 364
#     4   9  18  35  60  83 114 158 204 252 301 369
#     4  10  19  34  62  91 120 156 203 253 308 379
#     4  10  21  39  62  90 122 163 210 255 314 373
#     4   8  16  33  61  90 117 153 206 257 310 372
#
# _framework density 28.198156000000001
#
# number of rings (size 3 to 8) (size 9 to 14) (size 15 to 20)
#    0.000    2.250    1.250    1.500    0.000    4.500 
#    0.000    0.000    0.000    2.250    0.000    0.000 
#    0.000    0.000    0.000    0.000    0.000    0.000 
#
# Total GULP energy -89193.287351 kJ/mol
# GULP energy per Si atom -5574.580459 kJ/mol
# Density = 2.813398 g / cm^3
# Si number density = 28.198156 Si / 1000 Ang^3
#
#
#
# Elastic Constant Matrix: (Units=GPa)
#
#
# Indices 1 2 3 4 5 6 
#
# 1 118.3325 60.6331 76.2606 8.2827 -54.7857 -4.1816
# 2 60.6331 186.5780 41.1582 13.6346 -6.4901 5.8807
# 3 76.2606 41.1582 84.7968 15.1316 -51.8511 -23.3841
# 4 8.2827 13.6346 15.1316 44.9524 -7.7362 0.0991
# 5 -54.7857 -6.4901 -51.8511 -7.7362 80.9828 16.9254
# 6 -4.1816 5.8807 -23.3841 0.0991 16.9254 66.7660
#
#
#
# Elastic Compliance Matrix: (Units=1/GPa)
#
#
# Indices 1 2 3 4 5 6 
#
# 1 0.025541 -0.003755 -0.020138 0.004237 0.005872 -0.006617
# 2 -0.003755 0.007019 -0.001950 -0.001330 -0.003202 -0.000723
# 3 -0.020138 -0.001950 0.041064 -0.007914 0.009478 0.010902
# 4 0.004237 -0.001330 -0.007914 0.024639 0.000584 -0.002574
# 5 0.005872 -0.003202 0.009478 0.000584 0.022554 -0.001749
# 6 -0.006617 -0.000723 0.010902 -0.002574 -0.001749 0.018892
#
#
# Mechanical properties :
#
#
# Convention : Reuss Voigt Hill
#
# Bulk Modulus (GPa) = 45.58104 82.86792 64.22448
# Shear Modulus (GPa) = 25.16295 52.65058 38.90677
#
# Velocity S-wave (km/s) = 2.99048 4.32576 3.71855
# Velocity P-wave (km/s) = 5.30317 7.37571 6.42358
#
# Compressibility (1/GPa) = 0.02193895
#
# Stress axis : x y z
#
# Youngs Moduli (GPa) = 39.15337 142.47933 24.35235
#
# Poissons Ratio (x) = 0.53495 0.49040
# Poissons Ratio (y) = 0.14700 0.04748
# Poissons Ratio (z) = 0.78845 0.27782
#
# Static dielectric constant tensor:
#      x y z
#    x 2.257780 -0.143360 0.039800 
#    y -0.143360 2.276240 -0.019300 
#    z 0.039800 -0.019300 2.469220 
# 
# From -- ./inp_files/432366.got.cif
#   From: 2010.05.17/outbox.cif.g08.bks.cpg/sg2_217_cif.got.tgz:432366.got - 2010.06.03 11:33:40.
