data_PCOD9084877
_publ_section_title
;
Structure prediction by ZEFSAII (Michael W. Deem and Ramdas Pophale) SiO2 
 PCOD9084877
Probable space group: P -1
;
_chemical_formula_sum "Si O2"
_cell_formula_units_Z 16
_cell_length_a 10.759803
_cell_length_b 8.840652
_cell_length_c 11.527827
_cell_angle_alpha 120.741544
_cell_angle_beta 97.936146
_cell_angle_gamma 56.125218
_cell_volume 765.755181
_symmetry_space_group_name_H-M "P -1"
_symmetry_group_IT_number 2
_symmetry_cell_setting 'triclinic'
loop_
_space_group_symop_operation_xyz
x,y,z
-x,-y,-z
loop_
_atom_site_type_symbol
_atom_site_label
_atom_site_fract_x
_atom_site_fract_y
_atom_site_fract_z
Si Si1 0.959470 0.792629 0.784036
Si Si2 0.672638 0.399270 0.523574
Si Si3 0.403925 0.676777 0.285436
Si Si4 0.848643 0.822799 0.523275
Si Si5 0.189130 0.737709 0.103574
Si Si6 0.271821 0.463572 0.633196
Si Si7 0.078601 0.483211 0.883109
Si Si8 0.923396 0.896601 0.329729
O O1 0.912688 0.756533 0.636345
O O2 0.137356 0.696950 0.752006
O O3 0.962379 0.651042 0.834736
O O4 0.864221 0.046576 0.888728
O O5 0.500000 0.500000 0.500000
O O6 0.654793 0.420101 0.666716
O O7 0.716232 0.527717 0.500576
O O8 0.790405 0.148393 0.408456
O O9 0.354370 0.641958 0.142013
O O10 0.573286 0.603854 0.310150
O O11 0.296478 0.932562 0.391054
O O12 0.789269 0.683817 0.415017
O O13 0.960561 0.828193 0.445128
O O14 0.063517 0.824371 0.230105
O O15 0.183643 0.565358 0.960659
O O16 0.145406 0.239110 0.765400
O O17 0.000000 0.500000 0.000000
#
# Coordination Sequence:
#
# PCOD9084877 Si02
#       8
#     2   2   2   2   2   2   2   2
#     4  11  21  35  58  88 108 146 189 241 281 330
#     4   9  19  33  54  84 116 149 179 226 288 341
#     4   9  21  35  53  82 117 153 179 226 282 341
#     4  10  21  33  58  86 116 138 185 234 295 331
#     4  10  21  37  58  81 115 150 199 224 272 331
#     4  11  19  33  54  84 116 145 183 226 286 339
#     4  10  22  37  57  83 112 149 190 242 276 323
#     4  10  19  35  57  87 113 147 185 236 283 331
#
# _framework density 20.894406
#
# number of rings (size 3 to 8) (size 9 to 14) (size 15 to 20)
#    0.000    2.000    2.500    1.125    1.750    2.500 
#    0.000    0.625    0.000    3.000    0.000    0.000 
#    0.000    0.000    0.000    0.000    0.000    0.000 
#
# Total GULP energy -89120.686151 kJ/mol
# GULP energy per Si atom -5570.042884 kJ/mol
# Density = 2.084685 g / cm^3
# Si number density = 20.894406 Si / 1000 Ang^3
#
#
#
# Elastic Constant Matrix: (Units=GPa)
#
#
# Indices 1 2 3 4 5 6 
#
# 1 78.2864 47.3351 19.8145 -4.7912 5.6836 1.3006
# 2 47.3351 94.2821 18.3580 -23.5147 2.4065 -3.5077
# 3 19.8145 18.3580 42.3660 -5.5888 11.0838 -7.7647
# 4 -4.7912 -23.5147 -5.5888 30.2643 13.7433 -2.3200
# 5 5.6836 2.4065 11.0838 13.7433 36.3105 -9.7708
# 6 1.3006 -3.5077 -7.7647 -2.3200 -9.7708 40.4972
#
#
#
# Elastic Compliance Matrix: (Units=1/GPa)
#
#
# Indices 1 2 3 4 5 6 
#
# 1 0.020679 -0.011097 -0.006845 -0.007595 0.001663 -0.002972
# 2 -0.011097 0.020564 0.000338 0.017000 -0.005677 0.001806
# 3 -0.006845 0.000338 0.031856 0.010640 -0.011580 0.004173
# 4 -0.007595 0.017000 0.010640 0.058459 -0.025025 0.001068
# 5 0.001663 -0.005677 -0.011580 -0.025025 0.042277 0.006001
# 6 -0.002972 0.001806 0.004173 0.001068 0.006001 0.027254
#
#
# Mechanical properties :
#
#
# Convention : Reuss Voigt Hill
#
# Bulk Modulus (GPa) = 26.39016 42.88329 34.63673
# Shear Modulus (GPa) = 20.08606 30.04286 25.06446
#
# Velocity S-wave (km/s) = 3.10387 3.79600 3.46725
# Velocity P-wave (km/s) = 5.05005 6.30724 5.71333
#
# Compressibility (1/GPa) = 0.03789291
#
# Stress axis : x y z
#
# Youngs Moduli (GPa) = 48.35719 48.62878 31.39077
#
# Poissons Ratio (x) = 0.53962 0.21487
# Poissons Ratio (y) = 0.53661 -0.01062
# Poissons Ratio (z) = 0.33100 -0.01645
#
# Static dielectric constant tensor:
#      x y z
#    x 1.763240 0.040350 -0.012670 
#    y 0.040350 1.798430 -0.059430 
#    z -0.012670 -0.059430 1.838250 
# 
# From -- ./inp_files/237882.got.cif
#   From: 2010.05.17/outbox.cif.g08.bks.cpg/sg2_119_cif.got.tgz:237882.got - 2010.06.03 11:33:40.
