data_PCOD9084246
_publ_section_title
;
Structure prediction by ZEFSAII (Michael W. Deem and Ramdas Pophale) SiO2 
 PCOD9084246
Probable space group: P -1
;
_chemical_formula_sum "Si O2"
_cell_formula_units_Z 16
_cell_length_a 5.372683
_cell_length_b 8.907149
_cell_length_c 17.977660
_cell_angle_alpha 52.706718
_cell_angle_beta 105.196946
_cell_angle_gamma 105.418124
_cell_volume 654.043159
_symmetry_space_group_name_H-M "P -1"
_symmetry_group_IT_number 2
_symmetry_cell_setting 'triclinic'
loop_
_space_group_symop_operation_xyz
x,y,z
-x,-y,-z
loop_
_atom_site_type_symbol
_atom_site_label
_atom_site_fract_x
_atom_site_fract_y
_atom_site_fract_z
Si Si1 0.264112 0.789713 0.174655
Si Si2 0.801366 0.342067 0.077178
Si Si3 0.023550 0.725656 0.413264
Si Si4 0.578082 0.712339 0.482327
Si Si5 0.470617 0.773173 0.056208
Si Si6 0.765432 0.633772 0.681359
Si Si7 0.333751 0.593647 0.785075
Si Si8 0.129002 0.064847 0.801570
O O1 0.220046 0.723215 0.105327
O O2 0.263928 0.590714 0.275320
O O3 0.559631 0.891403 0.178339
O O4 0.055242 0.915655 0.148313
O O5 0.667855 0.374031 0.135991
O O6 0.937680 0.154779 0.160356
O O7 0.583187 0.281521 0.015811
O O8 0.000000 0.500000 0.000000
O O9 0.822858 0.808511 0.426343
O O10 0.944410 0.779337 0.309020
O O11 0.000000 0.500000 0.500000
O O12 0.320989 0.808608 0.423997
O O13 0.500000 0.500000 0.500000
O O14 0.660637 0.716936 0.573145
O O15 0.665047 0.637452 0.147001
O O16 0.500000 0.000000 0.000000
O O17 0.579504 0.662075 0.729261
O O18 0.073787 0.670109 0.711959
#
# Coordination Sequence:
#
# PCOD9084246 Si02
#       8
#     2   2   2   2   2   2   2   2
#     4  11  22  39  63 102 135 176 229 304 361 395
#     4  12  28  48  71  98 148 202 247 284 358 437
#     4  10  19  35  61  99 139 170 219 283 365 416
#     4  10  19  34  62 100 136 171 211 287 359 425
#     4  11  24  44  71 103 139 181 248 311 354 405
#     4  11  22  42  71 100 142 180 235 287 363 423
#     4  11  26  46  68  98 141 197 236 285 358 434
#     4  12  25  41  67 101 145 185 233 296 353 429
#
# _framework density 24.463214000000001
#
# number of rings (size 3 to 8) (size 9 to 14) (size 15 to 20)
#    0.000    1.000    1.250    7.875    1.750    2.500 
#    0.000    0.000    0.000    4.500    0.000    0.000 
#    0.000    0.000    0.000    0.000    0.000    0.000 
#
# Total GULP energy -89221.441581 kJ/mol
# GULP energy per Si atom -5576.340099 kJ/mol
# Density = 2.440753 g / cm^3
# Si number density = 24.463214 Si / 1000 Ang^3
#
#
#
# Elastic Constant Matrix: (Units=GPa)
#
#
# Indices 1 2 3 4 5 6 
#
# 1 155.7433 29.9350 14.3674 22.7035 -10.8946 -34.0916
# 2 29.9350 77.6619 19.8604 23.5905 -10.9457 -25.8782
# 3 14.3674 19.8604 91.7173 26.1591 4.6552 -5.5460
# 4 22.7035 23.5905 26.1591 38.8178 -6.5132 -7.7628
# 5 -10.8946 -10.9457 4.6552 -6.5132 34.0967 16.7261
# 6 -34.0916 -25.8782 -5.5460 -7.7628 16.7261 32.4963
#
#
#
# Elastic Compliance Matrix: (Units=1/GPa)
#
#
# Indices 1 2 3 4 5 6 
#
# 1 0.008994 0.000933 0.000478 -0.004509 -0.003020 0.010737
# 2 0.000933 0.020814 -0.000669 -0.009922 -0.002965 0.016595
# 3 0.000478 -0.000669 0.014186 -0.009759 -0.005206 0.002738
# 4 -0.004509 -0.009922 -0.009759 0.040672 0.008994 -0.009210
# 5 -0.003020 -0.002965 -0.005206 0.008994 0.042722 -0.026259
# 6 0.010737 0.016595 0.002738 -0.009210 -0.026259 0.067036
#
#
# Mechanical properties :
#
#
# Convention : Reuss Voigt Hill
#
# Bulk Modulus (GPa) = 21.98938 50.38313 36.18625
# Shear Modulus (GPa) = 24.02700 38.47946 31.25323
#
# Velocity S-wave (km/s) = 3.13736 3.97035 3.57818
# Velocity P-wave (km/s) = 4.70450 6.45433 5.64760
#
# Compressibility (1/GPa) = 0.04547650
#
# Stress axis : x y z
#
# Youngs Moduli (GPa) = 111.18824 48.04509 70.49052
#
# Poissons Ratio (x) = -0.04482 -0.03367
# Poissons Ratio (y) = -0.10372 0.04717
# Poissons Ratio (z) = -0.05311 0.03215
#
# Static dielectric constant tensor:
#      x y z
#    x 1.999550 0.038580 -0.041030 
#    y 0.038580 1.979070 -0.030150 
#    z -0.041030 -0.030150 2.161260 
# 
# From -- ./inp_files/546994.got.cif
#   From: 2010.05.17/outbox.cif.g08.bks.cpg/sg2_274_cif.got.tgz:546994.got - 2010.06.03 11:33:40.
