data_PCOD9084938
_publ_section_title
;
Structure prediction by ZEFSAII (Michael W. Deem and Ramdas Pophale) SiO2 
 PCOD9084938
Probable space group: P -1
;
_chemical_formula_sum "Si O2"
_cell_formula_units_Z 16
_cell_length_a 8.645497
_cell_length_b 10.747464
_cell_length_c 21.073326
_cell_angle_alpha 140.738875
_cell_angle_beta 140.218345
_cell_angle_gamma 40.644668
_cell_volume 725.187195
_symmetry_space_group_name_H-M "P -1"
_symmetry_group_IT_number 2
_symmetry_cell_setting 'triclinic'
loop_
_space_group_symop_operation_xyz
x,y,z
-x,-y,-z
loop_
_atom_site_type_symbol
_atom_site_label
_atom_site_fract_x
_atom_site_fract_y
_atom_site_fract_z
Si Si1 0.582496 0.796807 0.899884
Si Si2 0.006898 0.767234 0.926082
Si Si3 0.635584 0.654303 0.179070
Si Si4 0.202905 0.786259 0.546379
Si Si5 0.133291 0.734762 0.366983
Si Si6 0.742222 0.438107 0.257000
Si Si7 0.343699 0.604386 0.655150
Si Si8 0.280683 0.123955 0.244137
O O1 0.868396 0.748419 0.940426
O O2 0.516520 0.619915 0.848086
O O3 0.390229 0.804086 0.782223
O O4 0.500000 0.000000 0.000000
O O5 0.286221 0.579533 0.920149
O O6 0.803940 0.760423 0.804616
O O7 0.000000 0.000000 0.000000
O O8 0.677059 0.616535 0.252891
O O9 0.372616 0.865476 0.167502
O O10 0.873787 0.710959 0.251127
O O11 0.187698 0.662023 0.429134
O O12 0.223446 0.671702 0.574661
O O13 0.462841 0.838219 0.638511
O O14 0.946149 0.010705 0.556498
O O15 0.378597 0.594377 0.347221
O O16 0.784540 0.475523 0.358969
O O17 0.011793 0.237249 0.243472
#
# Coordination Sequence:
#
# PCOD9084938 Si02
#       8
#     2   2   2   2   2   2   2   2
#     4  10  19  36  56  80 110 147 180 224 277 320
#     4  11  21  37  59  80 108 141 188 235 265 318
#     4  10  19  36  57  80 110 145 184 226 274 323
#     4  10  20  36  60  85 108 141 188 234 273 322
#     4  10  20  36  60  85 108 141 188 234 273 322
#     4   9  20  34  52  81 113 145 171 225 272 324
#     4  10  19  35  58  77 111 147 178 219 280 328
#     4  10  19  36  57  80 110 145 184 226 274 323
#
# _framework density 22.063267
#
# number of rings (size 3 to 8) (size 9 to 14) (size 15 to 20)
#    0.750    1.250    2.500    2.625    0.000    1.500 
#    0.000    3.750    0.000    8.250    0.000    0.000 
#    0.000    0.000    0.000    0.000    0.000    0.000 
#
# Total GULP energy -89098.720562 kJ/mol
# GULP energy per Si atom -5568.670035 kJ/mol
# Density = 2.201305 g / cm^3
# Si number density = 22.063267 Si / 1000 Ang^3
#
#
#
# Elastic Constant Matrix: (Units=GPa)
#
#
# Indices 1 2 3 4 5 6 
#
# 1 142.4901 49.8966 6.6941 2.0755 -15.7887 -15.6553
# 2 49.8966 131.4565 4.0092 -1.8170 -15.8659 -12.7945
# 3 6.6941 4.0092 56.4786 5.2828 0.0675 -9.2281
# 4 2.0755 -1.8170 5.2828 28.6168 -0.1414 -5.6957
# 5 -15.7887 -15.8659 0.0675 -0.1414 35.1345 9.8031
# 6 -15.6553 -12.7945 -9.2281 -5.6957 9.8031 18.8075
#
#
#
# Elastic Compliance Matrix: (Units=1/GPa)
#
#
# Indices 1 2 3 4 5 6 
#
# 1 0.008610 -0.002644 -0.000089 0.000157 0.001377 0.004654
# 2 -0.002644 0.009211 0.000094 0.001469 0.001996 0.003516
# 3 -0.000089 0.000094 0.019608 -0.001483 -0.003039 0.010746
# 4 0.000157 0.001469 -0.001483 0.037949 -0.002843 0.013377
# 5 0.001377 0.001996 -0.003039 -0.002843 0.035029 -0.018106
# 6 0.004654 0.003516 0.010746 0.013377 -0.018106 0.078198
#
#
# Mechanical properties :
#
#
# Convention : Reuss Voigt Hill
#
# Bulk Modulus (GPa) = 31.10211 50.18057 40.64134
# Shear Modulus (GPa) = 24.43822 34.50011 29.46917
#
# Velocity S-wave (km/s) = 3.33174 3.95864 3.65864
# Velocity P-wave (km/s) = 5.37848 6.60967 6.02560
#
# Compressibility (1/GPa) = 0.03215216
#
# Stress axis : x y z
#
# Youngs Moduli (GPa) = 116.14804 108.56378 51.00000
#
# Poissons Ratio (x) = 0.28703 0.00452
# Poissons Ratio (y) = 0.30708 -0.00481
# Poissons Ratio (z) = 0.01030 -0.01023
#
# Static dielectric constant tensor:
#      x y z
#    x 1.835480 0.000690 0.025970 
#    y 0.000690 1.818960 -0.000200 
#    z 0.025970 -0.000200 1.960520 
# 
# From -- ./inp_files/607606.got.cif
#   From: 2010.05.17/outbox.cif.g08.bks.cpg/sg2_304_cif.got.tgz:607606.got - 2010.06.03 11:33:40.
