data_PCOD9084881
_publ_section_title
;
Structure prediction by ZEFSAII (Michael W. Deem and Ramdas Pophale) SiO2 
 PCOD9084881
Probable space group: P -1
;
_chemical_formula_sum "Si O2"
_cell_formula_units_Z 16
_cell_length_a 12.119091
_cell_length_b 18.588350
_cell_length_c 9.833496
_cell_angle_alpha 139.267944
_cell_angle_beta 71.974673
_cell_angle_gamma 137.826066
_cell_volume 793.609339
_symmetry_space_group_name_H-M "P -1"
_symmetry_group_IT_number 2
_symmetry_cell_setting 'triclinic'
loop_
_space_group_symop_operation_xyz
x,y,z
-x,-y,-z
loop_
_atom_site_type_symbol
_atom_site_label
_atom_site_fract_x
_atom_site_fract_y
_atom_site_fract_z
Si Si1 0.895363 0.825986 0.111462
Si Si2 0.642772 0.333587 0.208901
Si Si3 0.109808 0.217288 0.629025
Si Si4 0.548012 0.017757 0.305565
Si Si5 0.933529 0.420501 0.621274
Si Si6 0.492889 0.623322 0.923214
Si Si7 0.678080 0.983286 0.470348
Si Si8 0.939910 0.621988 0.728813
O O1 0.850659 0.771295 0.209925
O O2 0.681634 0.688577 0.929437
O O3 0.990492 0.787759 0.964984
O O4 0.038881 0.042866 0.351136
O O5 0.552341 0.352909 0.169350
O O6 0.727547 0.448509 0.480858
O O7 0.846178 0.442977 0.215762
O O8 0.506847 0.120317 0.978140
O O9 0.297796 0.413348 0.758775
O O10 0.912940 0.142510 0.588413
O O11 0.752871 0.241818 0.525501
O O12 0.583074 0.972097 0.361538
O O13 0.377080 0.977841 0.330445
O O14 0.926024 0.541957 0.757357
O O15 0.915584 0.335714 0.365720
O O16 0.570577 0.780566 0.221235
#
# Coordination Sequence:
#
# PCOD9084881 Si02
#       8
#     2   2   2   2   2   2   2   2
#     4  10  22  39  55  84 113 140 194 235 269 338
#     4   9  20  37  57  81 116 144 183 233 270 332
#     4  10  21  38  59  80 112 150 180 241 283 319
#     4  10  19  35  57  87 116 148 182 227 281 337
#     4   9  20  38  56  81 117 148 183 227 278 325
#     4  10  20  38  59  82 111 147 189 229 285 325
#     4   9  21  33  56  91 115 140 190 229 274 342
#     4   9  21  40  55  83 116 147 187 233 265 339
#
# _framework density 20.161054
#
# number of rings (size 3 to 8) (size 9 to 14) (size 15 to 20)
#    0.750    1.750    0.000    1.125    3.500    1.000 
#    2.250    4.375    0.000    0.000    0.000    0.000 
#    0.000    0.000    0.000    0.000    0.000    0.000 
#
# Total GULP energy -89160.517800 kJ/mol
# GULP energy per Si atom -5572.532363 kJ/mol
# Density = 2.011517 g / cm^3
# Si number density = 20.161054 Si / 1000 Ang^3
#
#
#
# Elastic Constant Matrix: (Units=GPa)
#
#
# Indices 1 2 3 4 5 6 
#
# 1 58.4849 17.4264 40.7371 -3.3542 -16.9146 6.3144
# 2 17.4264 13.3484 8.9152 22.7376 -12.4687 11.2265
# 3 40.7371 8.9152 47.4741 13.4254 -10.9468 8.7728
# 4 -3.3542 22.7376 13.4254 24.9837 -0.0623 1.9367
# 5 -16.9146 -12.4687 -10.9468 -0.0623 33.0544 -1.6428
# 6 6.3144 11.2265 8.7728 1.9367 -1.6428 10.2284
#
#
#
# Elastic Compliance Matrix: (Units=1/GPa)
#
#
# Indices 1 2 3 4 5 6 
#
# 1 0.030275 0.027398 -0.019585 -0.008167 0.017957 -0.027532
# 2 0.027398 -0.013878 -0.034635 0.033252 -0.001555 0.021479
# 3 -0.019585 -0.034635 0.037039 0.007781 -0.010048 0.015250
# 4 -0.008167 0.033252 0.007781 0.007461 0.009062 -0.038085
# 5 0.017957 -0.001555 -0.010048 0.009062 0.035707 0.003259
# 6 -0.027532 0.021479 0.015250 -0.038085 0.003259 0.085843
#
#
# Mechanical properties :
#
#
# Convention : Reuss Voigt Hill
#
# Bulk Modulus (GPa) = -4775.09676 28.16274 -2373.46701
# Shear Modulus (GPa) = 21.18455 17.13523 19.15989
#
# Velocity S-wave (km/s) = 3.24507 2.91850 3.08611
# Velocity P-wave (km/s) = 48.57548 5.03548 34.16300
#
# Compressibility (1/GPa) = -0.00020942
#
# Stress axis : x y z
#
# Youngs Moduli (GPa) = 33.03107 -72.05436 26.99865
#
# Poissons Ratio (x) = 1.97415 0.52878
# Poissons Ratio (y) = -0.90499 0.93509
# Poissons Ratio (z) = 0.64693 -2.49558
#
# Static dielectric constant tensor:
#      x y z
#    x 1.709540 0.002040 0.005230 
#    y 0.002040 1.696440 -0.043440 
#    z 0.005230 -0.043440 1.773760 
# 
# From -- ./inp_files/438508.got.cif
#   From: 2010.05.17/outbox.cif.g08.bks.cpg/sg2_220_cif.got.tgz:438508.got - 2010.06.03 11:33:40.
