data_PCOD9084514
_publ_section_title
;
Structure prediction by ZEFSAII (Michael W. Deem and Ramdas Pophale) SiO2 
 PCOD9084514
Probable space group: P -1
;
_chemical_formula_sum "Si O2"
_cell_formula_units_Z 16
_cell_length_a 8.594923
_cell_length_b 11.429013
_cell_length_c 14.176607
_cell_angle_alpha 60.750626
_cell_angle_beta 42.727485
_cell_angle_gamma 80.534343
_cell_volume 778.664978
_symmetry_space_group_name_H-M "P -1"
_symmetry_group_IT_number 2
_symmetry_cell_setting 'triclinic'
loop_
_space_group_symop_operation_xyz
x,y,z
-x,-y,-z
loop_
_atom_site_type_symbol
_atom_site_label
_atom_site_fract_x
_atom_site_fract_y
_atom_site_fract_z
Si Si1 0.237049 0.743899 0.535186
Si Si2 0.863797 0.845165 0.579160
Si Si3 0.992040 0.796720 0.016760
Si Si4 0.259851 0.600678 0.377525
Si Si5 0.630734 0.495398 0.341827
Si Si6 0.453546 0.948836 0.649407
Si Si7 0.207945 0.867716 0.246350
Si Si8 0.278120 0.988365 0.974870
O O1 0.266994 0.673670 0.448765
O O2 0.288834 0.643023 0.631423
O O3 0.962429 0.750728 0.645628
O O4 0.433494 0.901436 0.401363
O O5 0.600680 0.848641 0.665134
O O6 0.988215 0.827900 0.431827
O O7 0.000000 0.000000 0.500000
O O8 0.862786 0.632963 0.162132
O O9 0.169105 0.870007 0.993657
O O10 0.170741 0.857210 0.825493
O O11 0.784491 0.871181 0.078568
O O12 0.438990 0.509315 0.343380
O O13 0.305060 0.735716 0.235535
O O14 0.000000 0.500000 0.500000
O O15 0.500000 0.500000 0.500000
O O16 0.500000 0.000000 0.500000
O O17 0.145250 0.929496 0.154748
O O18 0.439139 0.982258 0.146065
#
# Coordination Sequence:
#
# PCOD9084514 Si02
#       8
#     2   2   2   2   2   2   2   2
#     4   9  21  38  60  88 119 161 202 250 296 357
#     4   9  18  36  59  81 118 158 208 246 286 344
#     4  11  22  37  59  90 123 157 199 252 304 366
#     4  10  20  34  57  86 124 156 192 237 308 377
#     4  10  22  38  58  88 128 161 191 242 318 376
#     4  11  23  40  66  90 116 162 212 252 299 350
#     4  10  19  35  53  91 118 152 196 255 300 357
#     4  10  21  32  58  86 126 149 194 255 316 354
#
# _framework density 20.547991
#
# number of rings (size 3 to 8) (size 9 to 14) (size 15 to 20)
#    0.000    2.000    1.250    3.000    8.750    2.000 
#    0.000    1.250    0.000    0.000    0.000    0.000 
#    0.000    0.000    0.000    0.000    0.000    0.000 
#
# Total GULP energy -89077.835084 kJ/mol
# GULP energy per Si atom -5567.364693 kJ/mol
# Density = 2.050122 g / cm^3
# Si number density = 20.547991 Si / 1000 Ang^3
#
#
#
# Elastic Constant Matrix: (Units=GPa)
#
#
# Indices 1 2 3 4 5 6 
#
# 1 56.4297 32.2055 17.6236 -5.7498 7.3038 -27.4821
# 2 32.2055 61.2018 27.7014 -14.1417 4.0133 -27.4323
# 3 17.6236 27.7014 91.7307 -13.4121 -5.8027 -4.8150
# 4 -5.7498 -14.1417 -13.4121 28.4499 -4.5552 5.5814
# 5 7.3038 4.0133 -5.8027 -4.5552 23.2516 1.5209
# 6 -27.4821 -27.4323 -4.8150 5.5814 1.5209 42.8136
#
#
#
# Elastic Compliance Matrix: (Units=1/GPa)
#
#
# Indices 1 2 3 4 5 6 
#
# 1 0.032831 -0.008267 -0.004393 -0.004661 -0.011962 0.016315
# 2 -0.008267 0.031598 -0.006350 0.007820 -0.003782 0.013340
# 3 -0.004393 -0.006350 0.014584 0.005257 0.007551 -0.006201
# 4 -0.004661 0.007820 0.005257 0.042833 0.010036 -0.003331
# 5 -0.011962 -0.003782 0.007551 0.010036 0.052080 -0.012411
# 6 0.016315 0.013340 -0.006201 -0.003331 -0.012411 0.042555
#
#
# Mechanical properties :
#
#
# Convention : Reuss Voigt Hill
#
# Bulk Modulus (GPa) = 24.39450 40.49145 32.44298
# Shear Modulus (GPa) = 18.64529 27.69180 23.16855
#
# Velocity S-wave (km/s) = 3.01558 3.67504 3.36152
# Velocity P-wave (km/s) = 4.90130 6.14463 5.55784
#
# Compressibility (1/GPa) = 0.04099285
#
# Stress axis : x y z
#
# Youngs Moduli (GPa) = 30.45941 31.64752 68.57012
#
# Poissons Ratio (x) = 0.26165 0.30121
# Poissons Ratio (y) = 0.25182 0.43539
# Poissons Ratio (z) = 0.13380 0.20095
#
# Static dielectric constant tensor:
#      x y z
#    x 1.788840 -0.019630 -0.016950 
#    y -0.019630 1.840140 -0.009880 
#    z -0.016950 -0.009880 1.848300 
# 
# From -- ./inp_files/464339.got.cif
#   From: 2010.05.17/outbox.cif.g08.bks.cpg/sg2_233_cif.got.tgz:464339.got - 2010.06.03 11:33:40.
