data_PCOD9084010
_publ_section_title
;
Structure prediction by ZEFSAII (Michael W. Deem and Ramdas Pophale) SiO2 
 PCOD9084010
Probable space group: P -1
;
_chemical_formula_sum "Si O2"
_cell_formula_units_Z 16
_cell_length_a 11.514722
_cell_length_b 8.157470
_cell_length_c 8.966791
_cell_angle_alpha 68.366761
_cell_angle_beta 67.149190
_cell_angle_gamma 54.071306
_cell_volume 617.203038
_symmetry_space_group_name_H-M "P -1"
_symmetry_group_IT_number 2
_symmetry_cell_setting 'triclinic'
loop_
_space_group_symop_operation_xyz
x,y,z
-x,-y,-z
loop_
_atom_site_type_symbol
_atom_site_label
_atom_site_fract_x
_atom_site_fract_y
_atom_site_fract_z
Si Si1 0.539225 0.395700 0.179178
Si Si2 0.973456 0.432741 0.371698
Si Si3 0.958841 0.326668 0.963308
Si Si4 0.487859 0.063250 0.236017
Si Si5 0.965205 0.063174 0.791023
Si Si6 0.266829 0.658554 0.431413
Si Si7 0.665033 0.671473 0.079695
Si Si8 0.233487 0.024772 0.490355
O O1 0.582201 0.160355 0.217707
O O2 0.397052 0.492023 0.322788
O O3 0.633651 0.484986 0.171000
O O4 0.500000 0.500000 0.000000
O O5 0.959223 0.606062 0.211994
O O6 0.000000 0.500000 0.500000
O O7 0.826116 0.429166 0.420656
O O8 0.115254 0.201142 0.376239
O O9 0.900210 0.217161 0.913364
O O10 0.838986 0.543116 0.019827
O O11 0.031161 0.146280 0.106313
O O12 0.590293 0.837499 0.191276
O O13 0.366622 0.071139 0.408645
O O14 0.400621 0.205974 0.086097
O O15 0.124078 0.028350 0.673293
O O16 0.854791 0.176477 0.675546
O O17 0.308201 0.792782 0.467931
#
# Coordination Sequence:
#
# PCOD9084010 Si02
#       8
#     2   2   2   2   2   2   2   2
#     4  10  20  32  60  92 118 151 198 263 297 343
#     4  11  19  33  58  86 114 154 201 243 289 354
#     4  11  21  38  59  88 123 158 203 243 304 370
#     4  10  19  34  59  90 115 153 204 250 300 347
#     4  10  22  36  58  88 120 165 192 247 314 353
#     4  11  21  37  58  93 122 152 205 250 300 359
#     4  10  20  36  56  92 118 152 200 253 300 354
#     4  11  20  37  58  89 123 153 205 250 298 362
#
# _framework density 25.923397000000001
#
# number of rings (size 3 to 8) (size 9 to 14) (size 15 to 20)
#    0.000    1.500    5.000    3.750    0.000    0.000 
#    0.000    3.125    0.000    0.750    0.000    0.000 
#    0.000    0.000    0.000    0.000    0.000    0.000 
#
# Total GULP energy -89487.443113 kJ/mol
# GULP energy per Si atom -5592.965195 kJ/mol
# Density = 2.586439 g / cm^3
# Si number density = 25.923397 Si / 1000 Ang^3
#
#
#
# Elastic Constant Matrix: (Units=GPa)
#
#
# Indices 1 2 3 4 5 6 
#
# 1 59.1128 23.7324 19.9315 -11.8008 -7.0141 22.0160
# 2 23.7324 120.0606 51.1746 -3.1431 6.2567 29.5526
# 3 19.9315 51.1746 118.3740 -29.4486 -13.1090 2.4323
# 4 -11.8008 -3.1431 -29.4486 48.9558 6.2013 0.9551
# 5 -7.0141 6.2567 -13.1090 6.2013 29.0952 -9.6321
# 6 22.0160 29.5526 2.4323 0.9551 -9.6321 40.2048
#
#
#
# Elastic Compliance Matrix: (Units=1/GPa)
#
#
# Indices 1 2 3 4 5 6 
#
# 1 0.023433 -0.000278 -0.002526 0.004434 -0.000586 -0.012721
# 2 -0.000278 0.015809 -0.008344 -0.002385 -0.011218 -0.013595
# 3 -0.002526 -0.008344 0.014960 0.006490 0.009428 0.008716
# 4 0.004434 -0.002385 0.006490 0.025490 -0.001609 -0.002058
# 5 -0.000586 -0.011218 0.009428 -0.001609 0.047673 0.019456
# 6 -0.012721 -0.013595 0.008716 -0.002058 0.019456 0.046014
#
#
# Mechanical properties :
#
#
# Convention : Reuss Voigt Hill
#
# Bulk Modulus (GPa) = 31.34126 54.13605 42.73865
# Shear Modulus (GPa) = 24.23538 37.16507 30.70023
#
# Velocity S-wave (km/s) = 3.06090 3.79046 3.44505
# Velocity P-wave (km/s) = 4.96068 6.33129 5.68743
#
# Compressibility (1/GPa) = 0.03190682
#
# Stress axis : x y z
#
# Youngs Moduli (GPa) = 42.67418 63.25515 66.84555
#
# Poissons Ratio (x) = 0.01756 0.16886
# Poissons Ratio (y) = 0.01184 0.55776
# Poissons Ratio (z) = 0.10780 0.52780
#
# Static dielectric constant tensor:
#      x y z
#    x 2.107640 0.034020 -0.033110 
#    y 0.034020 2.044320 0.108550 
#    z -0.033110 0.108550 2.332460 
# 
# From -- ./inp_files/444160.got.cif
#   From: 2010.05.17/outbox.cif.g08.bks.cpg/sg2_223_cif.got.tgz:444160.got - 2010.06.03 11:33:40.
