data_PCOD9084291
_publ_section_title
;
Structure prediction by ZEFSAII (Michael W. Deem and Ramdas Pophale) SiO2 
 PCOD9084291
Probable space group: P -1
;
_chemical_formula_sum "Si O2"
_cell_formula_units_Z 16
_cell_length_a 13.562431
_cell_length_b 8.266156
_cell_length_c 17.402200
_cell_angle_alpha 97.960582
_cell_angle_beta 27.967946
_cell_angle_gamma 77.362826
_cell_volume 615.017180
_symmetry_space_group_name_H-M "P -1"
_symmetry_group_IT_number 2
_symmetry_cell_setting 'triclinic'
loop_
_space_group_symop_operation_xyz
x,y,z
-x,-y,-z
loop_
_atom_site_type_symbol
_atom_site_label
_atom_site_fract_x
_atom_site_fract_y
_atom_site_fract_z
Si Si1 0.656635 0.981769 0.468818
Si Si2 0.399632 0.489960 0.653397
Si Si3 0.357583 0.315598 0.452035
Si Si4 0.226118 0.874738 0.408995
Si Si5 0.252725 0.695552 0.117405
Si Si6 0.991725 0.322362 0.400379
Si Si7 0.420315 0.920344 0.943820
Si Si8 0.140044 0.294539 0.049672
O O1 0.412868 0.781287 0.468244
O O2 0.431381 0.640312 0.689492
O O3 0.525101 0.929592 0.620656
O O4 0.500000 0.000000 0.500000
O O5 0.500000 0.500000 0.500000
O O6 0.056105 0.616200 0.885978
O O7 0.970180 0.253532 0.792431
O O8 0.171111 0.428105 0.507747
O O9 0.103413 0.501814 0.705631
O O10 0.027961 0.080972 0.622193
O O11 0.555003 0.769436 0.163592
O O12 0.000000 0.000000 0.500000
O O13 0.249288 0.676934 0.409348
O O14 0.434246 0.729120 0.948608
O O15 0.500000 0.500000 0.000000
O O16 0.203950 0.129498 0.171899
O O17 0.235688 0.207783 0.292530
O O18 0.254369 0.054422 0.987732
#
# Coordination Sequence:
#
# PCOD9084291 Si02
#       8
#     2   2   2   2   2   2   2   2
#     4  12  22  38  67  99 130 167 229 283 323 392
#     4  10  19  36  60  97 124 164 221 270 318 395
#     4  10  21  37  67  93 126 173 230 271 327 398
#     4  11  22  38  64  97 135 177 224 272 344 407
#     4  11  25  40  62  95 135 172 225 281 334 400
#     4   9  17  33  56  87 123 160 214 265 318 390
#     4   9  17  32  57  85 117 165 212 260 315 393
#     4  10  19  34  62  92 123 165 220 273 326 390
#
# _framework density 26.015532
#
# number of rings (size 3 to 8) (size 9 to 14) (size 15 to 20)
#    0.000    1.750    3.750    3.750    3.500    0.000 
#    0.000    3.125    0.000    1.500    0.000    0.000 
#    0.000    0.000    0.000    0.000    0.000    0.000 
#
# Total GULP energy -89304.408569 kJ/mol
# GULP energy per Si atom -5581.525536 kJ/mol
# Density = 2.595632 g / cm^3
# Si number density = 26.015532 Si / 1000 Ang^3
#
#
#
# Elastic Constant Matrix: (Units=GPa)
#
#
# Indices 1 2 3 4 5 6 
#
# 1 77.9251 43.6171 34.8762 7.7985 -35.4350 -12.9309
# 2 43.6171 203.5448 46.3362 -1.9322 -28.9384 -31.4309
# 3 34.8762 46.3362 138.7511 0.2784 -35.1816 1.5531
# 4 7.7985 -1.9322 0.2784 42.5901 10.7598 -4.4657
# 5 -35.4350 -28.9384 -35.1816 10.7598 55.6950 14.5343
# 6 -12.9309 -31.4309 1.5531 -4.4657 14.5343 43.9717
#
#
#
# Elastic Compliance Matrix: (Units=1/GPa)
#
#
# Indices 1 2 3 4 5 6 
#
# 1 0.021436 -0.002630 -0.001156 -0.007423 0.013141 -0.000633
# 2 -0.002630 0.006436 -0.001753 0.001450 -0.000843 0.004315
# 3 -0.001156 -0.001753 0.009612 -0.001829 0.005835 -0.004047
# 4 -0.007423 0.001450 -0.001829 0.028606 -0.012177 0.005849
# 5 0.013141 -0.000843 0.005835 -0.012177 0.034409 -0.009555
# 6 -0.000633 0.004315 -0.004047 0.005849 -0.009555 0.029535
#
#
# Mechanical properties :
#
#
# Convention : Reuss Voigt Hill
#
# Bulk Modulus (GPa) = 37.87199 74.43110 56.15155
# Shear Modulus (GPa) = 33.35270 48.14413 40.74842
#
# Velocity S-wave (km/s) = 3.58443 4.30652 3.96196
# Velocity P-wave (km/s) = 5.63204 7.30756 6.52382
#
# Compressibility (1/GPa) = 0.02640474
#
# Stress axis : x y z
#
# Youngs Moduli (GPa) = 46.65134 155.38048 104.04202
#
# Poissons Ratio (x) = 0.40869 0.12024
# Poissons Ratio (y) = 0.12271 0.18240
# Poissons Ratio (z) = 0.05392 0.27240
#
# Static dielectric constant tensor:
#      x y z
#    x 2.216690 0.088230 -0.019200 
#    y 0.088230 1.982890 0.020640 
#    z -0.019200 0.020640 2.044070 
# 
# From -- ./inp_files/612752.got.cif
#   From: 2010.05.17/outbox.cif.g08.bks.cpg/sg2_307_cif.got.tgz:612752.got - 2010.06.03 11:33:40.
