data_PCOD9084047
_publ_section_title
;
Structure prediction by ZEFSAII (Michael W. Deem and Ramdas Pophale) SiO2 
 PCOD9084047
Probable space group: P -1
;
_chemical_formula_sum "Si O2"
_cell_formula_units_Z 16
_cell_length_a 9.996943
_cell_length_b 9.336926
_cell_length_c 7.597934
_cell_angle_alpha 114.929351
_cell_angle_beta 83.479713
_cell_angle_gamma 98.383767
_cell_volume 635.173157
_symmetry_space_group_name_H-M "P -1"
_symmetry_group_IT_number 2
_symmetry_cell_setting 'triclinic'
loop_
_space_group_symop_operation_xyz
x,y,z
-x,-y,-z
loop_
_atom_site_type_symbol
_atom_site_label
_atom_site_fract_x
_atom_site_fract_y
_atom_site_fract_z
Si Si1 0.284012 0.481237 0.858282
Si Si2 0.044459 0.551433 0.718412
Si Si3 0.217876 0.935806 0.670839
Si Si4 0.885260 0.794612 0.035338
Si Si5 0.442939 0.855600 0.809018
Si Si6 0.325950 0.323547 0.266307
Si Si7 0.378668 0.207805 0.559475
Si Si8 0.220843 0.630280 0.274147
O O1 0.178605 0.339362 0.886867
O O2 0.406136 0.377867 0.740135
O O3 0.197820 0.538809 0.740221
O O4 0.300884 0.619623 0.073451
O O5 0.934948 0.431936 0.778116
O O6 0.000000 0.500000 0.500000
O O7 0.002219 0.721929 0.872026
O O8 0.288362 0.871338 0.799601
O O9 0.209151 0.792137 0.460605
O O10 0.091412 0.031817 0.792445
O O11 0.311919 0.077970 0.633774
O O12 0.760328 0.791359 0.915240
O O13 0.514289 0.702577 0.786483
O O14 0.502350 0.859461 0.601770
O O15 0.500000 0.000000 0.000000
O O16 0.288294 0.257472 0.432761
O O17 0.284276 0.497130 0.316467
#
# Coordination Sequence:
#
# PCOD9084047 Si02
#       8
#     2   2   2   2   2   2   2   2
#     4   9  17  35  56  75 107 144 181 218 261 333
#     4  10  19  35  60  80 103 146 187 213 265 341
#     4  11  20  35  54  84 114 138 174 241 269 304
#     4   9  17  32  54  79 106 142 181 211 270 323
#     4  10  19  34  60  79 107 148 190 211 267 328
#     4   8  17  34  54  76 103 146 187 206 256 329
#     4   9  19  34  57  79 103 146 190 212 261 329
#     4  10  21  35  55  82 113 137 180 229 278 301
#
# _framework density 25.189979999999998
#
# number of rings (size 3 to 8) (size 9 to 14) (size 15 to 20)
#    0.750    2.000    1.250    3.375    0.000    0.500 
#    0.000   11.875    0.000    0.000    0.000    0.875 
#    0.000    0.000    0.000    0.000    0.000    0.000 
#
# Total GULP energy -89125.418688 kJ/mol
# GULP energy per Si atom -5570.338668 kJ/mol
# Density = 2.513265 g / cm^3
# Si number density = 25.189980 Si / 1000 Ang^3
#
#
#
# Elastic Constant Matrix: (Units=GPa)
#
#
# Indices 1 2 3 4 5 6 
#
# 1 59.2783 23.0809 25.4520 8.8028 -4.9496 -19.2962
# 2 23.0809 105.0653 48.2823 31.8164 0.4536 -17.2876
# 3 25.4520 48.2823 162.3327 47.8488 -21.0001 -24.5973
# 4 8.8028 31.8164 47.8488 67.0569 -17.5904 -6.1152
# 5 -4.9496 0.4536 -21.0001 -17.5904 29.6831 2.8198
# 6 -19.2962 -17.2876 -24.5973 -6.1152 2.8198 38.4877
#
#
#
# Elastic Compliance Matrix: (Units=1/GPa)
#
#
# Indices 1 2 3 4 5 6 
#
# 1 0.021415 -0.003069 -0.001060 0.000859 0.002557 0.008630
# 2 -0.003069 0.013372 -0.002187 -0.005687 -0.005880 0.002597
# 3 -0.001060 -0.002187 0.009174 -0.004117 0.003581 0.003433
# 4 0.000859 -0.005687 -0.004117 0.023216 0.011255 -0.001891
# 5 0.002557 -0.005880 0.003581 0.011255 0.043453 -0.000466
# 6 0.008630 0.002597 0.003433 -0.001891 -0.000466 0.033403
#
#
# Mechanical properties :
#
#
# Convention : Reuss Voigt Hill
#
# Bulk Modulus (GPa) = 31.91820 57.81186 44.86503
# Shear Modulus (GPa) = 29.92128 42.36963 36.14546
#
# Velocity S-wave (km/s) = 3.45022 4.10567 3.79214
# Velocity P-wave (km/s) = 5.34514 6.74356 6.08466
#
# Compressibility (1/GPa) = 0.03133009
#
# Stress axis : x y z
#
# Youngs Moduli (GPa) = 46.69730 74.78402 109.00815
#
# Poissons Ratio (x) = 0.22948 0.11550
# Poissons Ratio (y) = 0.14329 0.23839
# Poissons Ratio (z) = 0.04948 0.16355
#
# Static dielectric constant tensor:
#      x y z
#    x 2.100040 0.033460 -0.098290 
#    y 0.033460 2.020150 -0.005910 
#    z -0.098290 -0.005910 2.078460 
# 
# From -- ./inp_files/250387.got.cif
#   From: 2010.05.17/outbox.cif.g08.bks.cpg/sg2_126_cif.got.tgz:250387.got - 2010.06.03 11:33:40.
