data_PCOD9084843
_publ_section_title
;
Structure prediction by ZEFSAII (Michael W. Deem and Ramdas Pophale) SiO2 
 PCOD9084843
Probable space group: P -1
;
_chemical_formula_sum "Si O2"
_cell_formula_units_Z 10
_cell_length_a 10.230021
_cell_length_b 10.501098
_cell_length_c 7.254572
_cell_angle_alpha 62.871959
_cell_angle_beta 41.333160
_cell_angle_gamma 78.743214
_cell_volume 443.484210
_symmetry_space_group_name_H-M "P -1"
_symmetry_group_IT_number 2
_symmetry_cell_setting 'triclinic'
loop_
_space_group_symop_operation_xyz
x,y,z
-x,-y,-z
loop_
_atom_site_type_symbol
_atom_site_label
_atom_site_fract_x
_atom_site_fract_y
_atom_site_fract_z
Si Si1 0.960083 0.561535 0.701854
Si Si2 0.247809 0.909227 0.681049
Si Si3 0.994358 0.111245 0.674498
Si Si4 0.599527 0.904052 0.099042
Si Si5 0.275066 0.638205 0.626601
O O1 0.000000 0.500000 0.500000
O O2 0.950697 0.730617 0.581582
O O3 0.153084 0.560619 0.631135
O O4 0.764798 0.466101 0.083780
O O5 0.488595 0.920794 0.400584
O O6 0.186331 0.052260 0.573337
O O7 0.172544 0.771258 0.710840
O O8 0.131071 0.868816 0.021160
O O9 0.835296 0.980569 0.820212
O O10 0.505856 0.730457 0.275465
O O11 0.500000 0.000000 0.000000
#
# Coordination Sequence:
#
# PCOD9084843 Si02
#       5
#     2   2   2   2   2
#     4  11  19  34  58  82 114 154 178 230 292 334
#     4   9  21  35  57  91 107 144 200 228 274 340
#     4  11  19  36  64  81 113 149 187 239 278 325
#     4  10  19  35  57  84 110 148 188 235 275 331
#     4   9  21  35  55  87 112 143 194 228 280 341
#
# _framework density 22.548718000000001
#
# number of rings (size 3 to 8) (size 9 to 14) (size 15 to 20)
#    1.200    0.800    4.000    0.600    0.000    3.200 
#    0.000    0.000    4.400    7.200    0.000    0.000 
#    0.000    0.000    0.000    0.000    0.000    0.000 
#
# Total GULP energy -55735.042190 kJ/mol
# GULP energy per Si atom -5573.504219 kJ/mol
# Density = 2.249740 g / cm^3
# Si number density = 22.548718 Si / 1000 Ang^3
#
#
#
# Elastic Constant Matrix: (Units=GPa)
#
#
# Indices 1 2 3 4 5 6 
#
# 1 44.4469 13.2537 37.4094 -4.4511 9.0000 20.5074
# 2 13.2537 59.3308 50.9236 -10.2609 -1.1062 3.7148
# 3 37.4094 50.9236 152.2183 -26.3949 5.0645 -3.8161
# 4 -4.4511 -10.2609 -26.3949 49.2949 -3.8509 7.8766
# 5 9.0000 -1.1062 5.0645 -3.8509 37.2612 -0.4924
# 6 20.5074 3.7148 -3.8161 7.8766 -0.4924 40.3403
#
#
#
# Elastic Compliance Matrix: (Units=1/GPa)
#
#
# Indices 1 2 3 4 5 6 
#
# 1 0.045369 0.001538 -0.011736 0.001336 -0.009506 -0.024692
# 2 0.001538 0.024253 -0.008392 0.001469 0.001587 -0.004076
# 3 -0.011736 -0.008392 0.012931 0.003034 0.001239 0.007385
# 4 0.001336 0.001469 0.003034 0.023273 0.001647 -0.005051
# 5 -0.009506 0.001587 0.001239 0.001647 0.029246 0.004839
# 6 -0.024692 -0.004076 0.007385 -0.005051 0.004839 0.039461
#
#
# Mechanical properties :
#
#
# Convention : Reuss Voigt Hill
#
# Bulk Modulus (GPa) = 22.03921 51.01883 36.52902
# Shear Modulus (GPa) = 22.04221 35.67322 28.85771
#
# Velocity S-wave (km/s) = 3.12995 3.98182 3.58130
# Velocity P-wave (km/s) = 4.78094 6.61929 5.77375
#
# Compressibility (1/GPa) = 0.04537368
#
# Stress axis : x y z
#
# Youngs Moduli (GPa) = 22.04140 41.23252 77.33275
#
# Poissons Ratio (x) = -0.06340 0.90754
# Poissons Ratio (y) = -0.03389 0.64896
# Poissons Ratio (z) = 0.25867 0.34601
#
# Static dielectric constant tensor:
#      x y z
#    x 1.876390 0.052640 -0.019500 
#    y 0.052640 1.853100 0.009450 
#    z -0.019500 0.009450 1.919800 
# 
# From -- ./inp_files/151465.got.cif
#   From: 2010.05.17/outbox.cif.g08.bks.cpg/sg2_76_cif.got.tgz:151465.got - 2010.06.03 11:33:40.
