data_PCOD9084135
_publ_section_title
;
Structure prediction by ZEFSAII (Michael W. Deem and Ramdas Pophale) SiO2 
 PCOD9084135
Probable space group: P -1
;
_chemical_formula_sum "Si O2"
_cell_formula_units_Z 16
_cell_length_a 16.400829
_cell_length_b 11.268244
_cell_length_c 14.729446
_cell_angle_alpha 126.902592
_cell_angle_beta 150.481313
_cell_angle_gamma 34.334579
_cell_volume 684.748591
_symmetry_space_group_name_H-M "P -1"
_symmetry_group_IT_number 2
_symmetry_cell_setting 'triclinic'
loop_
_space_group_symop_operation_xyz
x,y,z
-x,-y,-z
loop_
_atom_site_type_symbol
_atom_site_label
_atom_site_fract_x
_atom_site_fract_y
_atom_site_fract_z
Si Si1 0.148987 0.491362 0.307283
Si Si2 0.534325 0.148989 0.687222
Si Si3 0.129843 0.009360 0.706398
Si Si4 0.012621 0.147186 0.130907
Si Si5 0.368268 0.750003 0.992759
Si Si6 0.288774 0.359499 0.959475
Si Si7 0.613129 0.050064 0.446741
Si Si8 0.228026 0.275873 0.679436
O O1 0.338219 0.346032 0.512254
O O2 0.346101 0.316773 0.335005
O O3 0.888046 0.569215 0.094314
O O4 0.039163 0.732090 0.311709
O O5 0.770462 0.921939 0.753045
O O6 0.416274 0.092720 0.601048
O O7 0.644087 0.192755 0.886860
O O8 0.155636 0.901126 0.776787
O O9 0.404532 0.869271 0.861316
O O10 0.000000 0.000000 0.500000
O O11 0.774237 0.424295 0.024985
O O12 0.143171 0.043756 0.308919
O O13 0.000000 0.000000 0.000000
O O14 0.500000 0.500000 0.000000
O O15 0.544235 0.763284 0.132366
O O16 0.164383 0.340551 0.752129
O O17 0.686990 0.946965 0.370263
O O18 0.000000 0.500000 0.500000
#
# Coordination Sequence:
#
# PCOD9084135 Si02
#       8
#     2   2   2   2   2   2   2   2
#     4  11  20  40  64  88 126 159 204 251 307 372
#     4  10  19  37  63  91 118 158 202 257 302 363
#     4  11  26  40  60  90 126 165 206 249 313 369
#     4  11  21  31  59  95 124 151 208 258 301 357
#     4  10  22  38  60  88 120 159 203 250 310 356
#     4  11  21  39  60  91 122 164 209 250 306 366
#     4  10  19  37  60  92 123 163 202 252 309 362
#     4  10  19  34  60  94 125 149 205 259 299 358
#
# _framework density 23.366240000000001
#
# number of rings (size 3 to 8) (size 9 to 14) (size 15 to 20)
#    0.000    1.500    3.750    2.625    7.000    0.000 
#    0.000    5.625    0.000    0.750    0.000    0.000 
#    0.000    0.000    0.000    0.000    0.000    0.000 
#
# Total GULP energy -89271.865592 kJ/mol
# GULP energy per Si atom -5579.491600 kJ/mol
# Density = 2.331306 g / cm^3
# Si number density = 23.366240 Si / 1000 Ang^3
#
#
#
# Elastic Constant Matrix: (Units=GPa)
#
#
# Indices 1 2 3 4 5 6 
#
# 1 32.5898 19.7610 5.9098 -0.4619 -10.9020 -6.2197
# 2 19.7610 204.9185 45.9465 -0.9657 -11.5085 -12.9718
# 3 5.9098 45.9465 88.2126 15.0002 -9.8346 -4.3745
# 4 -0.4619 -0.9657 15.0002 49.1746 -4.1793 -3.2014
# 5 -10.9020 -11.5085 -9.8346 -4.1793 22.6318 -2.6501
# 6 -6.2197 -12.9718 -4.3745 -3.2014 -2.6501 35.9840
#
#
#
# Elastic Compliance Matrix: (Units=1/GPa)
#
#
# Indices 1 2 3 4 5 6 
#
# 1 0.040161 -0.002431 0.000781 0.002282 0.019786 0.007820
# 2 -0.002431 0.005931 -0.002942 0.001173 0.000963 0.001535
# 3 0.000781 -0.002942 0.014000 -0.003904 0.004331 0.000748
# 4 0.002282 0.001173 -0.003904 0.022116 0.004392 0.002634
# 5 0.019786 0.000963 0.004331 0.004392 0.057947 0.008952
# 6 0.007820 0.001535 0.000748 0.002634 0.008952 0.030680
#
#
# Mechanical properties :
#
#
# Convention : Reuss Voigt Hill
#
# Bulk Modulus (GPa) = 19.64331 52.10617 35.87474
# Shear Modulus (GPa) = 25.38224 38.49833 31.94028
#
# Velocity S-wave (km/s) = 3.29945 4.06347 3.70123
# Velocity P-wave (km/s) = 4.78958 6.66063 5.80104
#
# Compressibility (1/GPa) = 0.05090791
#
# Stress axis : x y z
#
# Youngs Moduli (GPa) = 24.89999 168.60782 71.42736
#
# Poissons Ratio (x) = 0.40988 -0.05581
# Poissons Ratio (y) = 0.06053 0.21016
# Poissons Ratio (z) = -0.01946 0.49609
#
# Static dielectric constant tensor:
#      x y z
#    x 2.032520 -0.039750 -0.016110 
#    y -0.039750 1.844300 0.026170 
#    z -0.016110 0.026170 1.936900 
# 
# From -- ./inp_files/259971.got.cif
#   From: 2010.05.17/outbox.cif.g08.bks.cpg/sg2_130_cif.got.tgz:259971.got - 2010.06.03 11:33:40.
