data_PCOD9084310
_publ_section_title
;
Structure prediction by ZEFSAII (Michael W. Deem and Ramdas Pophale) SiO2 
 PCOD9084310
Probable space group: P -1
;
_chemical_formula_sum "Si O2"
_cell_formula_units_Z 16
_cell_length_a 8.058329
_cell_length_b 11.664102
_cell_length_c 11.303050
_cell_angle_alpha 109.871731
_cell_angle_beta 62.432790
_cell_angle_gamma 127.410802
_cell_volume 745.456664
_symmetry_space_group_name_H-M "P -1"
_symmetry_group_IT_number 2
_symmetry_cell_setting 'triclinic'
loop_
_space_group_symop_operation_xyz
x,y,z
-x,-y,-z
loop_
_atom_site_type_symbol
_atom_site_label
_atom_site_fract_x
_atom_site_fract_y
_atom_site_fract_z
Si Si1 0.041451 0.525194 0.186962
Si Si2 0.824878 0.640172 0.752970
Si Si3 0.108850 0.089159 0.801700
Si Si4 0.901148 0.831775 0.589643
Si Si5 0.543760 0.873782 0.803384
Si Si6 0.938531 0.186451 0.723350
Si Si7 0.840222 0.082012 0.111318
Si Si8 0.367268 0.603448 0.894006
O O1 0.086577 0.456616 0.261128
O O2 0.100312 0.686505 0.239902
O O3 0.793219 0.444043 0.184810
O O4 0.203914 0.531646 0.033027
O O5 0.887677 0.700366 0.619627
O O6 0.560756 0.571202 0.823179
O O7 0.946368 0.784659 0.845727
O O8 0.134869 0.223215 0.766574
O O9 0.267555 0.061575 0.820888
O O10 0.037361 0.971139 0.679212
O O11 0.927039 0.058276 0.951529
O O12 0.658424 0.810543 0.660895
O O13 0.002903 0.851374 0.435171
O O14 0.322713 0.862838 0.832769
O O15 0.492178 0.779214 0.906153
O O16 0.723743 0.045625 0.801128
#
# Coordination Sequence:
#
# PCOD9084310 Si02
#       8
#     2   2   2   2   2   2   2   2
#     4  11  23  39  64  95 126 164 208 251 316 382
#     4  10  21  41  65  89 131 162 203 261 309 373
#     4   9  19  34  56  87 123 153 197 258 310 361
#     4   9  21  40  61  85 123 171 209 255 306 358
#     4  10  19  38  63  86 123 160 206 253 312 365
#     4  11  23  39  60  90 126 168 210 257 301 370
#     4  10  19  34  62  95 119 160 206 255 324 370
#     4  10  22  40  65  93 127 163 201 261 322 368
#
# _framework density 21.463353999999999
#
# number of rings (size 3 to 8) (size 9 to 14) (size 15 to 20)
#    0.000    2.000    1.250    3.375    1.750    8.000 
#    2.250    8.125    0.000    0.000    0.000    0.000 
#    0.000    0.000    0.000    0.000    0.000    0.000 
#
# Total GULP energy -89104.014810 kJ/mol
# GULP energy per Si atom -5569.000926 kJ/mol
# Density = 2.141450 g / cm^3
# Si number density = 21.463354 Si / 1000 Ang^3
#
#
#
# Elastic Constant Matrix: (Units=GPa)
#
#
# Indices 1 2 3 4 5 6 
#
# 1 110.8206 28.3139 13.9475 1.1512 6.2538 -34.4801
# 2 28.3139 77.4073 -5.2837 -3.1394 7.4159 -24.6501
# 3 13.9475 -5.2837 32.6816 -3.7405 23.9701 2.3957
# 4 1.1512 -3.1394 -3.7405 17.2000 -6.5864 -1.9842
# 5 6.2538 7.4159 23.9701 -6.5864 22.1959 -9.1341
# 6 -34.4801 -24.6501 2.3957 -1.9842 -9.1341 48.9509
#
#
#
# Elastic Compliance Matrix: (Units=1/GPa)
#
#
# Indices 1 2 3 4 5 6 
#
# 1 -0.007754 0.011101 0.097187 -0.028364 -0.127029 -0.029481
# 2 0.011101 0.007194 -0.065158 0.022296 0.084318 0.031268
# 3 0.097187 -0.065158 -0.482762 0.139957 0.632571 0.182981
# 4 -0.028364 0.022296 0.139957 0.027916 -0.160605 -0.044438
# 5 -0.127029 0.084318 0.632571 -0.160605 -0.772184 -0.228573
# 6 -0.029481 0.031268 0.182981 -0.044438 -0.228573 -0.037999
#
#
# Mechanical properties :
#
#
# Convention : Reuss Voigt Hill
#
# Bulk Modulus (GPa) = -2.51851 32.76278 15.12213
# Shear Modulus (GPa) = -3.36881 29.93148 13.28133
#
# Velocity S-wave (km/s) = -1.25418 3.73840 2.49025
# Velocity P-wave (km/s) = 1.80921 5.82511 3.91527
#
# Compressibility (1/GPa) = -0.39706036
#
# Stress axis : x y z
#
# Youngs Moduli (GPa) = -128.97172 139.00196 -2.07141
#
# Poissons Ratio (x) = -1.54311 0.20131
# Poissons Ratio (y) = 1.43176 -0.13497
# Poissons Ratio (z) = 12.53435 9.05703
#
# Static dielectric constant tensor:
#      x y z
#    x 1.873340 0.008750 -0.009800 
#    y 0.008750 1.885690 -0.003610 
#    z -0.009800 -0.003610 1.723930 
# 
# From -- ./inp_files/390623.got.cif
#   From: 2010.05.17/outbox.cif.g08.bks.cpg/sg2_196_cif.got.tgz:390623.got - 2010.06.03 11:33:40.
