data_PCOD9084054
_publ_section_title
;
Structure prediction by ZEFSAII (Michael W. Deem and Ramdas Pophale) SiO2 
 PCOD9084054
Probable space group: P -1
;
_chemical_formula_sum "Si O2"
_cell_formula_units_Z 16
_cell_length_a 14.771024
_cell_length_b 8.755348
_cell_length_c 9.014160
_cell_angle_alpha 137.375435
_cell_angle_beta 118.231597
_cell_angle_gamma 54.681356
_cell_volume 641.746051
_symmetry_space_group_name_H-M "P -1"
_symmetry_group_IT_number 2
_symmetry_cell_setting 'triclinic'
loop_
_space_group_symop_operation_xyz
x,y,z
-x,-y,-z
loop_
_atom_site_type_symbol
_atom_site_label
_atom_site_fract_x
_atom_site_fract_y
_atom_site_fract_z
Si Si1 0.706897 0.546837 0.095681
Si Si2 0.825539 0.314615 0.548615
Si Si3 0.295495 0.985770 0.341007
Si Si4 0.523492 0.615782 0.794649
Si Si5 0.337193 0.856820 0.612674
Si Si6 0.924115 0.404719 0.979293
Si Si7 0.070770 0.392903 0.335268
Si Si8 0.364766 0.337146 0.544047
O O1 0.699786 0.570963 0.284510
O O2 0.591079 0.694147 0.025885
O O3 0.812690 0.560979 0.099375
O O4 0.710328 0.272501 0.877475
O O5 0.773752 0.108142 0.353433
O O6 0.871598 0.284360 0.729811
O O7 0.915888 0.368470 0.558572
O O8 0.719579 0.551626 0.578075
O O9 0.181937 0.180081 0.325505
O O10 0.389806 0.049469 0.371393
O O11 0.312280 0.005364 0.545876
O O12 0.433487 0.832885 0.786913
O O13 0.612501 0.421406 0.615415
O O14 0.458455 0.449121 0.688036
O O15 0.000000 0.500000 0.000000
O O16 0.010593 0.281501 0.089780
O O17 0.000000 0.500000 0.500000
#
# Coordination Sequence:
#
# PCOD9084054 Si02
#       8
#     2   2   2   2   2   2   2   2
#     4  11  21  38  62  89 120 157 205 244 295 356
#     4   9  17  36  58  80 116 160 188 241 301 354
#     4  10  21  38  62  87 121 155 199 248 299 357
#     4   9  18  34  62  88 121 162 193 239 304 358
#     4   9  17  34  59  87 117 158 198 235 300 363
#     4  10  19  34  60  81 113 157 201 237 294 357
#     4  10  21  37  61  87 118 156 203 250 303 345
#     4  10  21  36  63  88 124 155 194 249 301 351
#
# _framework density 24.931979999999999
#
# number of rings (size 3 to 8) (size 9 to 14) (size 15 to 20)
#    0.000    2.250    2.500    1.875    0.000    2.500 
#    0.000    1.250   41.250    0.000    0.000    0.000 
#    0.000    0.000    0.000    0.000    0.000    0.000 
#
# Total GULP energy -89098.198592 kJ/mol
# GULP energy per Si atom -5568.637412 kJ/mol
# Density = 2.487523 g / cm^3
# Si number density = 24.931980 Si / 1000 Ang^3
#
#
#
# Elastic Constant Matrix: (Units=GPa)
#
#
# Indices 1 2 3 4 5 6 
#
# 1 135.8601 43.6905 30.0093 -11.7587 1.9776 22.6792
# 2 43.6905 122.9777 47.1076 -38.0899 12.8649 25.1991
# 3 30.0093 47.1076 110.7281 -49.6816 15.5598 -15.7960
# 4 -11.7587 -38.0899 -49.6816 51.2791 -6.2885 9.8016
# 5 1.9776 12.8649 15.5598 -6.2885 39.3657 -12.9951
# 6 22.6792 25.1991 -15.7960 9.8016 -12.9951 36.5753
#
#
#
# Elastic Compliance Matrix: (Units=1/GPa)
#
#
# Indices 1 2 3 4 5 6 
#
# 1 0.009499 -0.000437 -0.003280 -0.000073 -0.001536 -0.007532
# 2 -0.000437 0.019560 -0.003773 0.013770 -0.009964 -0.022065
# 3 -0.003280 -0.003773 0.018615 0.012652 -0.000991 0.008929
# 4 -0.000073 0.013770 0.012652 0.044539 -0.008650 -0.018987
# 5 -0.001536 -0.009964 -0.000991 -0.008650 0.035063 0.022165
# 6 -0.007532 -0.022065 0.008929 -0.018987 0.022165 0.064032
#
#
# Mechanical properties :
#
#
# Convention : Reuss Voigt Hill
#
# Bulk Modulus (GPa) = 30.58489 67.90897 49.24693
# Shear Modulus (GPa) = 23.02180 42.02794 32.52487
#
# Velocity S-wave (km/s) = 3.04202 4.11019 3.61577
# Velocity P-wave (km/s) = 4.96311 7.05845 6.10140
#
# Compressibility (1/GPa) = 0.03269589
#
# Stress axis : x y z
#
# Youngs Moduli (GPa) = 105.27711 51.12371 53.72015
#
# Poissons Ratio (x) = 0.02234 0.17618
# Poissons Ratio (y) = 0.04600 0.20266
# Poissons Ratio (z) = 0.34527 0.19287
#
# Static dielectric constant tensor:
#      x y z
#    x 2.062230 0.017530 0.071830 
#    y 0.017530 2.075330 0.071000 
#    z 0.071830 0.071000 2.053350 
# 
# From -- ./inp_files/296471.got.cif
#   From: 2010.05.17/outbox.cif.g08.bks.cpg/sg2_149_cif.got.tgz:296471.got - 2010.06.03 11:33:40.
