data_PCOD9084239
_publ_section_title
;
Structure prediction by ZEFSAII (Michael W. Deem and Ramdas Pophale) SiO2 
 PCOD9084239
Probable space group: P -1
;
_chemical_formula_sum "Si O2"
_cell_formula_units_Z 16
_cell_length_a 8.781712
_cell_length_b 17.344786
_cell_length_c 18.580960
_cell_angle_alpha 32.068052
_cell_angle_beta 144.153212
_cell_angle_gamma 150.461615
_cell_volume 711.154591
_symmetry_space_group_name_H-M "P -1"
_symmetry_group_IT_number 2
_symmetry_cell_setting 'triclinic'
loop_
_space_group_symop_operation_xyz
x,y,z
-x,-y,-z
loop_
_atom_site_type_symbol
_atom_site_label
_atom_site_fract_x
_atom_site_fract_y
_atom_site_fract_z
Si Si1 0.206308 0.472925 0.718990
Si Si2 0.652133 0.045647 0.295721
Si Si3 0.524047 0.283932 0.974388
Si Si4 0.292749 0.949721 0.386659
Si Si5 0.703959 0.533651 0.483479
Si Si6 0.353373 0.286970 0.425234
Si Si7 0.924606 0.526661 0.073797
Si Si8 0.434053 0.304067 0.175842
O O1 0.358365 0.609275 0.602663
O O2 0.406323 0.598585 0.764480
O O3 0.855136 0.422308 0.633140
O O4 0.240340 0.312113 0.842966
O O5 0.672218 0.880483 0.416659
O O6 0.485587 0.105788 0.129992
O O7 0.493043 0.996484 0.352797
O O8 0.025465 0.214329 0.315040
O O9 0.733217 0.423962 0.008571
O O10 0.717081 0.346750 0.922728
O O11 0.208790 0.090667 0.251262
O O12 0.500000 0.000000 0.500000
O O13 0.992584 0.743926 0.426814
O O14 0.500000 0.500000 0.500000
O O15 0.448622 0.442879 0.393482
O O16 0.739606 0.371139 0.187060
O O17 0.807271 0.641260 0.972152
#
# Coordination Sequence:
#
# PCOD9084239 Si02
#       8
#     2   2   2   2   2   2   2   2
#     4  11  23  40  65  98 132 179 219 271 332 402
#     4  11  22  40  72 104 128 173 226 284 320 396
#     4  10  20  36  63 101 135 167 225 275 339 384
#     4  12  22  39  65  99 131 170 227 275 323 391
#     4  12  27  44  66  94 137 181 219 276 339 400
#     4  11  24  43  69  98 135 173 228 271 335 400
#     4   9  18  32  57  94 134 169 204 277 326 389
#     4  10  19  34  61  97 133 161 222 268 325 385
#
# _framework density 22.498625000000001
#
# number of rings (size 3 to 8) (size 9 to 14) (size 15 to 20)
#    0.000    1.250    3.750    3.375    0.000    3.000 
#    0.000    0.625    0.000    0.750    0.000    0.000 
#    0.000    0.000    0.000    0.000    0.000    0.000 
#
# Total GULP energy -89140.853300 kJ/mol
# GULP energy per Si atom -5571.303331 kJ/mol
# Density = 2.244742 g / cm^3
# Si number density = 22.498625 Si / 1000 Ang^3
#
#
#
# Elastic Constant Matrix: (Units=GPa)
#
#
# Indices 1 2 3 4 5 6 
#
# 1 142.1578 22.1139 20.2983 -9.9328 -8.1591 13.8362
# 2 22.1139 82.1164 22.9920 -18.6905 3.3063 -10.1911
# 3 20.2983 22.9920 119.6092 -17.1508 13.1894 9.2663
# 4 -9.9328 -18.6905 -17.1508 14.0974 0.1311 7.0652
# 5 -8.1591 3.3063 13.1894 0.1311 29.3057 8.1749
# 6 13.8362 -10.1911 9.2663 7.0652 8.1749 26.2307
#
#
#
# Elastic Compliance Matrix: (Units=1/GPa)
#
#
# Indices 1 2 3 4 5 6 
#
# 1 0.009195 -0.001901 0.000297 0.009199 0.005344 -0.009837
# 2 -0.001901 0.018009 -0.000041 0.020736 -0.003628 0.003560
# 3 0.000297 -0.000041 0.012080 0.019230 -0.003014 -0.008680
# 4 0.009199 0.020736 0.019230 0.151008 0.003547 -0.045369
# 5 0.005344 -0.003628 -0.003014 0.003547 0.042177 -0.017264
# 6 -0.009837 0.003560 -0.008680 -0.045369 -0.017264 0.065362
#
#
# Mechanical properties :
#
#
# Convention : Reuss Voigt Hill
#
# Bulk Modulus (GPa) = 27.78364 52.74351 40.26358
# Shear Modulus (GPa) = 15.96829 32.49201 24.23015
#
# Velocity S-wave (km/s) = 2.66699 3.80436 3.28527
# Velocity P-wave (km/s) = 4.67543 6.54151 5.68555
#
# Compressibility (1/GPa) = 0.03599241
#
# Stress axis : x y z
#
# Youngs Moduli (GPa) = 108.75843 55.52710 82.77926
#
# Poissons Ratio (x) = 0.10558 -0.02459
# Poissons Ratio (y) = 0.20680 0.00343
# Poissons Ratio (z) = -0.03230 0.00230
#
# Static dielectric constant tensor:
#      x y z
#    x 1.829290 0.051410 -0.015190 
#    y 0.051410 1.862170 0.045460 
#    z -0.015190 0.045460 2.023730 
# 
# From -- ./inp_files/591222.got.cif
#   From: 2010.05.17/outbox.cif.g08.bks.cpg/sg2_296_cif.got.tgz:591222.got - 2010.06.03 11:33:40.
