data_PCOD9084679
_publ_section_title
;
Structure prediction by ZEFSAII (Michael W. Deem and Ramdas Pophale) SiO2 
 PCOD9084679
Probable space group: P -1
;
_chemical_formula_sum "Si O2"
_cell_formula_units_Z 16
_cell_length_a 11.418149
_cell_length_b 14.790271
_cell_length_c 14.064640
_cell_angle_alpha 150.003834
_cell_angle_beta 40.878340
_cell_angle_gamma 137.388897
_cell_volume 752.866381
_symmetry_space_group_name_H-M "P -1"
_symmetry_group_IT_number 2
_symmetry_cell_setting 'triclinic'
loop_
_space_group_symop_operation_xyz
x,y,z
-x,-y,-z
loop_
_atom_site_type_symbol
_atom_site_label
_atom_site_fract_x
_atom_site_fract_y
_atom_site_fract_z
Si Si1 0.763013 0.768866 0.757540
Si Si2 0.187591 0.590296 0.525090
Si Si3 0.289179 0.965677 0.518389
Si Si4 0.583189 0.620540 0.213619
Si Si5 0.445787 0.223177 0.922146
Si Si6 0.149905 0.926816 0.762051
Si Si7 0.924149 0.685884 0.208705
Si Si8 0.893975 0.920478 0.623841
O O1 0.799479 0.559563 0.537578
O O2 0.755329 0.856721 0.738940
O O3 0.945873 0.886207 0.807520
O O4 0.593654 0.765319 0.930384
O O5 0.380521 0.602520 0.364772
O O6 0.173621 0.803827 0.727489
O O7 0.000000 0.500000 0.500000
O O8 0.432907 0.914568 0.311299
O O9 0.260721 0.870444 0.552159
O O10 0.093672 0.919985 0.544623
O O11 0.351406 0.184985 0.702243
O O12 0.743314 0.635640 0.207611
O O13 0.556018 0.423850 0.999273
O O14 0.245514 0.139138 0.922769
O O15 0.863968 0.771834 0.421367
O O16 0.076447 0.866338 0.236965
O O17 0.000000 0.500000 0.000000
#
# Coordination Sequence:
#
# PCOD9084679 Si02
#       8
#     2   2   2   2   2   2   2   2
#     4   9  20  37  55  85 118 152 194 231 287 349
#     4   9  18  35  55  78 117 156 187 225 279 338
#     4  10  20  36  57  85 116 151 198 237 283 338
#     4  10  21  35  55  87 115 147 193 242 283 342
#     4  11  20  33  55  79 120 154 189 231 279 337
#     4  10  19  35  56  80 118 162 192 232 280 336
#     4  10  20  39  65  88 110 144 195 246 297 339
#     4   9  20  40  63  84 115 147 185 247 296 341
#
# _framework density 21.252112
#
# number of rings (size 3 to 8) (size 9 to 14) (size 15 to 20)
#    0.000    2.250    1.250    1.500    0.000    0.500 
#    4.500    2.500    0.000   15.750    0.000    0.000 
#    0.000    0.000    0.000    0.000    0.000    0.000 
#
# Total GULP energy -89071.947682 kJ/mol
# GULP energy per Si atom -5566.996730 kJ/mol
# Density = 2.120374 g / cm^3
# Si number density = 21.252112 Si / 1000 Ang^3
#
#
#
# Elastic Constant Matrix: (Units=GPa)
#
#
# Indices 1 2 3 4 5 6 
#
# 1 36.0474 25.5912 31.4884 5.4121 -5.9057 -9.6531
# 2 25.5912 93.9015 49.5022 6.9493 6.7228 -19.3343
# 3 31.4884 49.5022 100.0043 12.6103 5.6788 -20.8675
# 4 5.4121 6.9493 12.6103 44.1811 5.6870 6.0501
# 5 -5.9057 6.7228 5.6788 5.6870 21.9630 0.9892
# 6 -9.6531 -19.3343 -20.8675 6.0501 0.9892 38.5459
#
#
#
# Elastic Compliance Matrix: (Units=1/GPa)
#
#
# Indices 1 2 3 4 5 6 
#
# 1 0.047189 -0.007551 -0.011235 -0.004104 0.018873 0.002108
# 2 -0.007551 0.016364 -0.004519 -0.000139 -0.006017 0.004047
# 3 -0.011235 -0.004519 0.017496 -0.002863 -0.005645 0.004986
# 4 -0.004104 -0.000139 -0.002863 0.025729 -0.006690 -0.006514
# 5 0.018873 -0.006017 -0.005645 -0.006690 0.055717 -0.001728
# 6 0.002108 0.004047 0.004986 -0.006514 -0.001728 0.032267
#
#
# Mechanical properties :
#
#
# Convention : Reuss Voigt Hill
#
# Bulk Modulus (GPa) = 29.03738 49.23519 39.13628
# Shear Modulus (GPa) = 19.77452 29.16276 24.46864
#
# Velocity S-wave (km/s) = 3.05368 3.70838 3.39684
# Velocity P-wave (km/s) = 5.11138 6.44621 5.81721
#
# Compressibility (1/GPa) = 0.03443837
#
# Stress axis : x y z
#
# Youngs Moduli (GPa) = 21.19157 61.10989 57.15648
#
# Poissons Ratio (x) = 0.46146 0.64214
# Poissons Ratio (y) = 0.16002 0.25828
# Poissons Ratio (z) = 0.23808 0.27615
#
# Static dielectric constant tensor:
#      x y z
#    x 1.762940 -0.029670 -0.007070 
#    y -0.029670 1.884470 0.057860 
#    z -0.007070 0.057860 1.872760 
# 
# From -- ./inp_files/521869.got.cif
#   From: 2010.05.17/outbox.cif.g08.bks.cpg/sg2_261_cif.got.tgz:521869.got - 2010.06.03 11:33:40.
