data_PCOD9084017
_publ_section_title
;
Structure prediction by ZEFSAII (Michael W. Deem and Ramdas Pophale) SiO2 
 PCOD9084017
Probable space group: P -1
;
_chemical_formula_sum "Si O2"
_cell_formula_units_Z 16
_cell_length_a 9.099561
_cell_length_b 9.203826
_cell_length_c 10.588027
_cell_angle_alpha 114.242373
_cell_angle_beta 77.350560
_cell_angle_gamma 106.905531
_cell_volume 768.560318
_symmetry_space_group_name_H-M "P -1"
_symmetry_group_IT_number 2
_symmetry_cell_setting 'triclinic'
loop_
_space_group_symop_operation_xyz
x,y,z
-x,-y,-z
loop_
_atom_site_type_symbol
_atom_site_label
_atom_site_fract_x
_atom_site_fract_y
_atom_site_fract_z
Si Si1 0.570249 0.964688 0.677128
Si Si2 0.219967 0.710856 0.143655
Si Si3 0.177660 0.458793 0.585575
Si Si4 0.513539 0.386598 0.336849
Si Si5 0.611843 0.511681 0.103219
Si Si6 0.260814 0.938376 0.582947
Si Si7 0.170638 0.566065 0.369184
Si Si8 0.880100 0.777690 0.259967
O O1 0.572179 0.797219 0.687438
O O2 0.656641 0.977777 0.530376
O O3 0.658943 0.119001 0.794438
O O4 0.394018 0.965708 0.673530
O O5 0.228893 0.601807 0.229002
O O6 0.046026 0.741003 0.179335
O O7 0.279868 0.616766 0.985697
O O8 0.301234 0.599532 0.680571
O O9 0.220146 0.451680 0.426298
O O10 0.158289 0.298079 0.618572
O O11 0.011558 0.499693 0.633866
O O12 0.500000 0.500000 0.500000
O O13 0.505207 0.466058 0.230912
O O14 0.736089 0.680884 0.167934
O O15 0.500000 0.500000 0.000000
O O16 0.126828 0.032860 0.672095
O O17 0.205409 0.747238 0.491418
#
# Coordination Sequence:
#
# PCOD9084017 Si02
#       8
#     2   2   2   2   2   2   2   2
#     4  10  20  35  58  88 123 160 195 246 301 352
#     4  10  22  37  60  83 120 161 200 238 302 362
#     4   9  18  33  53  88 114 150 193 246 290 337
#     4  11  23  37  62  89 120 152 201 249 294 353
#     4  11  24  41  62  88 118 159 200 245 303 361
#     4  10  19  34  59  90 123 155 200 249 298 345
#     4   9  18  33  59  84 118 154 194 247 297 344
#     4  10  21  38  61  86 116 158 205 248 291 355
#
# _framework density 20.818145000000001
#
# number of rings (size 3 to 8) (size 9 to 14) (size 15 to 20)
#    0.000    2.000    1.250    2.625    1.750    6.000 
#    0.000    0.000    0.000    1.500    0.000    0.000 
#    0.000    0.000    0.000    0.000    0.000    0.000 
#
# Total GULP energy -89214.693769 kJ/mol
# GULP energy per Si atom -5575.918361 kJ/mol
# Density = 2.077076 g / cm^3
# Si number density = 20.818145 Si / 1000 Ang^3
#
#
#
# Elastic Constant Matrix: (Units=GPa)
#
#
# Indices 1 2 3 4 5 6 
#
# 1 80.2649 16.0553 23.9345 -5.4601 5.5825 -6.1245
# 2 16.0553 54.7806 19.0025 -9.2736 -2.8992 6.7142
# 3 23.9345 19.0025 86.8750 -12.5977 -6.9568 -1.1114
# 4 -5.4601 -9.2736 -12.5977 20.7502 -7.8455 -0.2462
# 5 5.5825 -2.8992 -6.9568 -7.8455 36.4971 0.6779
# 6 -6.1245 6.7142 -1.1114 -0.2462 0.6779 33.3103
#
#
#
# Elastic Compliance Matrix: (Units=1/GPa)
#
#
# Indices 1 2 3 4 5 6 
#
# 1 0.014751 -0.003908 -0.003662 -0.001422 -0.003634 0.003441
# 2 -0.003908 0.022613 -0.002290 0.009145 0.004023 -0.005367
# 3 -0.003662 -0.002290 0.014718 0.008875 0.005087 0.000241
# 4 -0.001422 0.009145 0.008875 0.063438 0.016303 -0.001672
# 5 -0.003634 0.004023 0.005087 0.016303 0.032784 -0.001856
# 6 0.003441 -0.005367 0.000241 -0.001672 -0.001856 0.031769
#
#
# Mechanical properties :
#
#
# Convention : Reuss Voigt Hill
#
# Bulk Modulus (GPa) = 30.90039 37.76723 34.33381
# Shear Modulus (GPa) = 23.74394 28.97340 26.35867
#
# Velocity S-wave (km/s) = 3.38085 3.73465 3.56215
# Velocity P-wave (km/s) = 5.48776 6.06446 5.78330
#
# Compressibility (1/GPa) = 0.03236205
#
# Stress axis : x y z
#
# Youngs Moduli (GPa) = 67.79141 44.22205 67.94367
#
# Poissons Ratio (x) = 0.17280 0.24884
# Poissons Ratio (y) = 0.26490 0.15560
# Poissons Ratio (z) = 0.24828 0.10127
#
# Static dielectric constant tensor:
#      x y z
#    x 1.830230 -0.027500 -0.004700 
#    y -0.027500 1.777420 -0.020040 
#    z -0.004700 -0.020040 1.771930 
# 
# From -- ./inp_files/380301.got.cif
#   From: 2010.05.17/outbox.cif.g08.bks.cpg/sg2_191_cif.got.tgz:380301.got - 2010.06.03 11:33:40.
