data_PCOD9084407
_publ_section_title
;
Structure prediction by ZEFSAII (Michael W. Deem and Ramdas Pophale) SiO2 
 PCOD9084407
Probable space group: P -1
;
_chemical_formula_sum "Si O2"
_cell_formula_units_Z 14
_cell_length_a 8.849267
_cell_length_b 14.964287
_cell_length_c 5.448846
_cell_angle_alpha 90.008264
_cell_angle_beta 109.495185
_cell_angle_gamma 62.675474
_cell_volume 594.114847
_symmetry_space_group_name_H-M "P -1"
_symmetry_group_IT_number 2
_symmetry_cell_setting 'triclinic'
loop_
_space_group_symop_operation_xyz
x,y,z
-x,-y,-z
loop_
_atom_site_type_symbol
_atom_site_label
_atom_site_fract_x
_atom_site_fract_y
_atom_site_fract_z
Si Si1 0.242756 0.673128 0.374775
Si Si2 0.629705 0.054037 0.049598
Si Si3 0.037338 0.593910 0.532407
Si Si4 0.931824 0.748579 0.861151
Si Si5 0.450465 0.617587 0.982526
Si Si6 0.676770 0.720848 0.071569
Si Si7 0.716186 0.972259 0.596318
O O1 0.320997 0.683232 0.681047
O O2 0.190356 0.584533 0.421657
O O3 0.379028 0.652183 0.221938
O O4 0.049447 0.757174 0.152300
O O5 0.732974 0.026733 0.363688
O O6 0.499583 0.174472 0.953464
O O7 0.500000 0.000000 0.000000
O O8 0.749091 0.011833 0.871868
O O9 0.064442 0.640002 0.801024
O O10 0.841518 0.688125 0.349034
O O11 0.000000 0.500000 0.500000
O O12 0.850854 0.851197 0.660255
O O13 0.759075 0.740022 0.868927
O O14 0.500000 0.500000 0.000000
O O15 0.628179 0.630461 0.036029
O O16 0.500000 0.000000 0.500000
#
# Coordination Sequence:
#
# PCOD9084407 Si02
#       7
#     2   2   2   2   2   2   2
#     4  11  26  46  64  93 138 182 218 276 344 399
#     4  10  19  36  59 102 129 160 212 287 335 378
#     4  11  24  42  68 101 137 172 233 284 338 397
#     4  11  23  41  71 103 133 177 225 284 342 394
#     4  12  27  47  67  94 136 189 229 270 334 408
#     4  11  25  37  72 102 131 174 235 284 328 401
#     4  10  19  34  64  97 132 159 215 274 343 387
#
# _framework density 23.564468999999999
#
# number of rings (size 3 to 8) (size 9 to 14) (size 15 to 20)
#    0.000    1.143    4.286    3.000    6.000    1.143 
#    0.000    0.000    0.000    5.143    0.000    0.000 
#    0.000    0.000    0.000    0.000    0.000    0.000 
#
# Total GULP energy -78095.924698 kJ/mol
# GULP energy per Si atom -5578.280336 kJ/mol
# Density = 2.351083 g / cm^3
# Si number density = 23.564469 Si / 1000 Ang^3
#
#
#
# Elastic Constant Matrix: (Units=GPa)
#
#
# Indices 1 2 3 4 5 6 
#
# 1 52.4559 -4.7160 27.2612 2.7247 -5.4504 -3.7734
# 2 -4.7160 84.4978 20.1036 -7.8404 -10.9634 -17.8604
# 3 27.2612 20.1036 145.3971 0.5454 -26.0008 -10.7522
# 4 2.7247 -7.8404 0.5454 27.4413 -9.3189 -3.8201
# 5 -5.4504 -10.9634 -26.0008 -9.3189 36.2998 5.9331
# 6 -3.7734 -17.8604 -10.7522 -3.8201 5.9331 16.7850
#
#
#
# Elastic Compliance Matrix: (Units=1/GPa)
#
#
# Indices 1 2 3 4 5 6 
#
# 1 0.021974 0.003473 -0.004093 -0.000152 0.000425 0.005829
# 2 0.003473 0.017789 -0.000919 0.008958 0.004327 0.019630
# 3 -0.004093 -0.000919 0.008958 0.002231 0.005717 0.002328
# 4 -0.000152 0.008958 0.002231 0.045813 0.013321 0.016645
# 5 0.000425 0.004327 0.005717 0.013321 0.036691 -0.001575
# 6 0.005829 0.019630 0.002328 0.016645 -0.001575 0.087611
#
#
# Mechanical properties :
#
#
# Convention : Reuss Voigt Hill
#
# Bulk Modulus (GPa) = 21.90826 40.84981 31.37903
# Shear Modulus (GPa) = 21.08558 32.08534 26.58546
#
# Velocity S-wave (km/s) = 2.99457 3.69399 3.36251
# Velocity P-wave (km/s) = 4.61237 5.96381 5.33109
#
# Compressibility (1/GPa) = 0.04564489
#
# Stress axis : x y z
#
# Youngs Moduli (GPa) = 45.50785 56.21435 111.62931
#
# Poissons Ratio (x) = -0.19525 0.45686
# Poissons Ratio (y) = -0.15806 0.10258
# Poissons Ratio (z) = 0.18625 0.05166
#
# Static dielectric constant tensor:
#      x y z
#    x 1.923770 -0.055920 0.017160 
#    y -0.055920 1.894410 0.031780 
#    z 0.017160 0.031780 1.969780 
# 
# From -- ./inp_files/35576.got.cif
#   From: 2010.05.17/outbox.cif.g08.bks.cpg/sg2_18_cif.got.tgz:35576.got - 2010.06.03 11:33:40.
