data_PCOD9084385
_publ_section_title
;
Structure prediction by ZEFSAII (Michael W. Deem and Ramdas Pophale) SiO2 
 PCOD9084385
Probable space group: P -1
;
_chemical_formula_sum "Si O2"
_cell_formula_units_Z 15
_cell_length_a 9.715841
_cell_length_b 7.177230
_cell_length_c 20.747138
_cell_angle_alpha 113.169219
_cell_angle_beta 140.816303
_cell_angle_gamma 42.877884
_cell_volume 568.385777
_symmetry_space_group_name_H-M "P -1"
_symmetry_group_IT_number 2
_symmetry_cell_setting 'triclinic'
loop_
_space_group_symop_operation_xyz
x,y,z
-x,-y,-z
loop_
_atom_site_type_symbol
_atom_site_label
_atom_site_fract_x
_atom_site_fract_y
_atom_site_fract_z
Si Si1 0.559832 0.640316 0.831340
Si Si2 0.000000 0.000000 0.500000
Si Si3 0.263868 0.434903 0.835030
Si Si4 0.585215 0.614970 0.977787
Si Si5 0.100950 0.092293 0.410078
Si Si6 0.772238 0.056488 0.853072
Si Si7 0.527221 0.121351 0.300176
Si Si8 0.163157 0.466222 0.407355
O O1 0.749284 0.297523 0.851223
O O2 0.182959 0.839808 0.717608
O O3 0.630953 0.718225 0.803880
O O4 0.613561 0.695962 0.929241
O O5 0.018096 0.144155 0.461790
O O6 0.411731 0.723976 0.615996
O O7 0.367064 0.300174 0.926286
O O8 0.524411 0.212159 0.843845
O O9 0.965804 0.519914 0.707418
O O10 0.276594 0.673958 0.875199
O O11 0.884716 0.252995 0.041141
O O12 0.094309 0.321790 0.409029
O O13 0.458593 0.760693 0.484876
O O14 0.631450 0.973887 0.745370
O O15 0.925820 0.813860 0.391403
#
# Coordination Sequence:
#
# PCOD9084385 Si02
#       8
#     2   1   2   2   2   2   2   2
#     4  10  19  38  59  88 123 161 205 254 310 370
#     4  10  24  36  58  92 124 152 210 260 300 386
#     4   9  18  35  60  93 119 155 212 253 299 386
#     4  10  19  34  64  88 124 163 202 261 308 364
#     4  10  20  39  64  86 124 162 207 258 308 382
#     4  10  20  39  63  84 125 166 198 259 318 362
#     4  10  22  40  60  86 126 160 204 264 309 372
#     4  10  20  39  65  88 120 172 203 253 326 365
#
# _framework density 26.390528
#
# number of rings (size 3 to 8) (size 9 to 14) (size 15 to 20)
#    0.000    2.133    4.000    1.600    1.867    3.200 
#    0.000    2.667   29.333    0.000    0.000    0.000 
#    0.000    0.000    0.000    0.000    0.000    0.000 
#
# Total GULP energy -83640.494271 kJ/mol
# GULP energy per Si atom -5576.032951 kJ/mol
# Density = 2.633046 g / cm^3
# Si number density = 26.390528 Si / 1000 Ang^3
#
#
#
# Elastic Constant Matrix: (Units=GPa)
#
#
# Indices 1 2 3 4 5 6 
#
# 1 72.5358 28.4280 15.6710 0.5904 -23.3141 3.8164
# 2 28.4280 117.1052 30.8035 -3.6340 -8.8393 8.8140
# 3 15.6710 30.8035 127.1705 7.2433 -9.6453 -5.3952
# 4 0.5904 -3.6340 7.2433 36.9713 -11.4787 -1.1515
# 5 -23.3141 -8.8393 -9.6453 -11.4787 66.7135 2.8339
# 6 3.8164 8.8140 -5.3952 -1.1515 2.8339 38.5829
#
#
#
# Elastic Compliance Matrix: (Units=1/GPa)
#
#
# Indices 1 2 3 4 5 6 
#
# 1 0.017215 -0.003328 -0.001019 0.001327 0.005718 -0.001466
# 2 -0.003328 0.010164 -0.002216 0.001482 0.000215 -0.002274
# 3 -0.001019 -0.002216 0.008719 -0.001784 0.000229 0.001756
# 4 0.001327 0.001482 -0.001784 0.029203 0.005437 -0.000247
# 5 0.005718 0.000215 0.000229 0.005437 0.018059 -0.001747
# 6 -0.001466 -0.002274 0.001756 -0.000247 -0.001747 0.026949
#
#
# Mechanical properties :
#
#
# Convention : Reuss Voigt Hill
#
# Bulk Modulus (GPa) = 43.53326 51.84629 47.68977
# Shear Modulus (GPa) = 38.14087 44.58082 41.36085
#
# Velocity S-wave (km/s) = 3.80577 4.11454 3.96316
# Velocity P-wave (km/s) = 5.98694 6.50085 6.24918
#
# Compressibility (1/GPa) = 0.02297094
#
# Stress axis : x y z
#
# Youngs Moduli (GPa) = 58.08880 98.39089 114.68635
#
# Poissons Ratio (x) = 0.32742 0.11691
# Poissons Ratio (y) = 0.19331 0.25419
# Poissons Ratio (z) = 0.05921 0.21807
#
# Static dielectric constant tensor:
#      x y z
#    x 2.162270 -0.076200 0.038150 
#    y -0.076200 2.317850 0.274910 
#    z 0.038150 0.274910 2.437670 
# 
# From -- ./inp_files/609359.got.cif
#   From: 2010.05.17/outbox.cif.g08.bks.cpg/sg2_305_cif.got.tgz:609359.got - 2010.06.03 11:33:40.
