data_PCOD9084820
_publ_section_title
;
Structure prediction by ZEFSAII (Michael W. Deem and Ramdas Pophale) SiO2 
 PCOD9084820
Probable space group: P -1
;
_chemical_formula_sum "Si O2"
_cell_formula_units_Z 16
_cell_length_a 22.434975
_cell_length_b 18.420440
_cell_length_c 8.794969
_cell_angle_alpha 143.205144
_cell_angle_beta 53.102742
_cell_angle_gamma 153.443049
_cell_volume 877.386652
_symmetry_space_group_name_H-M "P -1"
_symmetry_group_IT_number 2
_symmetry_cell_setting 'triclinic'
loop_
_space_group_symop_operation_xyz
x,y,z
-x,-y,-z
loop_
_atom_site_type_symbol
_atom_site_label
_atom_site_fract_x
_atom_site_fract_y
_atom_site_fract_z
Si Si1 0.816866 0.553829 0.719968
Si Si2 0.626400 0.924593 0.397306
Si Si3 0.900827 0.929789 0.911594
Si Si4 0.321725 0.242315 0.831050
Si Si5 0.325017 0.768293 0.336414
Si Si6 0.716485 0.530095 0.298030
Si Si7 0.576304 0.234971 0.307075
Si Si8 0.336838 0.429086 0.857923
O O1 0.761484 0.369056 0.603720
O O2 0.733199 0.433046 0.483800
O O3 0.755536 0.590463 0.956418
O O4 0.992151 0.812373 0.874641
O O5 0.721851 0.953454 0.377574
O O6 0.525187 0.837244 0.539552
O O7 0.697690 0.137287 0.556909
O O8 0.508575 0.697145 0.081921
O O9 0.857889 0.778939 0.589132
O O10 0.756678 0.777044 0.962959
O O11 0.000000 0.000000 0.000000
O O12 0.288016 0.241320 0.710400
O O13 0.500000 0.500000 0.000000
O O14 0.500000 0.000000 0.500000
O O15 0.277142 0.589042 0.000642
O O16 0.598926 0.339611 0.292343
O O17 0.681678 0.582264 0.312110
O O18 0.500000 0.000000 0.000000
#
# Coordination Sequence:
#
# PCOD9084820 Si02
#       8
#     2   2   2   2   2   2   2   2
#     4  10  20  34  56  84 118 150 196 244 292 341
#     4  10  19  35  57  82 119 155 186 244 304 347
#     4  12  22  39  58  88 120 159 201 246 291 349
#     4  10  21  40  60  80 119 166 194 234 303 362
#     4  11  18  35  59  90 117 149 195 251 298 346
#     4  11  20  31  59  90 116 148 200 249 288 340
#     4  11  18  31  57  91 116 144 200 246 288 341
#     4   9  18  33  55  86 113 149 192 240 291 345
#
# _framework density 18.235973000000001
#
# number of rings (size 3 to 8) (size 9 to 14) (size 15 to 20)
#    0.000    1.500    7.500    1.500    0.000    2.000 
#    0.000    6.250    0.000    3.000    0.000    0.000 
#    0.000    0.000    0.000    0.000    0.000    0.000 
#
# Total GULP energy -89147.119689 kJ/mol
# GULP energy per Si atom -5571.694981 kJ/mol
# Density = 1.819447 g / cm^3
# Si number density = 18.235973 Si / 1000 Ang^3
#
#
#
# Elastic Constant Matrix: (Units=GPa)
#
#
# Indices 1 2 3 4 5 6 
#
# 1 141.2726 30.1637 39.4536 -2.0672 -8.1748 -41.6535
# 2 30.1637 68.5809 16.1860 10.2662 3.2811 -18.9571
# 3 39.4536 16.1860 98.2344 4.8052 12.3386 -6.9299
# 4 -2.0672 10.2662 4.8052 19.2460 -8.7426 -0.8617
# 5 -8.1748 3.2811 12.3386 -8.7426 27.7364 -1.6527
# 6 -41.6535 -18.9571 -6.9299 -0.8617 -1.6527 38.1482
#
#
#
# Elastic Compliance Matrix: (Units=1/GPa)
#
#
# Indices 1 2 3 4 5 6 
#
# 1 0.014385 -0.003215 -0.006260 0.010705 0.011597 0.013716
# 2 -0.003215 0.020082 0.000025 -0.014192 -0.007460 0.005829
# 3 -0.006260 0.000025 0.014267 -0.009717 -0.011553 -0.004951
# 4 0.010705 -0.014192 -0.009717 0.079021 0.034431 0.006148
# 5 0.011597 -0.007460 -0.011553 0.034431 0.056948 0.010101
# 6 0.013716 0.005829 -0.004951 0.006148 0.010101 0.043764
#
#
# Mechanical properties :
#
#
# Convention : Reuss Voigt Hill
#
# Bulk Modulus (GPa) = 33.51988 53.29940 43.40964
# Shear Modulus (GPa) = 19.43158 31.84508 25.63833
#
# Velocity S-wave (km/s) = 3.26784 4.18338 3.75363
# Velocity P-wave (km/s) = 5.71484 7.25433 6.53011
#
# Compressibility (1/GPa) = 0.02983305
#
# Stress axis : x y z
#
# Youngs Moduli (GPa) = 69.51584 49.79485 70.09171
#
# Poissons Ratio (x) = 0.16011 0.43880
# Poissons Ratio (y) = 0.22352 -0.00175
# Poissons Ratio (z) = 0.43519 -0.00124
#
# Static dielectric constant tensor:
#      x y z
#    x 1.675890 -0.033840 -0.015680 
#    y -0.033840 1.651660 0.015810 
#    z -0.015680 0.015810 1.653140 
# 
# From -- ./inp_files/252966.got.cif
#   From: 2010.05.17/outbox.cif.g08.bks.cpg/sg2_127_cif.got.tgz:252966.got - 2010.06.03 11:33:40.
