data_PCOD9084999
_publ_section_title
;
Structure prediction by ZEFSAII (Michael W. Deem and Ramdas Pophale) SiO2 
 PCOD9084999
Probable space group: P -1
;
_chemical_formula_sum "Si O2"
_cell_formula_units_Z 10
_cell_length_a 12.036327
_cell_length_b 8.774451
_cell_length_c 6.759148
_cell_angle_alpha 127.926942
_cell_angle_beta 36.250133
_cell_angle_gamma 119.350784
_cell_volume 332.932298
_symmetry_space_group_name_H-M "P -1"
_symmetry_group_IT_number 2
_symmetry_cell_setting 'triclinic'
loop_
_space_group_symop_operation_xyz
x,y,z
-x,-y,-z
loop_
_atom_site_type_symbol
_atom_site_label
_atom_site_fract_x
_atom_site_fract_y
_atom_site_fract_z
Si Si1 0.423519 0.857656 0.206116
Si Si2 0.948999 0.983207 0.327538
Si Si3 0.434557 0.734997 0.532274
Si Si4 0.769284 0.617399 0.387952
Si Si5 0.152535 0.344911 0.229935
O O1 0.378262 0.754015 0.396123
O O2 0.241582 0.912107 0.386666
O O3 0.535627 0.049588 0.262146
O O4 0.570293 0.730609 0.769498
O O5 0.911163 0.753728 0.173972
O O6 0.000000 0.000000 0.500000
O O7 0.101804 0.115834 0.105421
O O8 0.282722 0.602972 0.753541
O O9 0.642391 0.636768 0.147972
O O10 0.831046 0.623476 0.532917
O O11 0.000000 0.500000 0.500000
#
# Coordination Sequence:
#
# PCOD9084999 Si02
#       5
#     2   2   2   2   2
#     4  10  20  37  60  83 111 145 190 230 268 330
#     4  10  21  35  55  83 116 148 179 227 284 328
#     4  10  21  36  61  86 106 146 192 228 271 327
#     4  10  20  37  59  82 111 148 186 228 276 326
#     4  10  19  35  58  83 113 148 184 227 279 329
#
# _framework density 30.036133
#
# number of rings (size 3 to 8) (size 9 to 14) (size 15 to 20)
#    0.000    2.000    0.000    5.400    0.000    1.600 
#    0.000    4.000    0.000   26.400    0.000    0.000 
#    0.000    0.000    0.000    0.000    0.000    0.000 
#
# Total GULP energy -56218.170315 kJ/mol
# GULP energy per Si atom -5621.817031 kJ/mol
# Density = 2.996777 g / cm^3
# Si number density = 30.036133 Si / 1000 Ang^3
#
#
#
# Elastic Constant Matrix: (Units=GPa)
#
#
# Indices 1 2 3 4 5 6 
#
# 1 158.2511 49.5183 55.2473 -3.0504 -27.4655 -14.5144
# 2 49.5183 311.1738 42.1313 -8.8642 17.3248 13.4872
# 3 55.2473 42.1313 134.4485 13.1084 -27.2883 0.3796
# 4 -3.0504 -8.8642 13.1084 42.1468 -0.8367 11.5774
# 5 -27.4655 17.3248 -27.2883 -0.8367 66.3714 5.6632
# 6 -14.5144 13.4872 0.3796 11.5774 5.6632 58.9403
#
#
#
# Elastic Compliance Matrix: (Units=1/GPa)
#
#
# Indices 1 2 3 4 5 6 
#
# 1 0.008201 -0.001159 -0.002574 0.000669 0.002482 0.001932
# 2 -0.001159 0.003756 -0.001204 0.001383 -0.001833 -0.001233
# 3 -0.002574 -0.001204 0.009870 -0.003427 0.003270 -0.000063
# 4 0.000669 0.001383 -0.003427 0.026568 -0.000708 -0.005280
# 5 0.002482 -0.001833 0.003270 -0.000708 0.017957 -0.000577
# 6 0.001932 -0.001233 -0.000063 -0.005280 -0.000577 0.018817
#
#
# Mechanical properties :
#
#
# Convention : Reuss Voigt Hill
#
# Bulk Modulus (GPa) = 83.65484 99.74082 91.69783
# Shear Modulus (GPa) = 50.49079 63.95680 57.22379
#
# Velocity S-wave (km/s) = 4.10445 4.61947 4.36955
# Velocity P-wave (km/s) = 7.09746 7.85695 7.48684
#
# Compressibility (1/GPa) = 0.01195388
#
# Stress axis : x y z
#
# Youngs Moduli (GPa) = 121.93396 266.24149 101.31211
#
# Poissons Ratio (x) = 0.30870 0.26074
# Poissons Ratio (y) = 0.14138 0.12196
# Poissons Ratio (z) = 0.31381 0.32050
#
# Static dielectric constant tensor:
#      x y z
#    x 2.369360 -0.002390 0.032350 
#    y -0.002390 2.265740 -0.013460 
#    z 0.032350 -0.013460 2.280530 
# 
# From -- ./inp_files/144176.got.cif
#   From: 2010.05.17/outbox.cif.g08.bks.cpg/sg2_73_cif.got.tgz:144176.got - 2010.06.03 11:33:40.
