data_PCOD9084964
_publ_section_title
;
Structure prediction by ZEFSAII (Michael W. Deem and Ramdas Pophale) SiO2 
 PCOD9084964
Probable space group: P -1
;
_chemical_formula_sum "Si O2"
_cell_formula_units_Z 16
_cell_length_a 7.510677
_cell_length_b 14.123659
_cell_length_c 8.221947
_cell_angle_alpha 122.345429
_cell_angle_beta 100.474252
_cell_angle_gamma 63.728095
_cell_volume 658.983712
_symmetry_space_group_name_H-M "P -1"
_symmetry_group_IT_number 2
_symmetry_cell_setting 'triclinic'
loop_
_space_group_symop_operation_xyz
x,y,z
-x,-y,-z
loop_
_atom_site_type_symbol
_atom_site_label
_atom_site_fract_x
_atom_site_fract_y
_atom_site_fract_z
Si Si1 0.977959 0.793359 0.267101
Si Si2 0.270362 0.877302 0.260132
Si Si3 0.817156 0.436439 0.103060
Si Si4 0.229835 0.849255 0.581356
Si Si5 0.546421 0.568715 0.422263
Si Si6 0.404866 0.911927 0.969746
Si Si7 0.219290 0.351918 0.240249
Si Si8 0.689191 0.670814 0.107172
O O1 0.058503 0.865507 0.216853
O O2 0.022030 0.844973 0.490874
O O3 0.773987 0.777469 0.214740
O O4 0.133394 0.653148 0.124267
O O5 0.283152 0.910627 0.484873
O O6 0.455057 0.742465 0.157905
O O7 0.312610 0.937046 0.159168
O O8 0.610383 0.476293 0.197343
O O9 0.798217 0.570652 0.169619
O O10 0.998119 0.361693 0.188838
O O11 0.382954 0.705008 0.484747
O O12 0.247583 0.906579 0.806795
O O13 0.500000 0.500000 0.500000
O O14 0.739628 0.587693 0.538368
O O15 0.595494 0.780440 0.866360
O O16 0.500000 0.000000 0.000000
O O17 0.248347 0.404693 0.119737
#
# Coordination Sequence:
#
# PCOD9084964 Si02
#       8
#     2   2   2   2   2   2   2   2
#     4   9  20  34  55  85 117 157 198 238 283 355
#     4   9  20  38  61  85 118 152 200 241 305 351
#     4  11  20  34  56  82 121 167 192 229 296 346
#     4   9  21  38  55  90 118 152 207 237 293 364
#     4  11  23  31  52  86 122 160 192 234 285 354
#     4  10  21  40  66  88 112 152 204 261 307 352
#     4   9  21  36  51  83 114 146 204 234 288 359
#     4  10  19  35  58  81 120 166 192 234 290 349
#
# _framework density 24.279810999999999
#
# number of rings (size 3 to 8) (size 9 to 14) (size 15 to 20)
#    0.750    1.500    1.250    1.875    8.750    1.500 
#    0.000    0.000    0.000   13.500    0.000    0.000 
#    0.000    0.000    0.000    0.000    0.000    0.000 
#
# Total GULP energy -89097.754966 kJ/mol
# GULP energy per Si atom -5568.609685 kJ/mol
# Density = 2.422455 g / cm^3
# Si number density = 24.279811 Si / 1000 Ang^3
#
#
#
# Elastic Constant Matrix: (Units=GPa)
#
#
# Indices 1 2 3 4 5 6 
#
# 1 74.2371 40.3345 22.3913 0.0440 0.0153 7.1091
# 2 40.3345 95.5521 31.6264 -27.7006 -2.4135 8.1154
# 3 22.3913 31.6264 99.2537 -21.3672 -0.0543 6.1390
# 4 0.0440 -27.7006 -21.3672 25.9922 -1.9542 -5.2797
# 5 0.0153 -2.4135 -0.0543 -1.9542 48.4708 -1.9469
# 6 7.1091 8.1154 6.1390 -5.2797 -1.9469 40.5102
#
#
#
# Elastic Compliance Matrix: (Units=1/GPa)
#
#
# Indices 1 2 3 4 5 6 
#
# 1 0.022217 -0.012950 -0.004659 -0.018407 -0.001523 -0.003071
# 2 -0.012950 0.023034 0.001083 0.025825 0.002232 0.000967
# 3 -0.004659 0.001083 0.013411 0.012269 0.000573 0.000195
# 4 -0.018407 0.025825 0.012269 0.077799 0.004706 0.006563
# 5 -0.001523 0.002232 0.000573 0.004706 0.020987 0.001355
# 6 -0.003071 0.000967 0.000195 0.006563 0.001355 0.025921
#
#
# Mechanical properties :
#
#
# Convention : Reuss Voigt Hill
#
# Bulk Modulus (GPa) = 39.04879 50.86082 44.95480
# Shear Modulus (GPa) = 22.22621 34.64067 28.43344
#
# Velocity S-wave (km/s) = 3.02887 3.78130 3.42581
# Velocity P-wave (km/s) = 5.32446 6.32911 5.84839
#
# Compressibility (1/GPa) = 0.02560899
#
# Stress axis : x y z
#
# Youngs Moduli (GPa) = 45.01063 43.41323 74.56672
#
# Poissons Ratio (x) = 0.56220 0.34742
# Poissons Ratio (y) = 0.58289 -0.08073
# Poissons Ratio (z) = 0.20972 -0.04700
#
# Static dielectric constant tensor:
#      x y z
#    x 1.960830 -0.006330 0.027700 
#    y -0.006330 2.003250 -0.014320 
#    z 0.027700 -0.014320 1.968510 
# 
# From -- ./inp_files/203754.got.cif
#   From: 2010.05.17/outbox.cif.g08.bks.cpg/sg2_102_cif.got.tgz:203754.got - 2010.06.03 11:33:40.
