data_PCOD9084487
_publ_section_title
;
Structure prediction by ZEFSAII (Michael W. Deem and Ramdas Pophale) SiO2 
 PCOD9084487
Probable space group: P -1
;
_chemical_formula_sum "Si O2"
_cell_formula_units_Z 14
_cell_length_a 11.303260
_cell_length_b 12.763528
_cell_length_c 15.584770
_cell_angle_alpha 161.162615
_cell_angle_beta 110.530491
_cell_angle_gamma 68.853509
_cell_volume 676.765562
_symmetry_space_group_name_H-M "P -1"
_symmetry_group_IT_number 2
_symmetry_cell_setting 'triclinic'
loop_
_space_group_symop_operation_xyz
x,y,z
-x,-y,-z
loop_
_atom_site_type_symbol
_atom_site_label
_atom_site_fract_x
_atom_site_fract_y
_atom_site_fract_z
Si Si1 0.804149 0.958308 0.972389
Si Si2 0.889467 0.278375 0.711088
Si Si3 0.041107 0.913528 0.243779
Si Si4 0.219374 0.719384 0.489568
Si Si5 0.578083 0.436740 0.333416
Si Si6 0.451365 0.992064 0.836666
Si Si7 0.063332 0.131047 0.237480
O O1 0.739952 0.640835 0.742296
O O2 0.833385 0.938720 0.864031
O O3 0.721356 0.291192 0.234625
O O4 0.941332 0.937107 0.035286
O O5 0.782434 0.276931 0.610906
O O6 0.863468 0.191308 0.735528
O O7 0.958723 0.606240 0.974964
O O8 0.000000 0.000000 0.500000
O O9 0.927063 0.192292 0.452053
O O10 0.105992 0.024503 0.260435
O O11 0.310339 0.973494 0.748235
O O12 0.542137 0.803803 0.641825
O O13 0.547876 0.229151 0.249061
O O14 0.498032 0.323180 0.143252
O O15 0.000000 0.500000 0.500000
#
# Coordination Sequence:
#
# PCOD9084487 Si02
#       7
#     2   2   2   2   2   2   2
#     4  11  22  32  51  76 117 149 187 225 274 338
#     4   9  20  33  53  77 107 144 181 236 284 322
#     4  10  19  35  53  76 114 143 187 229 277 333
#     4  11  19  32  53  80 110 146 182 234 280 337
#     4  10  21  36  49  81 112 152 184 233 277 340
#     4  10  21  33  56  77 113 147 190 227 289 333
#     4  11  22  34  52  81 109 156 188 220 273 344
#
# _framework density 20.686633
#
# number of rings (size 3 to 8) (size 9 to 14) (size 15 to 20)
#    0.000    1.714    2.857    3.429    4.000    0.000 
#    0.000    0.000    0.000    0.000    0.000    2.000 
#    0.000    0.000    0.000    0.000    0.000    0.000 
#
# Total GULP energy -78116.591040 kJ/mol
# GULP energy per Si atom -5579.756503 kJ/mol
# Density = 2.063955 g / cm^3
# Si number density = 20.686633 Si / 1000 Ang^3
#
#
#
# Elastic Constant Matrix: (Units=GPa)
#
#
# Indices 1 2 3 4 5 6 
#
# 1 77.5699 39.4471 21.8840 -8.6668 -21.7798 -1.5716
# 2 39.4471 154.3194 32.3625 -25.2846 4.3749 20.2053
# 3 21.8840 32.3625 88.7985 -16.4370 -14.5165 6.9976
# 4 -8.6668 -25.2846 -16.4370 35.6401 -3.4031 5.6622
# 5 -21.7798 4.3749 -14.5165 -3.4031 34.6889 -14.0342
# 6 -1.5716 20.2053 6.9976 5.6622 -14.0342 29.1771
#
#
#
# Elastic Compliance Matrix: (Units=1/GPa)
#
#
# Indices 1 2 3 4 5 6 
#
# 1 0.025727 -0.010408 -0.000459 -0.002302 0.025763 0.021543
# 2 -0.010408 0.013767 -0.002169 0.007688 -0.016019 -0.018771
# 3 -0.000459 -0.002169 0.014246 0.005523 0.006544 0.000136
# 4 -0.002302 0.007688 0.005523 0.037689 -0.002614 -0.015344
# 5 0.025763 -0.016019 0.006544 -0.002614 0.067203 0.043744
# 6 0.021543 -0.018771 0.000136 -0.015344 0.043744 0.072419
#
#
# Mechanical properties :
#
#
# Convention : Reuss Voigt Hill
#
# Bulk Modulus (GPa) = 36.14205 56.45279 46.29742
# Shear Modulus (GPa) = 18.77254 35.03417 26.90336
#
# Velocity S-wave (km/s) = 3.01570 4.11976 3.61018
# Velocity P-wave (km/s) = 5.44381 7.06956 6.30927
#
# Compressibility (1/GPa) = 0.02766860
#
# Stress axis : x y z
#
# Youngs Moduli (GPa) = 38.86948 72.63722 70.19310
#
# Poissons Ratio (x) = 0.75603 0.03223
# Poissons Ratio (y) = 0.40456 0.15222
# Poissons Ratio (z) = 0.01784 0.15752
#
# Static dielectric constant tensor:
#      x y z
#    x 1.776380 -0.020770 -0.022140 
#    y -0.020770 1.778330 -0.060510 
#    z -0.022140 -0.060510 1.851690 
# 
# From -- ./inp_files/409702.got.cif
#   From: 2010.05.17/outbox.cif.g08.bks.cpg/sg2_205_cif.got.tgz:409702.got - 2010.06.03 11:33:40.
