data_PCOD9084399
_publ_section_title
;
Structure prediction by ZEFSAII (Michael W. Deem and Ramdas Pophale) SiO2 
 PCOD9084399
Probable space group: P -1
;
_chemical_formula_sum "Si O2"
_cell_formula_units_Z 16
_cell_length_a 17.094000
_cell_length_b 10.568154
_cell_length_c 5.398188
_cell_angle_alpha 115.531819
_cell_angle_beta 65.369961
_cell_angle_gamma 136.165016
_cell_volume 600.641751
_symmetry_space_group_name_H-M "P -1"
_symmetry_group_IT_number 2
_symmetry_cell_setting 'triclinic'
loop_
_space_group_symop_operation_xyz
x,y,z
-x,-y,-z
loop_
_atom_site_type_symbol
_atom_site_label
_atom_site_fract_x
_atom_site_fract_y
_atom_site_fract_z
Si Si1 0.402439 0.947771 0.273597
Si Si2 0.228016 0.709458 0.693638
Si Si3 0.489945 0.300870 0.736351
Si Si4 0.274309 0.478003 0.597360
Si Si5 0.935678 0.075761 0.071294
Si Si6 0.302098 0.060627 0.143251
Si Si7 0.036798 0.302124 0.615605
Si Si8 0.292227 0.258373 0.720362
O O1 0.309443 0.760268 0.395083
O O2 0.323318 0.974561 0.262531
O O3 0.469701 0.118749 0.524750
O O4 0.500000 0.000000 0.000000
O O5 0.277139 0.649751 0.778059
O O6 0.096025 0.519441 0.699773
O O7 0.242912 0.888710 0.885024
O O8 0.622598 0.467789 0.660742
O O9 0.414197 0.327291 0.696358
O O10 0.427649 0.238353 0.027358
O O11 0.152314 0.330509 0.499214
O O12 0.285697 0.412840 0.788360
O O13 0.964210 0.202043 0.379834
O O14 0.801564 0.893254 0.088828
O O15 0.977558 0.191914 0.858540
O O16 0.000000 0.000000 0.000000
O O17 0.253926 0.143756 0.414692
#
# Coordination Sequence:
#
# PCOD9084399 Si02
#       8
#     2   2   2   2   2   2   2   2
#     4  10  19  34  64  93 135 186 228 278 343 419
#     4   9  21  40  65 100 136 176 232 293 340 413
#     4  10  22  40  61 100 140 184 220 282 356 425
#     4  10  21  42  66 103 137 175 235 288 349 415
#     4  12  24  48  72 102 138 185 241 290 348 410
#     4  10  22  40  62  93 142 180 226 275 357 422
#     4  10  26  42  75 105 134 179 240 298 340 403
#     4  11  25  41  68  97 138 187 227 287 351 423
#
# _framework density 26.638176999999999
#
# number of rings (size 3 to 8) (size 9 to 14) (size 15 to 20)
#    0.750    1.000    1.250    2.250    3.500    2.500 
#    2.250    1.250    0.000    0.000    0.000    0.000 
#    0.000    0.000    0.000    0.000    0.000    0.000 
#
# Total GULP energy -89411.580528 kJ/mol
# GULP energy per Si atom -5588.223783 kJ/mol
# Density = 2.657755 g / cm^3
# Si number density = 26.638177 Si / 1000 Ang^3
#
#
#
# Elastic Constant Matrix: (Units=GPa)
#
#
# Indices 1 2 3 4 5 6 
#
# 1 87.3829 30.9478 7.8916 -5.8705 -2.8003 -5.7679
# 2 30.9478 133.4977 66.6225 -36.5718 -2.9798 -8.7542
# 3 7.8916 66.6225 132.4641 -26.5070 8.0945 0.7652
# 4 -5.8705 -36.5718 -26.5070 39.8755 -5.0450 -7.7347
# 5 -2.8003 -2.9798 8.0945 -5.0450 42.7166 -8.0615
# 6 -5.7679 -8.7542 0.7652 -7.7347 -8.0615 56.6040
#
#
#
# Elastic Compliance Matrix: (Units=1/GPa)
#
#
# Indices 1 2 3 4 5 6 
#
# 1 0.012611 -0.003419 0.000829 -0.000518 0.000511 0.000747
# 2 -0.003419 0.013859 -0.004993 0.010070 0.003586 0.003749
# 3 0.000829 -0.004993 0.010577 0.002129 -0.002208 -0.000854
# 4 -0.000518 0.010070 0.002129 0.037893 0.006162 0.007531
# 5 0.000511 0.003586 -0.002208 0.006162 0.025813 0.005155
# 6 0.000747 0.003749 -0.000854 0.007531 0.005155 0.020097
#
#
# Mechanical properties :
#
#
# Convention : Reuss Voigt Hill
#
# Bulk Modulus (GPa) = 45.69976 62.69649 54.19812
# Shear Modulus (GPa) = 34.88977 44.36474 39.62725
#
# Velocity S-wave (km/s) = 3.62299 4.08543 3.86114
# Velocity P-wave (km/s) = 5.89020 6.77065 6.34571
#
# Compressibility (1/GPa) = 0.02188195
#
# Stress axis : x y z
#
# Youngs Moduli (GPa) = 79.29797 72.15307 94.54746
#
# Poissons Ratio (x) = 0.24667 -0.07837
# Poissons Ratio (y) = 0.27110 0.47204
# Poissons Ratio (z) = -0.06573 0.36023
#
# Static dielectric constant tensor:
#      x y z
#    x 2.093190 0.046760 0.025710 
#    y 0.046760 2.168710 0.083290 
#    z 0.025710 0.083290 2.130230 
# 
# From -- ./inp_files/118766.got.cif
#   From: 2010.05.17/outbox.cif.g08.bks.cpg/sg2_60_cif.got.tgz:118766.got - 2010.06.03 11:33:40.
