data_PCOD9084706
_publ_section_title
;
Structure prediction by ZEFSAII (Michael W. Deem and Ramdas Pophale) SiO2 
 PCOD9084706
Probable space group: P -1
;
_chemical_formula_sum "Si O2"
_cell_formula_units_Z 16
_cell_length_a 8.759379
_cell_length_b 12.068021
_cell_length_c 16.340861
_cell_angle_alpha 138.535154
_cell_angle_beta 110.386253
_cell_angle_gamma 102.166798
_cell_volume 696.665297
_symmetry_space_group_name_H-M "P -1"
_symmetry_group_IT_number 2
_symmetry_cell_setting 'triclinic'
loop_
_space_group_symop_operation_xyz
x,y,z
-x,-y,-z
loop_
_atom_site_type_symbol
_atom_site_label
_atom_site_fract_x
_atom_site_fract_y
_atom_site_fract_z
Si Si1 0.094827 0.887868 0.834684
Si Si2 0.142927 0.801722 0.629479
Si Si3 0.661325 0.409313 0.215058
Si Si4 0.426478 0.879518 0.575672
Si Si5 0.446107 0.590823 0.969958
Si Si6 0.224420 0.552702 0.052273
Si Si7 0.045437 0.655127 0.853011
Si Si8 0.095570 0.919520 0.165577
O O1 0.943937 0.923910 0.786726
O O2 0.110840 0.753630 0.694286
O O3 0.980178 0.734540 0.812259
O O4 0.381171 0.167383 0.061508
O O5 0.297041 0.798643 0.596878
O O6 0.873727 0.616058 0.434266
O O7 0.313291 0.102387 0.824983
O O8 0.746749 0.304320 0.126378
O O9 0.647754 0.529784 0.203898
O O10 0.207303 0.646836 0.347293
O O11 0.528639 0.143680 0.716859
O O12 0.657188 0.930304 0.652485
O O13 0.231362 0.525786 0.941789
O O14 0.500000 0.500000 0.000000
O O15 0.000000 0.500000 0.000000
O O16 0.150972 0.333338 0.969941
O O17 0.121478 0.818155 0.036152
#
# Coordination Sequence:
#
# PCOD9084706 Si02
#       8
#     2   2   2   2   2   2   2   2
#     4  11  23  37  58  87 117 151 190 241 289 330
#     4   9  20  38  58  84 114 150 195 232 281 340
#     4  10  21  38  60  84 112 150 193 235 282 343
#     4   9  21  38  59  84 110 149 194 239 282 337
#     4  10  19  35  56  84 118 147 183 234 289 340
#     4   9  17  34  57  78 108 147 184 228 279 333
#     4  11  23  39  59  83 114 155 199 233 278 341
#     4  11  22  38  57  82 118 152 188 237 290 337
#
# _framework density 22.966553000000001
#
# number of rings (size 3 to 8) (size 9 to 14) (size 15 to 20)
#    0.000    2.000    0.000    5.250    0.000    5.500 
#    0.000    5.000    0.000    0.000    0.000    0.000 
#    0.000    0.000    0.000    0.000    0.000    0.000 
#
# Total GULP energy -89346.880129 kJ/mol
# GULP energy per Si atom -5584.180008 kJ/mol
# Density = 2.291428 g / cm^3
# Si number density = 22.966553 Si / 1000 Ang^3
#
#
#
# Elastic Constant Matrix: (Units=GPa)
#
#
# Indices 1 2 3 4 5 6 
#
# 1 47.4772 -13.1358 7.1682 0.9502 13.2752 -7.6052
# 2 -13.1358 73.3746 8.3503 -0.8930 1.1144 -5.6192
# 3 7.1682 8.3503 97.8503 -8.6142 20.8980 5.7920
# 4 0.9502 -0.8930 -8.6142 25.0421 1.8449 -0.7332
# 5 13.2752 1.1144 20.8980 1.8449 23.6203 -7.2171
# 6 -7.6052 -5.6192 5.7920 -0.7332 -7.2171 35.0561
#
#
#
# Elastic Compliance Matrix: (Units=1/GPa)
#
#
# Indices 1 2 3 4 5 6 
#
# 1 0.027203 0.005310 0.000602 0.000576 -0.015026 0.003572
# 2 0.005310 0.015060 -0.001650 -0.000043 -0.001130 0.003605
# 3 0.000602 -0.001650 0.014384 0.005819 -0.015123 -0.005502
# 4 0.000576 -0.000043 0.005819 0.042546 -0.009369 -0.001882
# 5 -0.015026 -0.001130 -0.015123 -0.009369 0.068935 0.013054
# 6 0.003572 0.003605 -0.005502 -0.001882 0.013054 0.033435
#
#
# Mechanical properties :
#
#
# Convention : Reuss Voigt Hill
#
# Bulk Modulus (GPa) = 15.34391 24.82972 20.08682
# Shear Modulus (GPa) = 23.28155 31.16499 27.22327
#
# Velocity S-wave (km/s) = 3.18734 3.68771 3.44662
# Velocity P-wave (km/s) = 4.49900 5.38210 4.96024
#
# Compressibility (1/GPa) = 0.06517243
#
# Stress axis : x y z
#
# Youngs Moduli (GPa) = 36.76051 66.40184 69.52114
#
# Poissons Ratio (x) = -0.35261 -0.04188
# Poissons Ratio (y) = -0.19521 0.11471
# Poissons Ratio (z) = -0.02215 0.10956
#
# Static dielectric constant tensor:
#      x y z
#    x 2.004310 -0.067250 -0.008130 
#    y -0.067250 1.931730 0.014350 
#    z -0.008130 0.014350 1.818050 
# 
# From -- ./inp_files/272055.got.cif
#   From: 2010.05.17/outbox.cif.g08.bks.cpg/sg2_137_cif.got.tgz:272055.got - 2010.06.03 11:33:40.
