data_PCOD9084300
_publ_section_title
;
Structure prediction by ZEFSAII (Michael W. Deem and Ramdas Pophale) SiO2 
 PCOD9084300
Probable space group: P -1
;
_chemical_formula_sum "Si O2"
_cell_formula_units_Z 16
_cell_length_a 9.581167
_cell_length_b 13.828361
_cell_length_c 8.623812
_cell_angle_alpha 93.718374
_cell_angle_beta 106.453183
_cell_angle_gamma 42.337692
_cell_volume 719.311206
_symmetry_space_group_name_H-M "P -1"
_symmetry_group_IT_number 2
_symmetry_cell_setting 'triclinic'
loop_
_space_group_symop_operation_xyz
x,y,z
-x,-y,-z
loop_
_atom_site_type_symbol
_atom_site_label
_atom_site_fract_x
_atom_site_fract_y
_atom_site_fract_z
Si Si1 0.393194 0.575367 0.807115
Si Si2 0.638394 0.871411 0.401265
Si Si3 0.860875 0.411615 0.498196
Si Si4 0.134379 0.805012 0.971486
Si Si5 0.635369 0.120456 0.890423
Si Si6 0.141340 0.783546 0.323129
Si Si7 0.356948 0.941756 0.779817
Si Si8 0.534592 0.672406 0.625253
O O1 0.322815 0.516684 0.683027
O O2 0.507752 0.599382 0.738190
O O3 0.500000 0.500000 0.000000
O O4 0.162054 0.735459 0.812823
O O5 0.514929 0.839078 0.292538
O O6 0.889173 0.711847 0.498244
O O7 0.500000 0.000000 0.500000
O O8 0.641318 0.951463 0.275628
O O9 0.852268 0.317201 0.586480
O O10 0.766369 0.541963 0.594912
O O11 0.329056 0.787191 0.036587
O O12 0.158681 0.745761 0.143597
O O13 0.886326 0.968157 0.909014
O O14 0.564148 0.102086 0.023068
O O15 0.336682 0.751297 0.448576
O O16 0.904735 0.954756 0.287376
O O17 0.491212 0.797097 0.704924
#
# Coordination Sequence:
#
# PCOD9084300 Si02
#       8
#     2   2   2   2   2   2   2   2
#     4  11  20  35  60  90 123 156 195 245 299 350
#     4  11  24  42  63  83 118 161 204 248 297 360
#     4  10  22  39  59  88 122 161 198 238 306 365
#     4  10  19  34  62  94 114 146 200 247 295 344
#     4  10  21  38  60  88 120 152 194 250 295 350
#     4   9  19  34  61  90 123 157 188 247 299 350
#     4  10  21  38  60  90 119 161 199 242 299 354
#     4  11  20  36  58  92 124 156 198 242 300 356
#
# _framework density 22.243500999999998
#
# number of rings (size 3 to 8) (size 9 to 14) (size 15 to 20)
#    0.000    1.750    1.250    4.500    1.750    0.000 
#    0.000    2.500    2.750    0.000    0.000    0.000 
#    0.000    0.000    0.000    0.000    0.000    0.000 
#
# Total GULP energy -89288.995635 kJ/mol
# GULP energy per Si atom -5580.562227 kJ/mol
# Density = 2.219287 g / cm^3
# Si number density = 22.243501 Si / 1000 Ang^3
#
#
#
# Elastic Constant Matrix: (Units=GPa)
#
#
# Indices 1 2 3 4 5 6 
#
# 1 53.9528 9.9577 23.2796 -2.8010 3.7232 -2.6133
# 2 9.9577 126.2598 31.2631 23.3702 6.7554 -12.5528
# 3 23.2796 31.2631 78.4502 3.2330 6.6641 -11.6404
# 4 -2.8010 23.3702 3.2330 40.7720 -0.3058 -4.3401
# 5 3.7232 6.7554 6.6641 -0.3058 30.9960 2.6829
# 6 -2.6133 -12.5528 -11.6404 -4.3401 2.6829 24.1154
#
#
#
# Elastic Compliance Matrix: (Units=1/GPa)
#
#
# Indices 1 2 3 4 5 6 
#
# 1 0.021490 -0.000554 -0.006224 0.002232 -0.001062 -0.000444
# 2 -0.000554 0.010085 -0.003045 -0.005275 -0.001786 0.002969
# 3 -0.006224 -0.003045 0.016959 0.000628 -0.002778 0.006349
# 4 0.002232 -0.005275 0.000628 0.027951 0.000785 0.002743
# 5 -0.001062 -0.001786 -0.002778 0.000785 0.033905 -0.006017
# 6 -0.000444 0.002969 0.006349 0.002743 -0.006017 0.047192
#
#
# Mechanical properties :
#
#
# Convention : Reuss Voigt Hill
#
# Bulk Modulus (GPa) = 34.61581 43.07372 38.84476
# Shear Modulus (GPa) = 26.75824 32.12084 29.43954
#
# Velocity S-wave (km/s) = 3.47215 3.80419 3.64196
# Velocity P-wave (km/s) = 5.62765 6.22114 5.93182
#
# Compressibility (1/GPa) = 0.02888854
#
# Stress axis : x y z
#
# Youngs Moduli (GPa) = 46.53291 99.15876 58.96437
#
# Poissons Ratio (x) = 0.05496 0.36698
# Poissons Ratio (y) = 0.02579 0.17953
# Poissons Ratio (z) = 0.28961 0.30192
#
# Static dielectric constant tensor:
#      x y z
#    x 1.844170 0.011260 -0.039520 
#    y 0.011260 1.938810 -0.000800 
#    z -0.039520 -0.000800 1.823060 
# 
# From -- ./inp_files/207886.got.cif
#   From: 2010.05.17/outbox.cif.g08.bks.cpg/sg2_104_cif.got.tgz:207886.got - 2010.06.03 11:33:40.
