data_PCOD9084075
_publ_section_title
;
Structure prediction by ZEFSAII (Michael W. Deem and Ramdas Pophale) SiO2 
 PCOD9084075
Probable space group: P -1
;
_chemical_formula_sum "Si O2"
_cell_formula_units_Z 12
_cell_length_a 7.955987
_cell_length_b 9.312335
_cell_length_c 22.130406
_cell_angle_alpha 26.060000
_cell_angle_beta 44.339956
_cell_angle_gamma 47.302224
_cell_volume 500.027520
_symmetry_space_group_name_H-M "P -1"
_symmetry_group_IT_number 2
_symmetry_cell_setting 'triclinic'
loop_
_space_group_symop_operation_xyz
x,y,z
-x,-y,-z
loop_
_atom_site_type_symbol
_atom_site_label
_atom_site_fract_x
_atom_site_fract_y
_atom_site_fract_z
Si Si1 0.283339 0.316244 0.250984
Si Si2 0.309195 0.389193 0.355918
Si Si3 0.043682 0.388629 0.962628
Si Si4 0.412547 0.876028 0.859381
Si Si5 0.131035 0.821156 0.672023
Si Si6 0.482062 0.016922 0.920646
O O1 0.291370 0.247021 0.346183
O O2 0.427623 0.057665 0.264951
O O3 0.013329 0.347388 0.280394
O O4 0.426150 0.640245 0.085271
O O5 0.582519 0.291816 0.348270
O O6 0.281505 0.786560 0.209254
O O7 0.126782 0.205746 0.512304
O O8 0.006156 0.708474 0.807755
O O9 0.300670 0.210205 0.942552
O O10 0.000000 0.500000 0.000000
O O11 0.858120 0.136924 0.087779
O O12 0.418575 0.074477 0.844248
O O13 0.500000 0.500000 0.000000
#
# Coordination Sequence:
#
# PCOD9084075 Si02
#       6
#     2   2   2   2   2   2
#     4  11  21  40  65  89 118 160 202 244 295 356
#     4  10  22  37  62  89 120 159 199 242 302 357
#     4  11  21  37  63  88 118 156 203 246 296 354
#     4  10  19  34  60  86 118 151 196 247 293 340
#     4  10  21  39  61  86 124 157 196 247 304 347
#     4  10  21  37  63  90 119 154 201 253 290 351
#
# _framework density 23.998681000000001
#
# number of rings (size 3 to 8) (size 9 to 14) (size 15 to 20)
#    0.000    1.667    3.333    3.500    2.333    1.333 
#    0.000    0.833    3.667    6.000    0.000    0.000 
#    0.000    0.000    0.000    0.000    0.000    0.000 
#
# Total GULP energy -66870.693041 kJ/mol
# GULP energy per Si atom -5572.557753 kJ/mol
# Density = 2.394406 g / cm^3
# Si number density = 23.998681 Si / 1000 Ang^3
#
#
#
# Elastic Constant Matrix: (Units=GPa)
#
#
# Indices 1 2 3 4 5 6 
#
# 1 142.1306 39.5667 24.5599 7.4264 -15.2869 33.6740
# 2 39.5667 97.1288 26.8442 8.6222 -0.3499 34.1419
# 3 24.5599 26.8442 131.2968 6.5555 0.2366 20.9390
# 4 7.4264 8.6222 6.5555 19.8833 -0.5845 3.9970
# 5 -15.2869 -0.3499 0.2366 -0.5845 19.2055 0.5737
# 6 33.6740 34.1419 20.9390 3.9970 0.5737 49.6179
#
#
#
# Elastic Compliance Matrix: (Units=1/GPa)
#
#
# Indices 1 2 3 4 5 6 
#
# 1 0.009783 -0.001890 -0.000579 -0.001392 0.007869 -0.005073
# 2 -0.001890 0.014477 -0.001166 -0.003636 -0.001101 -0.007881
# 3 -0.000579 -0.001166 0.008398 -0.001619 -0.000569 -0.002212
# 4 -0.001392 -0.003636 -0.001619 0.052966 0.000462 -0.000142
# 5 0.007869 -0.001101 -0.000569 0.000462 0.058484 -0.005056
# 6 -0.005073 -0.007881 -0.002212 -0.000142 -0.005056 0.030023
#
#
# Mechanical properties :
#
#
# Convention : Reuss Voigt Hill
#
# Bulk Modulus (GPa) = 39.38946 61.38866 50.38906
# Shear Modulus (GPa) = 26.33477 36.38037 31.35757
#
# Velocity S-wave (km/s) = 3.31621 3.89772 3.61867
# Velocity P-wave (km/s) = 5.57780 6.77435 6.20498
#
# Compressibility (1/GPa) = 0.02538750
#
# Stress axis : x y z
#
# Youngs Moduli (GPa) = 102.21735 69.07598 119.08175
#
# Poissons Ratio (x) = 0.13055 0.06897
# Poissons Ratio (y) = 0.19318 0.13884
# Poissons Ratio (z) = 0.05920 0.08054
#
# Static dielectric constant tensor:
#      x y z
#    x 2.106190 -0.076120 0.110270 
#    y -0.076120 1.931610 -0.043260 
#    z 0.110270 -0.043260 2.003950 
# 
# From -- ./inp_files/159409.got.cif
#   From: 2010.05.17/outbox.cif.g08.bks.cpg/sg2_80_cif.got.tgz:159409.got - 2010.06.03 11:33:40.
