data_PCOD9084705
_publ_section_title
;
Structure prediction by ZEFSAII (Michael W. Deem and Ramdas Pophale) SiO2 
 PCOD9084705
Probable space group: P -1
;
_chemical_formula_sum "Si O2"
_cell_formula_units_Z 16
_cell_length_a 16.435523
_cell_length_b 9.493742
_cell_length_c 26.222349
_cell_angle_alpha 139.037004
_cell_angle_beta 163.102534
_cell_angle_gamma 45.813207
_cell_volume 772.616110
_symmetry_space_group_name_H-M "P -1"
_symmetry_group_IT_number 2
_symmetry_cell_setting 'triclinic'
loop_
_space_group_symop_operation_xyz
x,y,z
-x,-y,-z
loop_
_atom_site_type_symbol
_atom_site_label
_atom_site_fract_x
_atom_site_fract_y
_atom_site_fract_z
Si Si1 0.431965 0.034466 0.117030
Si Si2 0.421075 0.104923 0.247101
Si Si3 0.266871 0.233219 0.971072
Si Si4 0.172482 0.549206 0.856514
Si Si5 0.799242 0.546405 0.261408
Si Si6 0.901093 0.206605 0.305804
Si Si7 0.931755 0.908567 0.521326
Si Si8 0.985921 0.354905 0.107298
O O1 0.457671 0.136834 0.216820
O O2 0.740252 0.015349 0.272948
O O3 0.278613 0.165214 0.018749
O O4 0.267314 0.795305 0.961227
O O5 0.255366 0.284627 0.221686
O O6 0.717030 0.081111 0.444408
O O7 0.232702 0.868113 0.078764
O O8 0.148842 0.457863 0.952097
O O9 0.103069 0.032326 0.785771
O O10 0.586326 0.242253 0.144376
O O11 0.083766 0.427694 0.718108
O O12 0.966278 0.556917 0.782255
O O13 0.462301 0.472377 0.031343
O O14 0.962049 0.382076 0.345982
O O15 0.825948 0.762837 0.369516
O O16 0.082027 0.226496 0.471225
#
# Coordination Sequence:
#
# PCOD9084705 Si02
#       8
#     2   2   2   2   2   2   2   2
#     4  10  20  36  58  87 115 143 181 246 281 324
#     4  10  21  38  58  83 114 150 191 225 280 331
#     4  10  19  35  56  84 114 146 189 226 286 331
#     4  10  20  34  59  84 110 147 188 231 277 330
#     4  11  19  33  57  87 113 142 189 230 286 327
#     4  10  20  32  55  85 119 143 178 240 285 330
#     4  11  21  34  58  86 119 142 183 238 287 325
#     4  10  20  38  59  82 111 154 191 226 268 348
#
# _framework density 20.708860999999999
#
# number of rings (size 3 to 8) (size 9 to 14) (size 15 to 20)
#    0.000    1.750    5.000    0.750    0.000    1.500 
#    0.000    0.625    0.000    0.750    0.000    0.000 
#    0.000    0.000    0.000    0.000    0.000    0.000 
#
# Total GULP energy -89383.502741 kJ/mol
# GULP energy per Si atom -5586.468921 kJ/mol
# Density = 2.066173 g / cm^3
# Si number density = 20.708861 Si / 1000 Ang^3
#
#
#
# Elastic Constant Matrix: (Units=GPa)
#
#
# Indices 1 2 3 4 5 6 
#
# 1 136.0933 72.1976 39.7524 -35.8451 -21.8992 8.4302
# 2 72.1976 124.4819 32.3760 -33.6212 -8.2044 -3.7314
# 3 39.7524 32.3760 39.2766 -14.4954 -8.9397 -0.2066
# 4 -35.8451 -33.6212 -14.4954 25.8858 1.8284 -0.4718
# 5 -21.8992 -8.2044 -8.9397 1.8284 27.8148 -8.3136
# 6 8.4302 -3.7314 -0.2066 -0.4718 -8.3136 35.6266
#
#
#
# Elastic Compliance Matrix: (Units=1/GPa)
#
#
# Indices 1 2 3 4 5 6 
#
# 1 0.016111 -0.003540 -0.006644 0.013388 0.007972 -0.002184
# 2 -0.003540 0.014298 -0.003901 0.011518 0.000168 0.002504
# 3 -0.006644 -0.003901 0.039765 0.007576 0.006824 0.003087
# 4 0.013388 0.011518 0.007576 0.075561 0.011967 0.001875
# 5 0.007972 0.000168 0.006824 0.011967 0.046423 0.009162
# 6 -0.002184 0.002504 0.003087 0.001875 0.009162 0.031029
#
#
# Mechanical properties :
#
#
# Convention : Reuss Voigt Hill
#
# Bulk Modulus (GPa) = 23.80671 65.38931 44.59801
# Shear Modulus (GPa) = 18.84237 28.23382 23.53809
#
# Velocity S-wave (km/s) = 3.01968 3.69639 3.37504
# Velocity P-wave (km/s) = 4.86609 7.06129 6.06385
#
# Compressibility (1/GPa) = 0.04200496
#
# Stress axis : x y z
#
# Youngs Moduli (GPa) = 62.06943 69.93943 25.14744
#
# Poissons Ratio (x) = 0.24760 0.16708
# Poissons Ratio (y) = 0.21974 0.09809
# Poissons Ratio (z) = 0.41238 0.27281
#
# Static dielectric constant tensor:
#      x y z
#    x 1.751290 0.008340 -0.013310 
#    y 0.008340 1.762160 0.039510 
#    z -0.013310 0.039510 1.771560 
# 
# From -- ./inp_files/436784.got.cif
#   From: 2010.05.17/outbox.cif.g08.bks.cpg/sg2_219_cif.got.tgz:436784.got - 2010.06.03 11:33:40.
