data_PCOD9084717
_publ_section_title
;
Structure prediction by ZEFSAII (Michael W. Deem and Ramdas Pophale) SiO2 
 PCOD9084717
Probable space group: P -1
;
_chemical_formula_sum "Si O2"
_cell_formula_units_Z 16
_cell_length_a 7.713366
_cell_length_b 14.633664
_cell_length_c 9.515321
_cell_angle_alpha 116.596746
_cell_angle_beta 92.058982
_cell_angle_gamma 62.249564
_cell_volume 829.477897
_symmetry_space_group_name_H-M "P -1"
_symmetry_group_IT_number 2
_symmetry_cell_setting 'triclinic'
loop_
_space_group_symop_operation_xyz
x,y,z
-x,-y,-z
loop_
_atom_site_type_symbol
_atom_site_label
_atom_site_fract_x
_atom_site_fract_y
_atom_site_fract_z
Si Si1 0.730773 0.528626 0.064425
Si Si2 0.086239 0.306968 0.813733
Si Si3 0.061988 0.690922 0.493852
Si Si4 0.588734 0.865236 0.074735
Si Si5 0.474236 0.465519 0.667200
Si Si6 0.282041 0.132665 0.234105
Si Si7 0.770038 0.631163 0.568477
Si Si8 0.439667 0.346443 0.147634
O O1 0.835613 0.603090 0.165410
O O2 0.556715 0.554208 0.184799
O O3 0.653720 0.576660 0.940593
O O4 0.892665 0.390257 0.961429
O O5 0.024130 0.273665 0.642852
O O6 0.254090 0.202992 0.842360
O O7 0.944803 0.805640 0.669658
O O8 0.984090 0.606662 0.502245
O O9 0.300082 0.620282 0.437795
O O10 0.426351 0.999845 0.195933
O O11 0.700749 0.865956 0.933879
O O12 0.480122 0.788677 0.984398
O O13 0.326205 0.433834 0.560579
O O14 0.430104 0.600163 0.746221
O O15 0.350443 0.224344 0.357947
O O16 0.737243 0.624901 0.728116
#
# Coordination Sequence:
#
# PCOD9084717 Si02
#       8
#     2   2   2   2   2   2   2   2
#     4  10  20  36  54  82 123 151 189 232 283 348
#     4  10  19  35  56  86 111 157 190 233 288 338
#     4  10  21  37  58  86 114 157 184 238 288 337
#     4   9  18  36  66  81 111 151 199 235 284 336
#     4  12  21  37  58  85 125 151 184 239 289 345
#     4   8  18  40  60  84 109 153 194 243 277 333
#     4   9  21  39  54  86 116 150 196 227 289 341
#     4  10  20  34  57  86 110 156 185 236 285 339
#
# _framework density 19.289241000000001
#
# number of rings (size 3 to 8) (size 9 to 14) (size 15 to 20)
#    0.750    1.500    2.500    0.750    0.000    1.000 
#    4.500    0.000    2.750    6.000    0.000    0.000 
#    0.000    0.000    0.000    0.000    0.000    0.000 
#
# Total GULP energy -89103.917220 kJ/mol
# GULP energy per Si atom -5568.994826 kJ/mol
# Density = 1.924534 g / cm^3
# Si number density = 19.289241 Si / 1000 Ang^3
#
#
#
# Elastic Constant Matrix: (Units=GPa)
#
#
# Indices 1 2 3 4 5 6 
#
# 1 95.5703 41.7834 47.0947 5.5249 -17.2496 -1.6190
# 2 41.7834 92.2579 58.1384 5.7832 -8.0119 4.5062
# 3 47.0947 58.1384 80.3060 3.5959 -12.4158 -5.1184
# 4 5.5249 5.7832 3.5959 38.3561 3.2500 1.9110
# 5 -17.2496 -8.0119 -12.4158 3.2500 34.5868 0.1634
# 6 -1.6190 4.5062 -5.1184 1.9110 0.1634 9.0606
#
#
#
# Elastic Compliance Matrix: (Units=1/GPa)
#
#
# Indices 1 2 3 4 5 6 
#
# 1 0.015828 -0.002523 -0.006543 -0.001753 0.005122 0.000665
# 2 -0.002523 0.024017 -0.017599 -0.000341 -0.001876 -0.022231
# 3 -0.006543 -0.017599 0.031286 -0.000929 0.003859 0.025384
# 4 -0.001753 -0.000341 -0.000929 0.027099 -0.003803 -0.006315
# 5 0.005122 -0.001876 0.003859 -0.003803 0.032755 0.004239
# 6 0.000665 -0.022231 0.025384 -0.006315 0.004239 0.137138
#
#
# Mechanical properties :
#
#
# Convention : Reuss Voigt Hill
#
# Bulk Modulus (GPa) = 56.17632 62.46303 59.31967
# Shear Modulus (GPa) = 15.27241 24.47521 19.87381
#
# Velocity S-wave (km/s) = 2.81687 3.56596 3.21332
# Velocity P-wave (km/s) = 6.30603 7.02904 6.67733
#
# Compressibility (1/GPa) = 0.01780110
#
# Stress axis : x y z
#
# Youngs Moduli (GPa) = 63.17990 41.63749 31.96277
#
# Poissons Ratio (x) = 0.10506 0.20912
# Poissons Ratio (y) = 0.15941 0.56252
# Poissons Ratio (z) = 0.41336 0.73279
#
# Static dielectric constant tensor:
#      x y z
#    x 1.716100 0.010790 0.022050 
#    y 0.010790 1.693950 0.008320 
#    z 0.022050 0.008320 1.732000 
# 
# From -- ./inp_files/197527.got.cif
#   From: 2010.05.17/outbox.cif.g08.bks.cpg/sg2_99_cif.got.tgz:197527.got - 2010.06.03 11:33:40.
