data_PCOD9084467
_publ_section_title
;
Structure prediction by ZEFSAII (Michael W. Deem and Ramdas Pophale) SiO2 
 PCOD9084467
Probable space group: P -1
;
_chemical_formula_sum "Si O2"
_cell_formula_units_Z 16
_cell_length_a 9.374918
_cell_length_b 5.193835
_cell_length_c 26.234855
_cell_angle_alpha 65.529039
_cell_angle_beta 44.478193
_cell_angle_gamma 74.214517
_cell_volume 814.057827
_symmetry_space_group_name_H-M "P -1"
_symmetry_group_IT_number 2
_symmetry_cell_setting 'triclinic'
loop_
_space_group_symop_operation_xyz
x,y,z
-x,-y,-z
loop_
_atom_site_type_symbol
_atom_site_label
_atom_site_fract_x
_atom_site_fract_y
_atom_site_fract_z
Si Si1 0.473916 0.306838 0.171174
Si Si2 0.950454 0.506514 0.722811
Si Si3 0.387089 0.925621 0.131240
Si Si4 0.180707 0.201068 0.072328
Si Si5 0.750421 0.353870 0.194147
Si Si6 0.360622 0.379736 0.590439
Si Si7 0.681407 0.289357 0.329175
Si Si8 0.054617 0.805223 0.048835
O O1 0.239639 0.295148 0.252612
O O2 0.623467 0.274928 0.182756
O O3 0.486401 0.088025 0.140138
O O4 0.845119 0.670780 0.136471
O O5 0.127132 0.483203 0.637924
O O6 0.837467 0.203232 0.784999
O O7 0.080771 0.610969 0.730268
O O8 0.633487 0.330853 0.278894
O O9 0.495048 0.630191 0.118210
O O10 0.348244 0.126677 0.077019
O O11 0.175614 0.524240 0.028170
O O12 0.953983 0.172202 0.158088
O O13 0.176460 0.982927 0.045316
O O14 0.500000 0.500000 0.500000
O O15 0.352430 0.040361 0.621863
O O16 0.426594 0.515015 0.617486
O O17 0.000000 0.000000 0.000000
#
# Coordination Sequence:
#
# PCOD9084467 Si02
#       8
#     2   2   2   2   2   2   2   2
#     4  10  21  31  52  82 116 137 174 235 278 321
#     4   8  19  30  55  73 112 131 186 213 273 308
#     4  10  19  35  51  84 103 143 180 225 270 318
#     4  10  20  33  61  76 106 142 187 222 267 321
#     4  10  23  33  60  84 112 139 184 233 278 309
#     4  10  20  33  54  82 111 141 181 229 269 319
#     4  10  20  33  56  84 104 138 191 224 265 323
#     4  10  22  36  57  86 110 143 183 226 279 323
#
# _framework density 19.654623000000001
#
# number of rings (size 3 to 8) (size 9 to 14) (size 15 to 20)
#    2.250    0.000    0.000    4.500    3.500    0.000 
#    0.000    0.000    0.000    6.000    0.000    0.000 
#    0.000    0.000    0.000    0.000    0.000    0.000 
#
# Total GULP energy -89134.948445 kJ/mol
# GULP energy per Si atom -5570.934278 kJ/mol
# Density = 1.960989 g / cm^3
# Si number density = 19.654623 Si / 1000 Ang^3
#
#
#
# Elastic Constant Matrix: (Units=GPa)
#
#
# Indices 1 2 3 4 5 6 
#
# 1 94.9278 44.7370 45.9418 -0.0531 27.5249 14.7284
# 2 44.7370 114.8798 34.1989 5.2730 13.3264 25.9522
# 3 45.9418 34.1989 79.3823 -8.2457 4.8898 2.6746
# 4 -0.0531 5.2730 -8.2457 24.8286 0.6380 -1.6545
# 5 27.5249 13.3264 4.8898 0.6380 32.0978 5.0460
# 6 14.7284 25.9522 2.6746 -1.6545 5.0460 32.7427
#
#
#
# Elastic Compliance Matrix: (Units=1/GPa)
#
#
# Indices 1 2 3 4 5 6 
#
# 1 0.022303 -0.002276 -0.011115 -0.003096 -0.015629 -0.005068
# 2 -0.002276 0.013447 -0.004594 -0.004971 -0.001370 -0.009299
# 3 -0.011115 -0.004594 0.021219 0.008233 0.007062 0.006235
# 4 -0.003096 -0.004971 0.008233 0.044464 0.001532 0.006671
# 5 -0.015629 -0.001370 0.007062 0.001532 0.043885 0.000853
# 6 -0.005068 -0.009299 0.006235 0.006671 0.000853 0.039887
#
#
# Mechanical properties :
#
#
# Convention : Reuss Voigt Hill
#
# Bulk Modulus (GPa) = 47.62471 59.88283 53.75377
# Shear Modulus (GPa) = 21.91298 28.88797 25.40048
#
# Velocity S-wave (km/s) = 3.34264 3.83793 3.59881
# Velocity P-wave (km/s) = 6.25948 7.08331 6.68410
#
# Compressibility (1/GPa) = 0.02099750
#
# Stress axis : x y z
#
# Youngs Moduli (GPa) = 44.83801 74.36805 47.12716
#
# Poissons Ratio (x) = 0.16929 0.52381
# Poissons Ratio (y) = 0.10207 0.21651
# Poissons Ratio (z) = 0.49837 0.34166
#
# Static dielectric constant tensor:
#      x y z
#    x 1.694820 -0.007600 -0.035800 
#    y -0.007600 1.714510 0.019070 
#    z -0.035800 0.019070 1.703960 
# 
# From -- ./inp_files/585150.got.cif
#   From: 2010.05.17/outbox.cif.g08.bks.cpg/sg2_293_cif.got.tgz:585150.got - 2010.06.03 11:33:40.
