data_PCOD9084153
_publ_section_title
;
Structure prediction by ZEFSAII (Michael W. Deem and Ramdas Pophale) SiO2 
 PCOD9084153
Probable space group: P -1
;
_chemical_formula_sum "Si O2"
_cell_formula_units_Z 15
_cell_length_a 13.597469
_cell_length_b 7.903535
_cell_length_c 7.880035
_cell_angle_alpha 118.753087
_cell_angle_beta 105.102902
_cell_angle_gamma 51.241920
_cell_volume 577.927390
_symmetry_space_group_name_H-M "P -1"
_symmetry_group_IT_number 2
_symmetry_cell_setting 'triclinic'
loop_
_space_group_symop_operation_xyz
x,y,z
-x,-y,-z
loop_
_atom_site_type_symbol
_atom_site_label
_atom_site_fract_x
_atom_site_fract_y
_atom_site_fract_z
Si Si1 0.625061 0.965089 0.103574
Si Si2 0.000000 0.500000 0.500000
Si Si3 0.643190 0.408444 0.024687
Si Si4 0.021828 0.292944 0.786528
Si Si5 0.789063 0.948460 0.687132
Si Si6 0.747947 0.501998 0.783907
Si Si7 0.722850 0.200627 0.410586
Si Si8 0.642078 0.781388 0.399044
O O1 0.620564 0.198853 0.250611
O O2 0.654987 0.858605 0.254694
O O3 0.724748 0.756358 0.919734
O O4 0.500000 0.000000 0.000000
O O5 0.975224 0.618451 0.356588
O O6 0.062277 0.231578 0.316542
O O7 0.681431 0.486889 0.911943
O O8 0.726390 0.125368 0.900745
O O9 0.500000 0.500000 0.000000
O O10 0.660836 0.535110 0.248775
O O11 0.897247 0.301947 0.754785
O O12 0.146446 0.018863 0.722336
O O13 0.000000 0.500000 0.000000
O O14 0.736288 0.104735 0.565628
O O15 0.749180 0.767486 0.552484
O O16 0.697564 0.451614 0.569122
O O17 0.500000 0.000000 0.500000
#
# Coordination Sequence:
#
# PCOD9084153 Si02
#       8
#     2   1   2   2   2   2   2   2
#     4  10  21  36  57  89 126 166 212 260 319 389
#     4  10  24  40  70  96 130 174 216 270 336 392
#     4  10  19  35  61  94 123 165 218 259 317 392
#     4  11  21  42  71  94 130 173 220 272 332 393
#     4   9  19  38  60  90 126 161 212 265 316 389
#     4  10  21  37  65  91 124 172 216 265 330 387
#     4   9  19  38  64  89 121 172 213 263 331 386
#     4  10  19  34  61  84 120 167 208 255 320 373
#
# _framework density 25.954816000000001
#
# number of rings (size 3 to 8) (size 9 to 14) (size 15 to 20)
#    0.000    2.133    2.667    0.400    1.867    1.600 
#    0.000    0.667   14.667    0.000    0.000    0.000 
#    0.000    0.000    0.000    0.000    0.000    0.000 
#
# Total GULP energy -83531.028921 kJ/mol
# GULP energy per Si atom -5568.735261 kJ/mol
# Density = 2.589574 g / cm^3
# Si number density = 25.954816 Si / 1000 Ang^3
#
#
#
# Elastic Constant Matrix: (Units=GPa)
#
#
# Indices 1 2 3 4 5 6 
#
# 1 66.5586 -3.2877 37.1175 -6.6888 2.2402 12.6155
# 2 -3.2877 43.2781 31.1742 -1.9491 -10.8869 14.6309
# 3 37.1175 31.1742 232.7681 31.7278 8.1095 10.2591
# 4 -6.6888 -1.9491 31.7278 57.1281 3.8470 -2.0144
# 5 2.2402 -10.8869 8.1095 3.8470 47.4972 8.5000
# 6 12.6155 14.6309 10.2591 -2.0144 8.5000 35.3509
#
#
#
# Elastic Compliance Matrix: (Units=1/GPa)
#
#
# Indices 1 2 3 4 5 6 
#
# 1 0.020636 0.009833 -0.004931 0.004872 0.003624 -0.010597
# 2 0.009833 0.039417 -0.007047 0.004801 0.013081 -0.020650
# 3 -0.004931 -0.007047 0.006547 -0.004157 -0.002736 0.003197
# 4 0.004872 0.004801 -0.004157 0.020487 0.000170 -0.001393
# 5 0.003624 0.013081 -0.002736 0.000170 0.026533 -0.012283
# 6 -0.010597 -0.020650 0.003197 -0.001393 -0.012283 0.042562
#
#
# Mechanical properties :
#
#
# Convention : Reuss Voigt Hill
#
# Bulk Modulus (GPa) = 16.04860 52.51253 34.28056
# Shear Modulus (GPa) = 27.58732 46.50195 37.04464
#
# Velocity S-wave (km/s) = 3.26375 4.23738 3.78203
# Velocity P-wave (km/s) = 4.51657 6.64957 5.68402
#
# Compressibility (1/GPa) = 0.06231074
#
# Stress axis : x y z
#
# Youngs Moduli (GPa) = 48.45882 25.36954 152.73577
#
# Poissons Ratio (x) = -0.24946 0.75313
# Poissons Ratio (y) = -0.47650 1.07635
# Poissons Ratio (z) = 0.23895 0.17878
#
# Static dielectric constant tensor:
#      x y z
#    x 2.163500 0.254600 0.034720 
#    y 0.254600 3.074950 0.448270 
#    z 0.034720 0.448270 2.153710 
# 
# From -- ./inp_files/293516.got.cif
#   From: 2010.05.17/outbox.cif.g08.bks.cpg/sg2_147_cif.got.tgz:293516.got - 2010.06.03 11:33:40.
