data_PCOD9084424
_publ_section_title
;
Structure prediction by ZEFSAII (Michael W. Deem and Ramdas Pophale) SiO2 
 PCOD9084424
Probable space group: P -1
;
_chemical_formula_sum "Si O2"
_cell_formula_units_Z 16
_cell_length_a 8.913016
_cell_length_b 14.440361
_cell_length_c 5.663416
_cell_angle_alpha 77.153475
_cell_angle_beta 95.745760
_cell_angle_gamma 71.105951
_cell_volume 660.576898
_symmetry_space_group_name_H-M "P -1"
_symmetry_group_IT_number 2
_symmetry_cell_setting 'triclinic'
loop_
_space_group_symop_operation_xyz
x,y,z
-x,-y,-z
loop_
_atom_site_type_symbol
_atom_site_label
_atom_site_fract_x
_atom_site_fract_y
_atom_site_fract_z
Si Si1 0.693305 0.115660 0.222569
Si Si2 0.965945 0.409361 0.782531
Si Si3 0.973934 0.928638 0.239699
Si Si4 0.761839 0.620141 0.766889
Si Si5 0.821841 0.296699 0.170194
Si Si6 0.644773 0.172108 0.680134
Si Si7 0.876988 0.762339 0.458033
Si Si8 0.546765 0.397312 0.414807
O O1 0.742947 0.214695 0.141863
O O2 0.596154 0.134373 0.442695
O O3 0.852260 0.014897 0.341013
O O4 0.621322 0.115428 0.947018
O O5 0.864187 0.527141 0.664844
O O6 0.023308 0.337010 0.614164
O O7 0.846941 0.365984 0.929820
O O8 0.122859 0.395080 0.979271
O O9 0.867773 0.856057 0.235994
O O10 0.161925 0.854488 0.328814
O O11 0.000000 0.000000 0.000000
O O12 0.742644 0.727701 0.580312
O O13 0.595433 0.602786 0.787440
O O14 0.709940 0.370927 0.307144
O O15 0.002961 0.230878 0.320529
O O16 0.568957 0.294148 0.623421
O O17 0.500000 0.500000 0.500000
#
# Coordination Sequence:
#
# PCOD9084424 Si02
#       8
#     2   2   2   2   2   2   2   2
#     4  10  20  36  60 100 124 161 207 283 330 370
#     4  10  21  41  60  87 123 170 220 262 315 387
#     4  10  19  34  65  96 123 161 217 279 326 373
#     4  10  24  38  59  88 129 169 215 256 329 388
#     4  10  22  36  65  91 126 160 217 273 316 384
#     4  10  21  38  58  93 131 160 210 273 320 386
#     4  11  20  40  61  91 124 164 209 271 323 385
#     4  11  23  41  61  94 128 174 213 262 329 388
#
# _framework density 24.221253999999998
#
# number of rings (size 3 to 8) (size 9 to 14) (size 15 to 20)
#    0.000    1.750    2.500    3.000    1.750    2.500 
#    9.000    0.000    0.000    6.000    0.000    0.000 
#    0.000    0.000    0.000    0.000    0.000    0.000 
#
# Total GULP energy -89167.200143 kJ/mol
# GULP energy per Si atom -5572.950009 kJ/mol
# Density = 2.416613 g / cm^3
# Si number density = 24.221254 Si / 1000 Ang^3
#
#
#
# Elastic Constant Matrix: (Units=GPa)
#
#
# Indices 1 2 3 4 5 6 
#
# 1 74.1261 22.7037 12.0496 -0.0222 0.0949 -2.2054
# 2 22.7037 99.6796 -0.3080 -6.9557 -1.5091 -10.3923
# 3 12.0496 -0.3080 70.0489 -5.3125 -7.7685 5.4593
# 4 -0.0222 -6.9557 -5.3125 37.7648 1.8409 -7.6664
# 5 0.0949 -1.5091 -7.7685 1.8409 15.7745 -4.5212
# 6 -2.2054 -10.3923 5.4593 -7.6664 -4.5212 32.2010
#
#
#
# Elastic Compliance Matrix: (Units=1/GPa)
#
#
# Indices 1 2 3 4 5 6 
#
# 1 0.015039 -0.003541 -0.002863 -0.000982 -0.001756 -0.000108
# 2 -0.003541 0.011548 0.000816 0.003015 0.002439 0.004406
# 3 -0.002863 0.000816 0.015811 0.001780 0.007342 -0.001159
# 4 -0.000982 0.003015 0.001780 0.028800 -0.000054 0.007453
# 5 -0.001756 0.002439 0.007342 -0.000054 0.069903 0.009224
# 6 -0.000108 0.004406 -0.001159 0.007453 0.009224 0.035736
#
#
# Mechanical properties :
#
#
# Convention : Reuss Voigt Hill
#
# Bulk Modulus (GPa) = 32.02919 34.74949 33.38934
# Shear Modulus (GPa) = 25.19882 31.10869 28.15376
#
# Velocity S-wave (km/s) = 3.22896 3.58768 3.41304
# Velocity P-wave (km/s) = 5.21094 5.61603 5.41727
#
# Compressibility (1/GPa) = 0.03122152
#
# Stress axis : x y z
#
# Youngs Moduli (GPa) = 66.49303 86.59641 63.24546
#
# Poissons Ratio (x) = 0.30661 0.18110
# Poissons Ratio (y) = 0.23543 -0.05158
# Poissons Ratio (z) = 0.19039 -0.07062
#
# Static dielectric constant tensor:
#      x y z
#    x 1.974780 0.015930 0.048090 
#    y 0.015930 1.956610 -0.026850 
#    z 0.048090 -0.026850 2.083880 
# 
# From -- ./inp_files/38004.got.cif
#   From: 2010.05.17/outbox.cif.g08.bks.cpg/sg2_20_cif.got.tgz:38004.got - 2010.06.03 11:33:40.
