data_PCOD9084317
_publ_section_title
;
Structure prediction by ZEFSAII (Michael W. Deem and Ramdas Pophale) SiO2 
 PCOD9084317
Probable space group: P -1
;
_chemical_formula_sum "Si O2"
_cell_formula_units_Z 16
_cell_length_a 11.039276
_cell_length_b 7.778237
_cell_length_c 11.486985
_cell_angle_alpha 141.390288
_cell_angle_beta 81.143276
_cell_angle_gamma 97.557794
_cell_volume 608.050250
_symmetry_space_group_name_H-M "P -1"
_symmetry_group_IT_number 2
_symmetry_cell_setting 'triclinic'
loop_
_space_group_symop_operation_xyz
x,y,z
-x,-y,-z
loop_
_atom_site_type_symbol
_atom_site_label
_atom_site_fract_x
_atom_site_fract_y
_atom_site_fract_z
Si Si1 0.919801 0.463540 0.813679
Si Si2 0.879052 0.649319 0.469456
Si Si3 0.402757 0.739206 0.018360
Si Si4 0.691673 0.113658 0.651632
Si Si5 0.331228 0.738167 0.657439
Si Si6 0.290873 0.167142 0.724347
Si Si7 0.561383 0.671956 0.756843
Si Si8 0.977541 0.924967 0.212034
O O1 0.783046 0.372297 0.749233
O O2 0.017379 0.378254 0.657945
O O3 0.942420 0.280761 0.829618
O O4 0.945422 0.774320 0.016693
O O5 0.804200 0.365628 0.344670
O O6 0.775851 0.864919 0.557491
O O7 0.946346 0.789542 0.644921
O O8 0.598617 0.190498 0.807859
O O9 0.303915 0.493642 0.887065
O O10 0.521741 0.633877 0.875658
O O11 0.375188 0.029364 0.113641
O O12 0.642393 0.976089 0.468745
O O13 0.431698 0.684810 0.712310
O O14 0.364755 0.553539 0.442434
O O15 0.336753 0.049157 0.777182
O O16 0.149649 0.065876 0.692722
#
# Coordination Sequence:
#
# PCOD9084317 Si02
#       8
#     2   2   2   2   2   2   2   2
#     4  10  19  34  62  99 129 172 226 256 309 398
#     4  11  20  39  65  92 131 183 213 263 312 395
#     4  11  24  45  75  93 130 169 224 281 325 383
#     4  11  20  40  68 100 131 173 219 269 323 394
#     4  11  26  45  69  94 137 176 218 275 336 380
#     4  12  24  42  67 104 137 169 210 280 338 386
#     4  10  25  50  68  95 124 176 236 268 322 403
#     4  10  20  34  62  98 133 167 220 260 320 394
#
# _framework density 26.313614000000001
#
# number of rings (size 3 to 8) (size 9 to 14) (size 15 to 20)
#    0.000    1.250    5.000    1.500    1.750    1.500 
#    4.500    0.625    0.000    0.000    0.000    0.000 
#    0.000    0.000    0.000    0.000    0.000    0.000 
#
# Total GULP energy -89613.890210 kJ/mol
# GULP energy per Si atom -5600.868138 kJ/mol
# Density = 2.625372 g / cm^3
# Si number density = 26.313614 Si / 1000 Ang^3
#
#
#
# Elastic Constant Matrix: (Units=GPa)
#
#
# Indices 1 2 3 4 5 6 
#
# 1 95.1723 35.9732 24.8064 7.2481 10.2576 22.6131
# 2 35.9732 100.9947 44.2613 -1.0731 -0.4736 21.2197
# 3 24.8064 44.2613 127.1593 -10.8762 19.3499 10.1023
# 4 7.2481 -1.0731 -10.8762 44.0523 11.0135 1.1890
# 5 10.2576 -0.4736 19.3499 11.0135 30.2644 1.7280
# 6 22.6131 21.2197 10.1023 1.1890 1.7280 32.5086
#
#
#
# Elastic Compliance Matrix: (Units=1/GPa)
#
#
# Indices 1 2 3 4 5 6 
#
# 1 0.014117 -0.003252 -0.000647 -0.001500 -0.003462 -0.007257
# 2 -0.003252 0.014432 -0.004857 -0.001481 0.005308 -0.005877
# 3 -0.000647 -0.004857 0.011464 0.005072 -0.009052 0.000353
# 4 -0.001500 -0.001481 0.005072 0.027339 -0.012713 0.000110
# 5 -0.003462 0.005308 -0.009052 -0.012713 0.044721 -0.000156
# 6 -0.007257 -0.005877 0.000353 0.000110 -0.000156 0.039540
#
#
# Mechanical properties :
#
#
# Convention : Reuss Voigt Hill
#
# Bulk Modulus (GPa) = 44.44077 59.26755 51.85416
# Shear Modulus (GPa) = 28.30861 35.91742 32.11301
#
# Velocity S-wave (km/s) = 3.28352 3.69856 3.49721
# Velocity P-wave (km/s) = 5.59472 6.38840 6.00469
#
# Compressibility (1/GPa) = 0.02250186
#
# Stress axis : x y z
#
# Youngs Moduli (GPa) = 70.83790 69.28936 87.22887
#
# Poissons Ratio (x) = 0.22534 0.05643
# Poissons Ratio (y) = 0.23037 0.42363
# Poissons Ratio (z) = 0.04583 0.33650
#
# Static dielectric constant tensor:
#      x y z
#    x 2.048870 -0.042930 -0.004050 
#    y -0.042930 2.078640 0.050190 
#    z -0.004050 0.050190 2.072030 
# 
# From -- ./inp_files/516457.got.cif
#   From: 2010.05.17/outbox.cif.g08.bks.cpg/sg2_259_cif.got.tgz:516457.got - 2010.06.03 11:33:40.
