data_PCOD9084906
_publ_section_title
;
Structure prediction by ZEFSAII (Michael W. Deem and Ramdas Pophale) SiO2 
 PCOD9084906
Probable space group: P -1
;
_chemical_formula_sum "Si O2"
_cell_formula_units_Z 16
_cell_length_a 11.785100
_cell_length_b 14.197199
_cell_length_c 14.379670
_cell_angle_alpha 39.918291
_cell_angle_beta 51.043580
_cell_angle_gamma 31.983913
_cell_volume 816.079053
_symmetry_space_group_name_H-M "P -1"
_symmetry_group_IT_number 2
_symmetry_cell_setting 'triclinic'
loop_
_space_group_symop_operation_xyz
x,y,z
-x,-y,-z
loop_
_atom_site_type_symbol
_atom_site_label
_atom_site_fract_x
_atom_site_fract_y
_atom_site_fract_z
Si Si1 0.005054 0.178844 0.596017
Si Si2 0.191033 0.479441 0.416968
Si Si3 0.512268 0.164807 0.341705
Si Si4 0.113710 0.978250 0.364778
Si Si5 0.495526 0.139443 0.677324
Si Si6 0.330363 0.297654 0.138241
Si Si7 0.148593 0.534216 0.880819
Si Si8 0.885455 0.534133 0.251886
O O1 0.902786 0.304213 0.651974
O O2 0.974087 0.345450 0.420225
O O3 0.255212 0.958926 0.648037
O O4 0.896225 0.129109 0.632560
O O5 0.312308 0.392151 0.322561
O O6 0.376668 0.285546 0.537051
O O7 0.000000 0.500000 0.500000
O O8 0.488409 0.205573 0.212624
O O9 0.500000 0.000000 0.500000
O O10 0.986151 0.219718 0.221266
O O11 0.353036 0.848632 0.366862
O O12 0.000000 0.000000 0.500000
O O13 0.307805 0.239651 0.770285
O O14 0.635513 0.896317 0.762749
O O15 0.087559 0.486028 0.159434
O O16 0.335496 0.386430 0.973444
O O17 0.202589 0.479259 0.785756
O O18 0.000000 0.500000 0.000000
#
# Coordination Sequence:
#
# PCOD9084906 Si02
#       8
#     2   2   2   2   2   2   2   2
#     4  11  22  36  57  89 121 152 196 251 298 344
#     4  11  20  33  56  89 120 148 202 253 288 342
#     4  12  19  35  62  83 116 159 201 244 295 344
#     4  12  22  40  62  87 129 159 191 249 304 362
#     4  11  21  34  61  90 120 158 192 240 311 353
#     4  11  20  38  59  88 120 155 200 250 290 351
#     4  10  21  40  61  85 124 160 195 245 297 356
#     4  10  19  35  57  89 121 148 195 242 299 352
#
# _framework density 19.605941999999999
#
# number of rings (size 3 to 8) (size 9 to 14) (size 15 to 20)
#    0.000    1.000    7.500    1.500    0.000    2.500 
#    2.250    0.625    0.000    0.750    0.000    0.000 
#    0.000    0.000    0.000    0.000    0.000    0.000 
#
# Total GULP energy -89294.556980 kJ/mol
# GULP energy per Si atom -5580.909811 kJ/mol
# Density = 1.956132 g / cm^3
# Si number density = 19.605942 Si / 1000 Ang^3
#
#
#
# Elastic Constant Matrix: (Units=GPa)
#
#
# Indices 1 2 3 4 5 6 
#
# 1 127.3476 31.0359 18.6261 -6.6159 18.9880 0.0900
# 2 31.0359 85.9885 -0.4733 7.3395 -1.3341 7.0872
# 3 18.6261 -0.4733 45.6780 -10.5587 17.8599 -3.3676
# 4 -6.6159 7.3395 -10.5587 13.8761 3.3696 6.2423
# 5 18.9880 -1.3341 17.8599 3.3696 36.7752 -6.1603
# 6 0.0900 7.0872 -3.3676 6.2423 -6.1603 38.4717
#
#
#
# Elastic Compliance Matrix: (Units=1/GPa)
#
#
# Indices 1 2 3 4 5 6 
#
# 1 0.010526 -0.004671 0.000918 0.010898 -0.007389 -0.002035
# 2 -0.004671 0.014582 -0.003578 -0.014259 0.006034 0.000291
# 3 0.000918 -0.003578 0.040767 0.042565 -0.025433 -0.006753
# 4 0.010898 -0.014259 0.042565 0.138065 -0.043321 -0.023011
# 5 -0.007389 0.006034 -0.025433 -0.043321 0.049496 0.011634
# 6 -0.002035 0.000291 -0.006753 -0.023011 0.011634 0.030950
#
#
# Mechanical properties :
#
#
# Convention : Reuss Voigt Hill
#
# Bulk Modulus (GPa) = 19.52659 39.71016 29.61837
# Shear Modulus (GPa) = 15.81680 31.81296 23.81488
#
# Velocity S-wave (km/s) = 2.84339 4.03254 3.48900
# Velocity P-wave (km/s) = 4.55642 6.47920 5.60094
#
# Compressibility (1/GPa) = 0.05121222
#
# Stress axis : x y z
#
# Youngs Moduli (GPa) = 95.00174 68.57563 24.52992
#
# Poissons Ratio (x) = 0.32033 -0.02251
# Poissons Ratio (y) = 0.44377 0.08776
# Poissons Ratio (z) = -0.08718 0.24535
#
# Static dielectric constant tensor:
#      x y z
#    x 1.719750 0.016340 0.037960 
#    y 0.016340 1.703880 0.023030 
#    z 0.037960 0.023030 1.691430 
# 
# From -- ./inp_files/465837.got.cif
#   From: 2010.05.17/outbox.cif.g08.bks.cpg/sg2_233_cif.got.tgz:465837.got - 2010.06.03 11:33:40.
