data_PCOD9084325
_publ_section_title
;
Structure prediction by ZEFSAII (Michael W. Deem and Ramdas Pophale) SiO2 
 PCOD9084325
Probable space group: P -1
;
_chemical_formula_sum "Si O2"
_cell_formula_units_Z 12
_cell_length_a 8.685547
_cell_length_b 8.790411
_cell_length_c 8.331162
_cell_angle_alpha 120.446815
_cell_angle_beta 55.129442
_cell_angle_gamma 89.471693
_cell_volume 407.746732
_symmetry_space_group_name_H-M "P -1"
_symmetry_group_IT_number 2
_symmetry_cell_setting 'triclinic'
loop_
_space_group_symop_operation_xyz
x,y,z
-x,-y,-z
loop_
_atom_site_type_symbol
_atom_site_label
_atom_site_fract_x
_atom_site_fract_y
_atom_site_fract_z
Si Si1 0.292736 0.390207 0.207845
Si Si2 0.889666 0.793630 0.614433
Si Si3 0.060000 0.116116 0.705271
Si Si4 0.415032 0.334961 0.462550
Si Si5 0.666483 0.909728 0.191002
Si Si6 0.673519 0.511368 0.084746
O O1 0.236455 0.190045 0.124542
O O2 0.287603 0.339722 0.381380
O O3 0.470794 0.471250 0.169909
O O4 0.087500 0.580411 0.385743
O O5 0.797177 0.900125 0.548373
O O6 0.011482 0.930496 0.651367
O O7 0.124432 0.155204 0.863285
O O8 0.853382 0.297290 0.868122
O O9 0.500000 0.500000 0.500000
O O10 0.277645 0.400098 0.736792
O O11 0.597371 0.126547 0.268252
O O12 0.633279 0.689984 0.075506
O O13 0.500000 0.000000 0.500000
#
# Coordination Sequence:
#
# PCOD9084325 Si02
#       6
#     2   2   2   2   2   2
#     4   8  20  34  60  84 108 149 196 223 274 339
#     4   9  21  37  57  81 122 145 187 226 292 337
#     4  11  21  37  57  89 113 150 182 240 286 329
#     4  10  19  39  60  84 108 155 190 229 273 344
#     4  10  19  34  63  83 111 145 198 228 275 333
#     4  10  21  35  62  85 113 144 196 233 274 332
#
# _framework density 29.430032000000001
#
# number of rings (size 3 to 8) (size 9 to 14) (size 15 to 20)
#    2.000    0.333    1.667    1.500    0.000    1.333 
#    3.000    0.833    0.000    1.000    0.000    0.000 
#    0.000    0.000    0.000    0.000    0.000    0.000 
#
# Total GULP energy -66981.399367 kJ/mol
# GULP energy per Si atom -5581.783281 kJ/mol
# Density = 2.936305 g / cm^3
# Si number density = 29.430032 Si / 1000 Ang^3
#
#
#
# Elastic Constant Matrix: (Units=GPa)
#
#
# Indices 1 2 3 4 5 6 
#
# 1 244.1675 124.5101 48.0218 2.3397 48.0625 -24.3310
# 2 124.5101 271.0025 101.4828 36.0609 15.8770 -6.0273
# 3 48.0218 101.4828 188.0402 56.1631 31.7518 1.4645
# 4 2.3397 36.0609 56.1631 60.8325 -7.9501 15.8889
# 5 48.0625 15.8770 31.7518 -7.9501 78.6853 -2.0617
# 6 -24.3310 -6.0273 1.4645 15.8889 -2.0617 53.6789
#
#
#
# Elastic Compliance Matrix: (Units=1/GPa)
#
#
# Indices 1 2 3 4 5 6 
#
# 1 0.006377 -0.002847 0.000515 -0.000130 -0.003477 0.002462
# 2 -0.002847 0.005948 -0.002453 -0.000904 0.001431 -0.000233
# 3 0.000515 -0.002453 0.009949 -0.008924 -0.004680 0.002148
# 4 -0.000130 -0.000904 -0.008924 0.028158 0.006498 -0.008002
# 5 -0.003477 0.001431 -0.004680 0.006498 0.017022 -0.002557
# 6 0.002462 -0.000233 0.002148 -0.008002 -0.002557 0.021931
#
#
# Mechanical properties :
#
#
# Convention : Reuss Voigt Hill
#
# Bulk Modulus (GPa) = 78.71467 139.02660 108.87064
# Shear Modulus (GPa) = 48.45502 67.25238 57.85370
#
# Velocity S-wave (km/s) = 4.06205 4.78552 4.43855
# Velocity P-wave (km/s) = 6.98604 8.82481 7.95870
#
# Compressibility (1/GPa) = 0.01270411
#
# Stress axis : x y z
#
# Youngs Moduli (GPa) = 156.81261 168.13286 100.51191
#
# Poissons Ratio (x) = 0.47864 -0.05174
# Poissons Ratio (y) = 0.44642 0.24653
# Poissons Ratio (z) = -0.08072 0.41239
#
# Static dielectric constant tensor:
#      x y z
#    x 2.274620 -0.036500 0.138960 
#    y -0.036500 2.787810 -0.437210 
#    z 0.138960 -0.437210 2.480990 
# 
# From -- ./inp_files/154490.got.cif
#   From: 2010.05.17/outbox.cif.g08.bks.cpg/sg2_78_cif.got.tgz:154490.got - 2010.06.03 11:33:40.
