data_PCOD9084844
_publ_section_title
;
Structure prediction by ZEFSAII (Michael W. Deem and Ramdas Pophale) SiO2 
 PCOD9084844
Probable space group: P -1
;
_chemical_formula_sum "Si O2"
_cell_formula_units_Z 14
_cell_length_a 7.473977
_cell_length_b 23.799565
_cell_length_c 23.618941
_cell_angle_alpha 12.111029
_cell_angle_beta 41.380057
_cell_angle_gamma 40.987996
_cell_volume 575.835728
_symmetry_space_group_name_H-M "P -1"
_symmetry_group_IT_number 2
_symmetry_cell_setting 'triclinic'
loop_
_space_group_symop_operation_xyz
x,y,z
-x,-y,-z
loop_
_atom_site_type_symbol
_atom_site_label
_atom_site_fract_x
_atom_site_fract_y
_atom_site_fract_z
Si Si1 0.623524 0.425017 0.887455
Si Si2 0.181238 0.129877 0.651331
Si Si3 0.721988 0.297851 0.679636
Si Si4 0.349922 0.861819 0.374150
Si Si5 0.755906 0.827936 0.209950
Si Si6 0.858979 0.599378 0.067610
Si Si7 0.848954 0.269269 0.237123
O O1 0.857027 0.582499 0.653381
O O2 0.390787 0.413376 0.905277
O O3 0.464153 0.618370 0.782751
O O4 0.747481 0.112061 0.171896
O O5 0.443440 0.129238 0.630615
O O6 0.936621 0.124174 0.758020
O O7 0.500000 0.500000 0.500000
O O8 0.859773 0.533815 0.447190
O O9 0.602133 0.069439 0.968903
O O10 0.542247 0.769434 0.366554
O O11 0.125844 0.682078 0.625581
O O12 0.222041 0.171886 0.092032
O O13 0.000000 0.000000 0.000000
O O14 0.089687 0.704168 0.870250
O O15 0.000000 0.000000 0.500000
O O16 0.000000 0.500000 0.000000
#
# Coordination Sequence:
#
# PCOD9084844 Si02
#       7
#     2   2   2   2   2   2   2
#     4   9  17  27  45  71 104 148 190 225 276 356
#     4  10  19  32  51  75 108 147 194 238 287 345
#     4  12  26  42  60  87 123 157 199 261 314 352
#     4  10  19  31  51  78 107 144 194 237 287 341
#     4  12  24  40  64  88 115 156 210 254 296 371
#     4   9  17  27  43  72 109 144 179 233 286 344
#     4  10  16  26  42  69 110 153 186 222 291 356
#
# _framework density 24.312487999999998
#
# number of rings (size 3 to 8) (size 9 to 14) (size 15 to 20)
#    0.000    1.714    1.429    6.857    4.000    0.000 
#    0.000    0.000    0.000    0.000    0.000    0.000 
#    0.000   22.857    0.000    0.000    0.000    0.143 
#
# Total GULP energy -78002.127358 kJ/mol
# GULP energy per Si atom -5571.580526 kJ/mol
# Density = 2.425715 g / cm^3
# Si number density = 24.312488 Si / 1000 Ang^3
#
#
#
# Elastic Constant Matrix: (Units=GPa)
#
#
# Indices 1 2 3 4 5 6 
#
# 1 50.5262 -4.1793 1.4992 2.5910 -2.7385 0.1468
# 2 -4.1793 131.0626 50.6888 -3.2247 -5.2991 16.8783
# 3 1.4992 50.6888 164.0514 0.5813 7.5777 -0.4907
# 4 2.5910 -3.2247 0.5813 39.7713 1.7845 7.6734
# 5 -2.7385 -5.2991 7.5777 1.7845 14.1665 4.6100
# 6 0.1468 16.8783 -0.4907 7.6734 4.6100 -3.9592
#
#
#
# Elastic Compliance Matrix: (Units=1/GPa)
#
#
# Indices 1 2 3 4 5 6 
#
# 1 0.020137 0.000514 -0.000491 -0.002040 0.003564 0.003197
# 2 0.000514 0.005890 -0.001664 -0.002800 -0.002127 0.017433
# 3 -0.000491 -0.001664 0.006678 0.001358 -0.001982 -0.007617
# 4 -0.002040 -0.002800 0.001358 0.022046 -0.010795 0.017978
# 5 0.003564 -0.002127 -0.001982 -0.010795 0.059859 0.040084
# 6 0.003197 0.017433 -0.007617 0.017978 0.040084 -0.095680
#
#
# Mechanical properties :
#
#
# Convention : Reuss Voigt Hill
#
# Bulk Modulus (GPa) = 33.98582 49.07306 41.52944
# Shear Modulus (GPa) = 156.15538 29.83781 92.99660
#
# Velocity S-wave (km/s) = 8.02296 3.50703 6.19141
# Velocity P-wave (km/s) = 9.99164 6.05204 8.26015
#
# Compressibility (1/GPa) = 0.02942404
#
# Stress axis : x y z
#
# Youngs Moduli (GPa) = 49.65911 169.77504 149.73784
#
# Poissons Ratio (x) = -0.08730 0.07348
# Poissons Ratio (y) = -0.02553 0.24921
# Poissons Ratio (z) = 0.02437 0.28256
#
# Static dielectric constant tensor:
#      x y z
#    x 2.182000 0.024350 -0.005670 
#    y 0.024350 2.026010 0.035890 
#    z -0.005670 0.035890 1.915840 
# 
# From -- ./inp_files/359114.got.cif
#   From: 2010.05.17/outbox.cif.g08.bks.cpg/sg2_180_cif.got.tgz:359114.got - 2010.06.03 11:33:40.
