data_PCOD9084688
_publ_section_title
;
Structure prediction by ZEFSAII (Michael W. Deem and Ramdas Pophale) SiO2 
 PCOD9084688
Probable space group: P -1
;
_chemical_formula_sum "Si O2"
_cell_formula_units_Z 14
_cell_length_a 9.211195
_cell_length_b 13.038593
_cell_length_c 13.904795
_cell_angle_alpha 45.080105
_cell_angle_beta 69.037466
_cell_angle_gamma 33.263174
_cell_volume 519.316862
_symmetry_space_group_name_H-M "P -1"
_symmetry_group_IT_number 2
_symmetry_cell_setting 'triclinic'
loop_
_space_group_symop_operation_xyz
x,y,z
-x,-y,-z
loop_
_atom_site_type_symbol
_atom_site_label
_atom_site_fract_x
_atom_site_fract_y
_atom_site_fract_z
Si Si1 0.872730 0.768842 0.147608
Si Si2 0.270057 0.209941 0.321063
Si Si3 0.660482 0.689601 0.940423
Si Si4 0.917136 0.977222 0.379582
Si Si5 0.007013 0.153462 0.111424
Si Si6 0.636019 0.178457 0.496861
Si Si7 0.747817 0.584288 0.396033
O O1 0.899482 0.617620 0.323482
O O2 0.959904 0.570670 0.177013
O O3 0.572842 0.099014 0.053362
O O4 0.007116 0.789585 0.033651
O O5 0.481600 0.118983 0.249850
O O6 0.500000 0.000000 0.500000
O O7 0.183651 0.125691 0.351392
O O8 0.000000 0.500000 0.000000
O O9 0.762333 0.446701 0.043251
O O10 0.168934 0.859225 0.467121
O O11 0.059830 0.701421 0.513484
O O12 0.925989 0.056147 0.225657
O O13 0.596086 0.242053 0.350544
O O14 0.379640 0.887903 0.233871
O O15 0.320132 0.411399 0.482550
#
# Coordination Sequence:
#
# PCOD9084688 Si02
#       7
#     2   2   2   2   2   2   2
#     4  11  22  36  60  86 128 160 201 261 309 367
#     4  11  24  40  60  92 127 166 211 255 307 373
#     4  11  21  37  60  90 126 161 205 259 318 362
#     4  10  21  35  57  89 126 161 200 258 316 367
#     4  10  21  31  53  89 124 155 192 249 318 371
#     4  10  19  35  56  81 121 157 201 250 304 361
#     4  11  19  34  56  91 122 158 200 255 315 362
#
# _framework density 26.958492
#
# number of rings (size 3 to 8) (size 9 to 14) (size 15 to 20)
#    0.000    1.429    4.286    3.000    2.000    5.143 
#    0.000    0.000    0.000    3.429    0.000   18.000 
#    0.000    0.000    0.000    0.000    0.000    0.000 
#
# Total GULP energy -78011.230446 kJ/mol
# GULP energy per Si atom -5572.230746 kJ/mol
# Density = 2.689713 g / cm^3
# Si number density = 26.958492 Si / 1000 Ang^3
#
#
#
# Elastic Constant Matrix: (Units=GPa)
#
#
# Indices 1 2 3 4 5 6 
#
# 1 61.1221 30.2499 57.5427 -4.6621 6.2919 2.4832
# 2 30.2499 255.4210 63.2500 15.8456 -8.1724 23.9019
# 3 57.5427 63.2500 130.0695 15.8833 -10.8742 -7.1982
# 4 -4.6621 15.8456 15.8833 54.4545 1.2360 -29.1393
# 5 6.2919 -8.1724 -10.8742 1.2360 47.0141 0.9512
# 6 2.4832 23.9019 -7.1982 -29.1393 0.9512 7.6954
#
#
#
# Elastic Compliance Matrix: (Units=1/GPa)
#
#
# Indices 1 2 3 4 5 6 
#
# 1 0.033069 -0.000063 -0.016188 0.005269 -0.008225 -0.004651
# 2 -0.000063 0.002851 -0.001440 0.005696 -0.000210 0.011411
# 3 -0.016188 -0.001440 0.016806 -0.007013 0.006026 -0.001883
# 4 0.005269 0.005696 -0.007013 -0.005204 -0.000277 -0.045623
# 5 -0.008225 -0.000210 0.006026 -0.000277 0.023635 0.004971
# 6 -0.004651 0.011411 -0.001883 -0.045623 0.004971 -0.079125
#
#
# Mechanical properties :
#
#
# Convention : Reuss Voigt Hill
#
# Bulk Modulus (GPa) = 57.65401 83.18864 70.42132
# Shear Modulus (GPa) = 150.62496 41.53748 96.08122
#
# Velocity S-wave (km/s) = 7.48293 3.92955 5.97644
# Velocity P-wave (km/s) = 9.80263 7.17729 8.59084
#
# Compressibility (1/GPa) = 0.01734485
#
# Stress axis : x y z
#
# Youngs Moduli (GPa) = 30.23986 350.71510 59.50236
#
# Poissons Ratio (x) = 0.02195 0.96321
# Poissons Ratio (y) = 0.00189 0.08571
# Poissons Ratio (z) = 0.48951 0.50519
#
# Static dielectric constant tensor:
#      x y z
#    x 2.141980 -0.070210 0.061160 
#    y -0.070210 2.172060 0.042160 
#    z 0.061160 0.042160 2.289400 
# 
# From -- ./inp_files/522261.got.cif
#   From: 2010.05.17/outbox.cif.g08.bks.cpg/sg2_262_cif.got.tgz:522261.got - 2010.06.03 11:33:40.
