data_PCOD9084643
_publ_section_title
;
Structure prediction by ZEFSAII (Michael W. Deem and Ramdas Pophale) SiO2 
 PCOD9084643
Probable space group: P -1
;
_chemical_formula_sum "Si O2"
_cell_formula_units_Z 12
_cell_length_a 13.954545
_cell_length_b 5.264821
_cell_length_c 24.042267
_cell_angle_alpha 105.811476
_cell_angle_beta 25.135290
_cell_angle_gamma 121.769558
_cell_volume 526.114537
_symmetry_space_group_name_H-M "P -1"
_symmetry_group_IT_number 2
_symmetry_cell_setting 'triclinic'
loop_
_space_group_symop_operation_xyz
x,y,z
-x,-y,-z
loop_
_atom_site_type_symbol
_atom_site_label
_atom_site_fract_x
_atom_site_fract_y
_atom_site_fract_z
Si Si1 0.200176 0.181707 0.493098
Si Si2 0.847006 0.318458 0.314848
Si Si3 0.410847 0.959150 0.108849
Si Si4 0.707946 0.660518 0.343912
Si Si5 0.245213 0.843146 0.353223
Si Si6 0.610529 0.478297 0.814123
O O1 0.485878 0.509404 0.398965
O O2 0.949147 0.176633 0.595946
O O3 0.352387 0.154621 0.358061
O O4 0.980433 0.823549 0.627346
O O5 0.854749 0.487812 0.263499
O O6 0.038015 0.639968 0.277978
O O7 0.500000 0.000000 0.500000
O O8 0.948076 0.094536 0.244706
O O9 0.475036 0.758387 0.100917
O O10 0.509412 0.319352 0.103761
O O11 0.500000 0.000000 0.000000
O O12 0.500000 0.500000 0.500000
O O13 0.470106 0.795966 0.208812
O O14 0.000000 0.500000 0.500000
#
# Coordination Sequence:
#
# PCOD9084643 Si02
#       6
#     2   2   2   2   2   2
#     4  10  19  35  55  90 123 153 196 242 304 354
#     4  10  20  35  51  82 111 153 189 230 294 346
#     4  12  24  38  58  84 121 162 202 240 288 355
#     4  10  20  30  53  80 116 153 181 227 289 361
#     4   9  20  32  57  84 123 153 196 247 302 346
#     4  11  20  36  56  81 116 158 192 247 294 342
#
# _framework density 22.808720999999998
#
# number of rings (size 3 to 8) (size 9 to 14) (size 15 to 20)
#    0.000    1.667    1.667    5.500    4.667    0.000 
#    0.000    0.000    0.000    0.000    0.000    7.000 
#    0.000    0.000    0.000    0.000    0.000    0.000 
#
# Total GULP energy -66822.132020 kJ/mol
# GULP energy per Si atom -5568.511002 kJ/mol
# Density = 2.275681 g / cm^3
# Si number density = 22.808721 Si / 1000 Ang^3
#
#
#
# Elastic Constant Matrix: (Units=GPa)
#
#
# Indices 1 2 3 4 5 6 
#
# 1 110.2743 59.3042 15.4604 -0.0074 29.1417 -10.0188
# 2 59.3042 158.0660 18.0218 15.1022 10.7903 -17.4848
# 3 15.4604 18.0218 41.3299 14.8731 18.2919 -5.9572
# 4 -0.0074 15.1022 14.8731 24.9032 -1.3065 8.7301
# 5 29.1417 10.7903 18.2919 -1.3065 30.6293 -8.2484
# 6 -10.0188 -17.4848 -5.9572 8.7301 -8.2484 54.6568
#
#
#
# Elastic Compliance Matrix: (Units=1/GPa)
#
#
# Indices 1 2 3 4 5 6 
#
# 1 0.015238 -0.005257 0.002155 0.001525 -0.014146 -0.001032
# 2 -0.005257 0.009136 -0.000466 -0.006286 0.002687 0.003318
# 3 0.002155 -0.000466 0.050968 -0.034085 -0.032053 0.006408
# 4 0.001525 -0.006286 -0.034085 0.070153 0.020458 -0.013564
# 5 -0.014146 0.002687 -0.032053 0.020458 0.065552 0.001398
# 6 -0.001032 0.003318 0.006408 -0.013564 0.001398 0.022244
#
#
# Mechanical properties :
#
#
# Convention : Reuss Voigt Hill
#
# Bulk Modulus (GPa) = 14.66139 55.02702 34.84421
# Shear Modulus (GPa) = 18.99972 36.49677 27.74825
#
# Velocity S-wave (km/s) = 2.88931 4.00449 3.49171
# Velocity P-wave (km/s) = 4.19199 6.74975 5.61836
#
# Compressibility (1/GPa) = 0.06820635
#
# Stress axis : x y z
#
# Youngs Moduli (GPa) = 65.62601 109.45596 19.62015
#
# Poissons Ratio (x) = 0.57541 -0.04229
# Poissons Ratio (y) = 0.34499 0.00915
# Poissons Ratio (z) = -0.14146 0.05104
#
# Static dielectric constant tensor:
#      x y z
#    x 1.904300 -0.091420 -0.068320 
#    y -0.091420 2.076020 0.156770 
#    z -0.068320 0.156770 2.049910 
# 
# From -- ./inp_files/66532.got.cif
#   From: 2010.05.17/outbox.cif.g08.bks.cpg/sg2_34_cif.got.tgz:66532.got - 2010.06.03 11:33:40.
