data_PCOD9084600
_publ_section_title
;
Structure prediction by ZEFSAII (Michael W. Deem and Ramdas Pophale) SiO2 
 PCOD9084600
Probable space group: P -1
;
_chemical_formula_sum "Si O2"
_cell_formula_units_Z 16
_cell_length_a 10.224527
_cell_length_b 11.232097
_cell_length_c 10.512902
_cell_angle_alpha 68.593573
_cell_angle_beta 126.667907
_cell_angle_gamma 136.619043
_cell_volume 659.906101
_symmetry_space_group_name_H-M "P -1"
_symmetry_group_IT_number 2
_symmetry_cell_setting 'triclinic'
loop_
_space_group_symop_operation_xyz
x,y,z
-x,-y,-z
loop_
_atom_site_type_symbol
_atom_site_label
_atom_site_fract_x
_atom_site_fract_y
_atom_site_fract_z
Si Si1 0.730119 0.655610 0.775351
Si Si2 0.548200 0.900202 0.980615
Si Si3 0.833021 0.220654 0.580416
Si Si4 0.896512 0.308687 0.314972
Si Si5 0.127730 0.753652 0.112840
Si Si6 0.592228 0.842836 0.602154
Si Si7 0.101555 0.962801 0.678659
Si Si8 0.662778 0.385281 0.702191
O O1 0.618139 0.723349 0.738185
O O2 0.579800 0.467035 0.694906
O O3 0.903069 0.811340 0.715017
O O4 0.888099 0.658909 0.956878
O O5 0.318763 0.730878 0.848919
O O6 0.712593 0.041797 0.909802
O O7 0.500000 0.000000 0.000000
O O8 0.695290 0.890686 0.165620
O O9 0.965156 0.345075 0.488529
O O10 0.896963 0.284996 0.736655
O O11 0.596999 0.167147 0.445422
O O12 0.799932 0.049598 0.627514
O O13 0.823366 0.123319 0.320256
O O14 0.113319 0.449948 0.303434
O O15 0.245553 0.691905 0.143199
O O16 0.508016 0.755457 0.447468
O O17 0.000000 0.000000 0.500000
#
# Coordination Sequence:
#
# PCOD9084600 Si02
#       8
#     2   2   2   2   2   2   2   2
#     4  10  20  35  56  84 113 141 184 235 284 331
#     4   9  18  33  54  79 108 142 185 230 270 323
#     4  10  21  37  59  81 110 153 194 225 269 333
#     4  10  19  35  55  81 110 144 189 228 271 328
#     4  10  21  37  57  83 113 149 188 228 277 335
#     4  10  20  35  55  81 110 146 185 228 276 330
#     4   9  18  32  53  81 110 141 181 233 283 323
#     4  10  21  36  58  84 112 147 185 232 285 332
#
# _framework density 24.245875999999999
#
# number of rings (size 3 to 8) (size 9 to 14) (size 15 to 20)
#    0.000    2.250    0.000    4.500    0.000    4.500 
#    0.000    3.750    0.000    1.500    0.000    0.000 
#    0.000    0.000    0.000    0.000    0.000    0.000 
#
# Total GULP energy -89313.978731 kJ/mol
# GULP energy per Si atom -5582.123671 kJ/mol
# Density = 2.419069 g / cm^3
# Si number density = 24.245876 Si / 1000 Ang^3
#
#
#
# Elastic Constant Matrix: (Units=GPa)
#
#
# Indices 1 2 3 4 5 6 
#
# 1 32.1244 15.0895 16.0794 -9.0670 5.5955 -10.3749
# 2 15.0895 72.3770 16.9599 -6.3838 4.4456 -17.7794
# 3 16.0794 16.9599 143.3505 -15.9169 7.9229 -5.2276
# 4 -9.0670 -6.3838 -15.9169 30.7467 -2.2760 -2.0235
# 5 5.5955 4.4456 7.9229 -2.2760 39.3909 -15.0482
# 6 -10.3749 -17.7794 -5.2276 -2.0235 -15.0482 39.7135
#
#
#
# Elastic Compliance Matrix: (Units=1/GPa)
#
#
# Indices 1 2 3 4 5 6 
#
# 1 0.040301 -0.004869 -0.002476 0.010057 -0.000977 0.008165
# 2 -0.004869 0.016854 -0.001060 0.002100 0.001764 0.006909
# 3 -0.002476 -0.001060 0.007753 0.002963 -0.001050 -0.000348
# 4 0.010057 0.002100 0.002963 0.038101 0.002565 0.006871
# 5 -0.000977 0.001764 -0.001050 0.002565 0.030268 0.011996
# 6 0.008165 0.006909 -0.000348 0.006871 0.011996 0.035256
#
#
# Mechanical properties :
#
#
# Convention : Reuss Voigt Hill
#
# Bulk Modulus (GPa) = 20.79099 38.23437 29.51268
# Shear Modulus (GPa) = 24.82888 35.28508 30.05698
#
# Velocity S-wave (km/s) = 3.20354 3.81898 3.52472
# Velocity P-wave (km/s) = 4.71988 5.93716 5.36317
#
# Compressibility (1/GPa) = 0.04809777
#
# Stress axis : x y z
#
# Youngs Moduli (GPa) = 24.81321 59.33222 128.97571
#
# Poissons Ratio (x) = 0.28890 0.31935
# Poissons Ratio (y) = 0.12082 0.13674
# Poissons Ratio (z) = 0.06144 0.06290
#
# Static dielectric constant tensor:
#      x y z
#    x 2.022320 -0.022350 0.017460 
#    y -0.022350 1.978300 -0.010960 
#    z 0.017460 -0.010960 1.997890 
# 
# From -- ./inp_files/427899.got.cif
#   From: 2010.05.17/outbox.cif.g08.bks.cpg/sg2_214_cif.got.tgz:427899.got - 2010.06.03 11:33:40.
