data_PCOD9084581
_publ_section_title
;
Structure prediction by ZEFSAII (Michael W. Deem and Ramdas Pophale) SiO2 
 PCOD9084581
Probable space group: P -1
;
_chemical_formula_sum "Si O2"
_cell_formula_units_Z 16
_cell_length_a 11.716900
_cell_length_b 15.499675
_cell_length_c 16.135946
_cell_angle_alpha 38.263563
_cell_angle_beta 48.270855
_cell_angle_gamma 27.852519
_cell_volume 843.693308
_symmetry_space_group_name_H-M "P -1"
_symmetry_group_IT_number 2
_symmetry_cell_setting 'triclinic'
loop_
_space_group_symop_operation_xyz
x,y,z
-x,-y,-z
loop_
_atom_site_type_symbol
_atom_site_label
_atom_site_fract_x
_atom_site_fract_y
_atom_site_fract_z
Si Si1 0.790709 0.842548 0.853193
Si Si2 0.436069 0.326979 0.698538
Si Si3 0.136142 0.846775 0.631823
Si Si4 0.599197 0.103011 0.456569
Si Si5 0.212470 0.344835 0.321539
Si Si6 0.030772 0.459488 0.152856
Si Si7 0.173129 0.444993 0.525410
Si Si8 0.631501 0.433822 0.612720
O O1 0.982332 0.831220 0.755171
O O2 0.797295 0.747366 0.837761
O O3 0.540755 0.100059 0.800542
O O4 0.883851 0.676851 0.006191
O O5 0.173879 0.499257 0.740397
O O6 0.627413 0.280095 0.697350
O O7 0.418077 0.429770 0.545502
O O8 0.188388 0.935701 0.602866
O O9 0.400439 0.604793 0.656762
O O10 0.000000 0.000000 0.500000
O O11 0.410117 0.269590 0.346586
O O12 0.443064 0.216866 0.532501
O O13 0.704984 0.875118 0.561813
O O14 0.180141 0.419130 0.187532
O O15 0.943074 0.534578 0.350644
O O16 0.156504 0.625950 0.401102
O O17 0.000000 0.500000 0.500000
#
# Coordination Sequence:
#
# PCOD9084581 Si02
#       8
#     2   2   2   2   2   2   2   2
#     4  11  24  37  53  80 109 149 185 223 272 329
#     4  11  21  35  54  82 109 137 179 231 271 324
#     4  11  19  34  56  82 112 138 172 231 281 318
#     4   9  21  32  53  87 107 134 180 225 272 321
#     4  10  19  35  55  77 109 143 178 222 269 325
#     4  11  23  38  55  75 111 152 187 217 271 331
#     4   9  18  33  51  80 111 134 169 222 271 323
#     4  10  20  31  55  87 105 134 178 221 286 318
#
# _framework density 18.964237000000001
#
# number of rings (size 3 to 8) (size 9 to 14) (size 15 to 20)
#    0.000    1.750    3.750    1.125    3.500    0.000 
#    0.000    0.625    0.000    0.000    0.000    2.625 
#    0.000    0.000    0.000    0.000    0.000    0.000 
#
# Total GULP energy -89186.333982 kJ/mol
# GULP energy per Si atom -5574.145874 kJ/mol
# Density = 1.892107 g / cm^3
# Si number density = 18.964237 Si / 1000 Ang^3
#
#
#
# Elastic Constant Matrix: (Units=GPa)
#
#
# Indices 1 2 3 4 5 6 
#
# 1 114.7245 8.2360 18.6132 1.9222 10.1129 7.7725
# 2 8.2360 50.1650 3.5298 -2.9953 8.9607 15.0295
# 3 18.6132 3.5298 41.2046 2.5297 12.7825 7.4547
# 4 1.9222 -2.9953 2.5297 23.5725 2.5163 -4.6404
# 5 10.1129 8.9607 12.7825 2.5163 24.8556 4.5534
# 6 7.7725 15.0295 7.4547 -4.6404 4.5534 30.1229
#
#
#
# Elastic Compliance Matrix: (Units=1/GPa)
#
#
# Indices 1 2 3 4 5 6 
#
# 1 0.009564 -0.000760 -0.003552 -0.000539 -0.001542 -0.001060
# 2 -0.000760 0.024821 0.002694 0.001548 -0.008094 -0.011393
# 3 -0.003552 0.002694 0.031372 -0.002480 -0.014232 -0.006422
# 4 -0.000539 0.001548 -0.002480 0.044975 -0.005021 0.007668
# 5 -0.001542 -0.008094 -0.014232 -0.005021 0.051722 -0.000633
# 6 -0.001060 -0.011393 -0.006422 0.007668 -0.000633 0.042021
#
#
# Mechanical properties :
#
#
# Convention : Reuss Voigt Hill
#
# Bulk Modulus (GPa) = 15.99438 29.65021 22.82229
# Shear Modulus (GPa) = 21.87699 27.42453 24.65076
#
# Velocity S-wave (km/s) = 3.40014 3.80691 3.60926
# Velocity P-wave (km/s) = 4.88538 5.91542 5.42490
#
# Compressibility (1/GPa) = 0.06252196
#
# Stress axis : x y z
#
# Youngs Moduli (GPa) = 104.55745 40.28856 31.87535
#
# Poissons Ratio (x) = 0.03060 0.11322
# Poissons Ratio (y) = 0.07941 -0.08587
# Poissons Ratio (z) = 0.37140 -0.10854
#
# Static dielectric constant tensor:
#      x y z
#    x 1.749200 0.020440 0.015020 
#    y 0.020440 1.747380 0.004790 
#    z 0.015020 0.004790 1.623700 
# 
# From -- ./inp_files/227382.got.cif
#   From: 2010.05.17/outbox.cif.g08.bks.cpg/sg2_114_cif.got.tgz:227382.got - 2010.06.03 11:33:40.
