data_PCOD9084892
_publ_section_title
;
Structure prediction by ZEFSAII (Michael W. Deem and Ramdas Pophale) SiO2 
 PCOD9084892
Probable space group: P -1
;
_chemical_formula_sum "Si O2"
_cell_formula_units_Z 16
_cell_length_a 14.365868
_cell_length_b 10.147913
_cell_length_c 14.727244
_cell_angle_alpha 144.520503
_cell_angle_beta 34.140043
_cell_angle_gamma 125.440142
_cell_volume 669.512885
_symmetry_space_group_name_H-M "P -1"
_symmetry_group_IT_number 2
_symmetry_cell_setting 'triclinic'
loop_
_space_group_symop_operation_xyz
x,y,z
-x,-y,-z
loop_
_atom_site_type_symbol
_atom_site_label
_atom_site_fract_x
_atom_site_fract_y
_atom_site_fract_z
Si Si1 0.384407 0.192482 0.391979
Si Si2 0.862705 0.975101 0.169809
Si Si3 0.886323 0.345687 0.617669
Si Si4 0.199924 0.846398 0.250922
Si Si5 0.475011 0.585190 0.760883
Si Si6 0.772368 0.513576 0.614664
Si Si7 0.826772 0.885659 0.330825
Si Si8 0.458595 0.954559 0.643265
O O1 0.442737 0.357846 0.367180
O O2 0.228851 0.280932 0.643038
O O3 0.548938 0.073654 0.257642
O O4 0.312505 0.010068 0.290723
O O5 0.817396 0.239183 0.396147
O O6 0.710604 0.916917 0.202651
O O7 0.917690 0.801407 0.114517
O O8 0.000000 0.000000 0.000000
O O9 0.792372 0.361651 0.798892
O O10 0.779339 0.513418 0.718363
O O11 0.073229 0.389236 0.492808
O O12 0.907553 0.073411 0.417721
O O13 0.282682 0.740324 0.029211
O O14 0.000000 0.000000 0.500000
O O15 0.595577 0.631076 0.770932
O O16 0.488016 0.310142 0.590258
O O17 0.630002 0.037177 0.542860
#
# Coordination Sequence:
#
# PCOD9084892 Si02
#       8
#     2   2   2   2   2   2   2   2
#     4   9  20  39  57  83 116 153 197 233 290 348
#     4  10  19  35  57  88 117 154 193 236 296 341
#     4   9  18  39  56  85 116 146 194 244 286 338
#     4  11  23  39  59  87 120 152 194 245 292 349
#     4  11  21  38  62  86 113 158 197 235 296 343
#     4   9  20  37  60  80 118 154 192 242 282 349
#     4   8  18  35  57  79 118 150 190 237 284 341
#     4   9  20  38  61  82 118 152 196 243 280 353
#
# _framework density 23.897970999999998
#
# number of rings (size 3 to 8) (size 9 to 14) (size 15 to 20)
#    0.750    1.750    0.000    1.875    0.000    1.500 
#   13.500    0.625    0.000    0.000    0.000    0.000 
#    0.000    0.000    0.000    0.000    0.000    0.000 
#
# Total GULP energy -89182.084448 kJ/mol
# GULP energy per Si atom -5573.880278 kJ/mol
# Density = 2.384358 g / cm^3
# Si number density = 23.897971 Si / 1000 Ang^3
#
#
#
# Elastic Constant Matrix: (Units=GPa)
#
#
# Indices 1 2 3 4 5 6 
#
# 1 88.1392 22.1670 29.4282 2.0632 2.2110 10.0346
# 2 22.1670 84.4430 37.4034 -28.5412 -4.2914 5.1742
# 3 29.4282 37.4034 70.2817 -16.9133 6.6516 -14.0623
# 4 2.0632 -28.5412 -16.9133 28.0375 -7.8552 11.6190
# 5 2.2110 -4.2914 6.6516 -7.8552 17.2948 -15.7578
# 6 10.0346 5.1742 -14.0623 11.6190 -15.7578 41.7346
#
#
#
# Elastic Compliance Matrix: (Units=1/GPa)
#
#
# Indices 1 2 3 4 5 6 
#
# 1 0.016396 -0.005084 -0.007124 -0.011112 -0.012273 -0.007253
# 2 -0.005084 0.030557 -0.009218 0.034856 0.020731 -0.007548
# 3 -0.007124 -0.009218 0.024633 0.001474 -0.000596 0.010520
# 4 -0.011112 0.034856 0.001474 0.088481 0.039933 -0.010709
# 5 -0.012273 0.020731 -0.000596 0.039933 0.111184 0.031043
# 6 -0.007253 -0.007548 0.010520 -0.010709 0.031043 0.044888
#
#
# Mechanical properties :
#
#
# Convention : Reuss Voigt Hill
#
# Bulk Modulus (GPa) = 34.79991 46.76236 40.78113
# Shear Modulus (GPa) = 13.56605 27.67107 20.61856
#
# Velocity S-wave (km/s) = 2.38516 3.40646 2.94049
# Velocity P-wave (km/s) = 4.70944 5.92300 5.35073
#
# Compressibility (1/GPa) = 0.02873571
#
# Stress axis : x y z
#
# Youngs Moduli (GPa) = 60.98896 32.72589 40.59631
#
# Poissons Ratio (x) = 0.16638 0.28919
# Poissons Ratio (y) = 0.31006 0.37420
# Poissons Ratio (z) = 0.43446 0.30166
#
# Static dielectric constant tensor:
#      x y z
#    x 2.034550 -0.111890 0.049460 
#    y -0.111890 1.949670 -0.024040 
#    z 0.049460 -0.024040 1.988910 
# 
# From -- ./inp_files/532710.got.cif
#   From: 2010.05.17/outbox.cif.g08.bks.cpg/sg2_267_cif.got.tgz:532710.got - 2010.06.03 11:33:40.
