data_PCOD9084012
_publ_section_title
;
Structure prediction by ZEFSAII (Michael W. Deem and Ramdas Pophale) SiO2 
 PCOD9084012
Probable space group: P -1
;
_chemical_formula_sum "Si O2"
_cell_formula_units_Z 16
_cell_length_a 17.526194
_cell_length_b 14.000619
_cell_length_c 26.402590
_cell_angle_alpha 158.919582
_cell_angle_beta 159.557615
_cell_angle_gamma 32.465786
_cell_volume 789.343067
_symmetry_space_group_name_H-M "P -1"
_symmetry_group_IT_number 2
_symmetry_cell_setting 'triclinic'
loop_
_space_group_symop_operation_xyz
x,y,z
-x,-y,-z
loop_
_atom_site_type_symbol
_atom_site_label
_atom_site_fract_x
_atom_site_fract_y
_atom_site_fract_z
Si Si1 0.502061 0.644569 0.664182
Si Si2 0.596426 0.110730 0.033317
Si Si3 0.025651 0.586864 0.656544
Si Si4 0.759460 0.031903 0.932592
Si Si5 0.941251 0.480216 0.894209
Si Si6 0.699805 0.993847 0.658993
Si Si7 0.255520 0.053322 0.226385
Si Si8 0.182046 0.042008 0.803812
O O1 0.586081 0.796924 0.739271
O O2 0.297610 0.379496 0.403062
O O3 0.701334 0.524716 0.752295
O O4 0.482382 0.880455 0.807786
O O5 0.392488 0.199912 0.978494
O O6 0.793253 0.326510 0.233430
O O7 0.717004 0.979328 0.087882
O O8 0.914444 0.266561 0.428101
O O9 0.825965 0.748237 0.607155
O O10 0.161318 0.710924 0.853123
O O11 0.676717 0.077524 0.847370
O O12 0.992215 0.943584 0.021990
O O13 0.989102 0.202024 0.766009
O O14 0.113452 0.731201 0.099027
O O15 0.000000 0.500000 0.000000
O O16 0.500000 0.000000 0.500000
O O17 0.621621 0.982635 0.662982
#
# Coordination Sequence:
#
# PCOD9084012 Si02
#       8
#     2   2   2   2   2   2   2   2
#     4  11  19  37  59  88 117 153 196 249 297 340
#     4  10  20  35  55  81 117 153 202 236 282 361
#     4  10  20  40  57  83 117 158 197 238 290 352
#     4   9  19  36  59  88 115 148 205 252 279 346
#     4  12  22  39  54  89 129 153 189 249 294 356
#     4  11  22  36  60  91 124 155 193 247 303 347
#     4  10  19  34  59  90 116 151 195 250 295 339
#     4  11  23  34  57  83 118 162 192 232 299 354
#
# _framework density 20.270019999999999
#
# number of rings (size 3 to 8) (size 9 to 14) (size 15 to 20)
#    0.000    1.500    5.000    3.000    3.500    0.000 
#    2.250    0.000    0.000    1.500    0.000    0.000 
#    0.000    0.000    0.000    0.000    0.000    0.000 
#
# Total GULP energy -89311.553260 kJ/mol
# GULP energy per Si atom -5581.972079 kJ/mol
# Density = 2.022388 g / cm^3
# Si number density = 20.270020 Si / 1000 Ang^3
#
#
#
# Elastic Constant Matrix: (Units=GPa)
#
#
# Indices 1 2 3 4 5 6 
#
# 1 146.8425 25.3783 22.5365 -6.0145 -0.5318 13.8715
# 2 25.3783 45.3742 15.0487 11.7036 -7.9497 0.7168
# 3 22.5365 15.0487 67.7410 5.8693 2.9406 7.1780
# 4 -6.0145 11.7036 5.8693 25.1529 0.6937 -2.1139
# 5 -0.5318 -7.9497 2.9406 0.6937 28.7703 -3.5008
# 6 13.8715 0.7168 7.1780 -2.1139 -3.5008 17.4891
#
#
#
# Elastic Compliance Matrix: (Units=1/GPa)
#
#
# Indices 1 2 3 4 5 6 
#
# 1 0.008808 -0.006029 -0.001260 0.004755 -0.002230 -0.006093
# 2 -0.006029 0.032783 -0.005015 -0.015333 0.010529 0.005751
# 3 -0.001260 -0.005015 0.017434 -0.002519 -0.003988 -0.007053
# 4 0.004755 -0.015333 -0.002519 0.048987 -0.004724 0.002866
# 5 -0.002230 0.010529 -0.003988 -0.004724 0.039400 0.010290
# 6 -0.006093 0.005751 -0.007053 0.002866 0.010290 0.067076
#
#
# Mechanical properties :
#
#
# Convention : Reuss Voigt Hill
#
# Bulk Modulus (GPa) = 29.05627 42.87608 35.96618
# Shear Modulus (GPa) = 19.95453 27.41542 23.68498
#
# Velocity S-wave (km/s) = 3.14098 3.68164 3.42200
# Velocity P-wave (km/s) = 5.24595 6.26666 5.77889
#
# Compressibility (1/GPa) = 0.03441598
#
# Stress axis : x y z
#
# Youngs Moduli (GPa) = 113.53639 30.50347 57.35840
#
# Poissons Ratio (x) = 0.18391 0.07229
# Poissons Ratio (y) = 0.68455 0.28765
# Poissons Ratio (z) = 0.14309 0.15297
#
# Static dielectric constant tensor:
#      x y z
#    x 1.782890 0.003330 -0.022630 
#    y 0.003330 1.716700 -0.039100 
#    z -0.022630 -0.039100 1.788180 
# 
# From -- ./inp_files/319349.got.cif
#   From: 2010.05.17/outbox.cif.g08.bks.cpg/sg2_160_cif.got.tgz:319349.got - 2010.06.03 11:33:40.
