data_PCOD9084546
_publ_section_title
;
Structure prediction by ZEFSAII (Michael W. Deem and Ramdas Pophale) SiO2 
 PCOD9084546
Probable space group: P -1
;
_chemical_formula_sum "Si O2"
_cell_formula_units_Z 16
_cell_length_a 15.656526
_cell_length_b 8.025608
_cell_length_c 12.174946
_cell_angle_alpha 58.548787
_cell_angle_beta 137.101421
_cell_angle_gamma 97.152117
_cell_volume 796.075202
_symmetry_space_group_name_H-M "P -1"
_symmetry_group_IT_number 2
_symmetry_cell_setting 'triclinic'
loop_
_space_group_symop_operation_xyz
x,y,z
-x,-y,-z
loop_
_atom_site_type_symbol
_atom_site_label
_atom_site_fract_x
_atom_site_fract_y
_atom_site_fract_z
Si Si1 0.715580 0.983655 0.950854
Si Si2 0.567206 0.694730 0.969023
Si Si3 0.312208 0.386456 0.656366
Si Si4 0.825062 0.236154 0.312969
Si Si5 0.877683 0.831110 0.361862
Si Si6 0.379064 0.921201 0.414615
Si Si7 0.263177 0.839688 0.531148
Si Si8 0.502095 0.430971 0.651876
O O1 0.710903 0.020123 0.802971
O O2 0.647868 0.218466 0.865470
O O3 0.608987 0.878243 0.903027
O O4 0.847906 0.836997 0.201022
O O5 0.574946 0.699889 0.107399
O O6 0.687461 0.464440 0.117760
O O7 0.416360 0.743701 0.765574
O O8 0.210587 0.275788 0.622359
O O9 0.237586 0.646042 0.518084
O O10 0.389330 0.356679 0.622616
O O11 0.839630 0.091125 0.486425
O O12 0.958255 0.285825 0.417728
O O13 0.828227 0.076785 0.274744
O O14 0.274039 0.994711 0.393955
O O15 0.465795 0.657670 0.600328
O O16 0.500000 0.000000 0.500000
O O17 0.500000 0.500000 0.500000
#
# Coordination Sequence:
#
# PCOD9084546 Si02
#       8
#     2   2   2   2   2   2   2   2
#     4  10  21  33  54  83 109 147 179 220 279 321
#     4  10  20  33  55  84 110 139 180 231 276 322
#     4   9  19  32  51  79 106 142 177 219 275 315
#     4  10  22  38  53  79 110 146 184 229 272 322
#     4  10  23  36  55  78 111 148 183 225 271 327
#     4  10  19  35  54  81 114 142 180 216 279 327
#     4  10  20  34  56  82 110 141 181 227 273 325
#     4   9  20  33  50  81 113 142 176 225 268 322
#
# _framework density 20.098602
#
# number of rings (size 3 to 8) (size 9 to 14) (size 15 to 20)
#    0.000    2.250    1.250    1.500    7.000    5.500 
#    0.000    0.625    0.000    1.500    0.000   18.375 
#    0.000    0.000    0.000    0.000    0.000    0.000 
#
# Total GULP energy -89073.822406 kJ/mol
# GULP energy per Si atom -5567.113900 kJ/mol
# Density = 2.005286 g / cm^3
# Si number density = 20.098602 Si / 1000 Ang^3
#
#
#
# Elastic Constant Matrix: (Units=GPa)
#
#
# Indices 1 2 3 4 5 6 
#
# 1 112.8393 15.0804 45.3765 18.4144 -22.4030 12.8283
# 2 15.0804 65.5000 26.2593 10.4276 6.4060 17.7961
# 3 45.3765 26.2593 45.3552 15.7939 -10.8889 11.3602
# 4 18.4144 10.4276 15.7939 26.3055 3.2874 2.0680
# 5 -22.4030 6.4060 -10.8889 3.2874 22.2819 2.1821
# 6 12.8283 17.7961 11.3602 2.0680 2.1821 33.6351
#
#
#
# Elastic Compliance Matrix: (Units=1/GPa)
#
#
# Indices 1 2 3 4 5 6 
#
# 1 0.017642 0.001779 -0.012216 -0.006995 0.012675 -0.003936
# 2 0.001779 0.025434 -0.019180 0.002552 -0.014601 -0.006867
# 3 -0.012216 -0.019180 0.062017 -0.024037 0.027718 -0.006460
# 4 -0.006995 0.002552 -0.024037 0.059356 -0.029022 0.007669
# 5 0.012675 -0.014601 0.027718 -0.029022 0.080619 -0.009917
# 6 -0.003936 -0.006867 -0.006460 0.007669 -0.009917 0.037219
#
#
# Mechanical properties :
#
#
# Convention : Reuss Voigt Hill
#
# Bulk Modulus (GPa) = 21.80505 44.12522 32.96513
# Shear Modulus (GPa) = 14.01316 25.57637 19.79477
#
# Velocity S-wave (km/s) = 2.64336 3.57114 3.14169
# Velocity P-wave (km/s) = 4.49322 6.24549 5.44037
#
# Compressibility (1/GPa) = 0.04586094
#
# Stress axis : x y z
#
# Youngs Moduli (GPa) = 56.68224 39.31705 16.12459
#
# Poissons Ratio (x) = -0.06995 0.19697
# Poissons Ratio (y) = -0.10084 0.30926
# Poissons Ratio (z) = 0.69242 0.75408
#
# Static dielectric constant tensor:
#      x y z
#    x 1.785390 -0.026590 -0.030650 
#    y -0.026590 1.748100 -0.016900 
#    z -0.030650 -0.016900 1.721650 
# 
# From -- ./inp_files/445691.got.cif
#   From: 2010.05.17/outbox.cif.g08.bks.cpg/sg2_223_cif.got.tgz:445691.got - 2010.06.03 11:33:40.
