data_PCOD9084038
_publ_section_title
;
Structure prediction by ZEFSAII (Michael W. Deem and Ramdas Pophale) SiO2 
 PCOD9084038
Probable space group: P -1
;
_chemical_formula_sum "Si O2"
_cell_formula_units_Z 16
_cell_length_a 9.456971
_cell_length_b 14.385210
_cell_length_c 14.876495
_cell_angle_alpha 124.734834
_cell_angle_beta 96.278496
_cell_angle_gamma 131.741816
_cell_volume 749.529848
_symmetry_space_group_name_H-M "P -1"
_symmetry_group_IT_number 2
_symmetry_cell_setting 'triclinic'
loop_
_space_group_symop_operation_xyz
x,y,z
-x,-y,-z
loop_
_atom_site_type_symbol
_atom_site_label
_atom_site_fract_x
_atom_site_fract_y
_atom_site_fract_z
Si Si1 0.227287 0.359918 0.105720
Si Si2 0.239548 0.906421 0.818750
Si Si3 0.575600 0.166332 0.542554
Si Si4 0.192314 0.122248 0.487857
Si Si5 0.554593 0.079683 0.749075
Si Si6 0.176815 0.102490 0.850216
Si Si7 0.299676 0.568179 0.060510
Si Si8 0.125997 0.705146 0.858950
O O1 0.510248 0.581174 0.317882
O O2 0.350215 0.511989 0.109212
O O3 0.931625 0.219934 0.047728
O O4 0.144911 0.178246 0.963272
O O5 0.408697 0.980967 0.782827
O O6 0.100249 0.928115 0.794917
O O7 0.028092 0.671030 0.731851
O O8 0.543964 0.125804 0.026225
O O9 0.318844 0.082832 0.475660
O O10 0.889332 0.451344 0.750656
O O11 0.500000 0.000000 0.500000
O O12 0.623044 0.145463 0.437226
O O13 0.000000 0.000000 0.500000
O O14 0.012926 0.014072 0.320969
O O15 0.533195 0.193575 0.773866
O O16 0.925232 0.318035 0.894981
O O17 0.539589 0.354070 0.978891
#
# Coordination Sequence:
#
# PCOD9084038 Si02
#       8
#     2   2   2   2   2   2   2   2
#     4  11  21  39  62  88 130 165 205 265 312 374
#     4  10  23  43  67  87 122 171 217 260 307 380
#     4  11  25  38  64  96 124 164 206 265 319 373
#     4  11  24  38  57  96 135 160 205 259 318 382
#     4  10  20  35  63  89 125 162 209 257 314 373
#     4  11  24  39  64  95 127 172 206 255 330 382
#     4  10  19  34  59  94 125 162 202 255 315 379
#     4  10  23  45  64  90 123 165 221 262 306 372
#
# _framework density 21.346715
#
# number of rings (size 3 to 8) (size 9 to 14) (size 15 to 20)
#    0.000    1.500    2.500    2.625    7.000    1.000 
#    0.000    2.500    0.000    0.000    0.000    0.000 
#    0.000    0.000    0.000    0.000    0.000    0.000 
#
# Total GULP energy -89162.191806 kJ/mol
# GULP energy per Si atom -5572.636988 kJ/mol
# Density = 2.129813 g / cm^3
# Si number density = 21.346715 Si / 1000 Ang^3
#
#
#
# Elastic Constant Matrix: (Units=GPa)
#
#
# Indices 1 2 3 4 5 6 
#
# 1 99.4800 14.5264 49.0223 -7.2143 -8.0912 -6.7009
# 2 14.5264 74.6248 7.0276 -6.8549 -3.6727 -15.5180
# 3 49.0223 7.0276 60.3314 -13.0588 -12.4468 -2.9478
# 4 -7.2143 -6.8549 -13.0588 16.6558 3.0058 5.7353
# 5 -8.0912 -3.6727 -12.4468 3.0058 26.5867 -10.9123
# 6 -6.7009 -15.5180 -2.9478 5.7353 -10.9123 33.2118
#
#
#
# Elastic Compliance Matrix: (Units=1/GPa)
#
#
# Indices 1 2 3 4 5 6 
#
# 1 0.017580 -0.002134 -0.015341 -0.005859 -0.000649 0.001987
# 2 -0.002134 0.015972 0.002205 0.003420 0.005694 0.008508
# 3 -0.015341 0.002205 0.035221 0.019644 0.010342 0.001067
# 4 -0.005859 0.003420 0.019644 0.080388 -0.006952 -0.014007
# 5 -0.000649 0.005694 0.010342 -0.006952 0.052867 0.022018
# 6 0.001987 0.008508 0.001067 -0.014007 0.022018 0.044234
#
#
# Mechanical properties :
#
#
# Convention : Reuss Voigt Hill
#
# Bulk Modulus (GPa) = 26.15636 41.73210 33.94423
# Shear Modulus (GPa) = 17.26835 26.21485 21.74160
#
# Velocity S-wave (km/s) = 2.84728 3.50816 3.19485
# Velocity P-wave (km/s) = 4.80511 6.00014 5.43557
#
# Compressibility (1/GPa) = 0.03823162
#
# Stress axis : x y z
#
# Youngs Moduli (GPa) = 56.88329 62.61001 28.39203
#
# Poissons Ratio (x) = 0.13363 0.43556
# Poissons Ratio (y) = 0.12141 -0.06259
# Poissons Ratio (z) = 0.87264 -0.13803
#
# Static dielectric constant tensor:
#      x y z
#    x 1.791470 0.019170 0.037080 
#    y 0.019170 1.852850 -0.030740 
#    z 0.037080 -0.030740 1.867020 
# 
# From -- ./inp_files/505491.got.cif
#   From: 2010.05.17/outbox.cif.g08.bks.cpg/sg2_253_cif.got.tgz:505491.got - 2010.06.03 11:33:40.
