data_PCOD9084077
_publ_section_title
;
Structure prediction by ZEFSAII (Michael W. Deem and Ramdas Pophale) SiO2 
 PCOD9084077
Probable space group: P -1
;
_chemical_formula_sum "Si O2"
_cell_formula_units_Z 16
_cell_length_a 11.000247
_cell_length_b 9.039965
_cell_length_c 8.501126
_cell_angle_alpha 69.395490
_cell_angle_beta 105.049696
_cell_angle_gamma 93.468692
_cell_volume 763.704691
_symmetry_space_group_name_H-M "P -1"
_symmetry_group_IT_number 2
_symmetry_cell_setting 'triclinic'
loop_
_space_group_symop_operation_xyz
x,y,z
-x,-y,-z
loop_
_atom_site_type_symbol
_atom_site_label
_atom_site_fract_x
_atom_site_fract_y
_atom_site_fract_z
Si Si1 0.142722 0.941242 0.599603
Si Si2 0.075791 0.291867 0.006566
Si Si3 0.440215 0.627949 0.052780
Si Si4 0.847955 0.363979 0.122844
Si Si5 0.704671 0.817036 0.640414
Si Si6 0.454064 0.058611 0.181765
Si Si7 0.603975 0.723319 0.333572
Si Si8 0.215163 0.107162 0.877606
O O1 0.155594 0.752550 0.685131
O O2 0.233111 0.031961 0.478164
O O3 0.179394 0.996552 0.765547
O O4 0.000000 0.000000 0.500000
O O5 0.187693 0.258438 0.182949
O O6 0.944897 0.290482 0.054069
O O7 0.097236 0.466697 0.882761
O O8 0.099482 0.166832 0.922839
O O9 0.291060 0.614704 0.002968
O O10 0.474586 0.801396 0.933732
O O11 0.500000 0.500000 0.000000
O O12 0.505816 0.615698 0.250852
O O13 0.588742 0.876260 0.687422
O O14 0.661843 0.697094 0.535173
O O15 0.534955 0.896888 0.266596
O O16 0.323958 0.033832 0.053492
O O17 0.717903 0.745917 0.240145
#
# Coordination Sequence:
#
# PCOD9084077 Si02
#       8
#     2   2   2   2   2   2   2   2
#     4  11  21  38  60  92 120 151 196 251 295 338
#     4  10  22  41  62  83 117 165 196 236 302 355
#     4  11  21  37  61  87 118 159 202 236 289 359
#     4  11  22  39  63  86 119 156 202 242 289 358
#     4  10  20  38  62  89 124 152 193 251 303 346
#     4  10  19  36  59  89 114 161 196 240 296 357
#     4  10  19  34  60  86 118 155 195 245 298 345
#     4   9  19  36  60  83 119 157 200 238 294 361
#
# _framework density 20.950506000000001
#
# number of rings (size 3 to 8) (size 9 to 14) (size 15 to 20)
#    0.000    1.750    1.250    6.375    0.000    0.500 
#    2.250    3.125    5.500    3.000    0.000    0.000 
#    0.000    0.000    0.000    0.000    0.000    0.000 
#
# Total GULP energy -89395.435621 kJ/mol
# GULP energy per Si atom -5587.214726 kJ/mol
# Density = 2.090282 g / cm^3
# Si number density = 20.950506 Si / 1000 Ang^3
#
#
#
# Elastic Constant Matrix: (Units=GPa)
#
#
# Indices 1 2 3 4 5 6 
#
# 1 103.2815 8.3643 1.1218 4.8432 -3.2523 -11.1149
# 2 8.3643 35.1635 8.8886 -11.0935 -4.8934 0.3819
# 3 1.1218 8.8886 66.5321 7.4664 -3.2680 -1.6042
# 4 4.8432 -11.0935 7.4664 31.6761 3.6301 -9.2385
# 5 -3.2523 -4.8934 -3.2680 3.6301 28.7261 2.3562
# 6 -11.1149 0.3819 -1.6042 -9.2385 2.3562 37.7396
#
#
#
# Elastic Compliance Matrix: (Units=1/GPa)
#
#
# Indices 1 2 3 4 5 6 
#
# 1 0.010335 -0.003228 0.000603 -0.002207 0.000761 0.002514
# 2 -0.003228 0.035800 -0.006183 0.014675 0.003025 0.001828
# 3 0.000603 -0.006183 0.016659 -0.006621 0.001811 -0.000786
# 4 -0.002207 0.014675 -0.006621 0.041890 -0.004573 0.009460
# 5 0.000761 0.003025 0.001811 -0.004573 0.036453 -0.003125
# 6 0.002514 0.001828 -0.000786 0.009460 -0.003125 0.029697
#
#
# Mechanical properties :
#
#
# Convention : Reuss Voigt Hill
#
# Bulk Modulus (GPa) = 22.13459 26.85849 24.49654
# Shear Modulus (GPa) = 24.56868 32.06854 28.31861
#
# Velocity S-wave (km/s) = 3.42819 3.91664 3.68052
# Velocity P-wave (km/s) = 5.12426 5.77072 5.45707
#
# Compressibility (1/GPa) = 0.04517815
#
# Stress axis : x y z
#
# Youngs Moduli (GPa) = 96.75641 27.93272 60.02684
#
# Poissons Ratio (x) = 0.09018 -0.03618
# Poissons Ratio (y) = 0.31236 0.37113
# Poissons Ratio (z) = -0.05832 0.17270
#
# Static dielectric constant tensor:
#      x y z
#    x 1.740200 0.014360 0.002950 
#    y 0.014360 1.767560 -0.015400 
#    z 0.002950 -0.015400 1.785520 
# 
# From -- ./inp_files/208929.got.cif
#   From: 2010.05.17/outbox.cif.g08.bks.cpg/sg2_105_cif.got.tgz:208929.got - 2010.06.03 11:33:40.
