data_PCOD9084441
_publ_section_title
;
Structure prediction by ZEFSAII (Michael W. Deem and Ramdas Pophale) SiO2 
 PCOD9084441
Probable space group: P -1
;
_chemical_formula_sum "Si O2"
_cell_formula_units_Z 16
_cell_length_a 8.806651
_cell_length_b 9.283600
_cell_length_c 12.056762
_cell_angle_alpha 132.491082
_cell_angle_beta 90.068520
_cell_angle_gamma 101.678625
_cell_volume 698.707802
_symmetry_space_group_name_H-M "P -1"
_symmetry_group_IT_number 2
_symmetry_cell_setting 'triclinic'
loop_
_space_group_symop_operation_xyz
x,y,z
-x,-y,-z
loop_
_atom_site_type_symbol
_atom_site_label
_atom_site_fract_x
_atom_site_fract_y
_atom_site_fract_z
Si Si1 0.505914 0.319436 0.985710
Si Si2 0.429160 0.681897 0.560468
Si Si3 0.374075 0.784001 0.862591
Si Si4 0.091345 0.670078 0.502402
Si Si5 0.708584 0.047055 0.739453
Si Si6 0.000872 0.786469 0.336322
Si Si7 0.908243 0.104286 0.969640
Si Si8 0.839545 0.858093 0.174904
O O1 0.327923 0.177818 0.901603
O O2 0.625230 0.205992 0.873862
O O3 0.500000 0.500000 0.000000
O O4 0.560787 0.365811 0.136409
O O5 0.500000 0.500000 0.500000
O O6 0.379976 0.748159 0.715070
O O7 0.267493 0.645160 0.473411
O O8 0.569820 0.858567 0.598732
O O9 0.202899 0.791076 0.907890
O O10 0.500000 0.000000 0.000000
O O11 0.008034 0.649836 0.371352
O O12 0.000000 0.500000 0.500000
O O13 0.103691 0.899362 0.668711
O O14 0.840221 0.158197 0.709559
O O15 0.791754 0.970773 0.806087
O O16 0.853787 0.737936 0.225892
O O17 0.000000 0.000000 0.500000
O O18 0.048625 0.222777 0.951157
O O19 0.000000 0.000000 0.000000
#
# Coordination Sequence:
#
# PCOD9084441 Si02
#       8
#     2   2   2   2   2   2   2   2
#     4  11  23  42  71  97 134 176 229 283 337 409
#     4  12  26  41  67 103 141 178 232 283 338 401
#     4  11  21  43  66  99 136 175 227 281 333 403
#     4  11  24  42  66  98 139 177 225 283 340 415
#     4  10  22  44  66  97 139 177 229 282 336 409
#     4   9  22  42  68  91 134 182 219 269 345 412
#     4  10  19  34  71  94 126 177 217 274 336 395
#     4  10  21  43  65 100 132 177 227 279 345 401
#
# _framework density 22.899412999999999
#
# number of rings (size 3 to 8) (size 9 to 14) (size 15 to 20)
#    0.000    1.500    3.750    1.500    5.250    2.500 
#    2.250    8.125    0.000    0.000    0.000    0.000 
#    0.000    0.000    0.000    0.000    0.000    0.000 
#
# Total GULP energy -89337.147282 kJ/mol
# GULP energy per Si atom -5583.571705 kJ/mol
# Density = 2.284729 g / cm^3
# Si number density = 22.899413 Si / 1000 Ang^3
#
#
#
# Elastic Constant Matrix: (Units=GPa)
#
#
# Indices 1 2 3 4 5 6 
#
# 1 137.4028 32.3921 25.5075 -12.0771 -2.2975 -17.9521
# 2 32.3921 129.9023 12.8662 -18.4965 16.4373 -22.4127
# 3 25.5075 12.8662 30.1443 -13.4148 -3.6552 0.2632
# 4 -12.0771 -18.4965 -13.4148 38.4571 -4.2719 7.0374
# 5 -2.2975 16.4373 -3.6552 -4.2719 31.2354 -11.9510
# 6 -17.9521 -22.4127 0.2632 7.0374 -11.9510 44.2525
#
#
#
# Elastic Compliance Matrix: (Units=1/GPa)
#
#
# Indices 1 2 3 4 5 6 
#
# 1 0.009461 -0.001287 -0.007626 -0.000809 0.001846 0.003859
# 2 -0.001287 0.009609 -0.002463 0.002383 -0.004004 0.002899
# 3 -0.007626 -0.002463 0.048120 0.014880 0.006385 -0.005269
# 4 -0.000809 0.002383 0.014880 0.033128 0.003619 -0.003501
# 5 0.001846 -0.004004 0.006385 0.003619 0.038784 0.008581
# 6 0.003859 0.002899 -0.005269 -0.003501 0.008581 0.028537
#
#
# Mechanical properties :
#
#
# Convention : Reuss Voigt Hill
#
# Bulk Modulus (GPa) = 22.50312 48.77566 35.63939
# Shear Modulus (GPa) = 24.36610 37.90124 31.13367
#
# Velocity S-wave (km/s) = 3.26552 4.07273 3.69125
# Velocity P-wave (km/s) = 4.90575 6.59260 5.81071
#
# Compressibility (1/GPa) = 0.04443829
#
# Stress axis : x y z
#
# Youngs Moduli (GPa) = 105.69799 104.06789 20.78137
#
# Poissons Ratio (x) = 0.13392 0.15848
# Poissons Ratio (y) = 0.13602 0.05118
# Poissons Ratio (z) = 0.80608 0.25630
#
# Static dielectric constant tensor:
#      x y z
#    x 1.864570 -0.011920 0.018280 
#    y -0.011920 1.894070 -0.009590 
#    z 0.018280 -0.009590 1.860230 
# 
# From -- ./inp_files/383555.got.cif
#   From: 2010.05.17/outbox.cif.g08.bks.cpg/sg2_192_cif.got.tgz:383555.got - 2010.06.03 11:33:40.
