data_PCOD9084653
_publ_section_title
;
Structure prediction by ZEFSAII (Michael W. Deem and Ramdas Pophale) SiO2 
 PCOD9084653
Probable space group: P -1
;
_chemical_formula_sum "Si O2"
_cell_formula_units_Z 16
_cell_length_a 12.513121
_cell_length_b 12.797610
_cell_length_c 6.792489
_cell_angle_alpha 80.138945
_cell_angle_beta 86.057519
_cell_angle_gamma 36.604075
_cell_volume 634.626917
_symmetry_space_group_name_H-M "P -1"
_symmetry_group_IT_number 2
_symmetry_cell_setting 'triclinic'
loop_
_space_group_symop_operation_xyz
x,y,z
-x,-y,-z
loop_
_atom_site_type_symbol
_atom_site_label
_atom_site_fract_x
_atom_site_fract_y
_atom_site_fract_z
Si Si1 0.926112 0.000430 0.278262
Si Si2 0.059115 0.509505 0.185206
Si Si3 0.124041 0.682733 0.644832
Si Si4 0.572474 0.104196 0.602492
Si Si5 0.308625 0.468290 0.305731
Si Si6 0.426734 0.580743 0.703504
Si Si7 0.245316 0.208075 0.580719
Si Si8 0.863201 0.957159 0.890112
O O1 0.023373 0.860018 0.485781
O O2 0.067455 0.979365 0.199135
O O3 0.737384 0.207192 0.293599
O O4 0.886796 0.949434 0.122422
O O5 0.883274 0.698954 0.247419
O O6 0.214219 0.472791 0.154780
O O7 0.144808 0.357638 0.378034
O O8 0.000000 0.500000 0.000000
O O9 0.175486 0.573812 0.480989
O O10 0.317047 0.559833 0.754498
O O11 0.992144 0.771777 0.816424
O O12 0.477035 0.272602 0.439068
O O13 0.422498 0.132772 0.650420
O O14 0.670215 0.077707 0.787117
O O15 0.706827 0.938608 0.487451
O O16 0.388549 0.516424 0.202906
O O17 0.500000 0.500000 0.500000
#
# Coordination Sequence:
#
# PCOD9084653 Si02
#       8
#     2   2   2   2   2   2   2   2
#     4  10  20  34  54  82 111 140 179 218 260 319
#     4  10  21  38  58  80 108 138 176 223 269 318
#     4  10  19  35  56  77 110 144 175 220 262 310
#     4  10  19  37  58  77 109 142 176 223 267 313
#     4  10  20  34  57  81 103 144 183 212 267 324
#     4   9  18  33  53  79 110 141 175 218 263 309
#     4   9  21  39  57  80 106 138 179 223 268 315
#     4  10  20  34  56  81 106 143 180 215 266 317
#
# _framework density 25.211663999999999
#
# number of rings (size 3 to 8) (size 9 to 14) (size 15 to 20)
#    0.000    2.250    0.000    3.750    0.000    2.000 
#    0.000    8.125    0.000   18.000    0.000    0.000 
#    0.000    0.000    0.000    0.000    0.000    0.000 
#
# Total GULP energy -89322.505895 kJ/mol
# GULP energy per Si atom -5582.656618 kJ/mol
# Density = 2.515428 g / cm^3
# Si number density = 25.211664 Si / 1000 Ang^3
#
#
#
# Elastic Constant Matrix: (Units=GPa)
#
#
# Indices 1 2 3 4 5 6 
#
# 1 92.5101 4.4985 55.0539 -9.0753 38.3763 -28.2414
# 2 4.4985 76.9079 32.3181 22.0261 -1.1839 2.2961
# 3 55.0539 32.3181 181.1987 -8.9301 50.7043 -19.0473
# 4 -9.0753 22.0261 -8.9301 33.1350 -2.6635 3.4562
# 5 38.3763 -1.1839 50.7043 -2.6635 50.0829 -12.0675
# 6 -28.2414 2.2961 -19.0473 3.4562 -12.0675 38.7470
#
#
#
# Elastic Compliance Matrix: (Units=1/GPa)
#
#
# Indices 1 2 3 4 5 6 
#
# 1 0.019938 -0.002623 -0.001041 0.004937 -0.011583 0.010128
# 2 -0.002623 0.019906 -0.005642 -0.014669 0.006827 -0.002431
# 3 -0.001041 -0.005642 0.009600 0.005247 -0.008491 0.001183
# 4 0.004937 -0.014669 0.005247 0.042021 -0.006932 0.001139
# 5 -0.011583 0.006827 -0.008491 -0.006932 0.037022 -0.000873
# 6 0.010128 -0.002431 0.001183 0.001139 -0.000873 0.033542
#
#
# Mechanical properties :
#
#
# Convention : Reuss Voigt Hill
#
# Bulk Modulus (GPa) = 32.43446 59.37308 45.90377
# Shear Modulus (GPa) = 26.18933 41.64272 33.91602
#
# Velocity S-wave (km/s) = 3.22650 4.06855 3.67175
# Velocity P-wave (km/s) = 5.17429 6.75809 6.01851
#
# Compressibility (1/GPa) = 0.03083141
#
# Stress axis : x y z
#
# Youngs Moduli (GPa) = 50.15644 50.23697 104.16322
#
# Poissons Ratio (x) = 0.13179 0.10840
# Poissons Ratio (y) = 0.13158 0.58770
# Poissons Ratio (z) = 0.05219 0.28344
#
# Static dielectric constant tensor:
#      x y z
#    x 2.103720 0.007450 -0.012130 
#    y 0.007450 2.024120 0.013860 
#    z -0.012130 0.013860 2.007390 
# 
# From -- ./inp_files/314016.got.cif
#   From: 2010.05.17/outbox.cif.g08.bks.cpg/sg2_158_cif.got.tgz:314016.got - 2010.06.03 11:33:40.
