data_PCOD9084512
_publ_section_title
;
Structure prediction by ZEFSAII (Michael W. Deem and Ramdas Pophale) SiO2 
 PCOD9084512
Probable space group: P -1
;
_chemical_formula_sum "Si O2"
_cell_formula_units_Z 16
_cell_length_a 9.082852
_cell_length_b 19.661253
_cell_length_c 5.199932
_cell_angle_alpha 130.349223
_cell_angle_beta 95.776353
_cell_angle_gamma 87.605460
_cell_volume 703.773166
_symmetry_space_group_name_H-M "P -1"
_symmetry_group_IT_number 2
_symmetry_cell_setting 'triclinic'
loop_
_space_group_symop_operation_xyz
x,y,z
-x,-y,-z
loop_
_atom_site_type_symbol
_atom_site_label
_atom_site_fract_x
_atom_site_fract_y
_atom_site_fract_z
Si Si1 0.821278 0.692396 0.329555
Si Si2 0.512918 0.606563 0.260339
Si Si3 0.559421 0.139086 0.845171
Si Si4 0.352639 0.681184 0.921631
Si Si5 0.016138 0.715009 0.932251
Si Si6 0.941290 0.911137 0.415688
Si Si7 0.682017 0.987777 0.794943
Si Si8 0.314435 0.140937 0.145864
O O1 0.682663 0.633605 0.272039
O O2 0.937462 0.703132 0.611737
O O3 0.745061 0.787597 0.490326
O O4 0.910453 0.673254 0.037023
O O5 0.448647 0.639079 0.604007
O O6 0.500000 0.500000 0.000000
O O7 0.409841 0.644080 0.108301
O O8 0.437207 0.075281 0.529654
O O9 0.675411 0.081911 0.885564
O O10 0.620309 0.211992 0.840807
O O11 0.460501 0.184940 0.156600
O O12 0.175209 0.670418 0.841506
O O13 0.035385 0.823150 0.263975
O O14 0.849063 0.952723 0.734152
O O15 0.812892 0.870985 0.111781
O O16 0.000000 0.000000 0.500000
O O17 0.643470 0.959214 0.008137
#
# Coordination Sequence:
#
# PCOD9084512 Si02
#       8
#     2   2   2   2   2   2   2   2
#     4  11  22  45  71  97 137 183 228 272 349 416
#     4  12  27  49  79 106 132 171 229 288 351 428
#     4  10  21  34  59  90 130 174 223 291 322 385
#     4  12  25  46  70 107 141 173 230 284 348 405
#     4  11  24  43  68 101 141 188 221 276 343 407
#     4  10  21  35  51  83 129 180 233 269 320 383
#     4  10  19  35  53  88 126 176 241 270 327 375
#     4  10  19  35  58  84 123 178 235 273 325 391
#
# _framework density 22.734597999999998
#
# number of rings (size 3 to 8) (size 9 to 14) (size 15 to 20)
#    0.000    1.250    2.500    3.750    1.750    0.500 
#    4.500    3.750    0.000    0.000    0.000    0.000 
#    0.000    0.000    0.000    0.000    0.000    0.000 
#
# Total GULP energy -89219.232594 kJ/mol
# GULP energy per Si atom -5576.202037 kJ/mol
# Density = 2.268285 g / cm^3
# Si number density = 22.734598 Si / 1000 Ang^3
#
#
#
# Elastic Constant Matrix: (Units=GPa)
#
#
# Indices 1 2 3 4 5 6 
#
# 1 90.5017 29.4508 14.2298 4.9785 -3.1530 6.6665
# 2 29.4508 103.2176 16.8465 -4.4210 5.3652 1.4710
# 3 14.2298 16.8465 39.9727 -6.2726 -9.1833 4.0654
# 4 4.9785 -4.4210 -6.2726 40.2640 4.9328 5.0743
# 5 -3.1530 5.3652 -9.1833 4.9328 18.1993 -9.8125
# 6 6.6665 1.4710 4.0654 5.0743 -9.8125 37.6435
#
#
#
# Elastic Compliance Matrix: (Units=1/GPa)
#
#
# Indices 1 2 3 4 5 6 
#
# 1 0.012904 -0.003375 -0.003045 -0.002540 0.001843 -0.001002
# 2 -0.003375 0.012065 -0.005281 0.002165 -0.008349 -0.001771
# 3 -0.003045 -0.005281 0.032617 0.002538 0.017591 0.001466
# 4 -0.002540 0.002165 0.002538 0.027937 -0.010880 -0.006511
# 5 0.001843 -0.008349 0.017591 -0.010880 0.080655 0.020591
# 6 -0.001002 -0.001771 0.001466 -0.006511 0.020591 0.032898
#
#
# Mechanical properties :
#
#
# Convention : Reuss Voigt Hill
#
# Bulk Modulus (GPa) = 29.25330 39.41624 34.33477
# Shear Modulus (GPa) = 21.37898 30.76569 26.07233
#
# Velocity S-wave (km/s) = 3.06988 3.68265 3.39014
# Velocity P-wave (km/s) = 5.04586 5.95464 5.51899
#
# Compressibility (1/GPa) = 0.03418418
#
# Stress axis : x y z
#
# Youngs Moduli (GPa) = 77.49324 82.88236 30.65867
#
# Poissons Ratio (x) = 0.27976 0.09334
# Poissons Ratio (y) = 0.26157 0.16192
# Poissons Ratio (z) = 0.23594 0.43773
#
# Static dielectric constant tensor:
#      x y z
#    x 1.934110 0.072140 -0.077040 
#    y 0.072140 1.929840 -0.024610 
#    z -0.077040 -0.024610 1.940260 
# 
# From -- ./inp_files/49337.got.cif
#   From: 2010.05.17/outbox.cif.g08.bks.cpg/sg2_25_cif.got.tgz:49337.got - 2010.06.03 11:33:40.
