data_PCOD9084334
_publ_section_title
;
Structure prediction by ZEFSAII (Michael W. Deem and Ramdas Pophale) SiO2 
 PCOD9084334
Probable space group: P -1
;
_chemical_formula_sum "Si O2"
_cell_formula_units_Z 14
_cell_length_a 17.931498
_cell_length_b 5.639396
_cell_length_c 9.754559
_cell_angle_alpha 66.069942
_cell_angle_beta 61.473771
_cell_angle_gamma 112.172299
_cell_volume 556.925764
_symmetry_space_group_name_H-M "P -1"
_symmetry_group_IT_number 2
_symmetry_cell_setting 'triclinic'
loop_
_space_group_symop_operation_xyz
x,y,z
-x,-y,-z
loop_
_atom_site_type_symbol
_atom_site_label
_atom_site_fract_x
_atom_site_fract_y
_atom_site_fract_z
Si Si1 0.425574 0.471675 0.191976
Si Si2 0.767105 0.580265 0.630385
Si Si3 0.764130 0.378212 0.387097
Si Si4 0.413731 0.204095 0.768866
Si Si5 0.068139 0.429681 0.362941
Si Si6 0.970694 0.451306 0.196390
Si Si7 0.641452 0.349999 0.248769
O O1 0.346857 0.526281 0.181161
O O2 0.506786 0.721101 0.191502
O O3 0.327630 0.060534 0.436964
O O4 0.500000 0.500000 0.000000
O O5 0.729947 0.451567 0.536905
O O6 0.814877 0.421931 0.694143
O O7 0.873073 0.021719 0.424312
O O8 0.899827 0.568582 0.247732
O O9 0.735905 0.479738 0.253951
O O10 0.500000 0.500000 0.500000
O O11 0.349303 0.322621 0.855853
O O12 0.340062 0.812310 0.853126
O O13 0.000000 0.500000 0.500000
O O14 0.077916 0.602447 0.168889
O O15 0.000000 0.000000 0.500000
O O16 0.000000 0.500000 0.000000
O O17 0.500000 0.000000 0.500000
#
# Coordination Sequence:
#
# PCOD9084334 Si02
#       7
#     2   2   2   2   2   2   2
#     4  11  24  40  62  96 131 173 226 271 318 396
#     4  10  22  41  71  91 133 182 217 269 348 403
#     4  11  21  39  66  91 128 174 216 268 341 390
#     4  10  19  38  60  86 126 169 209 261 319 373
#     4  10  20  43  69  96 132 178 217 273 343 408
#     4  10  23  42  66 101 129 166 223 285 332 400
#     4  10  19  34  63  87 121 168 212 254 318 382
#
# _framework density 25.138000000000002
#
# number of rings (size 3 to 8) (size 9 to 14) (size 15 to 20)
#    0.000    1.714    4.286    1.714    2.000    1.143 
#    2.571    0.000    0.000    0.000    0.000    0.000 
#    0.000    0.000    0.000    0.000    0.000    0.000 
#
# Total GULP energy -78262.863802 kJ/mol
# GULP energy per Si atom -5590.204557 kJ/mol
# Density = 2.508078 g / cm^3
# Si number density = 25.138000 Si / 1000 Ang^3
#
#
#
# Elastic Constant Matrix: (Units=GPa)
#
#
# Indices 1 2 3 4 5 6 
#
# 1 227.8542 52.0688 55.3388 24.6819 -3.0322 -6.6565
# 2 52.0688 133.3778 20.7976 11.8350 -4.8560 -15.0825
# 3 55.3388 20.7976 76.7841 13.3341 9.7725 -10.9345
# 4 24.6819 11.8350 13.3341 49.8306 -4.2233 2.6098
# 5 -3.0322 -4.8560 9.7725 -4.2233 28.5955 17.1048
# 6 -6.6565 -15.0825 -10.9345 2.6098 17.1048 47.5259
#
#
#
# Elastic Compliance Matrix: (Units=1/GPa)
#
#
# Indices 1 2 3 4 5 6 
#
# 1 0.005873 -0.001626 -0.004117 -0.001136 0.002462 -0.001464
# 2 -0.001626 0.008606 -0.000559 -0.001239 -0.000209 0.002518
# 3 -0.004117 -0.000559 0.019942 -0.004765 -0.013381 0.008911
# 4 -0.001136 -0.001239 -0.004765 0.023208 0.008250 -0.005892
# 5 0.002462 -0.000209 -0.013381 0.008250 0.054711 -0.022944
# 6 -0.001464 0.002518 0.008911 -0.005892 -0.022944 0.032267
#
#
# Mechanical properties :
#
#
# Convention : Reuss Voigt Hill
#
# Bulk Modulus (GPa) = 45.83492 77.15848 61.49670
# Shear Modulus (GPa) = 30.39815 45.84447 38.12131
#
# Velocity S-wave (km/s) = 3.48120 4.27513 3.89843
# Velocity P-wave (km/s) = 5.86781 7.42493 6.69182
#
# Compressibility (1/GPa) = 0.02181743
#
# Stress axis : x y z
#
# Youngs Moduli (GPa) = 170.26242 116.19131 50.14641
#
# Poissons Ratio (x) = 0.18893 0.20646
# Poissons Ratio (y) = 0.27685 0.02803
# Poissons Ratio (z) = 0.70098 0.06494
#
# Static dielectric constant tensor:
#      x y z
#    x 2.037980 -0.017820 -0.085700 
#    y -0.017820 1.993620 -0.021840 
#    z -0.085700 -0.021840 2.020460 
# 
# From -- ./inp_files/126650.got.cif
#   From: 2010.05.17/outbox.cif.g08.bks.cpg/sg2_64_cif.got.tgz:126650.got - 2010.06.03 11:33:40.
