data_PCOD9084212
_publ_section_title
;
Structure prediction by ZEFSAII (Michael W. Deem and Ramdas Pophale) SiO2 
 PCOD9084212
Probable space group: P -1
;
_chemical_formula_sum "Si O2"
_cell_formula_units_Z 16
_cell_length_a 15.290756
_cell_length_b 8.362759
_cell_length_c 26.234486
_cell_angle_alpha 42.775603
_cell_angle_beta 161.357297
_cell_angle_gamma 131.586376
_cell_volume 720.447082
_symmetry_space_group_name_H-M "P -1"
_symmetry_group_IT_number 2
_symmetry_cell_setting 'triclinic'
loop_
_space_group_symop_operation_xyz
x,y,z
-x,-y,-z
loop_
_atom_site_type_symbol
_atom_site_label
_atom_site_fract_x
_atom_site_fract_y
_atom_site_fract_z
Si Si1 0.876487 0.085404 0.702453
Si Si2 0.532163 0.454435 0.646201
Si Si3 0.805794 0.623756 0.971347
Si Si4 0.181492 0.786563 0.853923
Si Si5 0.419712 0.240422 0.006437
Si Si6 0.653882 0.025976 0.872909
Si Si7 0.229040 0.137701 0.203442
Si Si8 0.325513 0.296974 0.469838
O O1 0.602489 0.272195 0.497350
O O2 0.101192 0.229394 0.819186
O O3 0.840757 0.872856 0.772545
O O4 0.002335 0.984751 0.742571
O O5 0.861174 0.414232 0.825732
O O6 0.351336 0.321931 0.538306
O O7 0.523852 0.300653 0.728751
O O8 0.696241 0.411586 0.990968
O O9 0.669352 0.865362 0.867992
O O10 0.756822 0.642614 0.878751
O O11 0.970718 0.674257 0.726439
O O12 0.406533 0.865476 0.921967
O O13 0.500000 0.500000 0.000000
O O14 0.479496 0.092621 0.125891
O O15 0.975667 0.027303 0.063949
O O16 0.508598 0.956053 0.395144
O O17 0.500000 0.500000 0.500000
#
# Coordination Sequence:
#
# PCOD9084212 Si02
#       8
#     2   2   2   2   2   2   2   2
#     4  11  25  41  59  92 127 163 195 244 314 363
#     4  11  20  36  65  92 127 152 199 256 302 360
#     4  11  19  35  63  95 122 156 199 252 305 348
#     4  12  25  40  61  88 129 163 200 248 301 364
#     4  11  23  44  68  86 112 162 220 251 289 352
#     4  10  19  37  64  96 114 156 206 262 292 339
#     4  10  19  34  61  91 124 154 197 247 301 362
#     4  12  19  35  61  92 119 158 203 244 295 353
#
# _framework density 22.208431999999998
#
# number of rings (size 3 to 8) (size 9 to 14) (size 15 to 20)
#    0.000    1.000    6.250    1.875    0.000    2.500 
#    0.000    6.875    0.000    0.000    0.000    0.000 
#    0.000    0.000    0.000    0.000    0.000    0.000 
#
# Total GULP energy -89349.137352 kJ/mol
# GULP energy per Si atom -5584.321085 kJ/mol
# Density = 2.215788 g / cm^3
# Si number density = 22.208432 Si / 1000 Ang^3
#
#
#
# Elastic Constant Matrix: (Units=GPa)
#
#
# Indices 1 2 3 4 5 6 
#
# 1 155.1690 28.7883 49.7470 -15.3331 -10.7861 21.5328
# 2 28.7883 35.8903 16.6882 3.2883 -23.0205 0.7691
# 3 49.7470 16.6882 95.7878 -16.3406 -17.5809 11.1476
# 4 -15.3331 3.2883 -16.3406 35.1811 -1.0833 -7.8693
# 5 -10.7861 -23.0205 -17.5809 -1.0833 26.9520 -10.8179
# 6 21.5328 0.7691 11.1476 -7.8693 -10.8179 44.5024
#
#
#
# Elastic Compliance Matrix: (Units=1/GPa)
#
#
# Indices 1 2 3 4 5 6 
#
# 1 0.011273 -0.017410 -0.004546 0.002233 -0.016275 -0.007576
# 2 -0.017410 0.096699 0.004422 -0.005986 0.088772 0.026166
# 3 -0.004546 0.004422 0.015079 0.005568 0.013019 0.002495
# 4 0.002233 -0.005986 0.005568 0.033546 0.002427 0.004150
# 5 -0.016275 0.088772 0.013019 0.002427 0.128997 0.034866
# 6 -0.007576 0.026166 0.002495 0.004150 0.034866 0.034269
#
#
# Mechanical properties :
#
#
# Convention : Reuss Voigt Hill
#
# Bulk Modulus (GPa) = 11.36580 53.03269 32.19924
# Shear Modulus (GPa) = 13.01207 34.10203 23.55705
#
# Velocity S-wave (km/s) = 2.42318 3.92285 3.26041
# Velocity P-wave (km/s) = 3.59971 6.66706 5.35760
#
# Compressibility (1/GPa) = 0.08798327
#
# Stress axis : x y z
#
# Youngs Moduli (GPa) = 88.70999 10.34137 66.31609
#
# Poissons Ratio (x) = 0.18004 0.30146
# Poissons Ratio (y) = 1.54443 -0.29324
# Poissons Ratio (z) = 0.40326 -0.04573
#
# Static dielectric constant tensor:
#      x y z
#    x 1.902280 -0.019790 -0.007000 
#    y -0.019790 1.855200 -0.032100 
#    z -0.007000 -0.032100 1.810890 
# 
# From -- ./inp_files/209294.got.cif
#   From: 2010.05.17/outbox.cif.g08.bks.cpg/sg2_105_cif.got.tgz:209294.got - 2010.06.03 11:33:40.
