data_PCOD9084586
_publ_section_title
;
Structure prediction by ZEFSAII (Michael W. Deem and Ramdas Pophale) SiO2 
 PCOD9084586
Probable space group: P -1
;
_chemical_formula_sum "Si O2"
_cell_formula_units_Z 16
_cell_length_a 8.755240
_cell_length_b 17.144249
_cell_length_c 20.984297
_cell_angle_alpha 161.186907
_cell_angle_beta 137.109373
_cell_angle_gamma 50.168767
_cell_volume 670.873497
_symmetry_space_group_name_H-M "P -1"
_symmetry_group_IT_number 2
_symmetry_cell_setting 'triclinic'
loop_
_space_group_symop_operation_xyz
x,y,z
-x,-y,-z
loop_
_atom_site_type_symbol
_atom_site_label
_atom_site_fract_x
_atom_site_fract_y
_atom_site_fract_z
Si Si1 0.434185 0.107528 0.495123
Si Si2 0.041968 0.216653 0.532134
Si Si3 0.676628 0.985755 0.150281
Si Si4 0.636172 0.449736 0.324663
Si Si5 0.631924 0.677955 0.732277
Si Si6 0.749080 0.433303 0.019825
Si Si7 0.944753 0.197593 0.687227
Si Si8 0.965655 0.094725 0.200300
O O1 0.500000 0.000000 0.500000
O O2 0.253942 0.265236 0.584211
O O3 0.680203 0.219891 0.623680
O O4 0.307094 0.862260 0.227732
O O5 0.100329 0.425124 0.765772
O O6 0.023191 0.944062 0.347491
O O7 0.799491 0.169531 0.385286
O O8 0.500610 0.104899 0.150116
O O9 0.871086 0.995756 0.164136
O O10 0.522804 0.708166 0.901855
O O11 0.453868 0.444671 0.321741
O O12 0.822572 0.291860 0.281718
O O13 0.778557 0.732883 0.579856
O O14 0.500000 0.500000 0.500000
O O15 0.897753 0.841140 0.940408
O O16 0.879221 0.548100 0.083380
O O17 0.500000 0.500000 0.000000
O O18 0.000000 0.000000 0.500000
#
# Coordination Sequence:
#
# PCOD9084586 Si02
#       8
#     2   2   2   2   2   2   2   2
#     4  10  19  35  55  79 103 140 189 221 267 339
#     4  10  21  36  53  81 112 141 184 233 274 326
#     4   9  18  35  49  75 108 134 174 224 272 309
#     4   8  15  31  53  72  96 135 174 212 250 315
#     4   9  17  30  54  77 104 140 176 213 261 324
#     4  11  19  37  57  77 108 144 183 229 273 324
#     4   9  18  34  58  78 103 140 182 225 267 326
#     4   8  15  31  54  72  97 136 176 208 251 317
#
# _framework density 23.849502999999999
#
# number of rings (size 3 to 8) (size 9 to 14) (size 15 to 20)
#    0.000    2.750    3.750    1.500    0.000    2.500 
#    6.750    0.000    2.750    0.000    0.000    0.000 
#    0.000    0.000    0.000    0.000    0.000    0.000 
#
# Total GULP energy -89113.795765 kJ/mol
# GULP energy per Si atom -5569.612235 kJ/mol
# Density = 2.379522 g / cm^3
# Si number density = 23.849503 Si / 1000 Ang^3
#
#
#
# Elastic Constant Matrix: (Units=GPa)
#
#
# Indices 1 2 3 4 5 6 
#
# 1 84.1846 10.7945 39.0938 6.1981 29.3631 -1.3540
# 2 10.7945 49.6548 14.4330 -5.1940 10.1845 -7.0692
# 3 39.0938 14.4330 186.8799 -25.8932 27.7872 15.0528
# 4 6.1981 -5.1940 -25.8932 35.8856 5.7941 -0.7731
# 5 29.3631 10.1845 27.7872 5.7941 52.0252 -0.2080
# 6 -1.3540 -7.0692 15.0528 -0.7731 -0.2080 19.7405
#
#
#
# Elastic Compliance Matrix: (Units=1/GPa)
#
#
# Indices 1 2 3 4 5 6 
#
# 1 0.016167 -0.001263 -0.003055 -0.004024 -0.006787 0.002757
# 2 -0.001263 0.023180 -0.001284 0.003409 -0.003481 0.009290
# 3 -0.003055 -0.001284 0.007952 0.006426 -0.003013 -0.006514
# 4 -0.004024 0.003409 0.006426 0.034552 -0.005687 -0.002662
# 5 -0.006787 -0.003481 -0.003013 -0.005687 0.025979 0.000637
# 6 0.002757 0.009290 -0.006514 -0.002662 0.000637 0.059043
#
#
# Mechanical properties :
#
#
# Convention : Reuss Voigt Hill
#
# Bulk Modulus (GPa) = 27.70494 49.92909 38.81702
# Shear Modulus (GPa) = 26.30057 38.62346 32.46202
#
# Velocity S-wave (km/s) = 3.32440 4.02862 3.69334
# Velocity P-wave (km/s) = 5.13589 6.52842 5.87357
#
# Compressibility (1/GPa) = 0.03609465
#
# Stress axis : x y z
#
# Youngs Moduli (GPa) = 61.85408 43.14024 125.74807
#
# Poissons Ratio (x) = 0.05449 0.38417
# Poissons Ratio (y) = 0.07812 0.16151
# Poissons Ratio (z) = 0.18897 0.05541
#
# Static dielectric constant tensor:
#      x y z
#    x 1.922640 -0.026340 -0.017640 
#    y -0.026340 2.005880 0.021980 
#    z -0.017640 0.021980 2.052170 
# 
# From -- ./inp_files/591103.got.cif
#   From: 2010.05.17/outbox.cif.g08.bks.cpg/sg2_296_cif.got.tgz:591103.got - 2010.06.03 11:33:40.
