data_PCOD9084652
_publ_section_title
;
Structure prediction by ZEFSAII (Michael W. Deem and Ramdas Pophale) SiO2 
 PCOD9084652
Probable space group: P -1
;
_chemical_formula_sum "Si O2"
_cell_formula_units_Z 12
_cell_length_a 9.227156
_cell_length_b 9.255261
_cell_length_c 10.936008
_cell_angle_alpha 95.573220
_cell_angle_beta 131.049808
_cell_angle_gamma 65.901347
_cell_volume 622.772646
_symmetry_space_group_name_H-M "P -1"
_symmetry_group_IT_number 2
_symmetry_cell_setting 'triclinic'
loop_
_space_group_symop_operation_xyz
x,y,z
-x,-y,-z
loop_
_atom_site_type_symbol
_atom_site_label
_atom_site_fract_x
_atom_site_fract_y
_atom_site_fract_z
Si Si1 0.808889 0.693324 0.167608
Si Si2 0.302829 0.112889 0.133822
Si Si3 0.972402 0.936006 0.348116
Si Si4 0.998972 0.684156 0.793536
Si Si5 0.669816 0.181915 0.006188
Si Si6 0.315486 0.021940 0.496318
O O1 0.937610 0.776666 0.314407
O O2 0.948209 0.501575 0.208223
O O3 0.741268 0.785599 0.006835
O O4 0.587628 0.728515 0.117091
O O5 0.150988 0.229181 0.165265
O O6 0.551682 0.034768 0.309448
O O7 0.262251 0.956601 0.072153
O O8 0.771415 0.075937 0.176288
O O9 0.000000 0.000000 0.500000
O O10 0.188393 0.915537 0.394698
O O11 0.869778 0.793724 0.613748
O O12 0.217090 0.702284 0.934390
O O13 0.500000 0.000000 0.500000
#
# Coordination Sequence:
#
# PCOD9084652 Si02
#       6
#     2   2   2   2   2   2
#     4  11  21  35  56  85 109 136 180 230 267 306
#     4  10  19  37  58  78 106 146 182 214 262 330
#     4  10  19  35  56  77 106 146 181 214 263 327
#     4  10  21  36  55  83 112 137 176 229 270 306
#     4  10  20  35  57  80 108 146 181 213 266 330
#     4   9  19  36  55  75 106 145 179 210 261 327
#
# _framework density 19.26867
#
# number of rings (size 3 to 8) (size 9 to 14) (size 15 to 20)
#    0.000    2.000    0.000    5.500    0.000    1.333 
#    0.000   14.167    0.000    0.000    0.000    0.000 
#    0.000    0.000    0.000    0.000    0.000    0.000 
#
# Total GULP energy -66929.662675 kJ/mol
# GULP energy per Si atom -5577.471890 kJ/mol
# Density = 1.922481 g / cm^3
# Si number density = 19.268670 Si / 1000 Ang^3
#
#
#
# Elastic Constant Matrix: (Units=GPa)
#
#
# Indices 1 2 3 4 5 6 
#
# 1 79.3224 44.3418 30.9096 10.6200 22.4055 -4.3484
# 2 44.3418 134.6094 65.9455 26.0054 3.1247 0.8176
# 3 30.9096 65.9455 111.1984 13.7282 13.9524 3.2253
# 4 10.6200 26.0054 13.7282 21.9573 7.2097 0.6426
# 5 22.4055 3.1247 13.9524 7.2097 29.1669 7.4094
# 6 -4.3484 0.8176 3.2253 0.6426 7.4094 26.5757
#
#
#
# Elastic Compliance Matrix: (Units=1/GPa)
#
#
# Indices 1 2 3 4 5 6 
#
# 1 0.022616 -0.008047 0.000145 0.004850 -0.020177 0.009439
# 2 -0.008047 0.016051 -0.006902 -0.014772 0.012454 -0.004088
# 3 0.000145 -0.006902 0.013632 0.001670 -0.006387 0.000322
# 4 0.004850 -0.014772 0.001670 0.066275 -0.020645 0.005199
# 5 -0.020177 0.012454 -0.006387 -0.020645 0.061583 -0.019580
# 6 0.009439 -0.004088 0.000322 0.005199 -0.019580 0.044593
#
#
# Mechanical properties :
#
#
# Convention : Reuss Voigt Hill
#
# Bulk Modulus (GPa) = 44.07272 67.50265 55.78768
# Shear Modulus (GPa) = 19.08968 27.80220 23.44594
#
# Velocity S-wave (km/s) = 3.15097 3.80263 3.49204
# Velocity P-wave (km/s) = 6.01336 7.37485 6.72863
#
# Compressibility (1/GPa) = 0.02268977
#
# Stress axis : x y z
#
# Youngs Moduli (GPa) = 44.21671 62.30309 73.35661
#
# Poissons Ratio (x) = 0.50134 -0.01062
# Poissons Ratio (y) = 0.35580 0.50633
# Poissons Ratio (z) = -0.00640 0.43003
#
# Static dielectric constant tensor:
#      x y z
#    x 1.749700 0.002850 -0.009350 
#    y 0.002850 1.632940 0.008820 
#    z -0.009350 0.008820 1.693950 
# 
# From -- ./inp_files/144797.got.cif
#   From: 2010.05.17/outbox.cif.g08.bks.cpg/sg2_73_cif.got.tgz:144797.got - 2010.06.03 11:33:40.
