data_PCOD9084868
_publ_section_title
;
Structure prediction by ZEFSAII (Michael W. Deem and Ramdas Pophale) SiO2 
 PCOD9084868
Probable space group: P -1
;
_chemical_formula_sum "Si O2"
_cell_formula_units_Z 16
_cell_length_a 19.336670
_cell_length_b 6.795095
_cell_length_c 12.755055
_cell_angle_alpha 121.696944
_cell_angle_beta 34.299130
_cell_angle_gamma 98.587934
_cell_volume 646.509346
_symmetry_space_group_name_H-M "P -1"
_symmetry_group_IT_number 2
_symmetry_cell_setting 'triclinic'
loop_
_space_group_symop_operation_xyz
x,y,z
-x,-y,-z
loop_
_atom_site_type_symbol
_atom_site_label
_atom_site_fract_x
_atom_site_fract_y
_atom_site_fract_z
Si Si1 0.042949 0.185591 0.639206
Si Si2 0.885525 0.778234 0.074885
Si Si3 0.584920 0.697716 0.607673
Si Si4 0.086523 0.626422 0.383285
Si Si5 0.398784 0.803004 0.588319
Si Si6 0.443580 0.174447 0.784565
Si Si7 0.657541 0.892757 0.831386
Si Si8 0.813507 0.314418 0.404940
O O1 0.215109 0.096675 0.384533
O O2 0.965125 0.300592 0.653809
O O3 0.041764 0.912508 0.580185
O O4 0.950184 0.446373 0.912456
O O5 0.753278 0.924383 0.195841
O O6 0.831652 0.017900 0.299940
O O7 0.023032 0.760518 0.842074
O O8 0.617665 0.439861 0.421876
O O9 0.709665 0.507386 0.488301
O O10 0.575756 0.965461 0.645281
O O11 0.410730 0.892664 0.924960
O O12 0.000000 0.500000 0.500000
O O13 0.269093 0.402493 0.096350
O O14 0.509058 0.680039 0.314307
O O15 0.450843 0.928157 0.641625
O O16 0.735609 0.555743 0.659674
O O17 0.500000 0.000000 0.000000
#
# Coordination Sequence:
#
# PCOD9084868 Si02
#       8
#     2   2   2   2   2   2   2   2
#     4  10  20  37  59  85 122 158 202 247 301 363
#     4   9  16  36  59  85 115 158 198 244 297 360
#     4  10  19  35  57  86 118 154 195 243 294 359
#     4  11  23  38  58  89 120 161 201 249 302 360
#     4  10  21  37  57  84 120 157 194 243 301 356
#     4  11  22  37  56  86 118 155 200 242 299 360
#     4   9  17  33  61  91 116 161 202 247 307 357
#     4   8  17  31  62  88 115 157 202 243 302 359
#
# _framework density 24.748289
#
# number of rings (size 3 to 8) (size 9 to 14) (size 15 to 20)
#    0.000    2.250    1.250    1.875    0.000    1.000 
#    2.250    0.625    0.000   67.500    0.000    0.000 
#    0.000    0.000    0.000    0.000    0.000    0.000 
#
# Total GULP energy -89215.778976 kJ/mol
# GULP energy per Si atom -5575.986186 kJ/mol
# Density = 2.469196 g / cm^3
# Si number density = 24.748289 Si / 1000 Ang^3
#
#
#
# Elastic Constant Matrix: (Units=GPa)
#
#
# Indices 1 2 3 4 5 6 
#
# 1 55.1948 30.2115 23.4841 3.7947 -14.5174 10.1739
# 2 30.2115 121.9016 61.1109 38.0638 4.1222 25.4179
# 3 23.4841 61.1109 122.1312 17.9203 -6.7078 16.1298
# 4 3.7947 38.0638 17.9203 28.3329 15.3195 -0.3718
# 5 -14.5174 4.1222 -6.7078 15.3195 39.3274 8.4128
# 6 10.1739 25.4179 16.1298 -0.3718 8.4128 34.8406
#
#
#
# Elastic Compliance Matrix: (Units=1/GPa)
#
#
# Indices 1 2 3 4 5 6 
#
# 1 0.025743 -0.001686 -0.000642 -0.009132 0.015215 -0.009762
# 2 -0.001686 0.030837 -0.002971 -0.051116 0.021174 -0.026288
# 3 -0.000642 -0.002971 0.011591 -0.006244 0.005422 -0.004388
# 4 -0.009132 -0.051116 -0.006244 0.147621 -0.069684 0.061251
# 5 0.015215 0.021174 0.005422 -0.069684 0.065214 -0.038891
# 6 -0.009762 -0.026288 -0.004388 0.061251 -0.038891 0.062807
#
#
# Mechanical properties :
#
#
# Convention : Reuss Voigt Hill
#
# Bulk Modulus (GPa) = 17.36889 58.76006 38.06447
# Shear Modulus (GPa) = 13.38334 32.79494 23.08914
#
# Velocity S-wave (km/s) = 2.32799 3.64420 3.05775
# Velocity P-wave (km/s) = 3.77617 6.44217 5.28020
#
# Compressibility (1/GPa) = 0.05757421
#
# Stress axis : x y z
#
# Youngs Moduli (GPa) = 38.84621 32.42882 86.27284
#
# Poissons Ratio (x) = 0.05467 0.05535
# Poissons Ratio (y) = 0.06549 0.25629
# Poissons Ratio (z) = 0.02492 0.09633
#
# Static dielectric constant tensor:
#      x y z
#    x 2.092050 -0.080360 0.084700 
#    y -0.080360 2.005710 -0.020190 
#    z 0.084700 -0.020190 1.982730 
# 
# From -- ./inp_files/78667.got.cif
#   From: 2010.05.17/outbox.cif.g08.bks.cpg/sg2_40_cif.got.tgz:78667.got - 2010.06.03 11:33:40.
