data_PCOD9084490
_publ_section_title
;
Structure prediction by ZEFSAII (Michael W. Deem and Ramdas Pophale) SiO2 
 PCOD9084490
Probable space group: P -1
;
_chemical_formula_sum "Si O2"
_cell_formula_units_Z 16
_cell_length_a 7.704414
_cell_length_b 19.580173
_cell_length_c 5.572768
_cell_angle_alpha 90.138517
_cell_angle_beta 58.852189
_cell_angle_gamma 110.326492
_cell_volume 658.012515
_symmetry_space_group_name_H-M "P -1"
_symmetry_group_IT_number 2
_symmetry_cell_setting 'triclinic'
loop_
_space_group_symop_operation_xyz
x,y,z
-x,-y,-z
loop_
_atom_site_type_symbol
_atom_site_label
_atom_site_fract_x
_atom_site_fract_y
_atom_site_fract_z
Si Si1 0.463071 0.181211 0.416379
Si Si2 0.155214 0.722978 0.125455
Si Si3 0.968450 0.409428 0.171999
Si Si4 0.952142 0.913486 0.038539
Si Si5 0.776209 0.670623 0.715010
Si Si6 0.571154 0.473614 0.201059
Si Si7 0.546617 0.311871 0.692013
Si Si8 0.962876 0.912605 0.527856
O O1 0.315511 0.126650 0.731593
O O2 0.478160 0.259564 0.509052
O O3 0.296661 0.141466 0.317762
O O4 0.713480 0.208415 0.145931
O O5 0.328626 0.718945 0.201216
O O6 0.950292 0.728614 0.412792
O O7 0.071075 0.644914 0.032704
O O8 0.085230 0.373911 0.278634
O O9 0.732985 0.391970 0.470874
O O10 0.162474 0.491523 0.997264
O O11 0.058441 0.900231 0.207220
O O12 0.035333 0.894373 0.730674
O O13 0.000000 0.000000 0.000000
O O14 0.564946 0.614343 0.720895
O O15 0.671631 0.692236 0.019684
O O16 0.500000 0.500000 0.500000
O O17 0.500000 0.500000 0.000000
O O18 0.000000 0.000000 0.500000
#
# Coordination Sequence:
#
# PCOD9084490 Si02
#       8
#     2   2   2   2   2   2   2   2
#     4   9  18  29  50  74 117 140 183 229 279 325
#     4  10  19  35  53  78 113 149 184 232 278 337
#     4   9  20  37  56  77 112 145 190 237 283 326
#     4   8  14  25  44  72 103 134 178 224 266 318
#     4  10  21  36  58  78 113 148 191 227 290 335
#     4  10  19  37  61  82 108 149 192 237 287 330
#     4  10  21  35  52  84 113 149 185 235 277 343
#     4   8  14  25  45  72 104 136 178 224 267 321
#
# _framework density 24.315647999999999
#
# number of rings (size 3 to 8) (size 9 to 14) (size 15 to 20)
#    0.750    2.000    1.250    0.750    0.000    2.500 
#    0.000    0.625    0.000    0.000    0.000    1.750 
#    0.000    0.625    0.000    0.000    0.000    0.000 
#
# Total GULP energy -89115.904660 kJ/mol
# GULP energy per Si atom -5569.744041 kJ/mol
# Density = 2.426030 g / cm^3
# Si number density = 24.315648 Si / 1000 Ang^3
#
#
#
# Elastic Constant Matrix: (Units=GPa)
#
#
# Indices 1 2 3 4 5 6 
#
# 1 74.5093 1.7708 19.7227 10.5950 15.6589 10.7872
# 2 1.7708 77.9247 29.0694 -8.1610 0.5507 20.3263
# 3 19.7227 29.0694 174.9982 2.0189 12.6086 0.6147
# 4 10.5950 -8.1610 2.0189 41.2225 15.1154 7.3130
# 5 15.6589 0.5507 12.6086 15.1154 46.7569 7.2010
# 6 10.7872 20.3263 0.6147 7.3130 7.2010 22.5626
#
#
#
# Elastic Compliance Matrix: (Units=1/GPa)
#
#
# Indices 1 2 3 4 5 6 
#
# 1 0.015908 0.002530 -0.001939 -0.000780 -0.003268 -0.008536
# 2 0.002530 0.020852 -0.003830 0.007283 0.001065 -0.022591
# 3 -0.001939 -0.003830 0.006676 -0.000891 -0.001587 0.004991
# 4 -0.000780 0.007283 -0.000891 0.031163 -0.007523 -0.013863
# 5 -0.003268 0.001065 -0.001587 -0.007523 0.026139 -0.005258
# 6 -0.008536 -0.022591 0.004991 -0.013863 -0.005258 0.074789
#
#
# Mechanical properties :
#
#
# Convention : Reuss Voigt Hill
#
# Bulk Modulus (GPa) = 27.05831 47.61758 37.33794
# Shear Modulus (GPa) = 25.73021 40.56636 33.14829
#
# Velocity S-wave (km/s) = 3.25649 4.08894 3.69623
# Velocity P-wave (km/s) = 5.02909 6.47443 5.79698
#
# Compressibility (1/GPa) = 0.03695722
#
# Stress axis : x y z
#
# Youngs Moduli (GPa) = 62.86291 47.95658 149.78687
#
# Poissons Ratio (x) = -0.12131 0.29038
# Poissons Ratio (y) = -0.15901 0.57373
# Poissons Ratio (z) = 0.12187 0.18369
#
# Static dielectric constant tensor:
#      x y z
#    x 2.002160 -0.026670 0.086150 
#    y -0.026670 1.936490 -0.039970 
#    z 0.086150 -0.039970 2.038370 
# 
# From -- ./inp_files/56205.got.cif
#   From: 2010.05.17/outbox.cif.g08.bks.cpg/sg2_29_cif.got.tgz:56205.got - 2010.06.03 11:33:40.
