data_PCOD9084992
_publ_section_title
;
Structure prediction by ZEFSAII (Michael W. Deem and Ramdas Pophale) SiO2 
 PCOD9084992
Probable space group: P -1
;
_chemical_formula_sum "Si O2"
_cell_formula_units_Z 16
_cell_length_a 15.988108
_cell_length_b 7.960703
_cell_length_c 14.042602
_cell_angle_alpha 120.626337
_cell_angle_beta 40.865827
_cell_angle_gamma 89.850562
_cell_volume 729.410402
_symmetry_space_group_name_H-M "P -1"
_symmetry_group_IT_number 2
_symmetry_cell_setting 'triclinic'
loop_
_space_group_symop_operation_xyz
x,y,z
-x,-y,-z
loop_
_atom_site_type_symbol
_atom_site_label
_atom_site_fract_x
_atom_site_fract_y
_atom_site_fract_z
Si Si1 0.989483 0.559710 0.137645
Si Si2 0.668051 0.652286 0.454376
Si Si3 0.224958 0.834610 0.445868
Si Si4 0.880727 0.390335 0.656640
Si Si5 0.452035 0.283668 0.832836
Si Si6 0.581284 0.659261 0.729983
Si Si7 0.745716 0.840872 0.742817
Si Si8 0.637698 0.683112 0.274207
O O1 0.866358 0.516657 0.271542
O O2 0.888440 0.867402 0.332230
O O3 0.000000 0.500000 0.000000
O O4 0.190886 0.390416 0.939362
O O5 0.587953 0.614279 0.598830
O O6 0.672386 0.566066 0.317338
O O7 0.547183 0.974179 0.651501
O O8 0.124477 0.813988 0.448626
O O9 0.414118 0.726926 0.223684
O O10 0.279822 0.626816 0.421198
O O11 0.808318 0.626216 0.710564
O O12 0.077753 0.244316 0.472557
O O13 0.736036 0.535355 0.904789
O O14 0.433021 0.378914 0.767549
O O15 0.649613 0.809907 0.737276
O O16 0.392473 0.864547 0.005055
O O17 0.500000 0.000000 0.500000
#
# Coordination Sequence:
#
# PCOD9084992 Si02
#       8
#     2   2   2   2   2   2   2   2
#     4   9  19  38  59  79 112 149 192 241 285 339
#     4   9  18  35  60  82 110 154 196 232 285 341
#     4  10  22  36  56  84 120 151 191 242 283 343
#     4  10  19  36  55  87 118 157 191 236 285 340
#     4  10  19  35  58  82 118 153 192 236 291 332
#     4  10  19  37  57  85 118 157 190 232 291 340
#     4   9  20  34  57  82 123 156 193 229 284 351
#     4   9  19  35  57  85 106 142 199 242 275 337
#
# _framework density 21.935523
#
# number of rings (size 3 to 8) (size 9 to 14) (size 15 to 20)
#    0.000    2.500    1.250    1.125    1.750    1.000 
#    0.000    4.375    0.000    0.000    0.000    0.000 
#    0.000    0.000    0.000    0.000    0.000    0.000 
#
# Total GULP energy -89265.036549 kJ/mol
# GULP energy per Si atom -5579.064784 kJ/mol
# Density = 2.188560 g / cm^3
# Si number density = 21.935523 Si / 1000 Ang^3
#
#
#
# Elastic Constant Matrix: (Units=GPa)
#
#
# Indices 1 2 3 4 5 6 
#
# 1 52.8769 0.8232 28.3771 -2.8283 -0.6817 12.1494
# 2 0.8232 42.9992 16.6496 -4.1321 4.5079 -2.8985
# 3 28.3771 16.6496 144.2983 -15.6900 -10.7999 11.8391
# 4 -2.8283 -4.1321 -15.6900 25.6145 -1.0720 2.9911
# 5 -0.6817 4.5079 -10.7999 -1.0720 33.8989 -5.1541
# 6 12.1494 -2.8985 11.8391 2.9911 -5.1541 27.7801
#
#
#
# Elastic Compliance Matrix: (Units=1/GPa)
#
#
# Indices 1 2 3 4 5 6 
#
# 1 0.023090 0.000835 -0.003943 0.001212 -0.002213 -0.008872
# 2 0.000835 0.025333 -0.003447 0.001570 -0.003968 0.002842
# 3 -0.003943 -0.003447 0.009077 0.004985 0.003052 -0.002474
# 4 0.001212 0.001570 0.004985 0.043352 0.001735 -0.006837
# 5 -0.002213 -0.003968 0.003052 0.001735 0.031764 0.004960
# 6 -0.008872 0.002842 -0.002474 -0.006837 0.004960 0.042884
#
#
# Mechanical properties :
#
#
# Convention : Reuss Voigt Hill
#
# Bulk Modulus (GPa) = 22.52731 36.87490 29.70111
# Shear Modulus (GPa) = 24.58141 30.41366 27.49754
#
# Velocity S-wave (km/s) = 3.35120 3.72762 3.54441
# Velocity P-wave (km/s) = 5.02654 5.94760 5.50636
#
# Compressibility (1/GPa) = 0.04439056
#
# Stress axis : x y z
#
# Youngs Moduli (GPa) = 43.30937 39.47378 110.17261
#
# Poissons Ratio (x) = -0.03297 0.43442
# Poissons Ratio (y) = -0.03617 0.37974
# Poissons Ratio (z) = 0.17077 0.13606
#
# Static dielectric constant tensor:
#      x y z
#    x 1.876160 0.009480 -0.023830 
#    y 0.009480 1.821270 -0.041610 
#    z -0.023830 -0.041610 1.782490 
# 
# From -- ./inp_files/215491.got.cif
#   From: 2010.05.17/outbox.cif.g08.bks.cpg/sg2_108_cif.got.tgz:215491.got - 2010.06.03 11:33:40.
