data_PCOD9084489
_publ_section_title
;
Structure prediction by ZEFSAII (Michael W. Deem and Ramdas Pophale) SiO2 
 PCOD9084489
Probable space group: P -1
;
_chemical_formula_sum "Si O2"
_cell_formula_units_Z 16
_cell_length_a 26.219244
_cell_length_b 18.971957
_cell_length_c 12.315497
_cell_angle_alpha 154.171415
_cell_angle_beta 27.362130
_cell_angle_gamma 156.977300
_cell_volume 977.651346
_symmetry_space_group_name_H-M "P -1"
_symmetry_group_IT_number 2
_symmetry_cell_setting 'triclinic'
loop_
_space_group_symop_operation_xyz
x,y,z
-x,-y,-z
loop_
_atom_site_type_symbol
_atom_site_label
_atom_site_fract_x
_atom_site_fract_y
_atom_site_fract_z
Si Si1 0.485292 0.176938 0.253695
Si Si2 0.546269 0.211482 0.838031
Si Si3 0.812869 0.840343 0.737888
Si Si4 0.625596 0.362661 0.459297
Si Si5 0.571722 0.859746 0.274186
Si Si6 0.872068 0.942966 0.513425
Si Si7 0.291495 0.934295 0.103002
Si Si8 0.639349 0.511990 0.255228
O O1 0.512167 0.278932 0.460595
O O2 0.605771 0.350669 0.188180
O O3 0.500000 0.000000 0.000000
O O4 0.343008 0.063803 0.297251
O O5 0.496993 0.223905 0.830437
O O6 0.600905 0.076584 0.535900
O O7 0.411798 0.079580 0.988274
O O8 0.646265 0.423880 0.005891
O O9 0.736110 0.601501 0.566844
O O10 0.827032 0.894578 0.658128
O O11 0.713109 0.883633 0.042055
O O12 0.967664 0.966676 0.668077
O O13 0.539301 0.291023 0.634452
O O14 0.701122 0.252955 0.157131
O O15 0.770480 0.733206 0.348906
O O16 0.843631 0.096362 0.730701
O O17 0.500000 0.500000 0.500000
#
# Coordination Sequence:
#
# PCOD9084489 Si02
#       8
#     2   2   2   2   2   2   2   2
#     4   9  17  29  50  81 107 123 168 225 266 296
#     4   9  18  31  57  81  99 134 181 218 260 303
#     4  11  22  35  50  79 111 142 176 215 265 314
#     4  10  20  32  54  80 106 139 172 216 270 311
#     4  10  19  35  53  78 110 137 173 217 258 322
#     4  11  21  34  55  78 109 138 177 225 258 311
#     4   9  17  33  53  80 106 131 172 227 264 302
#     4  11  17  32  58  82  99 129 183 225 257 302
#
# _framework density 16.365753000000002
#
# number of rings (size 3 to 8) (size 9 to 14) (size 15 to 20)
#    0.000    2.000    5.000    1.125    0.000    0.500 
#    0.000    0.625    0.000    3.000    0.000    0.000 
#    0.000    0.000    0.000    0.000    0.000    0.000 
#
# Total GULP energy -89128.323697 kJ/mol
# GULP energy per Si atom -5570.520231 kJ/mol
# Density = 1.632850 g / cm^3
# Si number density = 16.365753 Si / 1000 Ang^3
#
#
#
# Elastic Constant Matrix: (Units=GPa)
#
#
# Indices 1 2 3 4 5 6 
#
# 1 109.5952 38.5228 43.5901 0.1341 -3.6067 10.2700
# 2 38.5228 67.2199 38.5514 1.5423 -11.4588 11.8448
# 3 43.5901 38.5514 70.3311 6.7994 -13.2954 12.6420
# 4 0.1341 1.5423 6.7994 10.3028 6.7352 2.1947
# 5 -3.6067 -11.4588 -13.2954 6.7352 28.3615 -0.9175
# 6 10.2700 11.8448 12.6420 2.1947 -0.9175 25.3096
#
#
#
# Elastic Compliance Matrix: (Units=1/GPa)
#
#
# Indices 1 2 3 4 5 6 
#
# 1 0.013756 -0.004398 -0.008181 0.010097 -0.006278 -0.000540
# 2 -0.004398 0.024073 -0.008630 -0.000036 0.004968 -0.004987
# 3 -0.008181 -0.008630 0.030821 -0.028730 0.016584 -0.004944
# 4 0.010097 -0.000036 -0.028730 0.147817 -0.047440 -0.004268
# 5 -0.006278 0.004968 0.016584 -0.047440 0.055445 -0.001937
# 6 -0.000540 -0.004987 -0.004944 -0.004268 -0.001937 0.044833
#
#
# Mechanical properties :
#
#
# Convention : Reuss Voigt Hill
#
# Bulk Modulus (GPa) = 38.12269 54.27500 46.19884
# Shear Modulus (GPa) = 13.59036 21.22691 17.40864
#
# Velocity S-wave (km/s) = 2.88482 3.60534 3.26502
# Velocity P-wave (km/s) = 5.86864 7.11105 6.51951
#
# Compressibility (1/GPa) = 0.02623110
#
# Stress axis : x y z
#
# Youngs Moduli (GPa) = 72.69595 41.53964 32.44592
#
# Poissons Ratio (x) = 0.18270 0.26543
# Poissons Ratio (y) = 0.31974 0.28002
# Poissons Ratio (z) = 0.59470 0.35850
#
# Static dielectric constant tensor:
#      x y z
#    x 1.593140 -0.004020 -0.007460 
#    y -0.004020 1.527530 0.030340 
#    z -0.007460 0.030340 1.566450 
# 
# From -- ./inp_files/251918.got.cif
#   From: 2010.05.17/outbox.cif.g08.bks.cpg/sg2_126_cif.got.tgz:251918.got - 2010.06.03 11:33:40.
