data_PCOD9084558
_publ_section_title
;
Structure prediction by ZEFSAII (Michael W. Deem and Ramdas Pophale) SiO2 
 PCOD9084558
Probable space group: P -1
;
_chemical_formula_sum "Si O2"
_cell_formula_units_Z 12
_cell_length_a 6.363543
_cell_length_b 12.227926
_cell_length_c 14.953726
_cell_angle_alpha 132.277246
_cell_angle_beta 67.967721
_cell_angle_gamma 132.493928
_cell_volume 628.071640
_symmetry_space_group_name_H-M "P -1"
_symmetry_group_IT_number 2
_symmetry_cell_setting 'triclinic'
loop_
_space_group_symop_operation_xyz
x,y,z
-x,-y,-z
loop_
_atom_site_type_symbol
_atom_site_label
_atom_site_fract_x
_atom_site_fract_y
_atom_site_fract_z
Si Si1 0.484520 0.371200 0.210094
Si Si2 0.085785 0.556678 0.122030
Si Si3 0.026557 0.364309 0.363895
Si Si4 0.120963 0.250293 0.020961
Si Si5 0.391766 0.868236 0.853210
Si Si6 0.372867 0.059970 0.797908
O O1 0.810512 0.497326 0.191271
O O2 0.352590 0.448954 0.334050
O O3 0.290684 0.289785 0.107335
O O4 0.433656 0.202820 0.182245
O O5 0.785952 0.132200 0.036451
O O6 0.193394 0.438873 0.072395
O O7 0.000000 0.500000 0.000000
O O8 0.000000 0.500000 0.500000
O O9 0.859161 0.311861 0.267448
O O10 0.847789 0.153747 0.319247
O O11 0.342720 0.778056 0.210692
O O12 0.203535 0.144196 0.889443
O O13 0.485487 0.033054 0.859433
#
# Coordination Sequence:
#
# PCOD9084558 Si02
#       6
#     2   2   2   2   2   2
#     4  10  20  37  58  79 117 150 174 229 282 327
#     4  11  22  34  54  87 122 144 173 220 285 344
#     4   9  21  40  58  78 107 148 195 235 264 309
#     4  10  19  35  54  84 119 147 173 220 284 340
#     4   8  20  34  57  85 109 141 192 223 276 326
#     4  10  20  35  55  87 112 143 187 224 271 331
#
# _framework density 19.106103000000001
#
# number of rings (size 3 to 8) (size 9 to 14) (size 15 to 20)
#    1.000    1.333    1.667    1.000    0.000    2.667 
#    0.000    0.833    0.000    9.000    0.000    0.000 
#    0.000    0.000    0.000    0.000    0.000    0.000 
#
# Total GULP energy -66834.869293 kJ/mol
# GULP energy per Si atom -5569.572441 kJ/mol
# Density = 1.906262 g / cm^3
# Si number density = 19.106103 Si / 1000 Ang^3
#
#
#
# Elastic Constant Matrix: (Units=GPa)
#
#
# Indices 1 2 3 4 5 6 
#
# 1 83.7501 45.3267 18.0426 5.2397 -32.2273 -2.7868
# 2 45.3267 110.0804 31.5086 15.8024 -20.6026 9.3957
# 3 18.0426 31.5086 111.2509 13.2244 -42.3159 15.1619
# 4 5.2397 15.8024 13.2244 18.7352 0.6603 -3.7666
# 5 -32.2273 -20.6026 -42.3159 0.6603 26.0349 -4.9782
# 6 -2.7868 9.3957 15.1619 -3.7666 -4.9782 48.9307
#
#
#
# Elastic Compliance Matrix: (Units=1/GPa)
#
#
# Indices 1 2 3 4 5 6 
#
# 1 -0.143578 -0.009583 -0.187043 0.201015 -0.491145 0.017126
# 2 -0.009583 0.013850 -0.004505 -0.006153 -0.008673 -0.003165
# 3 -0.187043 -0.004505 -0.205372 0.223823 -0.572111 0.012873
# 4 0.201015 -0.006153 0.223823 -0.178843 0.610685 -0.008361
# 5 -0.491145 -0.008673 -0.572111 0.610685 -1.513367 0.044010
# 6 0.017126 -0.003165 0.012873 -0.008361 0.044010 0.021865
#
#
# Mechanical properties :
#
#
# Convention : Reuss Voigt Hill
#
# Bulk Modulus (GPa) = -1.35619 54.98193 26.81287
# Shear Modulus (GPa) = -2.70421 32.75374 15.02477
#
# Velocity S-wave (km/s) = -1.19098 4.14491 2.80730
# Velocity P-wave (km/s) = 1.61326 7.19352 4.95702
#
# Compressibility (1/GPa) = -0.73736078
#
# Stress axis : x y z
#
# Youngs Moduli (GPa) = -6.96485 72.20369 -4.86922
#
# Poissons Ratio (x) = 0.69193 -0.91075
# Poissons Ratio (y) = -0.06674 -0.02193
# Poissons Ratio (z) = -1.30272 0.32524
#
# Static dielectric constant tensor:
#      x y z
#    x 1.763860 0.039710 0.047070 
#    y 0.039710 1.694200 0.006760 
#    z 0.047070 0.006760 1.670820 
# 
# From -- ./inp_files/497040.got.cif
#   From: 2010.05.17/outbox.cif.g08.bks.cpg/sg2_249_cif.got.tgz:497040.got - 2010.06.03 11:33:40.
