data_PCOD9084028
_publ_section_title
;
Structure prediction by ZEFSAII (Michael W. Deem and Ramdas Pophale) SiO2 
 PCOD9084028
Probable space group: P -1
;
_chemical_formula_sum "Si O2"
_cell_formula_units_Z 16
_cell_length_a 17.270991
_cell_length_b 13.436206
_cell_length_c 9.129651
_cell_angle_alpha 139.453940
_cell_angle_beta 137.197253
_cell_angle_gamma 44.996050
_cell_volume 880.452703
_symmetry_space_group_name_H-M "P -1"
_symmetry_group_IT_number 2
_symmetry_cell_setting 'triclinic'
loop_
_space_group_symop_operation_xyz
x,y,z
-x,-y,-z
loop_
_atom_site_type_symbol
_atom_site_label
_atom_site_fract_x
_atom_site_fract_y
_atom_site_fract_z
Si Si1 0.213370 0.200014 0.345210
Si Si2 0.312162 0.631350 0.632487
Si Si3 0.039096 0.835768 0.964654
Si Si4 0.238506 0.804488 0.438970
Si Si5 0.444449 0.977775 0.555070
Si Si6 0.564929 0.356086 0.715100
Si Si7 0.765417 0.447423 0.261317
Si Si8 0.667707 0.033434 0.014100
O O1 0.223452 0.377552 0.551192
O O2 0.257949 0.110150 0.151069
O O3 0.079600 0.202574 0.196246
O O4 0.305976 0.093729 0.478789
O O5 0.244372 0.675279 0.432057
O O6 0.437198 0.482690 0.630807
O O7 0.235171 0.596621 0.618154
O O8 0.342631 0.796521 0.890654
O O9 0.129015 0.689879 0.830665
O O10 0.116339 0.854151 0.233157
O O11 0.000000 0.000000 0.000000
O O12 0.348993 0.720815 0.388922
O O13 0.264860 0.950763 0.725164
O O14 0.452793 0.794535 0.391808
O O15 0.534298 0.024695 0.842757
O O16 0.500000 0.000000 0.500000
O O17 0.638564 0.441921 0.013918
#
# Coordination Sequence:
#
# PCOD9084028 Si02
#       8
#     2   2   2   2   2   2   2   2
#     4  11  21  38  61  88 121 158 199 245 289 350
#     4  10  19  37  59  88 119 156 192 243 301 349
#     4  11  23  43  65  85 115 156 206 247 291 354
#     4   9  23  38  61  88 120 156 198 242 306 345
#     4  10  19  34  59  92 119 151 195 242 291 348
#     4  11  20  36  61  90 124 158 197 241 298 356
#     4  11  22  37  62  89 115 158 204 242 292 352
#     4   9  20  36  58  86 125 148 195 238 303 346
#
# _framework density 18.172471000000002
#
# number of rings (size 3 to 8) (size 9 to 14) (size 15 to 20)
#    0.750    1.000    0.000    7.125    0.000    1.000 
#    0.000    0.625    8.250    0.000    0.000    0.000 
#    0.000    0.000    0.000    0.000    0.000    0.000 
#
# Total GULP energy -89249.360216 kJ/mol
# GULP energy per Si atom -5578.085014 kJ/mol
# Density = 1.813111 g / cm^3
# Si number density = 18.172471 Si / 1000 Ang^3
#
#
#
# Elastic Constant Matrix: (Units=GPa)
#
#
# Indices 1 2 3 4 5 6 
#
# 1 63.6451 32.4040 58.7714 -17.5787 7.4095 0.7320
# 2 32.4040 128.0939 91.8543 -6.2868 1.7016 2.5234
# 3 58.7714 91.8543 110.3477 0.0036 34.6870 15.3245
# 4 -17.5787 -6.2868 0.0036 38.9940 -2.8607 2.5338
# 5 7.4095 1.7016 34.6870 -2.8607 16.1991 -7.7676
# 6 0.7320 2.5234 15.3245 2.5338 -7.7676 27.9666
#
#
#
# Elastic Compliance Matrix: (Units=1/GPa)
#
#
# Indices 1 2 3 4 5 6 
#
# 1 0.019030 -0.008353 0.006103 0.006092 -0.024878 -0.010550
# 2 -0.008353 0.004494 0.007912 -0.003808 -0.018768 -0.009390
# 3 0.006103 0.007912 -0.013886 0.005542 0.034700 0.015871
# 4 0.006092 -0.003808 0.005542 0.027359 -0.013820 -0.009170
# 5 -0.024878 -0.018768 0.034700 -0.013820 -0.010443 -0.018318
# 6 -0.010550 -0.009390 0.015871 -0.009170 -0.018318 0.023927
#
#
# Mechanical properties :
#
#
# Convention : Reuss Voigt Hill
#
# Bulk Modulus (GPa) = 47.70740 74.23846 60.97293
# Shear Modulus (GPa) = 108.35719 24.56907 66.46313
#
# Velocity S-wave (km/s) = 7.73024 3.68094 6.05417
# Velocity P-wave (km/s) = 10.29490 7.68157 9.08272
#
# Compressibility (1/GPa) = 0.02096111
#
# Stress axis : x y z
#
# Youngs Moduli (GPa) = 52.54977 222.53209 -72.01697
#
# Poissons Ratio (x) = 1.85876 0.43950
# Poissons Ratio (y) = 0.43894 0.56978
# Poissons Ratio (z) = -0.32070 -1.76063
#
# Static dielectric constant tensor:
#      x y z
#    x 1.620530 -0.002060 -0.012430 
#    y -0.002060 1.614060 -0.018940 
#    z -0.012430 -0.018940 1.643420 
# 
# From -- ./inp_files/333963.got.cif
#   From: 2010.05.17/outbox.cif.g08.bks.cpg/sg2_167_cif.got.tgz:333963.got - 2010.06.03 11:33:40.
