data_PCOD9084798
_publ_section_title
;
Structure prediction by ZEFSAII (Michael W. Deem and Ramdas Pophale) SiO2 
 PCOD9084798
Probable space group: P -1
;
_chemical_formula_sum "Si O2"
_cell_formula_units_Z 8
_cell_length_a 17.663954
_cell_length_b 6.080140
_cell_length_c 7.870345
_cell_angle_alpha 121.114583
_cell_angle_beta 24.255913
_cell_angle_gamma 119.136093
_cell_volume 296.992761
_symmetry_space_group_name_H-M "P -1"
_symmetry_group_IT_number 2
_symmetry_cell_setting 'triclinic'
loop_
_space_group_symop_operation_xyz
x,y,z
-x,-y,-z
loop_
_atom_site_type_symbol
_atom_site_label
_atom_site_fract_x
_atom_site_fract_y
_atom_site_fract_z
Si Si1 0.001429 0.172526 0.735221
Si Si2 0.977619 0.328631 0.307773
Si Si3 0.534484 0.267329 0.213491
Si Si4 0.389097 0.240509 0.136527
O O1 0.940283 0.461379 0.917473
O O2 0.206834 0.239613 0.402168
O O3 0.947829 0.955845 0.906783
O O4 0.000000 0.000000 0.500000
O O5 0.000000 0.500000 0.500000
O O6 0.753959 0.282782 0.720590
O O7 0.500000 0.500000 0.500000
O O8 0.398491 0.226869 0.316375
O O9 0.505308 0.994109 0.255268
O O10 0.500000 0.500000 0.000000
#
# Coordination Sequence:
#
# PCOD9084798 Si02
#       4
#     2   2   2   2
#     4   9  17  31  55  80 106 149 192 225 279 345
#     4   9  17  32  54  79 107 151 188 223 284 344
#     4  10  21  35  56  87 115 147 193 243 285 339
#     4  10  19  35  57  81 113 153 191 233 290 345
#
# _framework density 26.936685000000001
#
# number of rings (size 3 to 8) (size 9 to 14) (size 15 to 20)
#    0.000    2.500    2.500    0.000    0.000    1.000 
#    0.000    0.000    0.000   37.500    0.000    0.000 
#    0.000    0.000    0.000    0.000    0.000    0.000 
#
# Total GULP energy -44545.625992 kJ/mol
# GULP energy per Si atom -5568.203249 kJ/mol
# Density = 2.687538 g / cm^3
# Si number density = 26.936685 Si / 1000 Ang^3
#
#
#
# Elastic Constant Matrix: (Units=GPa)
#
#
# Indices 1 2 3 4 5 6 
#
# 1 189.7027 49.6839 52.5670 2.1808 -19.2885 24.4738
# 2 49.6839 256.5306 61.9104 39.9304 -9.7214 -15.7568
# 3 52.5670 61.9104 86.7045 19.7024 -4.6175 1.2088
# 4 2.1808 39.9304 19.7024 50.7910 3.0074 -17.4634
# 5 -19.2885 -9.7214 -4.6175 3.0074 29.0944 -1.1974
# 6 24.4738 -15.7568 1.2088 -17.4634 -1.1974 83.0999
#
#
#
# Elastic Compliance Matrix: (Units=1/GPa)
#
#
# Indices 1 2 3 4 5 6 
#
# 1 0.007105 -0.000532 -0.003865 0.000726 0.003765 -0.001930
# 2 -0.000532 0.005177 -0.002657 -0.002890 0.001278 0.000588
# 3 -0.003865 -0.002657 0.016766 -0.004414 -0.000356 -0.000542
# 4 0.000726 -0.002890 -0.004414 0.025436 -0.003625 0.004596
# 5 0.003765 0.001278 -0.000356 -0.003625 0.037568 -0.001082
# 6 -0.001930 0.000588 -0.000542 0.004596 -0.001082 0.013672
#
#
# Mechanical properties :
#
#
# Convention : Reuss Voigt Hill
#
# Bulk Modulus (GPa) = 66.94154 95.69564 81.31859
# Shear Modulus (GPa) = 40.05984 57.18217 48.62101
#
# Velocity S-wave (km/s) = 3.86059 4.61242 4.25315
# Velocity P-wave (km/s) = 6.69160 7.99807 7.37383
#
# Compressibility (1/GPa) = 0.01493841
#
# Stress axis : x y z
#
# Youngs Moduli (GPa) = 140.73782 193.16478 59.64450
#
# Poissons Ratio (x) = 0.10280 0.23055
# Poissons Ratio (y) = 0.07490 0.15850
# Poissons Ratio (z) = 0.54401 0.51331
#
# Static dielectric constant tensor:
#      x y z
#    x 2.203910 -0.281530 0.049660 
#    y -0.281530 2.321510 -0.060310 
#    z 0.049660 -0.060310 2.139570 
# 
# From -- ./inp_files/1522.got.cif
#   From: 2010.05.17/outbox.cif.g08.bks.cpg/sg2_1_cif.got.tgz:1522.got - 2010.06.03 11:33:40.
