data_PCOD9084553
_publ_section_title
;
Structure prediction by ZEFSAII (Michael W. Deem and Ramdas Pophale) SiO2 
 PCOD9084553
Probable space group: P -1
;
_chemical_formula_sum "Si O2"
_cell_formula_units_Z 16
_cell_length_a 12.607435
_cell_length_b 18.313761
_cell_length_c 9.949862
_cell_angle_alpha 56.895769
_cell_angle_beta 134.663342
_cell_angle_gamma 85.320650
_cell_volume 854.299007
_symmetry_space_group_name_H-M "P -1"
_symmetry_group_IT_number 2
_symmetry_cell_setting 'triclinic'
loop_
_space_group_symop_operation_xyz
x,y,z
-x,-y,-z
loop_
_atom_site_type_symbol
_atom_site_label
_atom_site_fract_x
_atom_site_fract_y
_atom_site_fract_z
Si Si1 0.765541 0.901353 0.188340
Si Si2 0.965220 0.877534 0.898778
Si Si3 0.808429 0.820892 0.595599
Si Si4 0.694710 0.115841 0.853930
Si Si5 0.171946 0.387111 0.150124
Si Si6 0.506959 0.159371 0.351027
Si Si7 0.034594 0.267197 0.739103
Si Si8 0.796145 0.547781 0.182443
O O1 0.850371 0.809228 0.485830
O O2 0.878409 0.812140 0.244181
O O3 0.476186 0.031469 0.790620
O O4 0.821283 0.978520 0.180376
O O5 0.941302 0.833195 0.786652
O O6 0.707272 0.032649 0.557614
O O7 0.039071 0.775891 0.183006
O O8 0.141117 0.877849 0.038809
O O9 0.877965 0.692906 0.837025
O O10 0.453117 0.257469 0.569739
O O11 0.609382 0.110715 0.642184
O O12 0.159152 0.447241 0.939124
O O13 0.000000 0.500000 0.000000
O O14 0.267731 0.210558 0.067496
O O15 0.438837 0.292449 0.141380
O O16 0.828925 0.431608 0.359708
O O17 0.000000 0.500000 0.500000
#
# Coordination Sequence:
#
# PCOD9084553 Si02
#       8
#     2   2   2   2   2   2   2   2
#     4  10  19  35  54  83 111 140 197 235 276 320
#     4  12  21  35  60  82 117 153 185 229 288 327
#     4  10  21  34  58  84 107 148 193 237 266 335
#     4  10  22  36  56  85 114 148 188 234 282 339
#     4  10  20  40  61  78 110 150 187 230 287 334
#     4  10  19  35  56  84 113 149 187 227 278 330
#     4  11  19  33  61  85 108 147 193 235 271 333
#     4   9  19  33  55  85 112 135 186 236 270 325
#
# _framework density 18.728805999999999
#
# number of rings (size 3 to 8) (size 9 to 14) (size 15 to 20)
#    0.000    1.750    2.500    4.500    0.000    0.500 
#    0.000    3.125    2.750    0.000    0.000    0.000 
#    0.000    0.000    0.000    0.000    0.000    0.000 
#
# Total GULP energy -89240.602226 kJ/mol
# GULP energy per Si atom -5577.537639 kJ/mol
# Density = 1.868618 g / cm^3
# Si number density = 18.728806 Si / 1000 Ang^3
#
#
#
# Elastic Constant Matrix: (Units=GPa)
#
#
# Indices 1 2 3 4 5 6 
#
# 1 78.5990 30.9340 15.3719 5.3285 -8.7382 25.3338
# 2 30.9340 75.9687 14.4050 -5.3357 -4.7666 1.7987
# 3 15.3719 14.4050 31.1673 -13.7253 -17.8352 8.8644
# 4 5.3285 -5.3357 -13.7253 33.5419 1.4673 -5.6504
# 5 -8.7382 -4.7666 -17.8352 1.4673 21.9096 -2.6729
# 6 25.3338 1.7987 8.8644 -5.6504 -2.6729 29.6664
#
#
#
# Elastic Compliance Matrix: (Units=1/GPa)
#
#
# Indices 1 2 3 4 5 6 
#
# 1 0.025610 -0.009356 -0.007376 -0.012194 0.000382 -0.021387
# 2 -0.009356 0.018211 -0.008642 0.002695 -0.005831 0.009455
# 3 -0.007376 -0.008642 0.100118 0.035940 0.073092 -0.009662
# 4 -0.012194 0.002695 0.035940 0.047674 0.023088 0.010672
# 5 0.000382 -0.005831 0.073092 0.023088 0.101470 -0.008273
# 6 -0.021387 0.009455 -0.009662 0.010672 -0.008273 0.055573
#
#
# Mechanical properties :
#
#
# Convention : Reuss Voigt Hill
#
# Bulk Modulus (GPa) = 10.73044 34.12852 22.42948
# Shear Modulus (GPa) = 11.61533 25.35851 18.48692
#
# Velocity S-wave (km/s) = 2.49305 3.68364 3.14520
# Velocity P-wave (km/s) = 3.74552 6.02946 5.01913
#
# Compressibility (1/GPa) = 0.09319283
#
# Stress axis : x y z
#
# Youngs Moduli (GPa) = 39.04729 54.91146 9.98821
#
# Poissons Ratio (x) = 0.51374 0.07367
# Poissons Ratio (y) = 0.36532 0.08632
# Poissons Ratio (z) = 0.28800 0.47453
#
# Static dielectric constant tensor:
#      x y z
#    x 1.664160 0.016350 -0.032240 
#    y 0.016350 1.651080 -0.028320 
#    z -0.032240 -0.028320 1.688270 
# 
# From -- ./inp_files/211951.got.cif
#   From: 2010.05.17/outbox.cif.g08.bks.cpg/sg2_106_cif.got.tgz:211951.got - 2010.06.03 11:33:40.
