data_PCOD9084380
_publ_section_title
;
Structure prediction by ZEFSAII (Michael W. Deem and Ramdas Pophale) SiO2 
 PCOD9084380
Probable space group: P -1
;
_chemical_formula_sum "Si O2"
_cell_formula_units_Z 16
_cell_length_a 11.932455
_cell_length_b 12.742301
_cell_length_c 8.296669
_cell_angle_alpha 77.560480
_cell_angle_beta 58.543858
_cell_angle_gamma 43.694817
_cell_volume 714.779083
_symmetry_space_group_name_H-M "P -1"
_symmetry_group_IT_number 2
_symmetry_cell_setting 'triclinic'
loop_
_space_group_symop_operation_xyz
x,y,z
-x,-y,-z
loop_
_atom_site_type_symbol
_atom_site_label
_atom_site_fract_x
_atom_site_fract_y
_atom_site_fract_z
Si Si1 0.945550 0.152218 0.941687
Si Si2 0.186194 0.509557 0.693230
Si Si3 0.506808 0.143347 0.603014
Si Si4 0.044364 0.524668 0.286100
Si Si5 0.755292 0.871383 0.242082
Si Si6 0.665460 0.503798 0.068705
Si Si7 0.132917 0.964910 0.551244
Si Si8 0.325528 0.643819 0.471670
O O1 0.092195 0.137864 0.940456
O O2 0.744473 0.335910 0.034312
O O3 0.013592 0.107121 0.718707
O O4 0.000000 0.000000 0.000000
O O5 0.373150 0.321420 0.585395
O O6 0.220521 0.521379 0.849127
O O7 0.198378 0.613707 0.550061
O O8 0.003104 0.544707 0.779366
O O9 0.368885 0.132230 0.775366
O O10 0.673805 0.083838 0.615197
O O11 0.613764 0.027367 0.407190
O O12 0.000000 0.500000 0.500000
O O13 0.886154 0.712182 0.304080
O O14 0.251162 0.460798 0.134895
O O15 0.438958 0.628781 0.240161
O O16 0.218285 0.799807 0.603126
O O17 0.000000 0.000000 0.500000
O O18 0.500000 0.500000 0.500000
#
# Coordination Sequence:
#
# PCOD9084380 Si02
#       8
#     2   2   2   2   2   2   2   2
#     4  10  20  35  59  90 124 151 199 251 301 365
#     4  10  19  34  64  86 116 158 202 251 293 364
#     4   9  16  34  58  79 112 150 201 235 293 352
#     4  10  21  37  55  87 124 161 195 246 308 360
#     4   8  18  32  57  84 110 156 197 242 286 357
#     4  10  20  36  60  91 116 153 210 248 293 357
#     4  11  22  37  60  85 122 162 194 246 314 357
#     4  10  19  36  62  92 115 153 211 245 297 367
#
# _framework density 22.384537000000002
#
# number of rings (size 3 to 8) (size 9 to 14) (size 15 to 20)
#    0.000    2.250    2.500    1.875    1.750    3.000 
#    0.000    2.500    0.000    1.500    0.000    0.000 
#    0.000    0.000    0.000    0.000    0.000    0.000 
#
# Total GULP energy -89095.502233 kJ/mol
# GULP energy per Si atom -5568.468890 kJ/mol
# Density = 2.233359 g / cm^3
# Si number density = 22.384537 Si / 1000 Ang^3
#
#
#
# Elastic Constant Matrix: (Units=GPa)
#
#
# Indices 1 2 3 4 5 6 
#
# 1 101.0785 13.2524 6.7866 -12.0792 -18.3050 22.6884
# 2 13.2524 74.1946 18.3103 17.2532 -3.1042 32.9108
# 3 6.7866 18.3103 69.5374 -3.2326 -18.7169 15.6483
# 4 -12.0792 17.2532 -3.2326 39.2396 10.2518 0.6998
# 5 -18.3050 -3.1042 -18.7169 10.2518 28.2620 -6.1626
# 6 22.6884 32.9108 15.6483 0.6998 -6.1626 35.2378
#
#
#
# Elastic Compliance Matrix: (Units=1/GPa)
#
#
# Indices 1 2 3 4 5 6 
#
# 1 0.013343 0.000945 0.002747 0.002054 0.007776 -0.009374
# 2 0.000945 0.027854 -0.001968 -0.011980 0.001196 -0.025302
# 3 0.002747 -0.001968 0.019598 0.000000 0.013162 -0.006332
# 4 0.002054 -0.011980 0.000000 0.034062 -0.010747 0.007310
# 5 0.007776 0.001196 0.013162 -0.010747 0.052609 -0.002555
# 6 -0.009374 -0.025302 -0.006332 0.007310 -0.002555 0.060265
#
#
# Mechanical properties :
#
#
# Convention : Reuss Voigt Hill
#
# Bulk Modulus (GPa) = 15.56594 35.72324 25.64459
# Shear Modulus (GPa) = 22.15354 34.31193 28.23273
#
# Velocity S-wave (km/s) = 3.14933 3.91940 3.55528
# Velocity P-wave (km/s) = 4.49370 6.03952 5.32302
#
# Compressibility (1/GPa) = 0.06424283
#
# Stress axis : x y z
#
# Youngs Moduli (GPa) = 74.94710 35.90146 51.02455
#
# Poissons Ratio (x) = -0.03391 -0.14016
# Poissons Ratio (y) = -0.07079 0.10040
# Poissons Ratio (z) = -0.20588 0.07064
#
# Static dielectric constant tensor:
#      x y z
#    x 1.906510 -0.027970 -0.028810 
#    y -0.027970 2.834420 -0.578610 
#    z -0.028810 -0.578610 2.295700 
# 
# From -- ./inp_files/257947.got.cif
#   From: 2010.05.17/outbox.cif.g08.bks.cpg/sg2_129_cif.got.tgz:257947.got - 2010.06.03 11:33:40.
