data_PCOD9084163
_publ_section_title
;
Structure prediction by ZEFSAII (Michael W. Deem and Ramdas Pophale) SiO2 
 PCOD9084163
Probable space group: P -1
;
_chemical_formula_sum "Si O2"
_cell_formula_units_Z 16
_cell_length_a 13.813400
_cell_length_b 7.499430
_cell_length_c 12.288219
_cell_angle_alpha 62.489315
_cell_angle_beta 83.187627
_cell_angle_gamma 38.448753
_cell_volume 630.138615
_symmetry_space_group_name_H-M "P -1"
_symmetry_group_IT_number 2
_symmetry_cell_setting 'triclinic'
loop_
_space_group_symop_operation_xyz
x,y,z
-x,-y,-z
loop_
_atom_site_type_symbol
_atom_site_label
_atom_site_fract_x
_atom_site_fract_y
_atom_site_fract_z
Si Si1 0.407337 0.397888 0.220215
Si Si2 0.433839 0.438463 0.446444
Si Si3 0.246137 0.947257 0.924658
Si Si4 0.305459 0.308434 0.893679
Si Si5 0.752236 0.720960 0.704866
Si Si6 0.262489 0.457952 0.622753
Si Si7 0.915372 0.453179 0.963887
Si Si8 0.054210 0.436272 0.632656
O O1 0.410822 0.511886 0.301302
O O2 0.389217 0.565571 0.069148
O O3 0.242688 0.528284 0.217960
O O4 0.572477 0.972169 0.299688
O O5 0.500000 0.500000 0.500000
O O6 0.277532 0.599365 0.487614
O O7 0.597642 0.011044 0.557558
O O8 0.273329 0.130326 0.911004
O O9 0.210916 0.035024 0.776212
O O10 0.070409 0.148811 0.943876
O O11 0.279367 0.488183 0.738684
O O12 0.159781 0.578055 0.931143
O O13 0.500000 0.000000 0.000000
O O14 0.748527 0.786639 0.814918
O O15 0.893859 0.630664 0.667337
O O16 0.098473 0.593616 0.596765
O O17 0.000000 0.500000 0.000000
O O18 0.000000 0.500000 0.500000
#
# Coordination Sequence:
#
# PCOD9084163 Si02
#       8
#     2   2   2   2   2   2   2   2
#     4  11  22  40  62  91 128 155 216 259 298 382
#     4  11  24  39  65  89 118 169 215 255 305 379
#     4   9  22  36  60  92 120 166 205 247 304 373
#     4  10  19  34  61  86 123 158 198 261 309 359
#     4  10  21  40  65  87 120 175 209 248 317 368
#     4  10  22  40  61  92 122 164 205 254 323 360
#     4   9  19  36  60  87 120 162 204 251 303 370
#     4  10  19  37  63  88 126 159 196 251 314 364
#
# _framework density 25.391241000000001
#
# number of rings (size 3 to 8) (size 9 to 14) (size 15 to 20)
#    0.000    2.000    0.000    5.250    5.250    4.000 
#    0.000    1.875    5.500    0.000    0.000    0.000 
#    0.000    0.000    0.000    0.000    0.000    0.000 
#
# Total GULP energy -89255.663762 kJ/mol
# GULP energy per Si atom -5578.478985 kJ/mol
# Density = 2.533345 g / cm^3
# Si number density = 25.391241 Si / 1000 Ang^3
#
#
#
# Elastic Constant Matrix: (Units=GPa)
#
#
# Indices 1 2 3 4 5 6 
#
# 1 116.5384 15.5525 34.3975 16.5736 6.7763 -22.3587
# 2 15.5525 52.9214 24.7019 19.9142 -4.1808 -13.3631
# 3 34.3975 24.7019 153.2948 35.7318 15.5087 10.5326
# 4 16.5736 19.9142 35.7318 39.9968 -2.5472 -4.0619
# 5 6.7763 -4.1808 15.5087 -2.5472 47.6578 8.2159
# 6 -22.3587 -13.3631 10.5326 -4.0619 8.2159 39.1092
#
#
#
# Elastic Compliance Matrix: (Units=1/GPa)
#
#
# Indices 1 2 3 4 5 6 
#
# 1 0.011042 0.000273 -0.002332 -0.002026 -0.002150 0.007275
# 2 0.000273 0.025955 -0.002679 -0.009708 0.001125 0.008501
# 3 -0.002332 -0.002679 0.009736 -0.007077 -0.002577 -0.005064
# 4 -0.002026 -0.009708 -0.007077 0.037284 0.003639 0.000538
# 5 -0.002150 0.001125 -0.002577 0.003639 0.023222 -0.004651
# 6 0.007275 0.008501 -0.005064 0.000538 -0.004651 0.035030
#
#
# Mechanical properties :
#
#
# Convention : Reuss Voigt Hill
#
# Bulk Modulus (GPa) = 26.83993 52.45094 39.64543
# Shear Modulus (GPa) = 30.45771 41.89294 36.17533
#
# Velocity S-wave (km/s) = 3.46719 4.06630 3.77864
# Velocity P-wave (km/s) = 5.15965 6.53822 5.88941
#
# Compressibility (1/GPa) = 0.03725792
#
# Stress axis : x y z
#
# Youngs Moduli (GPa) = 90.56718 38.52885 102.70749
#
# Poissons Ratio (x) = -0.01052 0.23947
# Poissons Ratio (y) = -0.02473 0.27513
# Poissons Ratio (z) = 0.21117 0.10321
#
# Static dielectric constant tensor:
#      x y z
#    x 2.032640 0.004060 -0.008980 
#    y 0.004060 2.247960 -0.152090 
#    z -0.008980 -0.152090 2.190720 
# 
# From -- ./inp_files/445643.got.cif
#   From: 2010.05.17/outbox.cif.g08.bks.cpg/sg2_223_cif.got.tgz:445643.got - 2010.06.03 11:33:40.
