data_PCOD9084990
_publ_section_title
;
Structure prediction by ZEFSAII (Michael W. Deem and Ramdas Pophale) SiO2 
 PCOD9084990
Probable space group: P -1
;
_chemical_formula_sum "Si O2"
_cell_formula_units_Z 14
_cell_length_a 7.024640
_cell_length_b 19.591080
_cell_length_c 6.918186
_cell_angle_alpha 84.893296
_cell_angle_beta 97.308679
_cell_angle_gamma 38.840971
_cell_volume 564.533497
_symmetry_space_group_name_H-M "P -1"
_symmetry_group_IT_number 2
_symmetry_cell_setting 'triclinic'
loop_
_space_group_symop_operation_xyz
x,y,z
-x,-y,-z
loop_
_atom_site_type_symbol
_atom_site_label
_atom_site_fract_x
_atom_site_fract_y
_atom_site_fract_z
Si Si1 0.179748 0.863139 0.281481
Si Si2 0.500984 0.894045 0.923137
Si Si3 0.842099 0.941469 0.856113
Si Si4 0.563755 0.500110 0.284127
Si Si5 0.352911 0.430222 0.046175
Si Si6 0.252626 0.246534 0.352777
Si Si7 0.929025 0.198964 0.408584
O O1 0.853446 0.998623 0.241429
O O2 0.877462 0.196128 0.623637
O O3 0.466788 0.806099 0.464314
O O4 0.160834 0.861775 0.047410
O O5 0.692299 0.910129 0.901095
O O6 0.672004 0.784468 0.858138
O O7 0.402018 0.931184 0.126946
O O8 0.921356 0.909447 0.652856
O O9 0.500000 0.500000 0.500000
O O10 0.365566 0.499161 0.143323
O O11 0.519406 0.586119 0.149174
O O12 0.937704 0.379971 0.320173
O O13 0.607961 0.310594 0.223571
O O14 0.000000 0.500000 0.000000
O O15 0.161933 0.195984 0.418321
#
# Coordination Sequence:
#
# PCOD9084990 Si02
#       7
#     2   2   2   2   2   2   2
#     4  10  19  35  58  82 118 153 190 240 290 358
#     4   8  17  37  56  80 123 150 183 250 291 344
#     4   8  18  34  55  82 118 145 191 237 285 353
#     4  10  23  41  61  90 123 154 205 256 297 357
#     4  10  22  41  64  86 121 160 201 253 306 355
#     4  10  20  36  59  83 115 153 192 240 300 347
#     4  10  21  36  58  84 114 154 191 238 302 349
#
# _framework density 24.799236000000001
#
# number of rings (size 3 to 8) (size 9 to 14) (size 15 to 20)
#    0.857    1.714    0.000    1.286    0.000    6.286 
#    0.000    3.571    0.000    0.000    0.000    0.000 
#    0.000    0.000    0.000    0.000    0.000    0.000 
#
# Total GULP energy -78122.611892 kJ/mol
# GULP energy per Si atom -5580.186564 kJ/mol
# Density = 2.474279 g / cm^3
# Si number density = 24.799236 Si / 1000 Ang^3
#
#
#
# Elastic Constant Matrix: (Units=GPa)
#
#
# Indices 1 2 3 4 5 6 
#
# 1 75.5311 2.9887 18.7034 -6.9898 -8.4774 -13.6451
# 2 2.9887 81.9363 27.9339 -9.8314 -8.8412 -15.4330
# 3 18.7034 27.9339 94.6695 -12.0061 -0.5888 -17.3960
# 4 -6.9898 -9.8314 -12.0061 32.9556 -11.7059 2.4911
# 5 -8.4774 -8.8412 -0.5888 -11.7059 67.4741 -8.5550
# 6 -13.6451 -15.4330 -17.3960 2.4911 -8.5550 25.3988
#
#
#
# Elastic Compliance Matrix: (Units=1/GPa)
#
#
# Indices 1 2 3 4 5 6 
#
# 1 0.016368 0.002983 -0.001544 0.004623 0.004585 0.010640
# 2 0.002983 0.016179 -0.002694 0.005360 0.004753 0.010663
# 3 -0.001544 -0.002694 0.013353 0.003598 0.001040 0.006676
# 4 0.004623 0.005360 0.003598 0.036735 0.008640 0.007512
# 5 0.004585 0.004753 0.001040 0.008640 0.019000 0.011616
# 6 0.010640 0.010663 0.006676 0.007512 0.011616 0.059316
#
#
# Mechanical properties :
#
#
# Convention : Reuss Voigt Hill
#
# Bulk Modulus (GPa) = 23.04752 39.04320 31.04536
# Shear Modulus (GPa) = 28.10168 38.66642 33.38405
#
# Velocity S-wave (km/s) = 3.36991 3.95293 3.67300
# Velocity P-wave (km/s) = 4.94525 6.05079 5.52574
#
# Compressibility (1/GPa) = 0.04338862
#
# Stress axis : x y z
#
# Youngs Moduli (GPa) = 61.09311 61.80936 74.89101
#
# Poissons Ratio (x) = -0.18437 0.11563
# Poissons Ratio (y) = -0.18223 0.20179
# Poissons Ratio (z) = 0.09433 0.16654
#
# Static dielectric constant tensor:
#      x y z
#    x 2.059810 0.029580 -0.024770 
#    y 0.029580 2.025930 -0.010860 
#    z -0.024770 -0.010860 1.922790 
# 
# From -- ./inp_files/319738.got.cif
#   From: 2010.05.17/outbox.cif.g08.bks.cpg/sg2_160_cif.got.tgz:319738.got - 2010.06.03 11:33:40.
