data_PCOD9084566
_publ_section_title
;
Structure prediction by ZEFSAII (Michael W. Deem and Ramdas Pophale) SiO2 
 PCOD9084566
Probable space group: P -1
;
_chemical_formula_sum "Si O2"
_cell_formula_units_Z 16
_cell_length_a 12.626889
_cell_length_b 9.592649
_cell_length_c 8.520874
_cell_angle_alpha 61.191973
_cell_angle_beta 136.818826
_cell_angle_gamma 115.047707
_cell_volume 614.384280
_symmetry_space_group_name_H-M "P -1"
_symmetry_group_IT_number 2
_symmetry_cell_setting 'triclinic'
loop_
_space_group_symop_operation_xyz
x,y,z
-x,-y,-z
loop_
_atom_site_type_symbol
_atom_site_label
_atom_site_fract_x
_atom_site_fract_y
_atom_site_fract_z
Si Si1 0.535243 0.965021 0.376607
Si Si2 0.831360 0.022871 0.471288
Si Si3 0.263029 0.753105 0.033117
Si Si4 0.899629 0.351783 0.786769
Si Si5 0.213622 0.313650 0.549420
Si Si6 0.059008 0.321586 0.688561
Si Si7 0.584722 0.297254 0.276796
Si Si8 0.436116 0.534712 0.155937
O O1 0.709392 0.957521 0.510927
O O2 0.509526 0.140541 0.190663
O O3 0.500000 0.000000 0.500000
O O4 0.415459 0.833693 0.242020
O O5 0.956471 0.155760 0.613310
O O6 0.856909 0.858386 0.499424
O O7 0.765958 0.132753 0.204786
O O8 0.131986 0.732288 0.035906
O O9 0.308980 0.584500 0.110271
O O10 0.882673 0.540459 0.684144
O O11 0.050403 0.316846 0.870508
O O12 0.750055 0.289950 0.546008
O O13 0.394240 0.368520 0.672946
O O14 0.199813 0.315245 0.723297
O O15 0.000000 0.500000 0.500000
O O16 0.474715 0.356019 0.261569
O O17 0.615322 0.414552 0.099601
#
# Coordination Sequence:
#
# PCOD9084566 Si02
#       8
#     2   2   2   2   2   2   2   2
#     4  12  21  34  57  89 122 158 189 239 300 359
#     4  12  22  39  61  92 118 155 202 248 301 350
#     4  12  22  37  62  92 127 153 194 249 303 360
#     4  10  21  39  60  88 118 160 198 244 296 355
#     4  10  22  37  61  86 118 156 206 242 292 351
#     4  10  21  42  65  83 114 161 209 245 292 355
#     4  10  19  35  54  85 120 152 195 235 299 353
#     4  10  20  34  58  86 118 154 193 242 298 355
#
# _framework density 26.042334
#
# number of rings (size 3 to 8) (size 9 to 14) (size 15 to 20)
#    0.000    1.250    5.000    1.500    0.000    3.000 
#    0.000    3.125    0.000    3.000    0.000    0.000 
#    0.000    0.000    0.000    0.000    0.000    0.000 
#
# Total GULP energy -89359.765417 kJ/mol
# GULP energy per Si atom -5584.985339 kJ/mol
# Density = 2.598306 g / cm^3
# Si number density = 26.042334 Si / 1000 Ang^3
#
#
#
# Elastic Constant Matrix: (Units=GPa)
#
#
# Indices 1 2 3 4 5 6 
#
# 1 117.9203 32.5198 13.5600 3.5904 -38.7711 -23.0158
# 2 32.5198 162.5566 9.5669 24.9114 -2.0474 -21.4980
# 3 13.5600 9.5669 54.6277 10.7345 -3.5067 6.8372
# 4 3.5904 24.9114 10.7345 27.5432 0.6063 5.5002
# 5 -38.7711 -2.0474 -3.5067 0.6063 29.3986 0.1184
# 6 -23.0158 -21.4980 6.8372 5.5002 0.1184 47.7933
#
#
#
# Elastic Compliance Matrix: (Units=1/GPa)
#
#
# Indices 1 2 3 4 5 6 
#
# 1 0.019602 -0.001880 -0.003718 -0.001814 0.025277 0.009272
# 2 -0.001880 0.008200 0.000002 -0.007871 -0.001761 0.003693
# 3 -0.003718 0.000002 0.020925 -0.006826 -0.002250 -0.003992
# 4 -0.001814 -0.007871 -0.006826 0.048218 -0.004713 -0.008975
# 5 0.025277 -0.001761 -0.002250 -0.004713 0.067009 0.012079
# 6 0.009272 0.003693 -0.003992 -0.008975 0.012079 0.028624
#
#
# Mechanical properties :
#
#
# Convention : Reuss Voigt Hill
#
# Bulk Modulus (GPa) = 26.64177 49.59978 38.12077
# Shear Modulus (GPa) = 23.11802 39.57756 31.34779
#
# Velocity S-wave (km/s) = 2.98268 3.90261 3.47324
# Velocity P-wave (km/s) = 4.70257 6.27649 5.54565
#
# Compressibility (1/GPa) = 0.03753504
#
# Stress axis : x y z
#
# Youngs Moduli (GPa) = 51.01449 121.94916 47.79043
#
# Poissons Ratio (x) = 0.22927 0.17768
# Poissons Ratio (y) = 0.09591 -0.00010
# Poissons Ratio (z) = 0.18967 -0.00025
#
# Static dielectric constant tensor:
#      x y z
#    x 2.147010 0.027200 0.033360 
#    y 0.027200 2.143630 -0.098150 
#    z 0.033360 -0.098150 2.087120 
# 
# From -- ./inp_files/237893.got.cif
#   From: 2010.05.17/outbox.cif.g08.bks.cpg/sg2_119_cif.got.tgz:237893.got - 2010.06.03 11:33:40.
