data_PCOD9084073
_publ_section_title
;
Structure prediction by ZEFSAII (Michael W. Deem and Ramdas Pophale) SiO2 
 PCOD9084073
Probable space group: P -1
;
_chemical_formula_sum "Si O2"
_cell_formula_units_Z 16
_cell_length_a 11.820667
_cell_length_b 8.429377
_cell_length_c 9.749645
_cell_angle_alpha 95.902534
_cell_angle_beta 123.831431
_cell_angle_gamma 94.061655
_cell_volume 792.992947
_symmetry_space_group_name_H-M "P -1"
_symmetry_group_IT_number 2
_symmetry_cell_setting 'triclinic'
loop_
_space_group_symop_operation_xyz
x,y,z
-x,-y,-z
loop_
_atom_site_type_symbol
_atom_site_label
_atom_site_fract_x
_atom_site_fract_y
_atom_site_fract_z
Si Si1 0.883546 0.340723 0.409001
Si Si2 0.668996 0.623133 0.469228
Si Si3 0.340352 0.475029 0.848246
Si Si4 0.057852 0.159459 0.321478
Si Si5 0.210901 0.486879 0.049606
Si Si6 0.014834 0.740015 0.983497
Si Si7 0.184263 0.849917 0.379432
Si Si8 0.410678 0.685326 0.425674
O O1 0.742949 0.383247 0.250087
O O2 0.857123 0.277716 0.539120
O O3 0.000000 0.500000 0.500000
O O4 0.947208 0.203945 0.357185
O O5 0.663170 0.632083 0.301251
O O6 0.828311 0.682191 0.611683
O O7 0.567883 0.726288 0.488056
O O8 0.613284 0.445720 0.478049
O O9 0.500000 0.500000 0.000000
O O10 0.262176 0.427172 0.934328
O O11 0.987889 0.127683 0.123427
O O12 0.142635 0.019765 0.409427
O O13 0.135815 0.338579 0.074024
O O14 0.329301 0.591877 0.231660
O O15 0.093878 0.601229 0.958794
O O16 0.097731 0.796494 0.180394
O O17 0.339497 0.834721 0.439392
#
# Coordination Sequence:
#
# PCOD9084073 Si02
#       8
#     2   2   2   2   2   2   2   2
#     4  12  23  42  64  91 123 159 209 257 301 364
#     4  11  22  37  63  87 120 157 212 248 302 356
#     4  12  22  36  62  94 120 156 202 264 305 349
#     4  12  23  39  61  92 125 163 199 250 313 371
#     4  10  19  34  60  86 116 149 205 253 300 341
#     4  10  21  36  58  90 117 157 202 251 303 358
#     4  11  24  39  61  90 127 162 197 250 315 369
#     4  10  20  39  59  87 116 158 205 256 292 358
#
# _framework density 20.176724
#
# number of rings (size 3 to 8) (size 9 to 14) (size 15 to 20)
#    0.000    1.000    6.250    1.500    1.750    0.500 
#    0.000    0.000    0.000    0.750    0.000    0.000 
#    0.000    0.000    0.000    0.000    0.000    0.000 
#
# Total GULP energy -89223.969070 kJ/mol
# GULP energy per Si atom -5576.498067 kJ/mol
# Density = 2.013080 g / cm^3
# Si number density = 20.176724 Si / 1000 Ang^3
#
#
#
# Elastic Constant Matrix: (Units=GPa)
#
#
# Indices 1 2 3 4 5 6 
#
# 1 130.5864 28.1943 33.6657 -6.7640 -18.2726 -33.1500
# 2 28.1943 63.1145 4.8474 -13.4363 -6.8415 -28.1210
# 3 33.6657 4.8474 91.2202 -13.0070 -16.1174 -8.7501
# 4 -6.7640 -13.4363 -13.0070 23.1554 -3.8783 0.7941
# 5 -18.2726 -6.8415 -16.1174 -3.8783 38.2343 -3.0138
# 6 -33.1500 -28.1210 -8.7501 0.7941 -3.0138 30.4909
#
#
#
# Elastic Compliance Matrix: (Units=1/GPa)
#
#
# Indices 1 2 3 4 5 6 
#
# 1 0.013635 0.006301 -0.000356 0.008387 0.010024 0.021305
# 2 0.006301 0.046643 0.009706 0.036425 0.023402 0.054019
# 3 -0.000356 0.009706 0.016147 0.015979 0.011088 0.013878
# 4 0.008387 0.036425 0.015979 0.078967 0.029065 0.048115
# 5 0.010024 0.023402 0.011088 0.029065 0.045863 0.039439
# 6 0.021305 0.054019 0.013878 0.048115 0.039439 0.112408
#
#
# Mechanical properties :
#
#
# Convention : Reuss Voigt Hill
#
# Bulk Modulus (GPa) = 9.28269 46.48176 27.88223
# Shear Modulus (GPa) = 15.70997 32.92369 24.31683
#
# Velocity S-wave (km/s) = 2.79340 4.04389 3.47535
# Velocity P-wave (km/s) = 3.87489 6.70011 5.47294
#
# Compressibility (1/GPa) = 0.10772737
#
# Stress axis : x y z
#
# Youngs Moduli (GPa) = 73.34297 21.43929 61.93127
#
# Poissons Ratio (x) = -0.13510 0.02206
# Poissons Ratio (y) = -0.46216 -0.60111
# Poissons Ratio (z) = 0.02612 -0.20809
#
# Static dielectric constant tensor:
#      x y z
#    x 1.745670 -0.069260 0.023180 
#    y -0.069260 1.778020 -0.016810 
#    z 0.023180 -0.016810 1.782770 
# 
# From -- ./inp_files/177782.got.cif
#   From: 2010.05.17/outbox.cif.g08.bks.cpg/sg2_89_cif.got.tgz:177782.got - 2010.06.03 11:33:40.
