data_PCOD9084847
_publ_section_title
;
Structure prediction by ZEFSAII (Michael W. Deem and Ramdas Pophale) SiO2 
 PCOD9084847
Probable space group: P -1
;
_chemical_formula_sum "Si O2"
_cell_formula_units_Z 12
_cell_length_a 11.994208
_cell_length_b 8.905842
_cell_length_c 10.213222
_cell_angle_alpha 135.058598
_cell_angle_beta 70.907551
_cell_angle_gamma 74.647378
_cell_volume 487.029217
_symmetry_space_group_name_H-M "P -1"
_symmetry_group_IT_number 2
_symmetry_cell_setting 'triclinic'
loop_
_space_group_symop_operation_xyz
x,y,z
-x,-y,-z
loop_
_atom_site_type_symbol
_atom_site_label
_atom_site_fract_x
_atom_site_fract_y
_atom_site_fract_z
Si Si1 0.119105 0.421677 0.031312
Si Si2 0.420855 0.670584 0.496012
Si Si3 0.292883 0.401744 0.737523
Si Si4 0.855898 0.623952 0.459653
Si Si5 0.680501 0.645361 0.761747
Si Si6 0.486795 0.765570 0.140440
O O1 0.195986 0.522788 0.987867
O O2 0.270843 0.049547 0.778778
O O3 0.000000 0.500000 0.000000
O O4 0.000642 0.574584 0.301593
O O5 0.500000 0.500000 0.500000
O O6 0.589623 0.548515 0.286837
O O7 0.333365 0.578524 0.415627
O O8 0.173181 0.531213 0.731615
O O9 0.321847 0.001323 0.249746
O O10 0.842901 0.540659 0.558554
O O11 0.588139 0.973797 0.558891
O O12 0.650038 0.660386 0.938038
O O13 0.500000 0.000000 0.000000
O O14 0.500000 0.500000 0.000000
#
# Coordination Sequence:
#
# PCOD9084847 Si02
#       6
#     2   2   2   2   2   2
#     4  10  21  37  57  87 121 147 188 245 280 342
#     4  12  21  36  60  89 113 151 193 243 286 329
#     4   9  19  36  57  86 113 147 194 238 282 331
#     4   8  18  35  53  84 112 146 192 233 281 328
#     4  10  19  35  57  84 114 148 194 236 277 350
#     4   9  17  32  57  83 108 152 195 227 272 350
#
# _framework density 24.639177
#
# number of rings (size 3 to 8) (size 9 to 14) (size 15 to 20)
#    1.000    1.333    1.667    1.500    0.000    0.667 
#    0.000    0.000    0.000   18.000    0.000    0.000 
#    0.000    0.000    0.000    0.000    0.000    0.000 
#
# Total GULP energy -66836.556004 kJ/mol
# GULP energy per Si atom -5569.713000 kJ/mol
# Density = 2.458310 g / cm^3
# Si number density = 24.639177 Si / 1000 Ang^3
#
#
#
# Elastic Constant Matrix: (Units=GPa)
#
#
# Indices 1 2 3 4 5 6 
#
# 1 48.6883 43.1504 26.7710 -13.6399 2.3333 10.1756
# 2 43.1504 155.1271 60.9419 -56.3168 -11.3038 17.0899
# 3 26.7710 60.9419 93.2578 -57.8877 -19.2780 20.7389
# 4 -13.6399 -56.3168 -57.8877 64.6533 16.6074 -6.5637
# 5 2.3333 -11.3038 -19.2780 16.6074 44.8988 -14.9317
# 6 10.1756 17.0899 20.7389 -6.5637 -14.9317 58.7793
#
#
#
# Elastic Compliance Matrix: (Units=1/GPa)
#
#
# Indices 1 2 3 4 5 6 
#
# 1 0.031126 -0.007911 -0.008733 -0.006949 -0.005515 -0.002184
# 2 -0.007911 0.011876 0.000182 0.008758 -0.000163 -0.001211
# 3 -0.008733 0.000182 0.029467 0.023459 0.002592 -0.005660
# 4 -0.006949 0.008758 0.023459 0.043413 -0.005469 -0.006162
# 5 -0.005515 -0.000163 0.002592 -0.005469 0.027831 0.006547
# 6 -0.002184 -0.001211 -0.005660 -0.006162 0.006547 0.020715
#
#
# Mechanical properties :
#
#
# Convention : Reuss Voigt Hill
#
# Bulk Modulus (GPa) = 25.28754 62.08887 43.68821
# Shear Modulus (GPa) = 23.74898 44.74695 34.24797
#
# Velocity S-wave (km/s) = 3.10799 4.26618 3.73229
# Velocity P-wave (km/s) = 4.81300 7.03712 6.02851
#
# Compressibility (1/GPa) = 0.03954517
#
# Stress axis : x y z
#
# Youngs Moduli (GPa) = 32.12738 84.20060 33.93580
#
# Poissons Ratio (x) = 0.66613 0.29636
# Poissons Ratio (y) = 0.25417 -0.00617
# Poissons Ratio (z) = 0.28057 -0.01532
#
# Static dielectric constant tensor:
#      x y z
#    x 4.456160 -1.259200 0.813170 
#    y -1.259200 2.404600 -0.663950 
#    z 0.813170 -0.663950 2.135580 
# 
# From -- ./inp_files/445147.got.cif
#   From: 2010.05.17/outbox.cif.g08.bks.cpg/sg2_223_cif.got.tgz:445147.got - 2010.06.03 11:33:40.
