data_PCOD9084760
_publ_section_title
;
Structure prediction by ZEFSAII (Michael W. Deem and Ramdas Pophale) SiO2 
 PCOD9084760
Probable space group: P -1
;
_chemical_formula_sum "Si O2"
_cell_formula_units_Z 15
_cell_length_a 18.224537
_cell_length_b 7.016303
_cell_length_c 6.281165
_cell_angle_alpha 119.709954
_cell_angle_beta 130.858750
_cell_angle_gamma 66.193299
_cell_volume 523.730492
_symmetry_space_group_name_H-M "P -1"
_symmetry_group_IT_number 2
_symmetry_cell_setting 'triclinic'
loop_
_space_group_symop_operation_xyz
x,y,z
-x,-y,-z
loop_
_atom_site_type_symbol
_atom_site_label
_atom_site_fract_x
_atom_site_fract_y
_atom_site_fract_z
Si Si1 0.897543 0.393111 0.483635
Si Si2 0.506278 0.176524 0.798736
Si Si3 0.098333 0.206423 0.947038
Si Si4 0.351577 0.012917 0.656355
Si Si5 0.803564 0.181368 0.522995
Si Si6 0.600025 0.419346 0.767726
Si Si7 0.000000 0.000000 0.000000
Si Si8 0.771175 0.591148 0.979961
O O1 0.898708 0.599610 0.763953
O O2 0.814599 0.250392 0.337027
O O3 0.862483 0.497011 0.250616
O O4 0.007512 0.272557 0.650518
O O5 0.561398 0.364232 0.897284
O O6 0.500000 0.000000 0.500000
O O7 0.398433 0.198892 0.713067
O O8 0.575290 0.074029 0.062169
O O9 0.194346 0.212192 0.987338
O O10 0.079021 0.004982 0.948710
O O11 0.248290 0.017542 0.584694
O O12 0.355354 0.813184 0.381104
O O13 0.757446 0.403125 0.674960
O O14 0.916730 0.137365 0.777120
O O15 0.500000 0.500000 0.500000
O O16 0.675370 0.593121 0.945667
#
# Coordination Sequence:
#
# PCOD9084760 Si02
#       8
#     2   2   2   2   2   2   1   2
#     4   9  17  34  55  74  99 133 173 208 245 303
#     4   9  18  34  55  77 104 139 175 211 255 310
#     4   9  19  33  52  76 102 132 167 210 254 301
#     4   9  18  35  56  75 102 142 176 206 256 313
#     4   9  19  34  54  77 102 135 170 208 253 302
#     4  10  21  34  51  80 107 131 173 223 260 298
#     4  10  20  36  50  76 112 128 160 216 254 296
#     4  10  19  35  57  73  97 139 176 203 251 312
#
# _framework density 28.640685000000001
#
# number of rings (size 3 to 8) (size 9 to 14) (size 15 to 20)
#    0.000    2.667    0.000    2.000    0.000    1.600 
#    0.000   10.000    0.000    0.000    0.000    0.000 
#    0.000    0.000    0.000    0.000    0.000    0.000 
#
# Total GULP energy -83721.034629 kJ/mol
# GULP energy per Si atom -5581.402309 kJ/mol
# Density = 2.857550 g / cm^3
# Si number density = 28.640685 Si / 1000 Ang^3
#
#
#
# Elastic Constant Matrix: (Units=GPa)
#
#
# Indices 1 2 3 4 5 6 
#
# 1 235.2284 52.2665 25.3620 5.0547 -26.1903 70.8610
# 2 52.2665 123.6775 36.6511 14.9716 -13.4560 57.8074
# 3 25.3620 36.6511 97.0903 1.5813 -0.7803 24.2535
# 4 5.0547 14.9716 1.5813 48.0376 2.9437 -3.7133
# 5 -26.1903 -13.4560 -0.7803 2.9437 43.9172 -5.6169
# 6 70.8610 57.8074 24.2535 -3.7133 -5.6169 66.9447
#
#
#
# Elastic Compliance Matrix: (Units=1/GPa)
#
#
# Indices 1 2 3 4 5 6 
#
# 1 0.006944 0.001884 -0.000291 -0.002209 0.003751 -0.008679
# 2 0.001884 0.016583 -0.002786 -0.006742 0.004651 -0.015288
# 3 -0.000291 -0.002786 0.011819 0.000448 -0.001056 -0.001632
# 4 -0.002209 -0.006742 0.000448 0.024067 -0.003836 0.009010
# 5 0.003751 0.004651 -0.001056 -0.003836 0.025949 -0.005640
# 6 -0.008679 -0.015288 -0.001632 0.009010 -0.005640 0.037944
#
#
# Mechanical properties :
#
#
# Convention : Reuss Voigt Hill
#
# Bulk Modulus (GPa) = 30.33985 76.06171 53.20078
# Shear Modulus (GPa) = 36.58239 54.56101 45.57170
#
# Velocity S-wave (km/s) = 3.57779 4.36939 3.99325
# Velocity P-wave (km/s) = 5.26153 7.21597 6.31482
#
# Compressibility (1/GPa) = 0.03295995
#
# Stress axis : x y z
#
# Youngs Moduli (GPa) = 144.01947 60.30356 84.60763
#
# Poissons Ratio (x) = -0.11360 0.02460
# Poissons Ratio (y) = -0.27132 0.23571
# Poissons Ratio (z) = 0.04188 0.16800
#
# Static dielectric constant tensor:
#      x y z
#    x 2.253550 -0.012220 0.088350 
#    y -0.012220 2.321870 0.086000 
#    z 0.088350 0.086000 2.469740 
# 
# From -- ./inp_files/37392.got.cif
#   From: 2010.05.17/outbox.cif.g08.bks.cpg/sg2_19_cif.got.tgz:37392.got - 2010.06.03 11:33:40.
