data_PCOD9084573
_publ_section_title
;
Structure prediction by ZEFSAII (Michael W. Deem and Ramdas Pophale) SiO2 
 PCOD9084573
Probable space group: P -1
;
_chemical_formula_sum "Si O2"
_cell_formula_units_Z 16
_cell_length_a 12.551933
_cell_length_b 9.186557
_cell_length_c 14.833104
_cell_angle_alpha 39.774154
_cell_angle_beta 77.306263
_cell_angle_gamma 57.830898
_cell_volume 867.720717
_symmetry_space_group_name_H-M "P -1"
_symmetry_group_IT_number 2
_symmetry_cell_setting 'triclinic'
loop_
_space_group_symop_operation_xyz
x,y,z
-x,-y,-z
loop_
_atom_site_type_symbol
_atom_site_label
_atom_site_fract_x
_atom_site_fract_y
_atom_site_fract_z
Si Si1 0.246059 0.708610 0.588728
Si Si2 0.600862 0.875945 0.245158
Si Si3 0.673534 0.636353 0.530510
Si Si4 0.318003 0.882443 0.749810
Si Si5 0.162367 0.968669 0.288498
Si Si6 0.487159 0.490300 0.256042
Si Si7 0.341775 0.081517 0.083045
Si Si8 0.141324 0.721884 0.781946
O O1 0.201474 0.901435 0.418057
O O2 0.384062 0.633101 0.643417
O O3 0.138734 0.833763 0.629402
O O4 0.283904 0.409364 0.689370
O O5 0.650542 0.058706 0.185212
O O6 0.468628 0.031280 0.136213
O O7 0.577865 0.767712 0.396319
O O8 0.791883 0.322959 0.628633
O O9 0.597593 0.617993 0.637355
O O10 0.718621 0.843178 0.430860
O O11 0.451281 0.627262 0.797275
O O12 0.203569 0.834233 0.783897
O O13 0.249339 0.055388 0.182581
O O14 0.003401 0.189322 0.204730
O O15 0.400011 0.825156 0.124317
O O16 0.251239 0.389066 0.913267
#
# Coordination Sequence:
#
# PCOD9084573 Si02
#       8
#     2   2   2   2   2   2   2   2
#     4   9  18  33  53  78  97 129 169 215 248 282
#     4   8  17  32  51  75 101 124 164 209 259 290
#     4   8  16  31  50  77  99 128 164 210 250 291
#     4   9  19  31  49  80 101 131 159 211 256 300
#     4  10  19  35  55  72  99 137 174 203 239 293
#     4   9  16  30  55  77 101 126 167 212 256 290
#     4  10  20  34  53  76 101 133 166 210 246 295
#     4  11  22  33  50  76 106 136 168 197 246 304
#
# _framework density 18.439114
#
# number of rings (size 3 to 8) (size 9 to 14) (size 15 to 20)
#    0.750    2.000    0.000    1.875    0.000    8.500 
#    0.000    0.000    0.000    0.000    0.000    4.375 
#    0.000    0.000    0.000    0.000    0.000    0.000 
#
# Total GULP energy -89142.110849 kJ/mol
# GULP energy per Si atom -5571.381928 kJ/mol
# Density = 1.839715 g / cm^3
# Si number density = 18.439114 Si / 1000 Ang^3
#
#
#
# Elastic Constant Matrix: (Units=GPa)
#
#
# Indices 1 2 3 4 5 6 
#
# 1 51.9638 13.7915 10.0394 -1.8715 -6.0291 2.4406
# 2 13.7915 35.1580 -5.6392 8.6148 -1.0852 9.6608
# 3 10.0394 -5.6392 43.3260 -3.4609 -5.2544 6.6923
# 4 -1.8715 8.6148 -3.4609 15.8414 -1.4274 -5.4894
# 5 -6.0291 -1.0852 -5.2544 -1.4274 18.1277 -5.0945
# 6 2.4406 9.6608 6.6923 -5.4894 -5.0945 23.2362
#
#
#
# Elastic Compliance Matrix: (Units=1/GPa)
#
#
# Indices 1 2 3 4 5 6 
#
# 1 0.027633 -0.020603 -0.008546 0.018815 0.011183 0.015022
# 2 -0.020603 0.061974 0.013648 -0.049214 -0.014990 -0.042447
# 3 -0.008546 0.013648 0.028701 -0.006965 0.001724 -0.014310
# 4 0.018815 -0.049214 -0.006965 0.110863 0.024660 0.052089
# 5 0.011183 -0.014990 0.001724 0.024660 0.067506 0.025188
# 6 0.015022 -0.042447 -0.014310 0.052089 0.025188 0.081056
#
#
# Mechanical properties :
#
#
# Convention : Reuss Voigt Hill
#
# Bulk Modulus (GPa) = 11.45408 18.53680 14.99544
# Shear Modulus (GPa) = 11.41979 18.92479 15.17229
#
# Velocity S-wave (km/s) = 2.49132 3.20713 2.87162
# Velocity P-wave (km/s) = 3.80801 4.87740 4.37550
#
# Compressibility (1/GPa) = 0.08730511
#
# Stress axis : x y z
#
# Youngs Moduli (GPa) = 36.18861 16.13578 34.84253
#
# Poissons Ratio (x) = 0.33245 0.29776
# Poissons Ratio (y) = 0.74560 -0.47552
# Poissons Ratio (z) = 0.30926 -0.22022
#
# Static dielectric constant tensor:
#      x y z
#    x 1.613340 0.010810 -0.019220 
#    y 0.010810 1.645880 -0.003750 
#    z -0.019220 -0.003750 1.660120 
# 
# From -- ./inp_files/433706.got.cif
#   From: 2010.05.17/outbox.cif.g08.bks.cpg/sg2_217_cif.got.tgz:433706.got - 2010.06.03 11:33:40.
