data_PCOD9084322
_publ_section_title
;
Structure prediction by ZEFSAII (Michael W. Deem and Ramdas Pophale) SiO2 
 PCOD9084322
Probable space group: P -1
;
_chemical_formula_sum "Si O2"
_cell_formula_units_Z 16
_cell_length_a 13.871125
_cell_length_b 9.449934
_cell_length_c 11.958448
_cell_angle_alpha 52.771423
_cell_angle_beta 48.060960
_cell_angle_gamma 38.180600
_cell_volume 709.870856
_symmetry_space_group_name_H-M "P -1"
_symmetry_group_IT_number 2
_symmetry_cell_setting 'triclinic'
loop_
_space_group_symop_operation_xyz
x,y,z
-x,-y,-z
loop_
_atom_site_type_symbol
_atom_site_label
_atom_site_fract_x
_atom_site_fract_y
_atom_site_fract_z
Si Si1 0.392893 0.111904 0.884379
Si Si2 0.405592 0.451677 0.267188
Si Si3 0.067429 0.807699 0.290761
Si Si4 0.114122 0.538890 0.568765
Si Si5 0.069069 0.195638 0.190557
Si Si6 0.282138 0.079529 0.757831
Si Si7 0.044886 0.797469 0.946716
Si Si8 0.390533 0.368692 0.958194
O O1 0.243625 0.138546 0.053947
O O2 0.423140 0.263226 0.857832
O O3 0.338094 0.165118 0.772934
O O4 0.554380 0.839442 0.904149
O O5 0.284419 0.507966 0.438407
O O6 0.552497 0.176766 0.278405
O O7 0.493569 0.563264 0.146366
O O8 0.261495 0.583803 0.217991
O O9 0.007775 0.698513 0.466792
O O10 0.088815 0.964286 0.279950
O O11 0.954800 0.996946 0.191608
O O12 0.010459 0.667052 0.699640
O O13 0.186393 0.276459 0.643228
O O14 0.947879 0.327102 0.113301
O O15 0.141302 0.076425 0.923166
O O16 0.196068 0.601544 0.999790
#
# Coordination Sequence:
#
# PCOD9084322 Si02
#       8
#     2   2   2   2   2   2   2   2
#     4  10  21  35  61  88 112 148 187 247 279 326
#     4  10  22  37  58  83 120 151 186 228 289 341
#     4   8  19  34  55  88 105 153 187 231 277 329
#     4  10  19  34  63  82 110 151 198 234 266 337
#     4   9  16  37  58  85 109 144 200 230 279 324
#     4  11  21  39  60  85 113 151 199 227 275 339
#     4   9  20  34  58  85 109 152 183 242 275 335
#     4  11  20  37  55  87 123 141 187 237 296 329
#
# _framework density 22.539308999999999
#
# number of rings (size 3 to 8) (size 9 to 14) (size 15 to 20)
#    1.500    0.750    1.250    2.250    0.000    4.500 
#    0.000    2.500    5.500    0.750    0.000    0.000 
#    0.000    0.000    0.000    0.000    0.000    0.000 
#
# Total GULP energy -89192.716555 kJ/mol
# GULP energy per Si atom -5574.544785 kJ/mol
# Density = 2.248801 g / cm^3
# Si number density = 22.539309 Si / 1000 Ang^3
#
#
#
# Elastic Constant Matrix: (Units=GPa)
#
#
# Indices 1 2 3 4 5 6 
#
# 1 33.9983 4.8012 11.8781 8.4501 22.4942 0.0100
# 2 4.8012 109.2961 17.9010 -15.4139 9.6565 -16.8416
# 3 11.8781 17.9010 57.9785 -21.6927 13.8740 -12.7378
# 4 8.4501 -15.4139 -21.6927 35.3670 -9.7983 -0.4412
# 5 22.4942 9.6565 13.8740 -9.7983 18.6111 -8.6061
# 6 0.0100 -16.8416 -12.7378 -0.4412 -8.6061 38.4370
#
#
#
# Elastic Compliance Matrix: (Units=1/GPa)
#
#
# Indices 1 2 3 4 5 6 
#
# 1 -0.068749 0.003889 0.014640 0.060002 0.117249 0.033515
# 2 0.003889 0.010335 -0.001416 0.000637 -0.007577 0.002369
# 3 0.014640 -0.001416 0.022864 0.000462 -0.034071 -0.000670
# 4 0.060002 0.000637 0.000462 -0.009935 -0.087328 -0.019250
# 5 0.117249 -0.007577 -0.034071 -0.087328 -0.124781 -0.043582
# 6 0.033515 0.002369 -0.000670 -0.019250 -0.043582 0.016845
#
#
# Mechanical properties :
#
#
# Convention : Reuss Voigt Hill
#
# Bulk Modulus (GPa) = -755.27444 30.04816 -362.61314
# Shear Modulus (GPa) = -26.58322 29.59584 1.50631
#
# Velocity S-wave (km/s) = -3.43799 3.62757 0.81839
# Velocity P-wave (km/s) = 18.75045 5.55932 12.66241
#
# Compressibility (1/GPa) = -0.00132402
#
# Stress axis : x y z
#
# Youngs Moduli (GPa) = -14.54563 96.76067 43.73671
#
# Poissons Ratio (x) = -0.37635 -0.64029
# Poissons Ratio (y) = 0.05657 0.06192
# Poissons Ratio (z) = 0.21294 0.13700
#
# Static dielectric constant tensor:
#      x y z
#    x 1.854720 0.011030 0.050160 
#    y 0.011030 1.865660 -0.035650 
#    z 0.050160 -0.035650 1.852000 
# 
# From -- ./inp_files/351210.got.cif
#   From: 2010.05.17/outbox.cif.g08.bks.cpg/sg2_176_cif.got.tgz:351210.got - 2010.06.03 11:33:40.
