data_PCOD9084219
_publ_section_title
;
Structure prediction by ZEFSAII (Michael W. Deem and Ramdas Pophale) SiO2 
 PCOD9084219
Probable space group: P -1
;
_chemical_formula_sum "Si O2"
_cell_formula_units_Z 14
_cell_length_a 14.411790
_cell_length_b 7.570232
_cell_length_c 14.088989
_cell_angle_alpha 60.322649
_cell_angle_beta 140.864869
_cell_angle_gamma 90.878046
_cell_volume 623.903921
_symmetry_space_group_name_H-M "P -1"
_symmetry_group_IT_number 2
_symmetry_cell_setting 'triclinic'
loop_
_space_group_symop_operation_xyz
x,y,z
-x,-y,-z
loop_
_atom_site_type_symbol
_atom_site_label
_atom_site_fract_x
_atom_site_fract_y
_atom_site_fract_z
Si Si1 0.939052 0.330171 0.083207
Si Si2 0.334996 0.209396 0.392171
Si Si3 0.952321 0.106581 0.584521
Si Si4 0.649381 0.770762 0.886269
Si Si5 0.505077 0.446856 0.867832
Si Si6 0.184018 0.072505 0.627560
Si Si7 0.508195 0.057121 0.879498
O O1 0.162223 0.201544 0.273939
O O2 0.796141 0.486948 0.836906
O O3 0.837521 0.573579 0.018022
O O4 0.953236 0.088287 0.197901
O O5 0.500000 0.000000 0.500000
O O6 0.480332 0.084357 0.631170
O O7 0.725981 0.369317 0.348764
O O8 0.947053 0.920128 0.555933
O O9 0.063024 0.187065 0.599068
O O10 0.554048 0.634544 0.840046
O O11 0.666991 0.805868 0.002234
O O12 0.545800 0.260748 0.861083
O O13 0.636172 0.246017 0.113723
O O14 0.289980 0.174500 0.646432
O O15 0.500000 0.000000 0.000000
#
# Coordination Sequence:
#
# PCOD9084219 Si02
#       7
#     2   2   2   2   2   2   2
#     4  10  19  34  61  93 113 151 202 243 299 357
#     4   9  19  35  63  94 112 146 201 247 300 360
#     4  11  20  32  61  84 113 161 196 241 298 344
#     4  11  20  39  61  84 123 158 195 247 295 346
#     4  11  21  36  58  81 121 158 197 242 291 349
#     4  10  21  35  51  86 117 157 203 237 290 347
#     4  10  23  36  57  89 121 164 203 237 290 347
#
# _framework density 22.439354000000002
#
# number of rings (size 3 to 8) (size 9 to 14) (size 15 to 20)
#    0.000    1.714    4.286    0.429    2.000    0.571 
#    0.000    4.286    0.000    8.571    0.000    0.000 
#    0.000    0.000    0.000    0.000    0.000    0.000 
#
# Total GULP energy -78009.447094 kJ/mol
# GULP energy per Si atom -5572.103364 kJ/mol
# Density = 2.238828 g / cm^3
# Si number density = 22.439354 Si / 1000 Ang^3
#
#
#
# Elastic Constant Matrix: (Units=GPa)
#
#
# Indices 1 2 3 4 5 6 
#
# 1 107.7232 18.8975 30.4958 -6.6865 21.2298 -11.7231
# 2 18.8975 74.4293 -7.6940 0.9079 2.9961 -5.5944
# 3 30.4958 -7.6940 110.9323 -19.5089 -0.4055 3.2584
# 4 -6.6865 0.9079 -19.5089 15.7125 -2.9794 0.4965
# 5 21.2298 2.9961 -0.4055 -2.9794 47.3659 -8.9684
# 6 -11.7231 -5.5944 3.2584 0.4965 -8.9684 20.1450
#
#
#
# Elastic Compliance Matrix: (Units=1/GPa)
#
#
# Indices 1 2 3 4 5 6 
#
# 1 0.012268 -0.002952 -0.003795 -0.000317 -0.004423 0.004972
# 2 -0.002952 0.014513 0.001789 0.000219 0.000891 0.002415
# 3 -0.003795 0.001789 0.012881 0.014758 0.002008 -0.003265
# 4 -0.000317 0.000219 0.014758 0.082847 0.005028 -0.002314
# 5 -0.004423 0.000891 0.002008 0.005028 0.024949 0.008332
# 6 0.004972 0.002415 -0.003265 -0.002314 0.008332 0.057499
#
#
# Mechanical properties :
#
#
# Convention : Reuss Voigt Hill
#
# Bulk Modulus (GPa) = 33.61820 41.83149 37.72485
# Shear Modulus (GPa) = 22.24317 33.40372 27.82345
#
# Velocity S-wave (km/s) = 3.15184 3.86245 3.52510
# Velocity P-wave (km/s) = 5.31599 6.21079 5.78073
#
# Compressibility (1/GPa) = 0.02974579
#
# Stress axis : x y z
#
# Youngs Moduli (GPa) = 81.51030 68.90445 77.63612
#
# Poissons Ratio (x) = 0.20338 0.29465
# Poissons Ratio (y) = 0.24059 -0.13888
# Poissons Ratio (z) = 0.30935 -0.12326
#
# Static dielectric constant tensor:
#      x y z
#    x 1.929820 -0.026920 -0.029260 
#    y -0.026920 1.862290 0.005700 
#    z -0.029260 0.005700 1.921610 
# 
# From -- ./inp_files/258390.got.cif
#   From: 2010.05.17/outbox.cif.g08.bks.cpg/sg2_130_cif.got.tgz:258390.got - 2010.06.03 11:33:40.
