data_PCOD9084374
_publ_section_title
;
Structure prediction by ZEFSAII (Michael W. Deem and Ramdas Pophale) SiO2 
 PCOD9084374
Probable space group: P -1
;
_chemical_formula_sum "Si O2"
_cell_formula_units_Z 16
_cell_length_a 11.810380
_cell_length_b 6.334741
_cell_length_c 12.516292
_cell_angle_alpha 91.562176
_cell_angle_beta 113.551795
_cell_angle_gamma 63.188340
_cell_volume 752.616153
_symmetry_space_group_name_H-M "P -1"
_symmetry_group_IT_number 2
_symmetry_cell_setting 'triclinic'
loop_
_space_group_symop_operation_xyz
x,y,z
-x,-y,-z
loop_
_atom_site_type_symbol
_atom_site_label
_atom_site_fract_x
_atom_site_fract_y
_atom_site_fract_z
Si Si1 0.608515 0.480745 0.853754
Si Si2 0.704194 0.890668 0.348778
Si Si3 0.146521 0.613054 0.528112
Si Si4 0.302269 0.195498 0.009553
Si Si5 0.569414 0.699101 0.126767
Si Si6 0.438417 0.606873 0.591510
Si Si7 0.883247 0.025780 0.041838
Si Si8 0.090446 0.981664 0.695904
O O1 0.641883 0.699727 0.874653
O O2 0.472254 0.507960 0.869102
O O3 0.563422 0.453574 0.719022
O O4 0.744819 0.255961 0.948207
O O5 0.827200 0.657642 0.451159
O O6 0.614614 0.789152 0.250344
O O7 0.613683 0.111739 0.396634
O O8 0.775543 0.986361 0.289327
O O9 0.298533 0.585892 0.557486
O O10 0.100769 0.760309 0.625257
O O11 0.041206 0.779224 0.398790
O O12 0.424585 0.922890 0.033935
O O13 0.310166 0.346710 0.913624
O O14 0.159564 0.188116 0.976694
O O15 0.500000 0.500000 0.500000
O O16 0.914618 0.048176 0.179099
O O17 0.000000 0.000000 0.000000
#
# Coordination Sequence:
#
# PCOD9084374 Si02
#       8
#     2   2   2   2   2   2   2   2
#     4  11  23  40  64  95 132 171 224 273 343 407
#     4  11  20  40  67 100 130 169 227 279 341 402
#     4  10  23  42  69  96 131 179 230 280 335 397
#     4  10  21  38  62  95 129 168 208 277 328 396
#     4  10  19  34  63  98 127 158 212 272 336 391
#     4  11  25  41  65  97 136 174 219 282 342 404
#     4  11  26  42  65  94 138 183 225 271 337 412
#     4  10  23  43  66  98 135 178 229 282 327 399
#
# _framework density 21.259177000000001
#
# number of rings (size 3 to 8) (size 9 to 14) (size 15 to 20)
#    0.000    1.500    3.750    0.750    3.500    1.000 
#    0.000    0.000    0.000    0.000    0.000    0.000 
#    0.000    0.000    0.000    0.000    0.000    0.000 
#
# Total GULP energy -89268.600963 kJ/mol
# GULP energy per Si atom -5579.287560 kJ/mol
# Density = 2.121079 g / cm^3
# Si number density = 21.259177 Si / 1000 Ang^3
#
#
#
# Elastic Constant Matrix: (Units=GPa)
#
#
# Indices 1 2 3 4 5 6 
#
# 1 132.2909 51.6756 67.4760 11.0867 -12.8456 9.7262
# 2 51.6756 72.0533 51.1286 -12.1898 -3.9521 -8.7242
# 3 67.4760 51.1286 174.7705 -2.3959 -15.0786 -17.9303
# 4 11.0867 -12.1898 -2.3959 33.9999 -3.9052 8.2038
# 5 -12.8456 -3.9521 -15.0786 -3.9052 30.4919 3.7383
# 6 9.7262 -8.7242 -17.9303 8.2038 3.7383 25.4326
#
#
#
# Elastic Compliance Matrix: (Units=1/GPa)
#
#
# Indices 1 2 3 4 5 6 
#
# 1 0.015063 -0.010281 -0.003644 -0.005889 0.003745 -0.010507
# 2 -0.010281 0.025829 -0.002822 0.010307 -0.002012 0.007773
# 3 -0.003644 -0.002822 0.008752 -0.000614 0.001544 0.006567
# 4 -0.005889 0.010307 -0.000614 0.037222 0.004210 -0.007271
# 5 0.003745 -0.002012 0.001544 0.004210 0.036364 -0.007737
# 6 -0.010507 0.007773 0.006567 -0.007271 -0.007737 0.054117
#
#
# Mechanical properties :
#
#
# Convention : Reuss Voigt Hill
#
# Bulk Modulus (GPa) = 61.91013 79.96391 70.93702
# Shear Modulus (GPa) = 23.12433 31.90717 27.51575
#
# Velocity S-wave (km/s) = 3.30166 3.87830 3.60154
# Velocity P-wave (km/s) = 6.61207 7.59937 7.12285
#
# Compressibility (1/GPa) = 0.01615244
#
# Stress axis : x y z
#
# Youngs Moduli (GPa) = 66.38776 38.71691 114.25312
#
# Poissons Ratio (x) = 0.39803 0.41629
# Poissons Ratio (y) = 0.68250 0.32239
# Poissons Ratio (z) = 0.24189 0.10925
#
# Static dielectric constant tensor:
#      x y z
#    x 1.793290 0.034510 0.006250 
#    y 0.034510 1.851450 -0.028220 
#    z 0.006250 -0.028220 1.806350 
# 
# From -- ./inp_files/410598.got.cif
#   From: 2010.05.17/outbox.cif.g08.bks.cpg/sg2_206_cif.got.tgz:410598.got - 2010.06.03 11:33:40.
