data_PCOD9084355
_publ_section_title
;
Structure prediction by ZEFSAII (Michael W. Deem and Ramdas Pophale) SiO2 
 PCOD9084355
Probable space group: P -1
;
_chemical_formula_sum "Si O2"
_cell_formula_units_Z 14
_cell_length_a 9.665036
_cell_length_b 22.749879
_cell_length_c 9.179828
_cell_angle_alpha 133.201776
_cell_angle_beta 30.818240
_cell_angle_gamma 130.626484
_cell_volume 742.912864
_symmetry_space_group_name_H-M "P -1"
_symmetry_group_IT_number 2
_symmetry_cell_setting 'triclinic'
loop_
_space_group_symop_operation_xyz
x,y,z
-x,-y,-z
loop_
_atom_site_type_symbol
_atom_site_label
_atom_site_fract_x
_atom_site_fract_y
_atom_site_fract_z
Si Si1 0.928111 0.753374 0.078131
Si Si2 0.612439 0.320655 0.094804
Si Si3 0.340920 0.363453 0.119378
Si Si4 0.377350 0.833073 0.993045
Si Si5 0.892297 0.912013 0.513311
Si Si6 0.111155 0.531730 0.294794
Si Si7 0.796452 0.625297 0.236846
O O1 0.837554 0.841864 0.318919
O O2 0.803187 0.694519 0.223728
O O3 0.845335 0.705477 0.925248
O O4 0.247387 0.776222 0.876734
O O5 0.487870 0.329808 0.065828
O O6 0.543905 0.228563 0.063552
O O7 0.474402 0.377166 0.427354
O O8 0.938829 0.346229 0.852853
O O9 0.132310 0.422345 0.461187
O O10 0.591953 0.409943 0.872183
O O11 0.620554 0.901373 0.835172
O O12 0.125441 0.878019 0.338789
O O13 0.000000 0.000000 0.500000
O O14 0.000000 0.500000 0.500000
O O15 0.162391 0.457454 0.020156
#
# Coordination Sequence:
#
# PCOD9084355 Si02
#       7
#     2   2   2   2   2   2   2
#     4   9  22  35  62  84 114 154 190 238 287 348
#     4  11  22  40  59  86 115 160 195 241 288 356
#     4  12  26  38  60  88 117 155 204 241 296 339
#     4   9  19  36  59  85 114 152 181 238 286 341
#     4  10  19  34  63  93 110 143 196 238 277 345
#     4  12  26  39  59  86 116 156 202 258 285 333
#     4  11  22  40  61  77 119 159 200 233 301 336
#
# _framework density 18.844740999999999
#
# number of rings (size 3 to 8) (size 9 to 14) (size 15 to 20)
#    0.857    0.571    2.857    2.571    4.000    3.429 
#    0.000    0.000    0.000    1.714    0.000    0.000 
#    0.000    0.000    0.000    0.000    0.000    0.000 
#
# Total GULP energy -78066.593190 kJ/mol
# GULP energy per Si atom -5576.185228 kJ/mol
# Density = 1.880185 g / cm^3
# Si number density = 18.844741 Si / 1000 Ang^3
#
#
#
# Elastic Constant Matrix: (Units=GPa)
#
#
# Indices 1 2 3 4 5 6 
#
# 1 82.0974 26.6136 -1.0166 9.6875 -1.5396 -7.1920
# 2 26.6136 82.8202 8.2154 0.3940 0.3600 0.3629
# 3 -1.0166 8.2154 58.9165 -8.4594 -8.2244 1.1563
# 4 9.6875 0.3940 -8.4594 29.4590 1.0486 -5.1487
# 5 -1.5396 0.3600 -8.2244 1.0486 22.5125 -1.9662
# 6 -7.1920 0.3629 1.1563 -5.1487 -1.9662 11.9281
#
#
#
# Elastic Compliance Matrix: (Units=1/GPa)
#
#
# Indices 1 2 3 4 5 6 
#
# 1 0.014905 -0.004878 0.000604 -0.003343 0.002172 0.007992
# 2 -0.004878 0.013875 -0.002142 0.000284 -0.001640 -0.003303
# 3 0.000604 -0.002142 0.018985 0.005395 0.006940 0.002062
# 4 -0.003343 0.000284 0.005395 0.039086 0.001185 0.014519
# 5 0.002172 -0.001640 0.006940 0.001185 0.047869 0.009089
# 6 0.007992 -0.003303 0.002062 0.014519 0.009089 0.096320
#
#
# Mechanical properties :
#
#
# Convention : Reuss Voigt Hill
#
# Bulk Modulus (GPa) = 28.62724 32.38433 30.50579
# Shear Modulus (GPa) = 19.56823 25.44801 22.50812
#
# Velocity S-wave (km/s) = 3.22591 3.67877 3.45976
# Velocity P-wave (km/s) = 5.39438 5.93857 5.67300
#
# Compressibility (1/GPa) = 0.03493176
#
# Stress axis : x y z
#
# Youngs Moduli (GPa) = 67.09269 72.07434 52.67232
#
# Poissons Ratio (x) = 0.35157 -0.03179
# Poissons Ratio (y) = 0.32727 0.11283
# Poissons Ratio (z) = -0.04050 0.15439
#
# Static dielectric constant tensor:
#      x y z
#    x 1.652950 0.004310 -0.011800 
#    y 0.004310 1.661290 0.001600 
#    z -0.011800 0.001600 1.680030 
# 
# From -- ./inp_files/226408.got.cif
#   From: 2010.05.17/outbox.cif.g08.bks.cpg/sg2_114_cif.got.tgz:226408.got - 2010.06.03 11:33:40.
