data_PCOD9084093
_publ_section_title
;
Structure prediction by ZEFSAII (Michael W. Deem and Ramdas Pophale) SiO2 
 PCOD9084093
Probable space group: P -1
;
_chemical_formula_sum "Si O2"
_cell_formula_units_Z 16
_cell_length_a 14.213764
_cell_length_b 7.350943
_cell_length_c 10.809652
_cell_angle_alpha 140.841053
_cell_angle_beta 110.286787
_cell_angle_gamma 54.954288
_cell_volume 573.199179
_symmetry_space_group_name_H-M "P -1"
_symmetry_group_IT_number 2
_symmetry_cell_setting 'triclinic'
loop_
_space_group_symop_operation_xyz
x,y,z
-x,-y,-z
loop_
_atom_site_type_symbol
_atom_site_label
_atom_site_fract_x
_atom_site_fract_y
_atom_site_fract_z
Si Si1 0.531879 0.387913 0.797098
Si Si2 0.267385 0.561135 0.176130
Si Si3 0.142671 0.699369 0.842750
Si Si4 0.300367 0.726406 0.542806
Si Si5 0.990542 0.912160 0.649261
Si Si6 0.041554 0.361610 0.750063
Si Si7 0.721170 0.093159 0.117097
Si Si8 0.407016 0.067272 0.660981
O O1 0.639383 0.447942 0.882003
O O2 0.408435 0.726782 0.899993
O O3 0.500982 0.184434 0.774762
O O4 0.562199 0.160285 0.567451
O O5 0.315587 0.512267 0.314336
O O6 0.146876 0.912832 0.291090
O O7 0.246736 0.254682 0.989115
O O8 0.066663 0.665907 0.900720
O O9 0.178871 0.976363 0.973875
O O10 0.275891 0.383358 0.747440
O O11 0.073832 0.709368 0.693026
O O12 0.290039 0.653265 0.642660
O O13 0.172360 0.042469 0.625127
O O14 0.395540 0.842592 0.641774
O O15 0.001009 0.233789 0.781429
O O16 0.023894 0.674880 0.418749
#
# Coordination Sequence:
#
# PCOD9084093 Si02
#       8
#     2   2   2   2   2   2   2   2
#     4   9  18  36  57  83 117 157 191 243 298 338
#     4  10  22  36  57  85 122 154 193 243 289 350
#     4  10  19  34  60  88 116 155 196 241 295 350
#     4   9  18  37  59  85 116 150 196 245 289 347
#     4  10  19  35  59  85 119 158 192 237 301 348
#     4   9  18  34  58  86 120 150 192 250 286 344
#     4  11  21  36  62  85 113 160 196 235 301 346
#     4   8  17  33  60  85 113 151 196 244 292 342
#
# _framework density 27.913509999999999
#
# number of rings (size 3 to 8) (size 9 to 14) (size 15 to 20)
#    0.000    2.500    1.250    1.500    0.000    2.500 
#    0.000    1.250    8.250    0.000    0.000    0.000 
#    0.000    0.000    0.000    0.000    0.000    0.000 
#
# Total GULP energy -89431.862921 kJ/mol
# GULP energy per Si atom -5589.491433 kJ/mol
# Density = 2.784998 g / cm^3
# Si number density = 27.913510 Si / 1000 Ang^3
#
#
#
# Elastic Constant Matrix: (Units=GPa)
#
#
# Indices 1 2 3 4 5 6 
#
# 1 234.2418 27.0497 25.0070 5.4428 7.3011 11.5684
# 2 27.0497 93.8233 32.9538 -22.5110 0.9478 -2.9383
# 3 25.0070 32.9538 86.5272 -10.4163 -2.0568 4.8718
# 4 5.4428 -22.5110 -10.4163 28.7708 10.5145 2.4989
# 5 7.3011 0.9478 -2.0568 10.5145 36.7428 -0.7242
# 6 11.5684 -2.9383 4.8718 2.4989 -0.7242 39.3203
#
#
#
# Elastic Compliance Matrix: (Units=1/GPa)
#
#
# Indices 1 2 3 4 5 6 
#
# 1 0.004678 -0.001588 -0.000956 -0.002247 -0.000323 -0.001240
# 2 -0.001588 0.015606 -0.004170 0.012281 -0.003809 0.001299
# 3 -0.000956 -0.004170 0.013764 0.001881 0.000493 -0.001846
# 4 -0.002247 0.012281 0.001881 0.050914 -0.014377 -0.002155
# 5 -0.000323 -0.003809 0.000493 -0.014377 0.031545 0.001244
# 6 -0.001240 0.001299 -0.001846 -0.002155 0.001244 0.026283
#
#
# Mechanical properties :
#
#
# Convention : Reuss Voigt Hill
#
# Bulk Modulus (GPa) = 48.49487 64.95703 56.72595
# Shear Modulus (GPa) = 30.65782 42.93888 36.79835
#
# Velocity S-wave (km/s) = 3.31768 3.92635 3.63478
# Velocity P-wave (km/s) = 5.66454 6.62392 6.16292
#
# Compressibility (1/GPa) = 0.02062074
#
# Stress axis : x y z
#
# Youngs Moduli (GPa) = 213.76644 64.07590 72.65545
#
# Poissons Ratio (x) = 0.10174 0.06944
# Poissons Ratio (y) = 0.33942 0.30299
# Poissons Ratio (z) = 0.20430 0.26721
#
# Static dielectric constant tensor:
#      x y z
#    x 2.213540 0.047920 0.046300 
#    y 0.047920 2.150880 0.009540 
#    z 0.046300 0.009540 2.270170 
# 
# From -- ./inp_files/529140.got.cif
#   From: 2010.05.17/outbox.cif.g08.bks.cpg/sg2_265_cif.got.tgz:529140.got - 2010.06.03 11:33:40.
