data_PCOD9084426
_publ_section_title
;
Structure prediction by ZEFSAII (Michael W. Deem and Ramdas Pophale) SiO2 
 PCOD9084426
Probable space group: P -1
;
_chemical_formula_sum "Si O2"
_cell_formula_units_Z 15
_cell_length_a 8.582741
_cell_length_b 9.565413
_cell_length_c 15.821028
_cell_angle_alpha 127.355255
_cell_angle_beta 142.946498
_cell_angle_gamma 73.092246
_cell_volume 569.143545
_symmetry_space_group_name_H-M "P -1"
_symmetry_group_IT_number 2
_symmetry_cell_setting 'triclinic'
loop_
_space_group_symop_operation_xyz
x,y,z
-x,-y,-z
loop_
_atom_site_type_symbol
_atom_site_label
_atom_site_fract_x
_atom_site_fract_y
_atom_site_fract_z
Si Si1 0.118941 0.156462 0.243710
Si Si2 0.615554 0.038821 0.376465
Si Si3 0.288110 0.079322 0.892053
Si Si4 0.092649 0.545839 0.154214
Si Si5 0.375638 0.500229 0.617007
Si Si6 0.683248 0.285142 0.006603
Si Si7 0.500000 0.000000 0.500000
Si Si8 0.975055 0.250668 0.477457
O O1 0.388307 0.136981 0.312887
O O2 0.232957 0.333393 0.424266
O O3 0.955130 0.961352 0.157394
O O4 0.903894 0.198794 0.106269
O O5 0.916071 0.184017 0.523551
O O6 0.499167 0.862795 0.197394
O O7 0.599859 0.964301 0.436052
O O8 0.486024 0.270582 0.997838
O O9 0.122296 0.931292 0.692937
O O10 0.500000 0.000000 0.000000
O O11 0.293237 0.433264 0.219523
O O12 0.289619 0.769200 0.332913
O O13 0.000000 0.500000 0.000000
O O14 0.856023 0.476583 0.099368
O O15 0.251209 0.657232 0.606915
O O16 0.267648 0.405975 0.627364
#
# Coordination Sequence:
#
# PCOD9084426 Si02
#       8
#     2   2   2   2   2   2   1   2
#     4  10  19  34  65  98 125 163 205 263 333 377
#     4  11  21  39  62  91 126 168 213 263 312 382
#     4   8  17  35  56  92 128 156 192 254 327 388
#     4  12  25  44  64  90 128 177 223 259 306 377
#     4  10  21  39  63  97 130 164 205 267 327 382
#     4  10  21  37  63  93 124 163 209 268 321 378
#     4  12  26  44  60  88 126 178 220 264 300 372
#     4   9  20  37  62  98 127 157 206 266 331 380
#
# _framework density 26.355388000000001
#
# number of rings (size 3 to 8) (size 9 to 14) (size 15 to 20)
#    0.000    1.867    2.667    1.200    1.867    3.200 
#    0.000    2.000    0.000    1.600    0.000    0.000 
#    0.000    0.000    0.000    0.000    0.000    0.000 
#
# Total GULP energy -83726.691110 kJ/mol
# GULP energy per Si atom -5581.779407 kJ/mol
# Density = 2.629540 g / cm^3
# Si number density = 26.355388 Si / 1000 Ang^3
#
#
#
# Elastic Constant Matrix: (Units=GPa)
#
#
# Indices 1 2 3 4 5 6 
#
# 1 133.4840 47.7623 37.1065 5.5259 13.8355 66.9805
# 2 47.7623 108.0874 28.7029 -3.4391 10.7152 19.5363
# 3 37.1065 28.7029 79.6404 -0.2333 -18.1402 3.4415
# 4 5.5259 -3.4391 -0.2333 35.0955 1.5670 17.1184
# 5 13.8355 10.7152 -18.1402 1.5670 33.0666 -1.6937
# 6 66.9805 19.5363 3.4415 17.1184 -1.6937 71.8749
#
#
#
# Elastic Compliance Matrix: (Units=1/GPa)
#
#
# Indices 1 2 3 4 5 6 
#
# 1 0.029456 -0.000189 -0.017826 0.010777 -0.024074 -0.029679
# 2 -0.000189 0.012499 -0.005970 0.003478 -0.007613 -0.003943
# 3 -0.017826 -0.005970 0.028117 -0.008260 0.026207 0.019473
# 4 0.010777 0.003478 -0.008260 0.037311 -0.012949 -0.019784
# 5 -0.024074 -0.007613 0.026207 -0.012949 0.059193 0.027728
# 6 -0.029679 -0.003943 0.019473 -0.019784 0.027728 0.047076
#
#
# Mechanical properties :
#
#
# Convention : Reuss Voigt Hill
#
# Bulk Modulus (GPa) = 45.24300 60.92837 53.08569
# Shear Modulus (GPa) = 18.58818 41.85007 30.21913
#
# Velocity S-wave (km/s) = 2.65861 3.98919 3.38982
# Velocity P-wave (km/s) = 5.16024 6.66231 5.95879
#
# Compressibility (1/GPa) = 0.02210287
#
# Stress axis : x y z
#
# Youngs Moduli (GPa) = 33.94889 80.00813 35.56556
#
# Poissons Ratio (x) = 0.01510 0.63397
# Poissons Ratio (y) = 0.00641 0.21233
# Poissons Ratio (z) = 0.60516 0.47766
#
# Static dielectric constant tensor:
#      x y z
#    x 2.069930 0.014020 0.047140 
#    y 0.014020 2.151080 -0.032230 
#    z 0.047140 -0.032230 2.055760 
# 
# From -- ./inp_files/415622.got.cif
#   From: 2010.05.17/outbox.cif.g08.bks.cpg/sg2_208_cif.got.tgz:415622.got - 2010.06.03 11:33:40.
