data_PCOD9084648
_publ_section_title
;
Structure prediction by ZEFSAII (Michael W. Deem and Ramdas Pophale) SiO2 
 PCOD9084648
Probable space group: P -1
;
_chemical_formula_sum "Si O2"
_cell_formula_units_Z 12
_cell_length_a 7.886835
_cell_length_b 15.442299
_cell_length_c 5.376608
_cell_angle_alpha 126.556451
_cell_angle_beta 113.898484
_cell_angle_gamma 63.306625
_cell_volume 461.226253
_symmetry_space_group_name_H-M "P -1"
_symmetry_group_IT_number 2
_symmetry_cell_setting 'triclinic'
loop_
_space_group_symop_operation_xyz
x,y,z
-x,-y,-z
loop_
_atom_site_type_symbol
_atom_site_label
_atom_site_fract_x
_atom_site_fract_y
_atom_site_fract_z
Si Si1 0.511302 0.658172 0.809749
Si Si2 0.226383 0.553546 0.202156
Si Si3 0.415006 0.849042 0.734125
Si Si4 0.999711 0.122403 0.608392
Si Si5 0.117386 0.669925 0.826757
Si Si6 0.341848 0.074976 0.350044
O O1 0.427735 0.589871 0.427024
O O2 0.698603 0.577522 0.909420
O O3 0.528470 0.770528 0.885397
O O4 0.329994 0.686352 0.934965
O O5 0.138251 0.589791 0.942321
O O6 0.089009 0.615151 0.453139
O O7 0.214905 0.819611 0.523874
O O8 0.560075 0.839396 0.575877
O O9 0.334243 0.980791 0.980701
O O10 0.024761 0.208220 0.983892
O O11 0.148792 0.114150 0.460856
O O12 0.000000 0.000000 0.500000
O O13 0.500000 0.000000 0.500000
#
# Coordination Sequence:
#
# PCOD9084648 Si02
#       6
#     2   2   2   2   2   2
#     4   9  19  33  61  91 122 164 208 262 312 374
#     4   9  19  32  59  96 125 155 217 260 306 379
#     4  11  23  42  63  91 128 166 216 260 319 379
#     4  12  22  38  67  90 127 171 211 260 320 377
#     4  10  19  35  55  96 123 160 210 261 309 376
#     4  11  25  42  59  94 127 165 216 262 315 384
#
# _framework density 26.017600000000002
#
# number of rings (size 3 to 8) (size 9 to 14) (size 15 to 20)
#    1.000    0.667    3.333    2.000    0.000    1.333 
#    0.000    0.000    0.000    2.000    0.000    0.000 
#    0.000    0.000    0.000    0.000    0.000    0.000 
#
# Total GULP energy -67137.277771 kJ/mol
# GULP energy per Si atom -5594.773148 kJ/mol
# Density = 2.595838 g / cm^3
# Si number density = 26.017600 Si / 1000 Ang^3
#
#
#
# Elastic Constant Matrix: (Units=GPa)
#
#
# Indices 1 2 3 4 5 6 
#
# 1 168.0025 59.7139 62.5989 -3.6833 -36.5807 26.6907
# 2 59.7139 190.2417 24.7895 -10.9199 -32.8699 17.4586
# 3 62.5989 24.7895 56.1121 -16.1610 -32.2730 8.5529
# 4 -3.6833 -10.9199 -16.1610 42.8772 -1.7798 -12.6901
# 5 -36.5807 -32.8699 -32.2730 -1.7798 53.1924 -11.3240
# 6 26.6907 17.4586 8.5529 -12.6901 -11.3240 22.8161
#
#
#
# Elastic Compliance Matrix: (Units=1/GPa)
#
#
# Indices 1 2 3 4 5 6 
#
# 1 0.017331 -0.002790 -0.025258 -0.015904 -0.010501 -0.022729
# 2 -0.002790 0.006559 0.003751 0.003356 0.004748 0.001062
# 3 -0.025258 0.003751 0.071538 0.039425 0.038363 0.040828
# 4 -0.015904 0.003356 0.039425 0.051371 0.025858 0.042664
# 5 -0.010501 0.004748 0.038363 0.025858 0.045279 0.031125
# 6 -0.022729 0.001062 0.040828 0.042664 0.031125 0.093476
#
#
# Mechanical properties :
#
#
# Convention : Reuss Voigt Hill
#
# Bulk Modulus (GPa) = 21.35203 78.72901 50.04052
# Shear Modulus (GPa) = 14.29549 41.59406 27.94478
#
# Velocity S-wave (km/s) = 2.34659 4.00270 3.28086
# Velocity P-wave (km/s) = 3.94545 7.18942 5.79889
#
# Compressibility (1/GPa) = 0.04683395
#
# Stress axis : x y z
#
# Youngs Moduli (GPa) = 57.70012 152.46001 13.97855
#
# Poissons Ratio (x) = 0.42538 0.35307
# Poissons Ratio (y) = 0.16099 -0.05243
# Poissons Ratio (z) = 1.45737 -0.57183
#
# Static dielectric constant tensor:
#      x y z
#    x 1.979250 -0.002630 0.075940 
#    y -0.002630 2.035180 0.068400 
#    z 0.075940 0.068400 2.264910 
# 
# From -- ./inp_files/30822.got.cif
#   From: 2010.05.17/outbox.cif.g08.bks.cpg/sg2_16_cif.got.tgz:30822.got - 2010.06.03 11:33:40.
