data_PCOD9084686
_publ_section_title
;
Structure prediction by ZEFSAII (Michael W. Deem and Ramdas Pophale) SiO2 
 PCOD9084686
Probable space group: P -1
;
_chemical_formula_sum "Si O2"
_cell_formula_units_Z 16
_cell_length_a 7.582265
_cell_length_b 14.184289
_cell_length_c 17.126134
_cell_angle_alpha 22.853150
_cell_angle_beta 113.789272
_cell_angle_gamma 103.283316
_cell_volume 600.079548
_symmetry_space_group_name_H-M "P -1"
_symmetry_group_IT_number 2
_symmetry_cell_setting 'triclinic'
loop_
_space_group_symop_operation_xyz
x,y,z
-x,-y,-z
loop_
_atom_site_type_symbol
_atom_site_label
_atom_site_fract_x
_atom_site_fract_y
_atom_site_fract_z
Si Si1 0.060415 0.211617 0.428014
Si Si2 0.502114 0.447952 0.325948
Si Si3 0.737941 0.808050 0.279424
Si Si4 0.738664 0.794191 0.106923
Si Si5 0.665258 0.168375 0.357003
Si Si6 0.843615 0.391661 0.744107
Si Si7 0.320393 0.106318 0.266417
Si Si8 0.865697 0.184274 0.118095
O O1 0.815518 0.322291 0.278162
O O2 0.124063 0.947891 0.695133
O O3 0.116703 0.414248 0.334202
O O4 0.192496 0.099802 0.459535
O O5 0.700025 0.526199 0.288004
O O6 0.364397 0.617484 0.246328
O O7 0.572741 0.134443 0.592154
O O8 0.344942 0.569791 0.131450
O O9 0.784878 0.784357 0.214677
O O10 0.788336 0.536375 0.540949
O O11 0.866484 0.959164 0.229299
O O12 0.491246 0.980027 0.119617
O O13 0.921900 0.825357 0.064782
O O14 0.647742 0.073617 0.512876
O O15 0.452414 0.272766 0.189400
O O16 0.073501 0.242677 0.103205
#
# Coordination Sequence:
#
# PCOD9084686 Si02
#       8
#     2   2   2   2   2   2   2   2
#     4   9  17  35  56  79 109 149 185 227 277 335
#     4  11  22  37  57  87 114 143 191 234 271 334
#     4   9  20  39  59  82 114 150 183 226 278 336
#     4  10  21  39  59  83 117 147 183 232 279 327
#     4   9  17  32  59  76 107 150 184 224 284 330
#     4  11  21  36  61  84 111 150 187 227 280 331
#     4  10  19  35  56  81 111 147 182 233 282 323
#     4   9  20  37  57  78 113 147 182 231 282 328
#
# _framework density 26.663132000000001
#
# number of rings (size 3 to 8) (size 9 to 14) (size 15 to 20)
#    0.000    2.250    1.250    2.625    0.000    1.500 
#    2.250   11.875    0.000    0.000    0.000    0.000 
#    0.000    0.000    0.000    0.000    0.000    0.000 
#
# Total GULP energy -89493.169780 kJ/mol
# GULP energy per Si atom -5593.323111 kJ/mol
# Density = 2.660245 g / cm^3
# Si number density = 26.663132 Si / 1000 Ang^3
#
#
#
# Elastic Constant Matrix: (Units=GPa)
#
#
# Indices 1 2 3 4 5 6 
#
# 1 106.1060 29.1581 8.5439 -1.7347 12.4679 -2.2964
# 2 29.1581 92.2175 17.3518 11.7680 12.2997 7.0999
# 3 8.5439 17.3518 66.0748 17.4685 6.1922 -7.0947
# 4 -1.7347 11.7680 17.4685 23.8120 5.5475 2.8759
# 5 12.4679 12.2997 6.1922 5.5475 31.4984 -5.6442
# 6 -2.2964 7.0999 -7.0947 2.8759 -5.6442 51.6007
#
#
#
# Elastic Compliance Matrix: (Units=1/GPa)
#
#
# Indices 1 2 3 4 5 6 
#
# 1 0.010913 -0.003282 -0.001310 0.004174 -0.003490 0.000143
# 2 -0.003282 0.013412 -0.001869 -0.004466 -0.003205 -0.002350
# 3 -0.001310 -0.001869 0.019959 -0.014400 0.000543 0.003805
# 4 0.004174 -0.004466 -0.014400 0.057612 -0.008171 -0.005284
# 5 -0.003490 -0.003205 0.000543 -0.008171 0.036576 0.004816
# 6 0.000143 -0.002350 0.003805 -0.005284 0.004816 0.021054
#
#
# Mechanical properties :
#
#
# Convention : Reuss Voigt Hill
#
# Bulk Modulus (GPa) = 31.88670 41.61179 36.74924
# Shear Modulus (GPa) = 27.33674 35.33852 31.33763
#
# Velocity S-wave (km/s) = 3.20545 3.64451 3.43201
# Velocity P-wave (km/s) = 5.06803 5.77498 5.43301
#
# Compressibility (1/GPa) = 0.03136104
#
# Stress axis : x y z
#
# Youngs Moduli (GPa) = 91.62973 74.56168 50.10201
#
# Poissons Ratio (x) = 0.24474 0.06565
# Poissons Ratio (y) = 0.30076 0.09364
# Poissons Ratio (z) = 0.12007 0.13935
#
# Static dielectric constant tensor:
#      x y z
#    x 2.158560 0.035540 -0.030330 
#    y 0.035540 2.057740 -0.042650 
#    z -0.030330 -0.042650 2.093940 
# 
# From -- ./inp_files/214806.got.cif
#   From: 2010.05.17/outbox.cif.g08.bks.cpg/sg2_108_cif.got.tgz:214806.got - 2010.06.03 11:33:40.
