data_PCOD9084459
_publ_section_title
;
Structure prediction by ZEFSAII (Michael W. Deem and Ramdas Pophale) SiO2 
 PCOD9084459
Probable space group: P -1
;
_chemical_formula_sum "Si O2"
_cell_formula_units_Z 14
_cell_length_a 9.062096
_cell_length_b 12.234152
_cell_length_c 11.563847
_cell_angle_alpha 137.347066
_cell_angle_beta 98.952398
_cell_angle_gamma 51.808396
_cell_volume 564.839055
_symmetry_space_group_name_H-M "P -1"
_symmetry_group_IT_number 2
_symmetry_cell_setting 'triclinic'
loop_
_space_group_symop_operation_xyz
x,y,z
-x,-y,-z
loop_
_atom_site_type_symbol
_atom_site_label
_atom_site_fract_x
_atom_site_fract_y
_atom_site_fract_z
Si Si1 0.798769 0.774589 0.244058
Si Si2 0.248075 0.434921 0.752155
Si Si3 0.370129 0.620842 0.269977
Si Si4 0.440627 0.259218 0.133192
Si Si5 0.283108 0.053034 0.874321
Si Si6 0.951261 0.649758 0.500897
Si Si7 0.911407 0.956193 0.594068
O O1 0.662451 0.740585 0.263281
O O2 0.704606 0.957198 0.270163
O O3 0.874369 0.842726 0.404319
O O4 0.000000 0.500000 0.000000
O O5 0.413157 0.442215 0.744073
O O6 0.226453 0.315361 0.560761
O O7 0.986439 0.704836 0.946318
O O8 0.443773 0.381376 0.123778
O O9 0.165761 0.811515 0.486849
O O10 0.253731 0.763758 0.244764
O O11 0.193066 0.462958 0.319936
O O12 0.619664 0.145426 0.169910
O O13 0.443507 0.078279 0.940304
O O14 0.879836 0.895097 0.666321
O O15 0.000000 0.500000 0.500000
#
# Coordination Sequence:
#
# PCOD9084459 Si02
#       7
#     2   2   2   2   2   2   2
#     4   9  17  34  55  75 100 135 177 211 245 303
#     4   9  19  32  53  78 101 131 173 216 251 302
#     4  10  19  35  51  74 110 136 163 214 267 306
#     4   9  19  35  55  74 105 139 168 212 262 305
#     4   9  18  36  56  75  98 138 180 211 250 303
#     4   9  18  34  53  76 101 135 176 209 247 308
#     4   9  20  35  52  74 107 140 166 209 265 306
#
# _framework density 24.785822
#
# number of rings (size 3 to 8) (size 9 to 14) (size 15 to 20)
#    0.000    2.857    0.000    2.571    0.000    5.143 
#    0.000   14.286    0.000    3.429    0.000    0.000 
#    0.000    0.000    0.000    0.000    0.000    0.000 
#
# Total GULP energy -78044.378600 kJ/mol
# GULP energy per Si atom -5574.598471 kJ/mol
# Density = 2.472941 g / cm^3
# Si number density = 24.785822 Si / 1000 Ang^3
#
#
#
# Elastic Constant Matrix: (Units=GPa)
#
#
# Indices 1 2 3 4 5 6 
#
# 1 164.7977 51.4519 14.3706 1.9832 -11.1217 22.5566
# 2 51.4519 171.4288 18.7815 3.7316 -1.8162 32.9479
# 3 14.3706 18.7815 51.2487 12.8969 -12.5937 -2.7223
# 4 1.9832 3.7316 12.8969 28.6861 -6.1154 -3.4491
# 5 -11.1217 -1.8162 -12.5937 -6.1154 20.9749 12.2573
# 6 22.5566 32.9479 -2.7223 -3.4491 12.2573 54.7815
#
#
#
# Elastic Compliance Matrix: (Units=1/GPa)
#
#
# Indices 1 2 3 4 5 6 
#
# 1 0.007416 -0.001467 -0.000497 0.000708 0.005718 -0.003431
# 2 -0.001467 0.007322 -0.002237 -0.000154 0.000874 -0.004116
# 3 -0.000497 -0.002237 0.025759 -0.008587 0.012847 -0.000584
# 4 0.000708 -0.000154 -0.008587 0.040165 0.006678 0.000409
# 5 0.005718 0.000874 0.012847 0.006678 0.070760 -0.017654
# 6 -0.003431 -0.004116 -0.000584 0.000409 -0.017654 0.026090
#
#
# Mechanical properties :
#
#
# Convention : Reuss Voigt Hill
#
# Bulk Modulus (GPa) = 31.15796 61.85367 46.50582
# Shear Modulus (GPa) = 25.43058 41.07993 33.25525
#
# Velocity S-wave (km/s) = 3.20662 4.07553 3.66690
# Velocity P-wave (km/s) = 5.12914 6.86702 6.06070
#
# Compressibility (1/GPa) = 0.03209452
#
# Stress axis : x y z
#
# Youngs Moduli (GPa) = 134.83621 136.56600 38.82152
#
# Poissons Ratio (x) = 0.20032 0.01931
# Poissons Ratio (y) = 0.19778 0.08686
# Poissons Ratio (z) = 0.06706 0.30556
#
# Static dielectric constant tensor:
#      x y z
#    x 1.952240 0.048840 -0.006550 
#    y 0.048840 2.112290 0.007580 
#    z -0.006550 0.007580 2.107880 
# 
# From -- ./inp_files/183032.got.cif
#   From: 2010.05.17/outbox.cif.g08.bks.cpg/sg2_92_cif.got.tgz:183032.got - 2010.06.03 11:33:40.
