data_PCOD9084036
_publ_section_title
;
Structure prediction by ZEFSAII (Michael W. Deem and Ramdas Pophale) SiO2 
 PCOD9084036
Probable space group: P -1
;
_chemical_formula_sum "Si O2"
_cell_formula_units_Z 16
_cell_length_a 11.743124
_cell_length_b 18.814727
_cell_length_c 13.943370
_cell_angle_alpha 29.375796
_cell_angle_beta 149.533680
_cell_angle_gamma 147.955532
_cell_volume 706.154186
_symmetry_space_group_name_H-M "P -1"
_symmetry_group_IT_number 2
_symmetry_cell_setting 'triclinic'
loop_
_space_group_symop_operation_xyz
x,y,z
-x,-y,-z
loop_
_atom_site_type_symbol
_atom_site_label
_atom_site_fract_x
_atom_site_fract_y
_atom_site_fract_z
Si Si1 0.624788 0.639291 0.183435
Si Si2 0.197507 0.023657 0.334525
Si Si3 0.680120 0.178335 0.032177
Si Si4 0.215680 0.352052 0.297709
Si Si5 0.748141 0.706212 0.398487
Si Si6 0.971870 0.742661 0.149075
Si Si7 0.334630 0.008585 0.232792
Si Si8 0.407536 0.814736 0.259045
O O1 0.355627 0.508015 0.154298
O O2 0.764103 0.636206 0.388086
O O3 0.773001 0.624535 0.214519
O O4 0.613802 0.811273 0.965673
O O5 0.425198 0.029290 0.555036
O O6 0.956049 0.879629 0.359359
O O7 0.252700 0.984297 0.312540
O O8 0.158500 0.185458 0.107549
O O9 0.939391 0.258730 0.175944
O O10 0.533986 0.996613 0.168713
O O11 0.502868 0.268268 0.816956
O O12 0.705856 0.181328 0.932281
O O13 0.233150 0.386009 0.384743
O O14 0.380515 0.250185 0.520866
O O15 0.186311 0.710819 0.289183
O O16 0.122205 0.890662 0.152799
#
# Coordination Sequence:
#
# PCOD9084036 Si02
#       8
#     2   2   2   2   2   2   2   2
#     4  11  22  42  59  91 133 157 191 248 304 371
#     4  10  19  34  59  94 118 148 201 245 299 352
#     4  10  22  43  62  86 119 158 208 257 293 345
#     4  11  26  40  59  89 124 169 202 236 301 362
#     4  11  21  39  61  91 123 157 199 248 301 359
#     4  11  20  40  66  89 123 155 197 258 300 345
#     4  10  20  36  61  92 121 156 195 245 306 359
#     4  10  22  41  64  87 114 160 210 255 292 346
#
# _framework density 22.65794
#
# number of rings (size 3 to 8) (size 9 to 14) (size 15 to 20)
#    0.000    1.500    3.750    1.500    3.500    2.000 
#    4.500    0.625    0.000    0.000    0.000    0.000 
#    0.000    0.000    0.000    0.000    0.000    0.000 
#
# Total GULP energy -89490.959580 kJ/mol
# GULP energy per Si atom -5593.184974 kJ/mol
# Density = 2.260637 g / cm^3
# Si number density = 22.657940 Si / 1000 Ang^3
#
#
#
# Elastic Constant Matrix: (Units=GPa)
#
#
# Indices 1 2 3 4 5 6 
#
# 1 99.3807 28.8602 28.0367 6.8660 -18.5273 32.5061
# 2 28.8602 72.4731 50.8168 3.5731 -2.2964 23.2177
# 3 28.0367 50.8168 98.9507 27.9005 -2.8152 12.0563
# 4 6.8660 3.5731 27.9005 39.9144 11.2316 -0.5164
# 5 -18.5273 -2.2964 -2.8152 11.2316 23.3625 -1.7265
# 6 32.5061 23.2177 12.0563 -0.5164 -1.7265 33.0005
#
#
#
# Elastic Compliance Matrix: (Units=1/GPa)
#
#
# Indices 1 2 3 4 5 6 
#
# 1 0.020808 -0.001441 0.000343 -0.009434 0.019553 -0.018733
# 2 -0.001441 0.029262 -0.016111 0.010471 -0.006235 -0.013445
# 3 0.000343 -0.016111 0.023220 -0.017680 0.010191 0.002771
# 4 -0.009434 0.010471 -0.017680 0.046782 -0.030518 0.007521
# 5 0.019553 -0.006235 0.010191 -0.030518 0.072467 -0.015282
# 6 -0.018733 -0.013445 0.002771 0.007521 -0.015282 0.056520
#
#
# Mechanical properties :
#
#
# Convention : Reuss Voigt Hill
#
# Bulk Modulus (GPa) = 25.72495 54.02578 39.87537
# Shear Modulus (GPa) = 16.86709 30.12819 23.49764
#
# Velocity S-wave (km/s) = 2.73137 3.65046 3.22384
# Velocity P-wave (km/s) = 4.61795 6.45474 5.61200
#
# Compressibility (1/GPa) = 0.03887276
#
# Stress axis : x y z
#
# Youngs Moduli (GPa) = 48.05812 34.17370 43.06591
#
# Poissons Ratio (x) = 0.04923 -0.01477
# Poissons Ratio (y) = 0.06924 0.69384
# Poissons Ratio (z) = -0.01648 0.55058
#
# Static dielectric constant tensor:
#      x y z
#    x 1.919390 0.010230 0.004720 
#    y 0.010230 1.819570 -0.019470 
#    z 0.004720 -0.019470 1.832460 
# 
# From -- ./inp_files/433203.got.cif
#   From: 2010.05.17/outbox.cif.g08.bks.cpg/sg2_217_cif.got.tgz:433203.got - 2010.06.03 11:33:40.
