data_PCOD9084959
_publ_section_title
;
Structure prediction by ZEFSAII (Michael W. Deem and Ramdas Pophale) SiO2 
 PCOD9084959
Probable space group: P -1
;
_chemical_formula_sum "Si O2"
_cell_formula_units_Z 16
_cell_length_a 19.569083
_cell_length_b 14.159251
_cell_length_c 7.897009
_cell_angle_alpha 46.505070
_cell_angle_beta 31.972038
_cell_angle_gamma 43.938104
_cell_volume 785.892072
_symmetry_space_group_name_H-M "P -1"
_symmetry_group_IT_number 2
_symmetry_cell_setting 'triclinic'
loop_
_space_group_symop_operation_xyz
x,y,z
-x,-y,-z
loop_
_atom_site_type_symbol
_atom_site_label
_atom_site_fract_x
_atom_site_fract_y
_atom_site_fract_z
Si Si1 0.352076 0.618772 0.637330
Si Si2 0.869576 0.394230 0.337908
Si Si3 0.535536 0.850591 0.693385
Si Si4 0.602467 0.119012 0.682817
Si Si5 0.848110 0.517062 0.851237
Si Si6 0.181557 0.299031 0.835943
Si Si7 0.686083 0.817309 0.936682
Si Si8 0.603745 0.353406 0.888666
O O1 0.500000 0.500000 0.500000
O O2 0.337567 0.757739 0.598440
O O3 0.358691 0.641644 0.394084
O O4 0.229871 0.561811 0.999876
O O5 0.838778 0.537345 0.330403
O O6 0.751405 0.328737 0.697221
O O7 0.857805 0.452993 0.098200
O O8 0.028034 0.295994 0.150130
O O9 0.700600 0.778978 0.448650
O O10 0.500000 0.000000 0.500000
O O11 0.467247 0.865964 0.002439
O O12 0.474358 0.756686 0.818986
O O13 0.478371 0.147752 0.775011
O O14 0.703312 0.959062 0.660583
O O15 0.000000 0.500000 0.500000
O O16 0.756760 0.679273 0.850050
O O17 0.250164 0.227637 0.956486
O O18 0.500000 0.500000 0.000000
#
# Coordination Sequence:
#
# PCOD9084959 Si02
#       8
#     2   2   2   2   2   2   2   2
#     4  10  20  36  57  85 112 144 188 240 277 329
#     4   9  20  36  57  83 113 150 188 236 284 334
#     4  11  21  34  59  87 112 146 191 234 278 343
#     4  10  21  35  59  85 115 148 190 235 289 327
#     4  10  21  36  59  83 113 150 190 233 285 340
#     4  10  19  35  58  81 114 146 190 234 282 333
#     4  10  20  37  57  81 114 151 187 233 285 335
#     4  10  20  36  58  84 113 145 189 235 280 334
#
# _framework density 20.359030000000001
#
# number of rings (size 3 to 8) (size 9 to 14) (size 15 to 20)
#    0.000    2.000    3.750    0.000    1.750    0.000 
#    2.250    1.250    0.000    0.000    0.000    0.000 
#    0.000    0.000    0.000    0.000    0.000    0.000 
#
# Total GULP energy -89275.885684 kJ/mol
# GULP energy per Si atom -5579.742855 kJ/mol
# Density = 2.031269 g / cm^3
# Si number density = 20.359030 Si / 1000 Ang^3
#
#
#
# Elastic Constant Matrix: (Units=GPa)
#
#
# Indices 1 2 3 4 5 6 
#
# 1 72.1638 37.7589 33.8526 -11.8036 -26.9234 -9.4707
# 2 37.7589 111.2453 51.3879 -19.7960 -26.2955 -3.7415
# 3 33.8526 51.3879 95.0949 -4.6895 -34.7240 -4.1435
# 4 -11.8036 -19.7960 -4.6895 25.8581 2.4196 -11.0174
# 5 -26.9234 -26.2955 -34.7240 2.4196 39.0770 -2.1643
# 6 -9.4707 -3.7415 -4.1435 -11.0174 -2.1643 29.4746
#
#
#
# Elastic Compliance Matrix: (Units=1/GPa)
#
#
# Indices 1 2 3 4 5 6 
#
# 1 0.025152 -0.001104 -0.001437 0.015139 0.015176 0.014513
# 2 -0.001104 0.015242 -0.005459 0.012202 0.004204 0.005682
# 3 -0.001437 -0.005459 0.018237 -0.001973 0.011749 0.001534
# 4 0.015139 0.012202 -0.001973 0.066937 0.014528 0.032223
# 5 0.015176 0.004204 0.011749 0.014528 0.049309 0.016113
# 6 0.014513 0.005682 0.001534 0.032223 0.016113 0.052756
#
#
# Mechanical properties :
#
#
# Convention : Reuss Voigt Hill
#
# Bulk Modulus (GPa) = 23.45699 58.27809 40.86754
# Shear Modulus (GPa) = 19.39175 29.24893 24.32034
#
# Velocity S-wave (km/s) = 3.08959 3.79444 3.46001
# Velocity P-wave (km/s) = 4.92687 6.91985 6.00660
#
# Compressibility (1/GPa) = 0.04263122
#
# Stress axis : x y z
#
# Youngs Moduli (GPa) = 39.75850 65.60913 54.83348
#
# Poissons Ratio (x) = 0.07244 0.07877
# Poissons Ratio (y) = 0.04390 0.29933
# Poissons Ratio (z) = 0.05712 0.35816
#
# Static dielectric constant tensor:
#      x y z
#    x 1.780110 0.013210 -0.004540 
#    y 0.013210 1.708600 -0.012330 
#    z -0.004540 -0.012330 1.776010 
# 
# From -- ./inp_files/346068.got.cif
#   From: 2010.05.17/outbox.cif.g08.bks.cpg/sg2_174_cif.got.tgz:346068.got - 2010.06.03 11:33:40.
