data_PCOD9084708
_publ_section_title
;
Structure prediction by ZEFSAII (Michael W. Deem and Ramdas Pophale) SiO2 
 PCOD9084708
Probable space group: P -1
;
_chemical_formula_sum "Si O2"
_cell_formula_units_Z 14
_cell_length_a 9.215699
_cell_length_b 5.393556
_cell_length_c 18.052236
_cell_angle_alpha 63.365707
_cell_angle_beta 137.039278
_cell_angle_gamma 107.731820
_cell_volume 546.206494
_symmetry_space_group_name_H-M "P -1"
_symmetry_group_IT_number 2
_symmetry_cell_setting 'triclinic'
loop_
_space_group_symop_operation_xyz
x,y,z
-x,-y,-z
loop_
_atom_site_type_symbol
_atom_site_label
_atom_site_fract_x
_atom_site_fract_y
_atom_site_fract_z
Si Si1 0.653580 0.479081 0.373606
Si Si2 0.224690 0.080567 0.151838
Si Si3 0.611152 0.694816 0.575555
Si Si4 0.883998 0.303009 0.245891
Si Si5 0.342433 0.699857 0.112914
Si Si6 0.276919 0.982658 0.627767
Si Si7 0.821674 0.955383 0.120902
O O1 0.441136 0.426927 0.347172
O O2 0.568747 0.619759 0.246905
O O3 0.778930 0.195875 0.439924
O O4 0.786114 0.695448 0.439233
O O5 0.231959 0.410187 0.093240
O O6 0.465356 0.022595 0.279079
O O7 0.046857 0.009896 0.154657
O O8 0.216154 0.886832 0.102021
O O9 0.500000 0.500000 0.500000
O O10 0.860189 0.695932 0.654673
O O11 0.500000 0.000000 0.500000
O O12 0.791815 0.165178 0.303483
O O13 0.828217 0.115964 0.179435
O O14 0.803479 0.624304 0.164309
O O15 0.348691 0.889105 0.017715
#
# Coordination Sequence:
#
# PCOD9084708 Si02
#       7
#     2   2   2   2   2   2   2
#     4  10  21  43  66  89 128 171 207 254 307 371
#     4  10  19  35  56  84 121 169 212 249 294 359
#     4  12  26  47  71  96 120 157 209 265 320 375
#     4  12  25  42  63  95 131 162 204 264 311 360
#     4  10  20  35  62  95 124 167 218 251 293 364
#     4  10  21  40  63  90 128 170 204 250 314 369
#     4  12  22  38  64  95 128 170 213 255 298 358
#
# _framework density 25.631329999999998
#
# number of rings (size 3 to 8) (size 9 to 14) (size 15 to 20)
#    0.000    1.143    0.000    8.571    0.000    0.000 
#    0.000   21.429    0.000    0.000    0.000    0.000 
#    0.000    0.000    0.000    0.000    0.000    0.000 
#
# Total GULP energy -78459.983647 kJ/mol
# GULP energy per Si atom -5604.284546 kJ/mol
# Density = 2.557299 g / cm^3
# Si number density = 25.631330 Si / 1000 Ang^3
#
#
#
# Elastic Constant Matrix: (Units=GPa)
#
#
# Indices 1 2 3 4 5 6 
#
# 1 123.8010 56.2258 19.1760 11.6004 -29.9182 -5.6301
# 2 56.2258 229.9366 24.2632 -27.0762 -24.1852 -50.2616
# 3 19.1760 24.2632 80.4164 -2.3933 -3.1173 -4.6063
# 4 11.6004 -27.0762 -2.3933 33.5332 10.7105 -7.7293
# 5 -29.9182 -24.1852 -3.1173 10.7105 38.4766 5.8509
# 6 -5.6301 -50.2616 -4.6063 -7.7293 5.8509 59.2256
#
#
#
# Elastic Compliance Matrix: (Units=1/GPa)
#
#
# Indices 1 2 3 4 5 6 
#
# 1 0.015419 -0.005403 -0.002368 -0.015837 0.013834 -0.006737
# 2 -0.005403 0.008681 -0.000610 0.011941 -0.003441 0.008705
# 3 -0.002368 -0.000610 0.013215 0.002021 -0.001827 0.000729
# 4 -0.015837 0.011941 0.002021 0.056778 -0.023262 0.018493
# 5 0.013834 -0.003441 -0.001827 -0.023262 0.042273 -0.008959
# 6 -0.006737 0.008705 0.000729 0.018493 -0.008959 0.026987
#
#
# Mechanical properties :
#
#
# Convention : Reuss Voigt Hill
#
# Bulk Modulus (GPa) = 48.65320 70.38709 59.52015
# Shear Modulus (GPa) = 26.74284 48.54635 37.64460
#
# Velocity S-wave (km/s) = 3.23362 4.35676 3.83651
# Velocity P-wave (km/s) = 5.74150 7.26839 6.54959
#
# Compressibility (1/GPa) = 0.02055363
#
# Stress axis : x y z
#
# Youngs Moduli (GPa) = 64.85618 115.18790 75.67113
#
# Poissons Ratio (x) = 0.62234 0.17916
# Poissons Ratio (y) = 0.35041 0.04619
# Poissons Ratio (z) = 0.15355 0.07031
#
# Static dielectric constant tensor:
#      x y z
#    x 1.980660 -0.028850 0.014190 
#    y -0.028850 2.083270 -0.018870 
#    z 0.014190 -0.018870 2.028200 
# 
# From -- ./inp_files/547963.got.cif
#   From: 2010.05.17/outbox.cif.g08.bks.cpg/sg2_274_cif.got.tgz:547963.got - 2010.06.03 11:33:40.
