data_PCOD9084838
_publ_section_title
;
Structure prediction by ZEFSAII (Michael W. Deem and Ramdas Pophale) SiO2 
 PCOD9084838
Probable space group: P -1
;
_chemical_formula_sum "Si O2"
_cell_formula_units_Z 16
_cell_length_a 19.873626
_cell_length_b 13.851457
_cell_length_c 10.442149
_cell_angle_alpha 28.399816
_cell_angle_beta 33.595448
_cell_angle_gamma 35.872888
_cell_volume 722.857256
_symmetry_space_group_name_H-M "P -1"
_symmetry_group_IT_number 2
_symmetry_cell_setting 'triclinic'
loop_
_space_group_symop_operation_xyz
x,y,z
-x,-y,-z
loop_
_atom_site_type_symbol
_atom_site_label
_atom_site_fract_x
_atom_site_fract_y
_atom_site_fract_z
Si Si1 0.406238 0.220115 0.052871
Si Si2 0.178196 0.696164 0.250685
Si Si3 0.067306 0.316994 0.205738
Si Si4 0.984480 0.235345 0.795103
Si Si5 0.350541 0.979510 0.671474
Si Si6 0.845901 0.504831 0.893732
Si Si7 0.661278 0.947093 0.916697
Si Si8 0.378568 0.267738 0.516802
O O1 0.303818 0.451096 0.941239
O O2 0.362825 0.103917 0.133854
O O3 0.380967 0.121102 0.343458
O O4 0.557580 0.172649 0.850305
O O5 0.136731 0.631722 0.253204
O O6 0.283116 0.498097 0.376212
O O7 0.047709 0.751563 0.471166
O O8 0.233409 0.893728 0.925242
O O9 0.125843 0.445180 0.066062
O O10 0.188174 0.112706 0.223347
O O11 0.000000 0.500000 0.000000
O O12 0.936903 0.283943 0.957302
O O13 0.100993 0.323488 0.470193
O O14 0.000000 0.000000 0.000000
O O15 0.477243 0.776601 0.709043
O O16 0.333383 0.103343 0.688661
O O17 0.620747 0.793237 0.263571
#
# Coordination Sequence:
#
# PCOD9084838 Si02
#       8
#     2   2   2   2   2   2   2   2
#     4   9  17  34  60  86 115 154 204 244 296 354
#     4  11  21  34  60  83 116 153 195 248 298 355
#     4  10  19  35  57  83 119 162 201 240 299 359
#     4  10  20  34  54  86 118 147 191 247 300 350
#     4  10  21  35  58  90 116 150 198 250 297 359
#     4   9  19  34  57  83 112 155 195 239 294 353
#     4   9  18  34  59  85 115 162 201 240 295 364
#     4  10  20  37  59  84 120 155 194 243 304 357
#
# _framework density 22.134383
#
# number of rings (size 3 to 8) (size 9 to 14) (size 15 to 20)
#    0.000    2.250    1.250    1.875    0.000    2.000 
#    0.000    0.625    8.250    0.000    0.000   31.500 
#    0.000    0.000    0.000    0.000    0.000    0.125 
#
# Total GULP energy -89179.368809 kJ/mol
# GULP energy per Si atom -5573.710551 kJ/mol
# Density = 2.208400 g / cm^3
# Si number density = 22.134383 Si / 1000 Ang^3
#
#
#
# Elastic Constant Matrix: (Units=GPa)
#
#
# Indices 1 2 3 4 5 6 
#
# 1 77.0577 24.3125 12.1622 7.3515 6.3033 -14.9162
# 2 24.3125 116.2090 19.9690 18.6392 -7.1872 -17.3953
# 3 12.1622 19.9690 49.2091 9.7107 -13.9086 0.8772
# 4 7.3515 18.6392 9.7107 25.6473 -6.7672 -4.7334
# 5 6.3033 -7.1872 -13.9086 -6.7672 28.6535 6.6668
# 6 -14.9162 -17.3953 0.8772 -4.7334 6.6668 35.6558
#
#
#
# Elastic Compliance Matrix: (Units=1/GPa)
#
#
# Indices 1 2 3 4 5 6 
#
# 1 0.016921 -0.001524 -0.005855 -0.002545 -0.009385 0.007896
# 2 -0.001524 0.010982 -0.003251 -0.005757 -0.000822 0.004190
# 3 -0.005855 -0.003251 0.028335 -0.004195 0.015124 -0.008117
# 4 -0.002545 -0.005757 -0.004195 0.047833 0.008130 0.001060
# 5 -0.009385 -0.000822 0.015124 0.008130 0.048993 -0.012781
# 6 0.007896 0.004190 -0.008117 0.001060 -0.012781 0.036123
#
#
# Mechanical properties :
#
#
# Convention : Reuss Voigt Hill
#
# Bulk Modulus (GPa) = 28.58887 39.48480 34.03684
# Shear Modulus (GPa) = 22.51159 30.39345 26.45252
#
# Velocity S-wave (km/s) = 3.19257 3.70960 3.46075
# Velocity P-wave (km/s) = 5.15112 6.01877 5.60177
#
# Compressibility (1/GPa) = 0.03497864
#
# Stress axis : x y z
#
# Youngs Moduli (GPa) = 59.09742 91.05395 35.29205
#
# Poissons Ratio (x) = 0.13881 0.20662
# Poissons Ratio (y) = 0.09009 0.11473
# Poissons Ratio (z) = 0.34600 0.29601
#
# Static dielectric constant tensor:
#      x y z
#    x 1.878520 -0.023720 0.012480 
#    y -0.023720 1.913770 0.008500 
#    z 0.012480 0.008500 1.804340 
# 
# From -- ./inp_files/471479.got.cif
#   From: 2010.05.17/outbox.cif.g08.bks.cpg/sg2_236_cif.got.tgz:471479.got - 2010.06.03 11:33:40.
