data_PCOD9084391
_publ_section_title
;
Structure prediction by ZEFSAII (Michael W. Deem and Ramdas Pophale) SiO2 
 PCOD9084391
Probable space group: P -1
;
_chemical_formula_sum "Si O2"
_cell_formula_units_Z 16
_cell_length_a 10.746411
_cell_length_b 8.036717
_cell_length_c 8.335965
_cell_angle_alpha 108.019151
_cell_angle_beta 60.507480
_cell_angle_gamma 107.387433
_cell_volume 586.503745
_symmetry_space_group_name_H-M "P -1"
_symmetry_group_IT_number 2
_symmetry_cell_setting 'triclinic'
loop_
_space_group_symop_operation_xyz
x,y,z
-x,-y,-z
loop_
_atom_site_type_symbol
_atom_site_label
_atom_site_fract_x
_atom_site_fract_y
_atom_site_fract_z
Si Si1 0.948903 0.558971 0.353207
Si Si2 0.598762 0.391543 0.103290
Si Si3 0.741220 0.676107 0.306540
Si Si4 0.083157 0.796331 0.619999
Si Si5 0.816657 0.963442 0.829098
Si Si6 0.588055 0.915375 0.710302
Si Si7 0.298518 0.458041 0.234938
Si Si8 0.690081 0.997105 0.240995
O O1 0.900262 0.658257 0.262180
O O2 0.986947 0.363110 0.259619
O O3 0.801677 0.512196 0.542919
O O4 0.053860 0.694259 0.439133
O O5 0.675327 0.475605 0.239247
O O6 0.521253 0.190702 0.119707
O O7 0.465902 0.497381 0.192288
O O8 0.701457 0.432983 0.897145
O O9 0.649900 0.763995 0.523674
O O10 0.726726 0.805257 0.206428
O O11 0.238672 0.881404 0.619172
O O12 0.985524 0.949366 0.711993
O O13 0.731053 0.014595 0.741934
O O14 0.744351 0.753413 0.830063
O O15 0.779931 0.059626 0.041531
O O16 0.478123 0.005203 0.697928
#
# Coordination Sequence:
#
# PCOD9084391 Si02
#       8
#     2   2   2   2   2   2   2   2
#     4  10  21  42  68  89 123 163 210 264 307 364
#     4  10  19  34  64  90 122 160 208 254 311 357
#     4  12  22  38  61  96 131 161 203 264 308 370
#     4  10  22  42  70  87 119 169 217 251 314 365
#     4  10  20  45  63  87 130 165 203 260 314 363
#     4  11  23  41  62  94 127 167 208 255 312 368
#     4   9  18  36  63  90 119 160 204 254 311 357
#     4  12  25  38  64  94 129 168 208 249 313 382
#
# _framework density 27.280304000000001
#
# number of rings (size 3 to 8) (size 9 to 14) (size 15 to 20)
#    0.000    1.500    5.000    2.250    1.750    0.500 
#    0.000    0.625   11.000    0.000    0.000    0.000 
#    0.000    0.000    0.000    0.000    0.000    0.000 
#
# Total GULP energy -89451.837595 kJ/mol
# GULP energy per Si atom -5590.739850 kJ/mol
# Density = 2.721821 g / cm^3
# Si number density = 27.280304 Si / 1000 Ang^3
#
#
#
# Elastic Constant Matrix: (Units=GPa)
#
#
# Indices 1 2 3 4 5 6 
#
# 1 209.8016 52.2181 39.7894 7.5468 22.6723 -30.0046
# 2 52.2181 107.7119 -7.8841 2.1086 6.8460 0.6031
# 3 39.7894 -7.8841 70.5361 -0.6288 0.7622 -1.0396
# 4 7.5468 2.1086 -0.6288 33.9387 -1.9493 -2.1965
# 5 22.6723 6.8460 0.7622 -1.9493 36.3456 -2.1946
# 6 -30.0046 0.6031 -1.0396 -2.1965 -2.1946 44.9119
#
#
#
# Elastic Compliance Matrix: (Units=1/GPa)
#
#
# Indices 1 2 3 4 5 6 
#
# 1 0.007795 -0.003881 -0.004731 -0.001482 -0.003816 0.004891
# 2 -0.003881 0.011428 0.003427 0.000046 0.000038 -0.002663
# 3 -0.004731 0.003427 0.017179 0.001091 0.001843 -0.002665
# 4 -0.001482 0.000046 0.001091 0.029998 0.002540 0.000625
# 5 -0.003816 0.000038 0.001843 0.002540 0.029929 -0.000921
# 6 0.004891 -0.002663 -0.002665 0.000625 -0.000921 0.025493
#
#
# Mechanical properties :
#
#
# Convention : Reuss Voigt Hill
#
# Bulk Modulus (GPa) = 38.41215 61.81070 50.11142
# Shear Modulus (GPa) = 35.49402 43.30099 39.39750
#
# Velocity S-wave (km/s) = 3.61097 3.98837 3.80435
# Velocity P-wave (km/s) = 5.61218 6.62693 6.14056
#
# Compressibility (1/GPa) = 0.02603343
#
# Stress axis : x y z
#
# Youngs Moduli (GPa) = 128.29116 87.50493 58.20945
#
# Poissons Ratio (x) = 0.33960 0.27537
# Poissons Ratio (y) = 0.49789 -0.19950
# Poissons Ratio (z) = 0.60691 -0.29991
#
# Static dielectric constant tensor:
#      x y z
#    x 2.195870 -0.095820 -0.018300 
#    y -0.095820 2.198230 -0.028060 
#    z -0.018300 -0.028060 2.130580 
# 
# From -- ./inp_files/240271.got.cif
#   From: 2010.05.17/outbox.cif.g08.bks.cpg/sg2_121_cif.got.tgz:240271.got - 2010.06.03 11:33:40.
