data_PCOD9084511
_publ_section_title
;
Structure prediction by ZEFSAII (Michael W. Deem and Ramdas Pophale) SiO2 
 PCOD9084511
Probable space group: P -1
;
_chemical_formula_sum "Si O2"
_cell_formula_units_Z 16
_cell_length_a 11.916871
_cell_length_b 22.643224
_cell_length_c 8.093877
_cell_angle_alpha 137.066367
_cell_angle_beta 49.632499
_cell_angle_gamma 149.442998
_cell_volume 755.377703
_symmetry_space_group_name_H-M "P -1"
_symmetry_group_IT_number 2
_symmetry_cell_setting 'triclinic'
loop_
_space_group_symop_operation_xyz
x,y,z
-x,-y,-z
loop_
_atom_site_type_symbol
_atom_site_label
_atom_site_fract_x
_atom_site_fract_y
_atom_site_fract_z
Si Si1 0.658690 0.548237 0.200255
Si Si2 0.553440 0.400316 0.681831
Si Si3 0.833072 0.300409 0.560776
Si Si4 0.496132 0.298357 0.974396
Si Si5 0.597924 0.135473 0.135899
Si Si6 0.250051 0.130864 0.572780
Si Si7 0.770455 0.410391 0.241202
Si Si8 0.856363 0.258440 0.798521
O O1 0.512405 0.567942 0.343494
O O2 0.904354 0.680622 0.293269
O O3 0.674501 0.510858 0.927771
O O4 0.537660 0.418835 0.152686
O O5 0.339025 0.259603 0.671906
O O6 0.710710 0.393779 0.454110
O O7 0.688777 0.325253 0.759176
O O8 0.790248 0.240053 0.300827
O O9 0.766507 0.211935 0.600949
O O10 0.082321 0.442004 0.638574
O O11 0.287693 0.167237 0.807673
O O12 0.547462 0.303541 0.127230
O O13 0.407297 0.123320 0.334512
O O14 0.693832 0.172051 0.932092
O O15 0.500000 0.000000 0.000000
O O16 0.000000 0.000000 0.500000
O O17 0.903897 0.382300 0.022626
#
# Coordination Sequence:
#
# PCOD9084511 Si02
#       8
#     2   2   2   2   2   2   2   2
#     4  10  19  35  53  88 117 150 180 236 299 342
#     4  10  22  33  56  83 119 152 192 233 288 352
#     4  10  20  37  63  93 120 148 185 246 304 345
#     4   9  18  35  60  83 118 145 181 240 289 346
#     4  11  25  40  61  87 113 157 208 241 277 345
#     4  10  22  42  57  76 114 162 196 235 285 338
#     4  11  18  36  61  93 114 145 189 238 307 355
#     4  11  20  37  65  87 119 149 192 243 300 347
#
# _framework density 21.181456000000001
#
# number of rings (size 3 to 8) (size 9 to 14) (size 15 to 20)
#    0.000    1.750    3.750    1.500    1.750    2.000 
#    2.250    0.625    0.000    0.000    0.000    0.000 
#    0.000    0.000    0.000    0.000    0.000    0.000 
#
# Total GULP energy -89138.122145 kJ/mol
# GULP energy per Si atom -5571.132634 kJ/mol
# Density = 2.113325 g / cm^3
# Si number density = 21.181456 Si / 1000 Ang^3
#
#
#
# Elastic Constant Matrix: (Units=GPa)
#
#
# Indices 1 2 3 4 5 6 
#
# 1 73.6007 20.0656 3.7674 10.2423 7.9716 -2.7220
# 2 20.0656 72.5581 13.5601 9.7672 18.1963 -3.8198
# 3 3.7674 13.5601 40.9784 4.6677 9.6730 -0.8922
# 4 10.2423 9.7672 4.6677 26.2397 -3.3282 4.1315
# 5 7.9716 18.1963 9.6730 -3.3282 28.0957 2.4099
# 6 -2.7220 -3.8198 -0.8922 4.1315 2.4099 31.8171
#
#
#
# Elastic Compliance Matrix: (Units=1/GPa)
#
#
# Indices 1 2 3 4 5 6 
#
# 1 0.015612 -0.002554 0.001128 -0.006205 -0.004086 0.002176
# 2 -0.002554 0.019266 -0.002252 -0.007958 -0.012263 0.003994
# 3 0.001128 -0.002252 0.028008 -0.006111 -0.009410 0.002118
# 4 -0.006205 -0.007958 -0.006111 0.047971 0.015478 -0.009059
# 5 -0.004086 -0.012263 -0.009410 0.015478 0.050446 -0.007916
# 6 0.002176 0.003994 0.002118 -0.009059 -0.007916 0.033931
#
#
# Mechanical properties :
#
#
# Convention : Reuss Voigt Hill
#
# Bulk Modulus (GPa) = 18.00823 29.10259 23.55541
# Shear Modulus (GPa) = 22.61423 27.21344 24.91384
#
# Velocity S-wave (km/s) = 3.27103 3.58827 3.43331
# Velocity P-wave (km/s) = 4.77352 5.56211 5.18283
#
# Compressibility (1/GPa) = 0.05553018
#
# Stress axis : x y z
#
# Youngs Moduli (GPa) = 64.05433 51.90471 35.70392
#
# Poissons Ratio (x) = 0.13256 -0.04029
# Poissons Ratio (y) = 0.16358 0.08042
# Poissons Ratio (z) = -0.07228 0.11691
#
# Static dielectric constant tensor:
#      x y z
#    x 1.855720 -0.034800 0.027770 
#    y -0.034800 1.751210 -0.015040 
#    z 0.027770 -0.015040 1.759520 
# 
# From -- ./inp_files/167583.got.cif
#   From: 2010.05.17/outbox.cif.g08.bks.cpg/sg2_84_cif.got.tgz:167583.got - 2010.06.03 11:33:40.
