data_PCOD9084792
_publ_section_title
;
Structure prediction by ZEFSAII (Michael W. Deem and Ramdas Pophale) SiO2 
 PCOD9084792
Probable space group: P -1
;
_chemical_formula_sum "Si O2"
_cell_formula_units_Z 16
_cell_length_a 15.564556
_cell_length_b 17.681074
_cell_length_c 7.885719
_cell_angle_alpha 42.247199
_cell_angle_beta 134.824062
_cell_angle_gamma 156.311701
_cell_volume 583.241274
_symmetry_space_group_name_H-M "P -1"
_symmetry_group_IT_number 2
_symmetry_cell_setting 'triclinic'
loop_
_space_group_symop_operation_xyz
x,y,z
-x,-y,-z
loop_
_atom_site_type_symbol
_atom_site_label
_atom_site_fract_x
_atom_site_fract_y
_atom_site_fract_z
Si Si1 0.506003 0.946738 0.278551
Si Si2 0.309278 0.120621 0.453198
Si Si3 0.698276 0.997798 0.023898
Si Si4 0.944552 0.508183 0.592476
Si Si5 0.849786 0.756772 0.370517
Si Si6 0.447896 0.581951 0.014229
Si Si7 0.866152 0.556202 0.945105
Si Si8 0.027279 0.205341 0.888919
O O1 0.305637 0.708988 0.383745
O O2 0.701882 0.009956 0.446195
O O3 0.455354 0.014181 0.216364
O O4 0.500000 0.000000 0.000000
O O5 0.394335 0.151862 0.707152
O O6 0.064989 0.971532 0.398942
O O7 0.445297 0.299323 0.214236
O O8 0.913290 0.224364 0.026816
O O9 0.802077 0.010738 0.991008
O O10 0.981899 0.668144 0.376813
O O11 0.000000 0.500000 0.500000
O O12 0.076453 0.529275 0.868794
O O13 0.821927 0.608720 0.645950
O O14 0.920486 0.814570 0.178144
O O15 0.626084 0.648924 0.250494
O O16 0.235273 0.347210 0.061903
O O17 0.335161 0.589754 0.963307
#
# Coordination Sequence:
#
# PCOD9084792 Si02
#       8
#     2   2   2   2   2   2   2   2
#     4   9  15  28  54  81 101 130 185 223 255 318
#     4  10  19  35  57  81 104 145 193 222 266 327
#     4   8  17  32  56  81 106 143 181 221 274 333
#     4  11  16  33  62  84 100 140 195 222 262 337
#     4  11  24  37  50  85 121 143 175 233 287 309
#     4  11  20  38  62  77 104 154 198 217 254 343
#     4   9  19  35  59  82 105 144 187 228 268 324
#     4  11  21  36  58  83 113 143 181 235 276 321
#
# _framework density 27.432901000000001
#
# number of rings (size 3 to 8) (size 9 to 14) (size 15 to 20)
#    0.000    2.000    5.000    1.875    0.000    0.500 
#    0.000    2.500    0.000    0.000    0.000    0.000 
#    0.000    0.000    0.000    0.000    0.000    0.000 
#
# Total GULP energy -89495.817531 kJ/mol
# GULP energy per Si atom -5593.488596 kJ/mol
# Density = 2.737046 g / cm^3
# Si number density = 27.432901 Si / 1000 Ang^3
#
#
#
# Elastic Constant Matrix: (Units=GPa)
#
#
# Indices 1 2 3 4 5 6 
#
# 1 80.2401 25.6642 26.0779 3.7788 6.0293 25.0525
# 2 25.6642 132.3674 42.7753 -6.3176 11.0112 19.4476
# 3 26.0779 42.7753 135.7669 -5.9854 16.0369 19.1411
# 4 3.7788 -6.3176 -5.9854 42.8144 28.3219 -0.4985
# 5 6.0293 11.0112 16.0369 28.3219 37.6105 -3.0563
# 6 25.0525 19.4476 19.1411 -0.4985 -3.0563 44.5826
#
#
#
# Elastic Compliance Matrix: (Units=1/GPa)
#
#
# Indices 1 2 3 4 5 6 
#
# 1 0.015980 -0.001410 -0.001369 -0.000881 -0.001543 -0.007893
# 2 -0.001410 0.009517 -0.001257 0.005633 -0.006527 -0.003204
# 3 -0.001369 -0.001257 0.010044 0.007841 -0.009891 -0.003585
# 4 -0.000881 0.005633 0.007841 0.057604 -0.048882 -0.008036
# 5 -0.001543 -0.006527 -0.009891 -0.048882 0.070771 0.012266
# 6 -0.007893 -0.003204 -0.003585 -0.008036 0.012266 0.030553
#
#
# Mechanical properties :
#
#
# Convention : Reuss Voigt Hill
#
# Bulk Modulus (GPa) = 36.40372 59.71212 48.05792
# Shear Modulus (GPa) = 23.61876 41.92529 32.77203
#
# Velocity S-wave (km/s) = 2.93740 3.91357 3.46008
# Velocity P-wave (km/s) = 4.98030 6.49886 5.78958
#
# Compressibility (1/GPa) = 0.02746972
#
# Stress axis : x y z
#
# Youngs Moduli (GPa) = 62.57751 105.07834 99.56316
#
# Poissons Ratio (x) = 0.14816 0.13630
# Poissons Ratio (y) = 0.08823 0.12511
# Poissons Ratio (z) = 0.08567 0.13204
#
# Static dielectric constant tensor:
#      x y z
#    x 2.227560 0.017770 0.030910 
#    y 0.017770 2.214540 0.042790 
#    z 0.030910 0.042790 2.206440 
# 
# From -- ./inp_files/206080.got.cif
#   From: 2010.05.17/outbox.cif.g08.bks.cpg/sg2_104_cif.got.tgz:206080.got - 2010.06.03 11:33:40.
