data_PCOD9084270
_publ_section_title
;
Structure prediction by ZEFSAII (Michael W. Deem and Ramdas Pophale) SiO2 
 PCOD9084270
Probable space group: P -1
;
_chemical_formula_sum "Si O2"
_cell_formula_units_Z 14
_cell_length_a 10.971870
_cell_length_b 11.415938
_cell_length_c 12.071066
_cell_angle_alpha 132.557524
_cell_angle_beta 90.677910
_cell_angle_gamma 126.714909
_cell_volume 633.333964
_symmetry_space_group_name_H-M "P -1"
_symmetry_group_IT_number 2
_symmetry_cell_setting 'triclinic'
loop_
_space_group_symop_operation_xyz
x,y,z
-x,-y,-z
loop_
_atom_site_type_symbol
_atom_site_label
_atom_site_fract_x
_atom_site_fract_y
_atom_site_fract_z
Si Si1 0.680664 0.034398 0.952683
Si Si2 0.297804 0.379759 0.874055
Si Si3 0.559346 0.926217 0.113664
Si Si4 0.329394 0.683042 0.321972
Si Si5 0.900302 0.350978 0.560437
Si Si6 0.050362 0.829958 0.140966
Si Si7 0.724792 0.919093 0.466667
O O1 0.859595 0.344489 0.208884
O O2 0.566710 0.850233 0.944697
O O3 0.529364 0.991194 0.854737
O O4 0.785790 0.014629 0.861083
O O5 0.098733 0.180391 0.829553
O O6 0.233374 0.214130 0.657874
O O7 0.500000 0.500000 0.000000
O O8 0.393881 0.653818 0.015834
O O9 0.795126 0.180151 0.335552
O O10 0.225458 0.619170 0.395605
O O11 0.469309 0.675335 0.315478
O O12 0.500000 0.000000 0.500000
O O13 0.138969 0.487986 0.106876
O O14 0.824787 0.138288 0.512802
O O15 0.173870 0.925781 0.316001
#
# Coordination Sequence:
#
# PCOD9084270 Si02
#       7
#     2   2   2   2   2   2   2
#     4  10  24  40  62  90 118 158 197 246 305 348
#     4  12  22  40  62  87 123 160 200 244 297 352
#     4  11  22  42  62  86 124 156 197 248 295 359
#     4   9  18  31  53  86 119 149 188 245 297 336
#     4  10  19  34  62  89 116 153 198 247 296 350
#     4  11  22  38  59  89 121 153 203 249 289 356
#     4  11  21  35  59  90 120 157 198 247 298 346
#
# _framework density 22.105242000000001
#
# number of rings (size 3 to 8) (size 9 to 14) (size 15 to 20)
#    0.000    1.429    2.857    3.429    0.000    8.000 
#    0.000    1.429    0.000    0.000    0.000    0.000 
#    0.000    0.000    0.000    0.000    0.000    0.000 
#
# Total GULP energy -77974.507372 kJ/mol
# GULP energy per Si atom -5569.607669 kJ/mol
# Density = 2.205493 g / cm^3
# Si number density = 22.105242 Si / 1000 Ang^3
#
#
#
# Elastic Constant Matrix: (Units=GPa)
#
#
# Indices 1 2 3 4 5 6 
#
# 1 71.3272 26.8973 6.8209 -12.2012 6.0708 28.6019
# 2 26.8973 74.3056 10.6508 -28.7982 3.0619 16.7762
# 3 6.8209 10.6508 94.5922 -30.9064 14.4192 -4.3631
# 4 -12.2012 -28.7982 -30.9064 36.2966 2.8535 -1.0363
# 5 6.0708 3.0619 14.4192 2.8535 38.2957 -8.6387
# 6 28.6019 16.7762 -4.3631 -1.0363 -8.6387 30.4258
#
#
#
# Elastic Compliance Matrix: (Units=1/GPa)
#
#
# Indices 1 2 3 4 5 6 
#
# 1 0.029431 0.002450 0.003115 0.014703 -0.014383 -0.032154
# 2 0.002450 0.027600 0.007182 0.029221 -0.011723 -0.018825
# 3 0.003115 0.007182 0.018541 0.023230 -0.011278 -0.006640
# 4 0.014703 0.029221 0.023230 0.076621 -0.026214 -0.031435
# 5 -0.014383 -0.011723 -0.011278 -0.026214 0.042173 0.029448
# 6 -0.032154 -0.018825 -0.006640 -0.031435 0.029448 0.079811
#
#
# Mechanical properties :
#
#
# Convention : Reuss Voigt Hill
#
# Bulk Modulus (GPa) = 9.89446 36.55146 23.22296
# Shear Modulus (GPa) = 17.70719 34.06069 25.88394
#
# Velocity S-wave (km/s) = 2.83334 3.92961 3.42561
# Velocity P-wave (km/s) = 3.89737 6.09592 5.11614
#
# Compressibility (1/GPa) = 0.10106665
#
# Stress axis : x y z
#
# Youngs Moduli (GPa) = 33.97812 36.23217 53.93331
#
# Poissons Ratio (x) = -0.08878 -0.16801
# Poissons Ratio (y) = -0.08326 -0.38734
# Poissons Ratio (z) = -0.10584 -0.26022
#
# Static dielectric constant tensor:
#      x y z
#    x 1.889720 0.072490 -0.002640 
#    y 0.072490 1.837160 -0.031290 
#    z -0.002640 -0.031290 1.879780 
# 
# From -- ./inp_files/425254.got.cif
#   From: 2010.05.17/outbox.cif.g08.bks.cpg/sg2_213_cif.got.tgz:425254.got - 2010.06.03 11:33:40.
