data_PCOD9084718
_publ_section_title
;
Structure prediction by ZEFSAII (Michael W. Deem and Ramdas Pophale) SiO2 
 PCOD9084718
Probable space group: P -1
;
_chemical_formula_sum "Si O2"
_cell_formula_units_Z 16
_cell_length_a 10.327886
_cell_length_b 15.295822
_cell_length_c 11.148509
_cell_angle_alpha 33.365318
_cell_angle_beta 55.105453
_cell_angle_gamma 52.989440
_cell_volume 763.754466
_symmetry_space_group_name_H-M "P -1"
_symmetry_group_IT_number 2
_symmetry_cell_setting 'triclinic'
loop_
_space_group_symop_operation_xyz
x,y,z
-x,-y,-z
loop_
_atom_site_type_symbol
_atom_site_label
_atom_site_fract_x
_atom_site_fract_y
_atom_site_fract_z
Si Si1 0.110222 0.313669 0.802996
Si Si2 0.851832 0.657716 0.510511
Si Si3 0.488874 0.290442 0.409178
Si Si4 0.441630 0.080884 0.192702
Si Si5 0.618889 0.755755 0.719517
Si Si6 0.766584 0.443274 0.168212
Si Si7 0.391213 0.377918 0.727608
Si Si8 0.941880 0.842023 0.751174
O O1 0.101107 0.264347 0.725290
O O2 0.291854 0.321032 0.739049
O O3 0.995057 0.502189 0.654284
O O4 0.053311 0.200668 0.060731
O O5 0.695949 0.591532 0.625374
O O6 0.764510 0.776674 0.529211
O O7 0.516402 0.271680 0.271604
O O8 0.628389 0.345209 0.339633
O O9 0.484309 0.108901 0.661501
O O10 0.459381 0.114634 0.285100
O O11 0.246269 0.121426 0.229688
O O12 0.495189 0.213981 0.930198
O O13 0.708390 0.589651 0.934832
O O14 0.745793 0.524638 0.216333
O O15 0.941337 0.318975 0.190408
O O16 0.500000 0.500000 0.500000
O O17 0.000000 0.000000 0.500000
#
# Coordination Sequence:
#
# PCOD9084718 Si02
#       8
#     2   2   2   2   2   2   2   2
#     4  10  20  39  58  85 109 154 188 233 278 334
#     4   9  20  34  61  78 112 145 195 224 280 332
#     4  10  19  35  56  86 114 145 184 232 285 331
#     4  10  21  36  59  84 115 147 186 234 287 327
#     4   9  20  33  58  81 108 149 190 230 271 334
#     4  11  20  35  57  87 110 149 195 228 279 334
#     4  10  23  39  58  82 115 147 190 235 277 337
#     4  11  21  36  57  86 116 146 187 237 279 333
#
# _framework density 20.949141999999998
#
# number of rings (size 3 to 8) (size 9 to 14) (size 15 to 20)
#    0.750    1.250    2.500    1.500    1.750    1.500 
#    2.250    1.875    0.000    1.500    0.000    0.000 
#    0.000    0.000    0.000    0.000    0.000    0.000 
#
# Total GULP energy -89163.261463 kJ/mol
# GULP energy per Si atom -5572.703841 kJ/mol
# Density = 2.090146 g / cm^3
# Si number density = 20.949142 Si / 1000 Ang^3
#
#
#
# Elastic Constant Matrix: (Units=GPa)
#
#
# Indices 1 2 3 4 5 6 
#
# 1 41.0069 4.1898 25.2392 -3.9816 12.8428 1.3446
# 2 4.1898 67.8385 22.0943 -2.9651 6.8043 5.0834
# 3 25.2392 22.0943 140.7008 7.4349 9.9910 11.8866
# 4 -3.9816 -2.9651 7.4349 24.0189 0.8827 7.2911
# 5 12.8428 6.8043 9.9910 0.8827 25.9068 5.2760
# 6 1.3446 5.0834 11.8866 7.2911 5.2760 34.5530
#
#
#
# Elastic Compliance Matrix: (Units=1/GPa)
#
#
# Indices 1 2 3 4 5 6 
#
# 1 0.033131 0.001551 -0.005608 0.007638 -0.015156 0.001114
# 2 0.001551 0.016165 -0.002597 0.003728 -0.003783 -0.001754
# 3 -0.005608 -0.002597 0.008816 -0.003457 0.000544 -0.001786
# 4 0.007638 0.003728 -0.003457 0.047327 -0.003180 -0.009158
# 5 -0.015156 -0.003783 0.000544 -0.003180 0.048171 -0.005725
# 6 0.001114 -0.001754 -0.001786 -0.009158 -0.005725 0.032577
#
#
# Mechanical properties :
#
#
# Convention : Reuss Voigt Hill
#
# Bulk Modulus (GPa) = 22.31965 39.17700 30.74832
# Shear Modulus (GPa) = 23.31769 30.09727 26.70748
#
# Velocity S-wave (km/s) = 3.33988 3.79447 3.57441
# Velocity P-wave (km/s) = 5.05474 6.15946 5.63424
#
# Compressibility (1/GPa) = 0.04480357
#
# Stress axis : x y z
#
# Youngs Moduli (GPa) = 30.18307 61.86340 113.42991
#
# Poissons Ratio (x) = -0.09594 0.63614
# Poissons Ratio (y) = -0.04681 0.29455
# Poissons Ratio (z) = 0.16927 0.16064
#
# Static dielectric constant tensor:
#      x y z
#    x 1.746320 0.021190 0.015730 
#    y 0.021190 1.799970 0.022280 
#    z 0.015730 0.022280 1.808340 
# 
# From -- ./inp_files/393150.got.cif
#   From: 2010.05.17/outbox.cif.g08.bks.cpg/sg2_197_cif.got.tgz:393150.got - 2010.06.03 11:33:40.
