data_PCOD9084365
_publ_section_title
;
Structure prediction by ZEFSAII (Michael W. Deem and Ramdas Pophale) SiO2 
 PCOD9084365
Probable space group: P -1
;
_chemical_formula_sum "Si O2"
_cell_formula_units_Z 16
_cell_length_a 16.254589
_cell_length_b 16.270955
_cell_length_c 9.256670
_cell_angle_alpha 42.895071
_cell_angle_beta 143.535010
_cell_angle_gamma 153.958868
_cell_volume 638.310938
_symmetry_space_group_name_H-M "P -1"
_symmetry_group_IT_number 2
_symmetry_cell_setting 'triclinic'
loop_
_space_group_symop_operation_xyz
x,y,z
-x,-y,-z
loop_
_atom_site_type_symbol
_atom_site_label
_atom_site_fract_x
_atom_site_fract_y
_atom_site_fract_z
Si Si1 0.537954 0.809178 0.894470
Si Si2 0.224769 0.440117 0.449077
Si Si3 0.992849 0.826365 0.955353
Si Si4 0.307182 0.286270 0.559126
Si Si5 0.303449 0.446569 0.857055
Si Si6 0.519974 0.168168 0.702925
Si Si7 0.955200 0.380178 0.895543
Si Si8 0.301056 0.806137 0.772798
O O1 0.600102 0.775757 0.170984
O O2 0.391325 0.625185 0.828671
O O3 0.420896 0.849379 0.737830
O O4 0.763923 0.978506 0.917631
O O5 0.231579 0.312329 0.556852
O O6 0.168939 0.390440 0.599402
O O7 0.448367 0.666133 0.465976
O O8 0.064074 0.408653 0.162796
O O9 0.879306 0.838521 0.662223
O O10 0.838870 0.714863 0.017690
O O11 0.012757 0.710043 0.051743
O O12 0.500000 0.500000 0.500000
O O13 0.500000 0.500000 0.000000
O O14 0.714001 0.252395 0.763354
O O15 0.314700 0.958857 0.623968
O O16 0.569586 0.157881 0.949340
O O17 0.090515 0.582260 0.765799
#
# Coordination Sequence:
#
# PCOD9084365 Si02
#       8
#     2   2   2   2   2   2   2   2
#     4  12  22  39  64  90 126 160 205 249 310 363
#     4  10  21  37  61  90 119 163 201 246 310 360
#     4  11  23  38  65  92 120 159 208 256 304 363
#     4  11  19  39  65  92 117 158 205 259 306 354
#     4  12  24  44  60  84 130 168 200 249 309 371
#     4  10  20  37  64  94 124 150 210 256 303 358
#     4  10  19  40  66  91 122 152 208 262 302 352
#     4  10  19  34  63  95 116 158 195 253 310 350
#
# _framework density 25.066154999999998
#
# number of rings (size 3 to 8) (size 9 to 14) (size 15 to 20)
#    0.000    1.250    5.000    3.375    0.000    0.500 
#    0.000    6.250    0.000    0.000    0.000    0.000 
#    0.000    0.000    0.000    0.000    0.000    0.000 
#
# Total GULP energy -89580.294173 kJ/mol
# GULP energy per Si atom -5598.768386 kJ/mol
# Density = 2.500910 g / cm^3
# Si number density = 25.066155 Si / 1000 Ang^3
#
#
#
# Elastic Constant Matrix: (Units=GPa)
#
#
# Indices 1 2 3 4 5 6 
#
# 1 111.5628 19.1662 20.0131 -5.3469 -16.5162 14.3926
# 2 19.1662 116.5464 9.1664 -8.1466 -11.7428 16.3734
# 3 20.0131 9.1664 52.4115 -7.4893 -13.6306 6.3185
# 4 -5.3469 -8.1466 -7.4893 15.1822 1.9211 12.5119
# 5 -16.5162 -11.7428 -13.6306 1.9211 38.5688 -7.6265
# 6 14.3926 16.3734 6.3185 12.5119 -7.6265 26.6524
#
#
#
# Elastic Compliance Matrix: (Units=1/GPa)
#
#
# Indices 1 2 3 4 5 6 
#
# 1 0.011631 0.001421 -0.000193 0.016312 0.001709 -0.014276
# 2 0.001421 0.013408 0.004170 0.029334 0.000005 -0.023762
# 3 -0.000193 0.004170 0.027504 0.035156 0.004364 -0.024233
# 4 0.016312 0.029334 0.035156 0.224702 -0.011302 -0.143884
# 5 0.001709 0.000005 0.004364 -0.011302 0.031193 0.012271
# 6 -0.014276 -0.023762 -0.024233 -0.143884 0.012271 0.136630
#
#
# Mechanical properties :
#
#
# Convention : Reuss Voigt Hill
#
# Bulk Modulus (GPa) = 15.78818 41.91245 28.85032
# Shear Modulus (GPa) = 10.97973 31.55900 21.26936
#
# Velocity S-wave (km/s) = 2.09519 3.55213 2.91611
# Velocity P-wave (km/s) = 3.48789 5.79487 4.78257
#
# Compressibility (1/GPa) = 0.06333851
#
# Stress axis : x y z
#
# Youngs Moduli (GPa) = 85.97879 74.58269 36.35798
#
# Poissons Ratio (x) = -0.10595 0.00702
# Poissons Ratio (y) = -0.12214 -0.15162
# Poissons Ratio (z) = 0.01660 -0.31102
#
# Static dielectric constant tensor:
#      x y z
#    x 1.991280 0.048520 0.049600 
#    y 0.048520 2.004550 0.009000 
#    z 0.049600 0.009000 2.030420 
# 
# From -- ./inp_files/314747.got.cif
#   From: 2010.05.17/outbox.cif.g08.bks.cpg/sg2_158_cif.got.tgz:314747.got - 2010.06.03 11:33:40.
