data_PCOD9084852
_publ_section_title
;
Structure prediction by ZEFSAII (Michael W. Deem and Ramdas Pophale) SiO2 
 PCOD9084852
Probable space group: P -1
;
_chemical_formula_sum "Si O2"
_cell_formula_units_Z 14
_cell_length_a 5.065407
_cell_length_b 20.729629
_cell_length_c 8.845699
_cell_angle_alpha 41.380634
_cell_angle_beta 89.018819
_cell_angle_gamma 106.570261
_cell_volume 547.966541
_symmetry_space_group_name_H-M "P -1"
_symmetry_group_IT_number 2
_symmetry_cell_setting 'triclinic'
loop_
_space_group_symop_operation_xyz
x,y,z
-x,-y,-z
loop_
_atom_site_type_symbol
_atom_site_label
_atom_site_fract_x
_atom_site_fract_y
_atom_site_fract_z
Si Si1 0.888499 0.594514 0.687912
Si Si2 0.610895 0.621309 0.077929
Si Si3 0.757078 0.381304 0.656264
Si Si4 0.702759 0.062855 0.741257
Si Si5 0.777139 0.293867 0.221739
Si Si6 0.368824 0.846327 0.016886
Si Si7 0.178307 0.188832 0.726635
O O1 0.788540 0.691635 0.520984
O O2 0.130977 0.607623 0.536126
O O3 0.071067 0.617672 0.800991
O O4 0.595907 0.489538 0.817401
O O5 0.505197 0.702332 0.854445
O O6 0.951790 0.660824 0.978018
O O7 0.530955 0.618509 0.261404
O O8 0.000000 0.500000 0.500000
O O9 0.705131 0.256585 0.909024
O O10 0.695806 0.173083 0.492991
O O11 0.030838 0.109087 0.727227
O O12 0.598914 0.972914 0.767513
O O13 0.500000 0.000000 0.000000
O O14 0.538642 0.818257 0.201566
O O15 0.064817 0.844892 0.077071
#
# Coordination Sequence:
#
# PCOD9084852 Si02
#       7
#     2   2   2   2   2   2   2
#     4   9  20  39  64  90 120 164 210 250 300 371
#     4  11  24  41  59  90 131 163 197 255 317 366
#     4   9  21  41  64  91 125 167 210 249 302 375
#     4   9  20  38  62  90 120 158 208 259 304 364
#     4  11  24  40  62  91 123 160 205 259 315 362
#     4  10  19  35  57  85 116 153 198 251 296 347
#     4   9  19  32  57  91 116 145 198 255 298 343
#
# _framework density 25.549004
#
# number of rings (size 3 to 8) (size 9 to 14) (size 15 to 20)
#    0.000    2.286    0.000    2.143    0.000   17.143 
#    0.000    8.571    0.000    0.000    0.000    0.000 
#    0.000    0.000    0.000    0.000    0.000    0.000 
#
# Total GULP energy -78108.564966 kJ/mol
# GULP energy per Si atom -5579.183212 kJ/mol
# Density = 2.549085 g / cm^3
# Si number density = 25.549004 Si / 1000 Ang^3
#
#
#
# Elastic Constant Matrix: (Units=GPa)
#
#
# Indices 1 2 3 4 5 6 
#
# 1 47.0554 50.1209 21.5769 2.3884 -3.7015 -4.2404
# 2 50.1209 175.4698 53.7495 -31.1083 -15.4304 -3.9915
# 3 21.5769 53.7495 94.5880 -37.6414 -0.1935 -5.4671
# 4 2.3884 -31.1083 -37.6414 48.9977 -4.9492 -5.3819
# 5 -3.7015 -15.4304 -0.1935 -4.9492 45.1739 6.1780
# 6 -4.2404 -3.9915 -5.4671 -5.3819 6.1780 42.0517
#
#
#
# Elastic Compliance Matrix: (Units=1/GPa)
#
#
# Indices 1 2 3 4 5 6 
#
# 1 0.037614 -0.011140 -0.008498 -0.015686 -0.002476 -0.000013
# 2 -0.011140 0.010663 -0.000632 0.007203 0.003486 0.000216
# 3 -0.008498 -0.000632 0.019069 0.015075 0.000351 0.003440
# 4 -0.015686 0.007203 0.015075 0.038386 0.004723 0.005281
# 5 -0.002476 0.003486 0.000351 0.004723 0.024026 -0.002799
# 6 -0.000013 0.000216 0.003440 0.005281 -0.002799 0.025334
#
#
# Mechanical properties :
#
#
# Convention : Reuss Voigt Hill
#
# Bulk Modulus (GPa) = 37.30540 63.11198 50.20869
# Shear Modulus (GPa) = 24.44183 40.02240 32.23212
#
# Velocity S-wave (km/s) = 3.09636 3.96219 3.55573
# Velocity P-wave (km/s) = 5.23607 6.75928 6.04584
#
# Compressibility (1/GPa) = 0.02680577
#
# Stress axis : x y z
#
# Youngs Moduli (GPa) = 26.58561 93.78134 52.44207
#
# Poissons Ratio (x) = 1.04472 0.44567
# Poissons Ratio (y) = 0.29616 0.03314
# Poissons Ratio (z) = 0.22593 0.05926
#
# Static dielectric constant tensor:
#      x y z
#    x 1.980830 -0.004380 0.023400 
#    y -0.004380 2.096280 -0.021820 
#    z 0.023400 -0.021820 2.087480 
# 
# From -- ./inp_files/141023.got.cif
#   From: 2010.05.17/outbox.cif.g08.bks.cpg/sg2_71_cif.got.tgz:141023.got - 2010.06.03 11:33:40.
