data_PCOD9084068
_publ_section_title
;
Structure prediction by ZEFSAII (Michael W. Deem and Ramdas Pophale) SiO2 
 PCOD9084068
Probable space group: P -1
;
_chemical_formula_sum "Si O2"
_cell_formula_units_Z 14
_cell_length_a 8.398855
_cell_length_b 16.370981
_cell_length_c 7.053625
_cell_angle_alpha 39.950199
_cell_angle_beta 65.584282
_cell_angle_gamma 61.004180
_cell_volume 543.197957
_symmetry_space_group_name_H-M "P -1"
_symmetry_group_IT_number 2
_symmetry_cell_setting 'triclinic'
loop_
_space_group_symop_operation_xyz
x,y,z
-x,-y,-z
loop_
_atom_site_type_symbol
_atom_site_label
_atom_site_fract_x
_atom_site_fract_y
_atom_site_fract_z
Si Si1 0.568683 0.363244 0.597501
Si Si2 0.916228 0.387407 0.154477
Si Si3 0.658860 0.257092 0.127310
Si Si4 0.054929 0.118650 0.154927
Si Si5 0.559026 0.998804 0.755221
Si Si6 0.818386 0.846311 0.375003
Si Si7 0.338342 0.381979 0.317725
O O1 0.500000 0.500000 0.500000
O O2 0.754588 0.363525 0.404169
O O3 0.424867 0.349789 0.537598
O O4 0.602942 0.257035 0.936228
O O5 0.059329 0.240720 0.362881
O O6 0.810761 0.475636 0.874446
O O7 0.000000 0.500000 0.000000
O O8 0.629547 0.127391 0.466863
O O9 0.507897 0.372829 0.105598
O O10 0.874208 0.241900 0.051875
O O11 0.252578 0.119041 0.139160
O O12 0.081968 0.100860 0.942609
O O13 0.000000 0.000000 0.500000
O O14 0.362221 0.038419 0.675292
O O15 0.500000 0.000000 0.000000
O O16 0.749332 0.731001 0.510439
#
# Coordination Sequence:
#
# PCOD9084068 Si02
#       7
#     2   2   2   2   2   2   2
#     4  12  23  38  60  86 119 156 199 238 288 352
#     4  10  20  36  57  83 120 154 192 237 292 348
#     4  10  19  34  60  85 117 151 197 232 291 342
#     4   9  16  30  58  91 111 150 197 239 287 344
#     4   8  16  31  58  86 112 151 189 235 296 337
#     4   9  17  34  58  86 120 156 192 235 291 348
#     4  10  22  38  58  85 123 157 190 238 293 345
#
# _framework density 25.773292999999999
#
# number of rings (size 3 to 8) (size 9 to 14) (size 15 to 20)
#    0.000    2.286    2.857    0.429    0.000    0.000 
#    0.000    4.286    0.000   27.429    0.000    0.000 
#    0.000    0.000    0.000    0.000    0.000    0.000 
#
# Total GULP energy -78133.226067 kJ/mol
# GULP energy per Si atom -5580.944719 kJ/mol
# Density = 2.571463 g / cm^3
# Si number density = 25.773293 Si / 1000 Ang^3
#
#
#
# Elastic Constant Matrix: (Units=GPa)
#
#
# Indices 1 2 3 4 5 6 
#
# 1 118.2732 49.4684 66.0731 3.8286 29.7672 -32.1860
# 2 49.4684 114.2227 39.1269 -0.5903 15.3162 -30.6016
# 3 66.0731 39.1269 158.0599 -7.5256 19.2866 -15.3245
# 4 3.8286 -0.5903 -7.5256 17.7187 -8.3354 8.2633
# 5 29.7672 15.3162 19.2866 -8.3354 52.3599 -12.2818
# 6 -32.1860 -30.6016 -15.3245 8.2633 -12.2818 49.2157
#
#
#
# Elastic Compliance Matrix: (Units=1/GPa)
#
#
# Indices 1 2 3 4 5 6 
#
# 1 0.017019 -0.002348 -0.005483 -0.013365 -0.007119 0.008430
# 2 -0.002348 0.011867 -0.001449 -0.002685 -0.000701 0.005668
# 3 -0.005483 -0.001449 0.008951 0.006471 0.000659 -0.002622
# 4 -0.013365 -0.002685 0.006471 0.076902 0.014068 -0.017796
# 5 -0.007119 -0.000701 0.000659 0.014068 0.025118 -0.000980
# 6 0.008430 0.005668 -0.002622 -0.017796 -0.000980 0.031283
#
#
# Mechanical properties :
#
#
# Convention : Reuss Voigt Hill
#
# Bulk Modulus (GPa) = 51.87905 77.76585 64.82245
# Shear Modulus (GPa) = 25.49395 39.58469 32.53932
#
# Velocity S-wave (km/s) = 3.14851 3.92328 3.55705
# Velocity P-wave (km/s) = 5.77842 7.12470 6.48658
#
# Compressibility (1/GPa) = 0.01927560
#
# Stress axis : x y z
#
# Youngs Moduli (GPa) = 58.75839 84.27001 111.71938
#
# Poissons Ratio (x) = 0.19790 0.61260
# Poissons Ratio (y) = 0.13799 0.16185
# Poissons Ratio (z) = 0.32219 0.12208
#
# Static dielectric constant tensor:
#      x y z
#    x 2.181510 0.038710 0.111990 
#    y 0.038710 2.093960 0.003200 
#    z 0.111990 0.003200 2.058700 
# 
# From -- ./inp_files/46159.got.cif
#   From: 2010.05.17/outbox.cif.g08.bks.cpg/sg2_24_cif.got.tgz:46159.got - 2010.06.03 11:33:40.
