data_PCOD9084132
_publ_section_title
;
Structure prediction by ZEFSAII (Michael W. Deem and Ramdas Pophale) SiO2 
 PCOD9084132
Probable space group: P -1
;
_chemical_formula_sum "Si O2"
_cell_formula_units_Z 14
_cell_length_a 11.160292
_cell_length_b 9.623614
_cell_length_c 5.415864
_cell_angle_alpha 84.869516
_cell_angle_beta 118.665389
_cell_angle_gamma 86.726179
_cell_volume 504.999941
_symmetry_space_group_name_H-M "P -1"
_symmetry_group_IT_number 2
_symmetry_cell_setting 'triclinic'
loop_
_space_group_symop_operation_xyz
x,y,z
-x,-y,-z
loop_
_atom_site_type_symbol
_atom_site_label
_atom_site_fract_x
_atom_site_fract_y
_atom_site_fract_z
Si Si1 0.181816 0.522087 0.415763
Si Si2 0.900278 0.187387 0.226776
Si Si3 0.286213 0.062922 0.911741
Si Si4 0.540719 0.331524 0.284277
Si Si5 0.521288 0.834594 0.255151
Si Si6 0.051513 0.236825 0.874724
Si Si7 0.741016 0.503055 0.003971
O O1 0.306891 0.620805 0.544233
O O2 0.033798 0.607319 0.230527
O O3 0.216008 0.433769 0.220676
O O4 0.196842 0.438533 0.696567
O O5 0.986299 0.185331 0.562431
O O6 0.805125 0.064706 0.174201
O O7 0.994138 0.172307 0.078103
O O8 0.808410 0.340423 0.088306
O O9 0.209518 0.177871 0.997774
O O10 0.428183 0.983325 0.166220
O O11 0.328144 0.130009 0.684499
O O12 0.525096 0.246032 0.028005
O O13 0.422292 0.464253 0.144343
O O14 0.506378 0.249911 0.512382
#
# Coordination Sequence:
#
# PCOD9084132 Si02
#       7
#     2   2   2   2   2   2   2
#     4  10  19  34  60  94 116 146 190 246 300 344
#     4  10  21  37  63  95 114 147 193 248 300 343
#     4  11  24  43  59  86 122 157 198 237 291 348
#     4  12  22  41  60  89 121 155 197 235 293 347
#     4  11  27  39  60  84 120 165 197 231 276 364
#     4  10  21  36  62  88 119 149 189 250 299 338
#     4  10  20  35  62  91 122 146 186 251 299 338
#
# _framework density 27.722776
#
# number of rings (size 3 to 8) (size 9 to 14) (size 15 to 20)
#    0.000    1.429    0.000    6.857    0.000    5.714 
#    0.000    0.000    0.000   20.571    0.000    0.000 
#    0.000    0.000    0.000    0.000    0.000    0.000 
#
# Total GULP energy -78478.168057 kJ/mol
# GULP energy per Si atom -5605.583433 kJ/mol
# Density = 2.765968 g / cm^3
# Si number density = 27.722776 Si / 1000 Ang^3
#
#
#
# Elastic Constant Matrix: (Units=GPa)
#
#
# Indices 1 2 3 4 5 6 
#
# 1 224.2794 71.7968 79.4598 -11.0682 -28.0840 -36.9023
# 2 71.7968 164.2607 58.5177 -9.6238 -5.0292 -28.6406
# 3 79.4598 58.5177 162.6180 25.5566 -44.4928 -15.8837
# 4 -11.0682 -9.6238 25.5566 35.2608 -6.9346 -1.9307
# 5 -28.0840 -5.0292 -44.4928 -6.9346 60.7654 1.8334
# 6 -36.9023 -28.6406 -15.8837 -1.9307 1.8334 58.4237
#
#
#
# Elastic Compliance Matrix: (Units=1/GPa)
#
#
# Indices 1 2 3 4 5 6 
#
# 1 0.006713 -0.001065 -0.002940 0.004362 0.001268 0.003023
# 2 -0.001065 0.008445 -0.003441 0.004238 -0.001911 0.002732
# 3 -0.002940 -0.003441 0.011848 -0.009315 0.005993 -0.000819
# 4 0.004362 0.004238 -0.009315 0.037784 -0.000249 0.003557
# 5 0.001268 -0.001911 0.005993 -0.000249 0.021220 0.000819
# 6 0.003023 0.002732 -0.000819 0.003557 0.000819 0.020234
#
#
# Mechanical properties :
#
#
# Convention : Reuss Voigt Hill
#
# Bulk Modulus (GPa) = 82.54924 107.85631 95.20277
# Shear Modulus (GPa) = 39.94456 53.64889 46.79673
#
# Velocity S-wave (km/s) = 3.79998 4.40385 4.11301
# Velocity P-wave (km/s) = 7.00674 8.05285 7.54794
#
# Compressibility (1/GPa) = 0.01211398
#
# Stress axis : x y z
#
# Youngs Moduli (GPa) = 148.96861 118.40836 84.40333
#
# Poissons Ratio (x) = 0.12613 0.24815
# Poissons Ratio (y) = 0.15869 0.29041
# Poissons Ratio (z) = 0.43798 0.40741
#
# Static dielectric constant tensor:
#      x y z
#    x 2.203340 0.062860 0.009550 
#    y 0.062860 2.147410 0.037970 
#    z 0.009550 0.037970 2.195040 
# 
# From -- ./inp_files/66493.got.cif
#   From: 2010.05.17/outbox.cif.g08.bks.cpg/sg2_34_cif.got.tgz:66493.got - 2010.06.03 11:33:40.
