data_PCOD9084379
_publ_section_title
;
Structure prediction by ZEFSAII (Michael W. Deem and Ramdas Pophale) SiO2 
 PCOD9084379
Probable space group: P -1
;
_chemical_formula_sum "Si O2"
_cell_formula_units_Z 12
_cell_length_a 12.102147
_cell_length_b 12.028737
_cell_length_c 14.793152
_cell_angle_alpha 151.003088
_cell_angle_beta 137.853990
_cell_angle_gamma 62.783701
_cell_volume 566.802859
_symmetry_space_group_name_H-M "P -1"
_symmetry_group_IT_number 2
_symmetry_cell_setting 'triclinic'
loop_
_space_group_symop_operation_xyz
x,y,z
-x,-y,-z
loop_
_atom_site_type_symbol
_atom_site_label
_atom_site_fract_x
_atom_site_fract_y
_atom_site_fract_z
Si Si1 0.189796 0.486983 0.605476
Si Si2 0.515091 0.147981 0.290225
Si Si3 0.590893 0.505235 0.419234
Si Si4 0.288756 0.390402 0.000348
Si Si5 0.634332 0.742304 0.328559
Si Si6 0.842524 0.151806 0.589631
O O1 0.223164 0.395880 0.464038
O O2 0.207045 0.304224 0.561646
O O3 0.000000 0.500000 0.500000
O O4 0.383395 0.810676 0.968787
O O5 0.559405 0.276868 0.309046
O O6 0.393034 0.247317 0.338790
O O7 0.723057 0.262582 0.550123
O O8 0.395406 0.376573 0.144344
O O9 0.085352 0.361038 0.880334
O O10 0.218845 0.122090 0.703142
O O11 0.469094 0.669797 0.254194
O O12 0.753891 0.029394 0.548393
O O13 0.500000 0.500000 0.000000
#
# Coordination Sequence:
#
# PCOD9084379 Si02
#       6
#     2   2   2   2   2   2
#     4  11  23  38  64  85 117 162 195 243 309 345
#     4  11  22  40  60  87 121 158 195 251 295 351
#     4  10  23  40  59  88 121 151 209 242 287 370
#     4   9  19  35  59  87 115 154 199 240 292 361
#     4   9  17  36  55  89 114 145 201 243 285 362
#     4  10  19  34  64  85 118 157 193 247 302 347
#
# _framework density 21.171381
#
# number of rings (size 3 to 8) (size 9 to 14) (size 15 to 20)
#    0.000    2.000    5.000    0.500    2.333    4.000 
#    0.000    3.333    0.000    0.000    0.000    0.000 
#    0.000    0.000    0.000    0.000    0.000    0.000 
#
# Total GULP energy -67014.755038 kJ/mol
# GULP energy per Si atom -5584.562920 kJ/mol
# Density = 2.112319 g / cm^3
# Si number density = 21.171381 Si / 1000 Ang^3
#
#
#
# Elastic Constant Matrix: (Units=GPa)
#
#
# Indices 1 2 3 4 5 6 
#
# 1 111.8481 75.5657 26.6414 -21.7546 24.5447 1.4448
# 2 75.5657 144.7039 32.8990 -24.5519 22.0005 27.7930
# 3 26.6414 32.8990 33.2275 -1.8703 7.2487 3.6714
# 4 -21.7546 -24.5519 -1.8703 29.8230 -16.5673 0.4303
# 5 24.5447 22.0005 7.2487 -16.5673 33.1237 -9.8051
# 6 1.4448 27.7930 3.6714 0.4303 -9.8051 37.3937
#
#
#
# Elastic Compliance Matrix: (Units=1/GPa)
#
#
# Indices 1 2 3 4 5 6 
#
# 1 0.016410 -0.006863 -0.005956 0.004271 -0.002906 0.004241
# 2 -0.006863 0.016384 -0.007919 0.005327 -0.005109 -0.012535
# 3 -0.005956 -0.007919 0.043120 -0.010975 -0.005050 0.000685
# 4 0.004271 0.005327 -0.010975 0.053047 0.022928 0.002355
# 5 -0.002906 -0.005109 -0.005050 0.022928 0.053704 0.018224
# 6 0.004241 -0.012535 0.000685 0.002355 0.018224 0.040580
#
#
# Mechanical properties :
#
#
# Convention : Reuss Voigt Hill
#
# Bulk Modulus (GPa) = 29.03878 62.22131 45.63004
# Shear Modulus (GPa) = 18.10280 30.37963 24.24122
#
# Velocity S-wave (km/s) = 2.92731 3.79217 3.38745
# Velocity P-wave (km/s) = 5.01711 6.97332 6.07448
#
# Compressibility (1/GPa) = 0.03443671
#
# Stress axis : x y z
#
# Youngs Moduli (GPa) = 60.93839 61.03695 23.19111
#
# Poissons Ratio (x) = 0.41892 0.13813
# Poissons Ratio (y) = 0.41824 0.18365
# Poissons Ratio (z) = 0.36295 0.48336
#
# Static dielectric constant tensor:
#      x y z
#    x 1.788790 -0.020330 -0.009290 
#    y -0.020330 1.752090 0.014410 
#    z -0.009290 0.014410 1.792610 
# 
# From -- ./inp_files/154302.got.cif
#   From: 2010.05.17/outbox.cif.g08.bks.cpg/sg2_78_cif.got.tgz:154302.got - 2010.06.03 11:33:40.
