data_PCOD9084818
_publ_section_title
;
Structure prediction by ZEFSAII (Michael W. Deem and Ramdas Pophale) SiO2 
 PCOD9084818
Probable space group: P -1
;
_chemical_formula_sum "Si O2"
_cell_formula_units_Z 14
_cell_length_a 5.126584
_cell_length_b 5.645237
_cell_length_c 21.831384
_cell_angle_alpha 59.761486
_cell_angle_beta 80.761315
_cell_angle_gamma 91.728026
_cell_volume 534.184692
_symmetry_space_group_name_H-M "P -1"
_symmetry_group_IT_number 2
_symmetry_cell_setting 'triclinic'
loop_
_space_group_symop_operation_xyz
x,y,z
-x,-y,-z
loop_
_atom_site_type_symbol
_atom_site_label
_atom_site_fract_x
_atom_site_fract_y
_atom_site_fract_z
Si Si1 0.352695 0.742916 0.180822
Si Si2 0.877725 0.735585 0.921653
Si Si3 0.007456 0.425154 0.688853
Si Si4 0.271087 0.907722 0.784516
Si Si5 0.048809 0.735611 0.417130
Si Si6 0.399696 0.293850 0.947856
Si Si7 0.587637 0.100950 0.355565
O O1 0.162808 0.503996 0.254542
O O2 0.501228 0.915758 0.207740
O O3 0.567724 0.685351 0.129375
O O4 0.174054 0.945413 0.126758
O O5 0.620540 0.537886 0.932461
O O6 0.866951 0.703384 0.000446
O O7 0.112613 0.712915 0.867040
O O8 0.868131 0.400438 0.631915
O O9 0.075600 0.121733 0.741630
O O10 0.279382 0.631440 0.648053
O O11 0.381153 0.814115 0.728482
O O12 0.286505 0.972097 0.396196
O O13 0.000000 0.500000 0.500000
O O14 0.781211 0.871241 0.394979
O O15 0.500000 0.000000 0.000000
#
# Coordination Sequence:
#
# PCOD9084818 Si02
#       7
#     2   2   2   2   2   2   2
#     4  10  19  35  57  82 115 156 200 258 307 372
#     4   9  19  35  52  79 114 156 198 258 310 369
#     4  10  23  40  63  91 127 160 211 257 315 372
#     4  10  21  37  58  88 122 155 210 258 310 372
#     4  11  25  44  65  97 132 165 211 259 309 379
#     4   9  18  34  54  76 114 155 203 254 311 369
#     4  11  24  41  68  94 128 172 209 258 316 370
#
# _framework density 26.208164
#
# number of rings (size 3 to 8) (size 9 to 14) (size 15 to 20)
#    0.000    2.000    1.429    1.286    2.000    2.857 
#    0.000    6.429    0.000    0.000    0.000    0.000 
#    0.000    0.000    0.000    0.000    0.000    0.000 
#
# Total GULP energy -78330.907191 kJ/mol
# GULP energy per Si atom -5595.064799 kJ/mol
# Density = 2.614851 g / cm^3
# Si number density = 26.208164 Si / 1000 Ang^3
#
#
#
# Elastic Constant Matrix: (Units=GPa)
#
#
# Indices 1 2 3 4 5 6 
#
# 1 73.7476 11.3069 24.9035 -7.0317 -7.6778 3.7297
# 2 11.3069 63.8030 18.2718 -6.9543 -4.5273 7.5281
# 3 24.9035 18.2718 184.1014 -32.5623 16.6998 3.2179
# 4 -7.0317 -6.9543 -32.5623 22.4276 9.1408 -4.7618
# 5 -7.6778 -4.5273 16.6998 9.1408 35.2951 -2.0476
# 6 3.7297 7.5281 3.2179 -4.7618 -2.0476 51.1838
#
#
#
# Elastic Compliance Matrix: (Units=1/GPa)
#
#
# Indices 1 2 3 4 5 6 
#
# 1 0.015047 -0.001701 -0.002542 -0.001518 0.004614 -0.000643
# 2 -0.001701 0.016897 -0.001291 0.001635 0.001866 -0.002053
# 3 -0.002542 -0.001291 0.009828 0.017266 -0.009784 0.000972
# 4 -0.001518 0.001635 0.017266 0.082809 -0.029428 0.005311
# 5 0.004614 0.001866 -0.009784 -0.029428 0.041765 -0.001063
# 6 -0.000643 -0.002053 0.000972 0.005311 -0.001063 0.020277
#
#
# Mechanical properties :
#
#
# Convention : Reuss Voigt Hill
#
# Bulk Modulus (GPa) = 32.56859 47.84626 40.20742
# Shear Modulus (GPa) = 24.04695 39.59262 31.81978
#
# Velocity S-wave (km/s) = 3.03237 3.89099 3.48820
# Velocity P-wave (km/s) = 4.97134 6.20341 5.62123
#
# Compressibility (1/GPa) = 0.03070443
#
# Stress axis : x y z
#
# Youngs Moduli (GPa) = 66.45766 59.18118 101.74732
#
# Poissons Ratio (x) = 0.10065 0.25868
# Poissons Ratio (y) = 0.11302 0.13136
# Poissons Ratio (z) = 0.16896 0.07641
#
# Static dielectric constant tensor:
#      x y z
#    x 2.154610 -0.121120 -0.046000 
#    y -0.121120 2.089150 0.030740 
#    z -0.046000 0.030740 2.057410 
# 
# From -- ./inp_files/7726.got.cif
#   From: 2010.05.17/outbox.cif.g08.bks.cpg/sg2_4_cif.got.tgz:7726.got - 2010.06.03 11:33:40.
