data_PCOD9084835
_publ_section_title
;
Structure prediction by ZEFSAII (Michael W. Deem and Ramdas Pophale) SiO2 
 PCOD9084835
Probable space group: P -1
;
_chemical_formula_sum "Si O2"
_cell_formula_units_Z 16
_cell_length_a 5.278578
_cell_length_b 12.290822
_cell_length_c 14.898437
_cell_angle_alpha 131.621086
_cell_angle_beta 69.267176
_cell_angle_gamma 113.764882
_cell_volume 656.014622
_symmetry_space_group_name_H-M "P -1"
_symmetry_group_IT_number 2
_symmetry_cell_setting 'triclinic'
loop_
_space_group_symop_operation_xyz
x,y,z
-x,-y,-z
loop_
_atom_site_type_symbol
_atom_site_label
_atom_site_fract_x
_atom_site_fract_y
_atom_site_fract_z
Si Si1 0.772670 0.853891 0.057565
Si Si2 0.500935 0.051165 0.305819
Si Si3 0.281322 0.090528 0.108362
Si Si4 0.856070 0.991696 0.400916
Si Si5 0.715518 0.383870 0.501420
Si Si6 0.641836 0.249759 0.634776
Si Si7 0.755859 0.554317 0.839566
Si Si8 0.395425 0.592494 0.732475
O O1 0.532582 0.933157 0.160254
O O2 0.822450 0.858227 0.945974
O O3 0.740353 0.679174 0.984634
O O4 0.040659 0.974610 0.125786
O O5 0.636271 0.228839 0.371124
O O6 0.675345 0.009988 0.345356
O O7 0.177739 0.025686 0.355834
O O8 0.423077 0.242067 0.223448
O O9 0.500000 0.000000 0.000000
O O10 0.685912 0.830435 0.369709
O O11 0.801425 0.117378 0.545527
O O12 0.739501 0.329046 0.570845
O O13 0.468740 0.471677 0.589488
O O14 0.000000 0.500000 0.500000
O O15 0.703386 0.378292 0.772281
O O16 0.520009 0.560551 0.797045
O O17 0.073217 0.592729 0.782583
#
# Coordination Sequence:
#
# PCOD9084835 Si02
#       8
#     2   2   2   2   2   2   2   2
#     4  10  22  36  55  88 123 159 205 249 300 368
#     4  11  24  41  63  92 127 161 204 256 309 359
#     4  10  19  35  57  83 116 171 205 238 294 363
#     4  10  23  42  67  90 115 166 211 256 305 352
#     4  10  21  40  61  96 128 161 194 253 317 366
#     4   9  21  42  66  89 121 158 214 256 297 369
#     4  10  20  36  59  85 112 155 196 250 297 347
#     4  10  20  35  56  83 119 155 202 237 289 363
#
# _framework density 24.389700999999999
#
# number of rings (size 3 to 8) (size 9 to 14) (size 15 to 20)
#    0.000    2.000    1.250    1.500    1.750    7.500 
#    0.000    6.250    0.000    0.000    0.000    0.000 
#    0.000    0.000    0.000    0.000    0.000    0.000 
#
# Total GULP energy -89380.937283 kJ/mol
# GULP energy per Si atom -5586.308580 kJ/mol
# Density = 2.433419 g / cm^3
# Si number density = 24.389701 Si / 1000 Ang^3
#
#
#
# Elastic Constant Matrix: (Units=GPa)
#
#
# Indices 1 2 3 4 5 6 
#
# 1 116.0972 33.5557 22.1329 -16.0874 -11.0083 25.5083
# 2 33.5557 138.6481 63.7693 27.6835 -7.0549 38.0744
# 3 22.1329 63.7693 149.7184 37.4191 -28.2125 13.9959
# 4 -16.0874 27.6835 37.4191 42.1729 -3.5430 4.5014
# 5 -11.0083 -7.0549 -28.2125 -3.5430 40.1071 -12.2661
# 6 25.5083 38.0744 13.9959 4.5014 -12.2661 34.0373
#
#
#
# Elastic Compliance Matrix: (Units=1/GPa)
#
#
# Indices 1 2 3 4 5 6 
#
# 1 0.012526 -0.001298 -0.002889 0.009018 -0.000511 -0.008123
# 2 -0.001298 0.014229 -0.004384 -0.004878 -0.005833 -0.014598
# 3 -0.002889 -0.004384 0.012171 -0.009003 0.008089 0.006170
# 4 0.009018 -0.004878 -0.009003 0.038520 -0.002401 -0.003560
# 5 -0.000511 -0.005833 0.008089 -0.002401 0.034208 0.016226
# 6 -0.008123 -0.014598 0.006170 -0.003560 0.016226 0.055577
#
#
# Mechanical properties :
#
#
# Convention : Reuss Voigt Hill
#
# Bulk Modulus (GPa) = 45.90938 71.48662 58.69800
# Shear Modulus (GPa) = 26.09128 42.26384 34.17756
#
# Velocity S-wave (km/s) = 3.27428 4.16727 3.74747
# Velocity P-wave (km/s) = 5.75835 7.24767 6.54551
#
# Compressibility (1/GPa) = 0.02178204
#
# Stress axis : x y z
#
# Youngs Moduli (GPa) = 79.83644 70.27931 82.16184
#
# Poissons Ratio (x) = 0.09125 0.23740
# Poissons Ratio (y) = 0.10366 0.36019
# Poissons Ratio (z) = 0.23068 0.30810
#
# Static dielectric constant tensor:
#      x y z
#    x 1.984280 -0.060600 0.016380 
#    y -0.060600 2.041500 0.005900 
#    z 0.016380 0.005900 2.062550 
# 
# From -- ./inp_files/411124.got.cif
#   From: 2010.05.17/outbox.cif.g08.bks.cpg/sg2_206_cif.got.tgz:411124.got - 2010.06.03 11:33:40.
