data_PCOD9084361
_publ_section_title
;
Structure prediction by ZEFSAII (Michael W. Deem and Ramdas Pophale) SiO2 
 PCOD9084361
Probable space group: P -1
;
_chemical_formula_sum "Si O2"
_cell_formula_units_Z 15
_cell_length_a 13.872916
_cell_length_b 11.187711
_cell_length_c 18.860355
_cell_angle_alpha 148.289769
_cell_angle_beta 157.317020
_cell_angle_gamma 30.140463
_cell_volume 545.326617
_symmetry_space_group_name_H-M "P -1"
_symmetry_group_IT_number 2
_symmetry_cell_setting 'triclinic'
loop_
_space_group_symop_operation_xyz
x,y,z
-x,-y,-z
loop_
_atom_site_type_symbol
_atom_site_label
_atom_site_fract_x
_atom_site_fract_y
_atom_site_fract_z
Si Si1 0.228565 0.839765 0.866806
Si Si2 0.500000 0.500000 0.000000
Si Si3 0.457570 0.837055 0.775750
Si Si4 0.990038 0.635340 0.817580
Si Si5 0.594528 0.492863 0.314371
Si Si6 0.114836 0.770548 0.378107
Si Si7 0.174427 0.139940 0.505799
Si Si8 0.672474 0.091673 0.755566
O O1 0.417488 0.655611 0.840986
O O2 0.937073 0.866632 0.651954
O O3 0.271237 0.725131 0.914773
O O4 0.299097 0.078945 0.031569
O O5 0.741154 0.534664 0.128529
O O6 0.541822 0.593213 0.757710
O O7 0.296074 0.817865 0.586932
O O8 0.207206 0.053560 0.755108
O O9 0.880831 0.491612 0.727220
O O10 0.088021 0.819612 0.021109
O O11 0.764898 0.806594 0.695430
O O12 0.463742 0.771669 0.339684
O O13 0.920385 0.356837 0.479918
O O14 0.223150 0.874938 0.437791
O O15 0.434519 0.211780 0.716190
#
# Coordination Sequence:
#
# PCOD9084361 Si02
#       8
#     2   1   2   2   2   2   2   2
#     4  10  21  35  63  94 123 166 208 264 305 372
#     4  12  22  40  66  92 130 158 216 260 314 372
#     4  10  19  34  63  93 126 161 211 259 318 358
#     4  11  25  39  66  91 132 166 208 264 316 371
#     4   9  19  36  65  92 125 164 210 255 306 382
#     4  10  21  38  60  98 124 163 208 267 308 375
#     4   9  22  37  66  92 126 160 217 255 309 375
#     4  11  22  42  62  96 126 172 209 254 317 379
#
# _framework density 27.506450999999998
#
# number of rings (size 3 to 8) (size 9 to 14) (size 15 to 20)
#    0.800    1.067    2.667    0.800    3.733    2.667 
#    0.000    2.667    0.000    1.600    0.000    0.000 
#    0.000    0.000    0.000    0.000    0.000    0.000 
#
# Total GULP energy -83671.921777 kJ/mol
# GULP energy per Si atom -5578.128118 kJ/mol
# Density = 2.744385 g / cm^3
# Si number density = 27.506451 Si / 1000 Ang^3
#
#
#
# Elastic Constant Matrix: (Units=GPa)
#
#
# Indices 1 2 3 4 5 6 
#
# 1 66.4928 47.5307 16.4706 0.3426 2.4634 22.8100
# 2 47.5307 173.4368 29.3851 12.5222 5.8860 52.8180
# 3 16.4706 29.3851 116.5325 18.4171 12.2796 25.4564
# 4 0.3426 12.5222 18.4171 34.9565 14.1838 -4.9037
# 5 2.4634 5.8860 12.2796 14.1838 24.0521 0.1027
# 6 22.8100 52.8180 25.4564 -4.9037 0.1027 69.6644
#
#
#
# Elastic Compliance Matrix: (Units=1/GPa)
#
#
# Indices 1 2 3 4 5 6 
#
# 1 0.019435 -0.004536 -0.001328 0.002491 -0.001662 -0.002262
# 2 -0.004536 0.009013 0.000244 -0.004433 0.000773 -0.005750
# 3 -0.001328 0.000244 0.010665 -0.005371 -0.002184 -0.004022
# 4 0.002491 -0.004433 -0.005371 0.042886 -0.021751 0.007559
# 5 -0.001662 0.000773 -0.002184 -0.021751 0.055503 -0.000857
# 6 -0.002262 -0.005750 -0.004022 0.007559 -0.000857 0.021458
#
#
# Mechanical properties :
#
#
# Convention : Reuss Voigt Hill
#
# Bulk Modulus (GPa) = 35.87722 60.35944 48.11833
# Shear Modulus (GPa) = 27.85659 43.27296 35.56478
#
# Velocity S-wave (km/s) = 3.18579 3.97065 3.59968
# Velocity P-wave (km/s) = 5.15790 6.55842 5.89986
#
# Compressibility (1/GPa) = 0.02787284
#
# Stress axis : x y z
#
# Youngs Moduli (GPa) = 51.45328 110.95666 93.76324
#
# Poissons Ratio (x) = 0.50330 0.12449
# Poissons Ratio (y) = 0.23339 -0.02285
# Poissons Ratio (z) = 0.06831 -0.02704
#
# Static dielectric constant tensor:
#      x y z
#    x 1.704340 0.088770 0.184150 
#    y 0.088770 2.113110 -0.117120 
#    z 0.184150 -0.117120 1.992890 
# 
# From -- ./inp_files/613069.got.cif
#   From: 2010.05.17/outbox.cif.g08.bks.cpg/sg2_307_cif.got.tgz:613069.got - 2010.06.03 11:33:40.
