data_PCOD9084442
_publ_section_title
;
Structure prediction by ZEFSAII (Michael W. Deem and Ramdas Pophale) SiO2 
 PCOD9084442
Probable space group: P -1
;
_chemical_formula_sum "Si O2"
_cell_formula_units_Z 16
_cell_length_a 20.016683
_cell_length_b 31.454805
_cell_length_c 31.451906
_cell_angle_alpha 8.934922
_cell_angle_beta 19.690931
_cell_angle_gamma 18.852882
_cell_volume 985.074059
_symmetry_space_group_name_H-M "P -1"
_symmetry_group_IT_number 2
_symmetry_cell_setting 'triclinic'
loop_
_space_group_symop_operation_xyz
x,y,z
-x,-y,-z
loop_
_atom_site_type_symbol
_atom_site_label
_atom_site_fract_x
_atom_site_fract_y
_atom_site_fract_z
Si Si1 0.255518 0.422394 0.250046
Si Si2 0.341020 0.487904 0.876223
Si Si3 0.848203 0.652242 0.478532
Si Si4 0.391087 0.919666 0.947128
Si Si5 0.443891 0.730018 0.954443
Si Si6 0.500578 0.831411 0.724347
Si Si7 0.878535 0.432849 0.521593
Si Si8 0.197815 0.054660 0.348366
O O1 0.306010 0.328001 0.264307
O O2 0.030032 0.439891 0.385065
O O3 0.422709 0.169172 0.426779
O O4 0.314268 0.710276 0.939822
O O5 0.383268 0.443820 0.943995
O O6 0.549816 0.276621 0.936975
O O7 0.163915 0.355197 0.096295
O O8 0.296317 0.802138 0.573015
O O9 0.000000 0.500000 0.500000
O O10 0.978391 0.717112 0.375999
O O11 0.679181 0.949004 0.272652
O O12 0.725383 0.439782 0.778833
O O13 0.239194 0.240537 0.716422
O O14 0.619564 0.947490 0.792698
O O15 0.284708 0.740127 0.218083
O O16 0.529931 0.767154 0.819818
O O17 0.000000 0.000000 0.500000
#
# Coordination Sequence:
#
# PCOD9084442 Si02
#       8
#     2   2   2   2   2   2   2   2
#     4  10  20  32  49  64  91 128 180 212 237 267
#     4  10  20  33  50  73  98 126 153 206 226 287
#     4  12  23  30  44  65  99 142 170 192 221 290
#     4  10  20  31  49  69 100 122 153 204 231 285
#     4  12  20  35  46  68  97 133 170 202 237 264
#     4  10  19  35  47  65  88 132 178 214 234 267
#     4  12  18  32  45  70  96 132 167 199 239 263
#     4  10  20  37  54  70  95 129 153 188 246 301
#
# _framework density 16.242435
#
# number of rings (size 3 to 8) (size 9 to 14) (size 15 to 20)
#    0.750    0.500    3.750    4.500    0.000    0.000 
#    0.000    0.000    0.000    0.000    0.000    0.000 
#    0.000    6.000    0.000    0.000    0.000    0.000 
#
# Total GULP energy -89196.727687 kJ/mol
# GULP energy per Si atom -5574.795480 kJ/mol
# Density = 1.620547 g / cm^3
# Si number density = 16.242435 Si / 1000 Ang^3
#
#
#
# Elastic Constant Matrix: (Units=GPa)
#
#
# Indices 1 2 3 4 5 6 
#
# 1 53.2625 29.6542 5.4926 16.8905 8.8289 11.8719
# 2 29.6542 43.3025 10.3957 18.2673 7.6027 7.9071
# 3 5.4926 10.3957 78.0874 8.2326 7.4871 0.1087
# 4 16.8905 18.2673 8.2326 33.4317 -0.9226 2.3852
# 5 8.8289 7.6027 7.4871 -0.9226 17.8703 3.3961
# 6 11.8719 7.9071 0.1087 2.3852 3.3961 15.9119
#
#
#
# Elastic Compliance Matrix: (Units=1/GPa)
#
#
# Indices 1 2 3 4 5 6 
#
# 1 0.035362 -0.016909 0.001455 -0.008151 -0.008464 -0.014963
# 2 -0.016909 0.044018 -0.002209 -0.014861 -0.009257 -0.005040
# 3 0.001455 -0.002209 0.013923 -0.003247 -0.006104 0.001706
# 4 -0.008151 -0.014861 -0.003247 0.043009 0.013124 0.004240
# 5 -0.008464 -0.009257 -0.006104 0.013124 0.068379 -0.005605
# 6 -0.014963 -0.005040 0.001706 0.004240 -0.005605 0.077063
#
#
# Mechanical properties :
#
#
# Convention : Reuss Voigt Hill
#
# Bulk Modulus (GPa) = 17.24825 29.52639 23.38732
# Shear Modulus (GPa) = 14.86302 22.05011 18.45657
#
# Velocity S-wave (km/s) = 3.02830 3.68851 3.37459
# Velocity P-wave (km/s) = 4.78224 6.02977 5.44187
#
# Compressibility (1/GPa) = 0.05797688
#
# Stress axis : x y z
#
# Youngs Moduli (GPa) = 28.27898 22.71806 71.82279
#
# Poissons Ratio (x) = 0.38414 -0.10454
# Poissons Ratio (y) = 0.47817 0.15869
# Poissons Ratio (z) = -0.04116 0.05019
#
# Static dielectric constant tensor:
#      x y z
#    x 1.545330 0.012260 -0.012860 
#    y 0.012260 1.560980 0.008450 
#    z -0.012860 0.008450 1.588740 
# 
# From -- ./inp_files/533323.got.cif
#   From: 2010.05.17/outbox.cif.g08.bks.cpg/sg2_267_cif.got.tgz:533323.got - 2010.06.03 11:33:40.
