data_PCOD9084896
_publ_section_title
;
Structure prediction by ZEFSAII (Michael W. Deem and Ramdas Pophale) SiO2 
 PCOD9084896
Probable space group: P -1
;
_chemical_formula_sum "Si O2"
_cell_formula_units_Z 16
_cell_length_a 14.101698
_cell_length_b 13.942340
_cell_length_c 11.779467
_cell_angle_alpha 142.092423
_cell_angle_beta 150.779792
_cell_angle_gamma 49.842483
_cell_volume 687.200534
_symmetry_space_group_name_H-M "P -1"
_symmetry_group_IT_number 2
_symmetry_cell_setting 'triclinic'
loop_
_space_group_symop_operation_xyz
x,y,z
-x,-y,-z
loop_
_atom_site_type_symbol
_atom_site_label
_atom_site_fract_x
_atom_site_fract_y
_atom_site_fract_z
Si Si1 0.725254 0.132940 0.974609
Si Si2 0.042153 0.954578 0.180393
Si Si3 0.759391 0.111442 0.476732
Si Si4 0.276210 0.318977 0.317764
Si Si5 0.581220 0.188243 0.654348
Si Si6 0.354887 0.344692 0.164058
Si Si7 0.946368 0.468992 0.045781
Si Si8 0.616932 0.118664 0.102279
O O1 0.647277 0.244076 0.902828
O O2 0.582970 0.966036 0.655299
O O3 0.697549 0.169896 0.111965
O O4 0.946694 0.093495 0.151589
O O5 0.114488 0.998466 0.424743
O O6 0.225719 0.884671 0.253767
O O7 0.868237 0.812349 0.887823
O O8 0.825334 0.291612 0.753077
O O9 0.774953 0.102616 0.349909
O O10 0.535802 0.043840 0.214531
O O11 0.485449 0.313117 0.592288
O O12 0.276446 0.280078 0.145897
O O13 0.149502 0.465519 0.322228
O O14 0.500000 0.500000 0.500000
O O15 0.195634 0.401150 0.964857
O O16 0.484882 0.237011 0.132161
O O17 0.000000 0.500000 0.000000
#
# Coordination Sequence:
#
# PCOD9084896 Si02
#       8
#     2   2   2   2   2   2   2   2
#     4  10  22  35  56  86 121 163 199 246 307 361
#     4  10  19  35  57  88 120 154 199 247 305 361
#     4  10  20  35  58  87 126 154 190 249 306 358
#     4   9  21  35  60  89 110 156 208 245 294 362
#     4  10  19  38  59  83 120 157 204 253 300 356
#     4  11  21  37  62  88 125 163 197 249 303 372
#     4   9  19  38  55  89 121 157 208 234 296 370
#     4  11  22  36  57  91 129 159 196 248 315 357
#
# _framework density 23.282868000000001
#
# number of rings (size 3 to 8) (size 9 to 14) (size 15 to 20)
#    0.000    2.000    2.500    1.125    7.000    0.500 
#    4.500    0.000    0.000    1.500    0.000    0.000 
#    0.000    0.000    0.000    0.000    0.000    0.000 
#
# Total GULP energy -89152.501434 kJ/mol
# GULP energy per Si atom -5572.031340 kJ/mol
# Density = 2.322988 g / cm^3
# Si number density = 23.282868 Si / 1000 Ang^3
#
#
#
# Elastic Constant Matrix: (Units=GPa)
#
#
# Indices 1 2 3 4 5 6 
#
# 1 62.3788 42.7839 31.7952 -35.6316 -11.9968 -4.2852
# 2 42.7839 148.5789 50.2450 -57.2814 -9.7477 -0.5744
# 3 31.7952 50.2450 57.3729 -26.8474 -2.0168 1.4474
# 4 -35.6316 -57.2814 -26.8474 57.5011 12.2947 -4.0244
# 5 -11.9968 -9.7477 -2.0168 12.2947 34.1146 -12.6219
# 6 -4.2852 -0.5744 1.4474 -4.0244 -12.6219 27.4583
#
#
#
# Elastic Compliance Matrix: (Units=1/GPa)
#
#
# Indices 1 2 3 4 5 6 
#
# 1 0.032542 0.000893 -0.012231 0.013957 0.010636 0.012677
# 2 0.000893 0.012774 -0.007050 0.009973 0.000942 0.002673
# 3 -0.012231 -0.007050 0.030677 0.000809 -0.007361 -0.006938
# 4 0.013957 0.009973 0.000809 0.037518 -0.003390 0.006285
# 5 0.010636 0.000942 -0.007361 -0.003390 0.041799 0.020785
# 6 0.012677 0.002673 -0.006938 0.006285 0.020785 0.049294
#
#
# Mechanical properties :
#
#
# Convention : Reuss Voigt Hill
#
# Bulk Modulus (GPa) = 25.49842 57.55321 41.52581
# Shear Modulus (GPa) = 19.65012 33.38189 26.51601
#
# Velocity S-wave (km/s) = 2.90827 3.79060 3.37837
# Velocity P-wave (km/s) = 4.71728 6.62805 5.75255
#
# Compressibility (1/GPa) = 0.03921811
#
# Stress axis : x y z
#
# Youngs Moduli (GPa) = 30.72991 78.28232 32.59761
#
# Poissons Ratio (x) = -0.06994 0.39871
# Poissons Ratio (y) = -0.02746 0.22981
# Poissons Ratio (z) = 0.37586 0.55187
#
# Static dielectric constant tensor:
#      x y z
#    x 1.996910 0.011590 -0.003430 
#    y 0.011590 2.012370 -0.077600 
#    z -0.003430 -0.077600 1.965210 
# 
# From -- ./inp_files/455972.got.cif
#   From: 2010.05.17/outbox.cif.g08.bks.cpg/sg2_228_cif.got.tgz:455972.got - 2010.06.03 11:33:40.
