data_PCOD9084802
_publ_section_title
;
Structure prediction by ZEFSAII (Michael W. Deem and Ramdas Pophale) SiO2 
 PCOD9084802
Probable space group: P -1
;
_chemical_formula_sum "Si O2"
_cell_formula_units_Z 16
_cell_length_a 9.227176
_cell_length_b 10.765358
_cell_length_c 11.383793
_cell_angle_alpha 109.711201
_cell_angle_beta 59.964201
_cell_angle_gamma 65.078954
_cell_volume 635.540328
_symmetry_space_group_name_H-M "P -1"
_symmetry_group_IT_number 2
_symmetry_cell_setting 'triclinic'
loop_
_space_group_symop_operation_xyz
x,y,z
-x,-y,-z
loop_
_atom_site_type_symbol
_atom_site_label
_atom_site_fract_x
_atom_site_fract_y
_atom_site_fract_z
Si Si1 0.791583 0.269685 0.748054
Si Si2 0.062907 0.822291 0.766173
Si Si3 0.784130 0.594162 0.207231
Si Si4 0.326731 0.863558 0.816003
Si Si5 0.719221 0.880992 0.780865
Si Si6 0.652910 0.068174 0.643931
Si Si7 0.157917 0.485210 0.580871
Si Si8 0.391726 0.583619 0.871408
O O1 0.658550 0.207297 0.751360
O O2 0.677856 0.425096 0.739540
O O3 0.727106 0.351190 0.930765
O O4 0.078005 0.098730 0.568299
O O5 0.865387 0.922810 0.985480
O O6 0.216746 0.863615 0.742128
O O7 0.228097 0.598865 0.615105
O O8 0.891321 0.910524 0.750981
O O9 0.555064 0.813227 0.331467
O O10 0.875013 0.560103 0.292400
O O11 0.687787 0.500051 0.194287
O O12 0.000000 0.500000 0.000000
O O13 0.612144 0.715685 0.635146
O O14 0.316595 0.753422 0.882671
O O15 0.617064 0.976788 0.726598
O O16 0.908720 0.655762 0.666129
O O17 0.500000 0.000000 0.000000
#
# Coordination Sequence:
#
# PCOD9084802 Si02
#       8
#     2   2   2   2   2   2   2   2
#     4   9  20  34  54  86 112 142 183 232 289 332
#     4   9  22  33  58  89 115 141 179 246 281 334
#     4  11  23  39  55  79 114 158 188 220 280 339
#     4  11  19  36  61  91 109 142 190 240 297 323
#     4  10  20  37  56  81 115 153 189 230 277 330
#     4  10  20  35  59  82 109 150 185 228 281 339
#     4  10  22  38  60  86 113 149 187 237 283 335
#     4  10  19  35  57  81 118 142 181 239 280 336
#
# _framework density 25.175429000000001
#
# number of rings (size 3 to 8) (size 9 to 14) (size 15 to 20)
#    0.750    1.250    1.250    2.625    0.000    4.000 
#    0.000    2.500    0.000    0.000    0.000    0.000 
#    0.000    0.000    0.000    0.000    0.000    0.000 
#
# Total GULP energy -89387.544085 kJ/mol
# GULP energy per Si atom -5586.721505 kJ/mol
# Density = 2.511813 g / cm^3
# Si number density = 25.175429 Si / 1000 Ang^3
#
#
#
# Elastic Constant Matrix: (Units=GPa)
#
#
# Indices 1 2 3 4 5 6 
#
# 1 47.6117 11.5288 -3.4986 11.3742 -6.0408 -11.2922
# 2 11.5288 119.7398 27.1704 8.2686 -11.5769 -13.7278
# 3 -3.4986 27.1704 104.8501 22.7242 -12.7760 4.5386
# 4 11.3742 8.2686 22.7242 39.9821 -2.9489 -2.4590
# 5 -6.0408 -11.5769 -12.7760 -2.9489 29.3536 11.5675
# 6 -11.2922 -13.7278 4.5386 -2.4590 11.5675 25.5304
#
#
#
# Elastic Compliance Matrix: (Units=1/GPa)
#
#
# Indices 1 2 3 4 5 6 
#
# 1 0.025701 -0.001408 0.002794 -0.007951 0.001786 0.008539
# 2 -0.001408 0.009705 -0.002794 0.000315 0.000407 0.004938
# 3 0.002794 -0.002794 0.013126 -0.007561 0.006985 -0.006493
# 4 -0.007951 0.000315 -0.007561 0.031454 -0.002493 0.002156
# 5 0.001786 0.000407 0.006985 -0.002493 0.045738 -0.021196
# 6 0.008539 0.004938 -0.006493 0.002156 -0.021196 0.056567
#
#
# Mechanical properties :
#
#
# Convention : Reuss Voigt Hill
#
# Bulk Modulus (GPa) = 21.87496 38.06696 29.97096
# Shear Modulus (GPa) = 24.95691 34.77328 29.86510
#
# Velocity S-wave (km/s) = 3.15194 3.72053 3.44798
# Velocity P-wave (km/s) = 4.68553 5.79741 5.27087
#
# Compressibility (1/GPa) = 0.04571437
#
# Stress axis : x y z
#
# Youngs Moduli (GPa) = 38.90942 103.04181 76.18660
#
# Poissons Ratio (x) = 0.14505 -0.21284
# Poissons Ratio (y) = 0.05477 0.21289
# Poissons Ratio (z) = -0.10870 0.28793
#
# Static dielectric constant tensor:
#      x y z
#    x 2.096230 0.013440 0.023970 
#    y 0.013440 1.986390 0.017680 
#    z 0.023970 0.017680 1.976250 
# 
# From -- ./inp_files/432932.got.cif
#   From: 2010.05.17/outbox.cif.g08.bks.cpg/sg2_217_cif.got.tgz:432932.got - 2010.06.03 11:33:40.
