data_PCOD9084198
_publ_section_title
;
Structure prediction by ZEFSAII (Michael W. Deem and Ramdas Pophale) SiO2 
 PCOD9084198
Probable space group: P -1
;
_chemical_formula_sum "Si O2"
_cell_formula_units_Z 16
_cell_length_a 9.072955
_cell_length_b 13.799897
_cell_length_c 9.345752
_cell_angle_alpha 137.396356
_cell_angle_beta 111.470231
_cell_angle_gamma 74.990946
_cell_volume 737.029868
_symmetry_space_group_name_H-M "P -1"
_symmetry_group_IT_number 2
_symmetry_cell_setting 'triclinic'
loop_
_space_group_symop_operation_xyz
x,y,z
-x,-y,-z
loop_
_atom_site_type_symbol
_atom_site_label
_atom_site_fract_x
_atom_site_fract_y
_atom_site_fract_z
Si Si1 0.495863 0.316353 0.900340
Si Si2 0.767625 0.448130 0.989555
Si Si3 0.899711 0.072576 0.913386
Si Si4 0.794377 0.873488 0.400421
Si Si5 0.043249 0.638789 0.314365
Si Si6 0.809849 0.868006 0.081602
Si Si7 0.267406 0.844681 0.796680
Si Si8 0.531499 0.651327 0.747541
O O1 0.364092 0.427683 0.915822
O O2 0.390564 0.171758 0.706328
O O3 0.662050 0.319219 0.878678
O O4 0.523372 0.362775 0.123599
O O5 0.929151 0.508602 0.186414
O O6 0.829189 0.413636 0.813971
O O7 0.024872 0.167464 0.973047
O O8 0.836630 0.964229 0.653477
O O9 0.761694 0.141850 0.029429
O O10 0.000000 0.000000 0.000000
O O11 0.824334 0.933094 0.317004
O O12 0.915105 0.740310 0.302729
O O13 0.132936 0.737749 0.568577
O O14 0.739328 0.999693 0.108646
O O15 0.705002 0.723886 0.894032
O O16 0.431353 0.767104 0.751219
O O17 0.500000 0.500000 0.500000
#
# Coordination Sequence:
#
# PCOD9084198 Si02
#       8
#     2   2   2   2   2   2   2   2
#     4   9  20  39  58  87 121 165 208 251 303 364
#     4   9  19  37  59  89 121 162 206 248 308 364
#     4  10  20  38  60  94 125 157 203 259 311 360
#     4  10  19  38  63  88 123 156 207 257 302 363
#     4  10  19  34  61  90 122 157 203 255 301 368
#     4  10  22  41  65  92 121 169 206 250 307 368
#     4  11  23  41  62  93 125 161 208 251 314 363
#     4  11  24  43  61  88 130 164 206 254 308 369
#
# _framework density 21.708753999999999
#
# number of rings (size 3 to 8) (size 9 to 14) (size 15 to 20)
#    0.000    2.000    2.500    1.500    0.000    3.000 
#   13.500    2.500    0.000    0.000    0.000    0.000 
#    0.000    0.000    0.000    0.000    0.000    0.000 
#
# Total GULP energy -89209.248260 kJ/mol
# GULP energy per Si atom -5575.578016 kJ/mol
# Density = 2.165934 g / cm^3
# Si number density = 21.708754 Si / 1000 Ang^3
#
#
#
# Elastic Constant Matrix: (Units=GPa)
#
#
# Indices 1 2 3 4 5 6 
#
# 1 120.5768 23.8756 45.4758 0.0582 0.7722 31.6731
# 2 23.8756 30.1504 15.1136 -4.0586 -1.1480 14.4330
# 3 45.4758 15.1136 130.1254 -5.1859 -1.3953 19.4969
# 4 0.0582 -4.0586 -5.1859 23.4384 -2.1263 -4.6338
# 5 0.7722 -1.1480 -1.3953 -2.1263 21.9992 -0.4435
# 6 31.6731 14.4330 19.4969 -4.6338 -0.4435 30.2232
#
#
#
# Elastic Compliance Matrix: (Units=1/GPa)
#
#
# Indices 1 2 3 4 5 6 
#
# 1 0.012859 -0.004527 -0.002595 -0.003534 -0.001399 -0.010202
# 2 -0.004527 0.045477 -0.001166 0.004812 0.002612 -0.015445
# 3 -0.002595 -0.001166 0.009151 0.001418 0.000699 -0.002399
# 4 -0.003534 0.004812 0.001418 0.045778 0.005043 0.007583
# 5 -0.001399 0.002612 0.000699 0.005043 0.046198 0.001219
# 6 -0.010202 -0.015445 -0.002399 0.007583 0.001219 0.053883
#
#
# Mechanical properties :
#
#
# Convention : Reuss Voigt Hill
#
# Bulk Modulus (GPa) = 19.64250 49.97583 34.80917
# Shear Modulus (GPa) = 20.25172 28.22467 24.23819
#
# Velocity S-wave (km/s) = 3.05763 3.60967 3.34506
# Velocity P-wave (km/s) = 4.64040 6.35956 5.56674
#
# Compressibility (1/GPa) = 0.05091001
#
# Stress axis : x y z
#
# Youngs Moduli (GPa) = 77.76386 21.98909 109.28020
#
# Poissons Ratio (x) = 0.09955 0.28363
# Poissons Ratio (y) = 0.35206 0.12742
# Poissons Ratio (z) = 0.20183 0.02564
#
# Static dielectric constant tensor:
#      x y z
#    x 1.854110 -0.014750 0.027830 
#    y -0.014750 1.854350 0.035560 
#    z 0.027830 0.035560 1.784240 
# 
# From -- ./inp_files/209101.got.cif
#   From: 2010.05.17/outbox.cif.g08.bks.cpg/sg2_105_cif.got.tgz:209101.got - 2010.06.03 11:33:40.
