data_PCOD9084048
_publ_section_title
;
Structure prediction by ZEFSAII (Michael W. Deem and Ramdas Pophale) SiO2 
 PCOD9084048
Probable space group: P -1
;
_chemical_formula_sum "Si O2"
_cell_formula_units_Z 14
_cell_length_a 7.490417
_cell_length_b 14.968130
_cell_length_c 9.329733
_cell_angle_alpha 142.036878
_cell_angle_beta 110.234021
_cell_angle_gamma 63.065933
_cell_volume 573.548621
_symmetry_space_group_name_H-M "P -1"
_symmetry_group_IT_number 2
_symmetry_cell_setting 'triclinic'
loop_
_space_group_symop_operation_xyz
x,y,z
-x,-y,-z
loop_
_atom_site_type_symbol
_atom_site_label
_atom_site_fract_x
_atom_site_fract_y
_atom_site_fract_z
Si Si1 0.269598 0.908404 0.341253
Si Si2 0.012756 0.768083 0.299944
Si Si3 0.658384 0.282708 0.457636
Si Si4 0.547424 0.266363 0.109288
Si Si5 0.122687 0.427469 0.213324
Si Si6 0.788298 0.680979 0.582830
Si Si7 0.518036 0.045522 0.263931
O O1 0.122476 0.838601 0.298961
O O2 0.437828 0.916029 0.512703
O O3 0.353135 0.796744 0.091638
O O4 0.149777 0.083550 0.489954
O O5 0.180650 0.681750 0.350917
O O6 0.920517 0.659358 0.047112
O O7 0.692646 0.279134 0.293103
O O8 0.420136 0.365306 0.527822
O O9 0.667750 0.109027 0.291798
O O10 0.355382 0.416605 0.242654
O O11 0.458087 0.130905 0.962857
O O12 0.121494 0.346373 0.267098
O O13 0.944819 0.582343 0.387951
O O14 0.699675 0.854546 0.724995
#
# Coordination Sequence:
#
# PCOD9084048 Si02
#       7
#     2   2   2   2   2   2   2
#     4  10  21  33  52  85 110 136 175 223 262 321
#     4  10  20  35  54  76 112 141 173 213 278 307
#     4   8  19  33  53  79 109 137 173 217 261 319
#     4  11  19  33  60  79 107 138 181 217 265 301
#     4  10  19  34  60  80 100 143 179 221 255 319
#     4   8  19  35  54  83 104 135 186 212 258 320
#     4   9  17  33  54  80 103 139 172 223 251 316
#
# _framework density 24.409438999999999
#
# number of rings (size 3 to 8) (size 9 to 14) (size 15 to 20)
#    0.857    1.714    1.429    0.857    0.000    1.143 
#    0.000    0.714    0.000    7.714    0.000    0.000 
#    0.000    0.000    0.000    0.000    0.000    0.000 
#
# Total GULP energy -78210.681011 kJ/mol
# GULP energy per Si atom -5586.477215 kJ/mol
# Density = 2.435388 g / cm^3
# Si number density = 24.409439 Si / 1000 Ang^3
#
#
#
# Elastic Constant Matrix: (Units=GPa)
#
#
# Indices 1 2 3 4 5 6 
#
# 1 67.6991 15.3054 37.0248 -5.9066 -9.9343 -5.5886
# 2 15.3054 96.8247 44.2398 -13.4147 -4.6411 -24.1842
# 3 37.0248 44.2398 143.4615 -25.2231 -16.9419 -14.0105
# 4 -5.9066 -13.4147 -25.2231 45.7762 -9.9979 3.3787
# 5 -9.9343 -4.6411 -16.9419 -9.9979 48.7529 -0.3848
# 6 -5.5886 -24.1842 -14.0105 3.3787 -0.3848 24.3802
#
#
#
# Elastic Compliance Matrix: (Units=1/GPa)
#
#
# Indices 1 2 3 4 5 6 
#
# 1 0.017486 -0.000513 -0.003908 0.000350 0.002238 0.001241
# 2 -0.000513 0.015330 -0.002833 0.002089 0.000903 0.013185
# 3 -0.003908 -0.002833 0.010306 0.005004 0.003554 0.001579
# 4 0.000350 0.002089 0.005004 0.026796 0.007516 0.001433
# 5 0.002238 0.000903 0.003554 0.007516 0.023852 0.002786
# 6 0.001241 0.013185 0.001579 0.001433 0.002786 0.055133
#
#
# Mechanical properties :
#
#
# Convention : Reuss Voigt Hill
#
# Bulk Modulus (GPa) = 34.94799 55.68059 45.31429
# Shear Modulus (GPa) = 28.91033 37.87620 33.39327
#
# Velocity S-wave (km/s) = 3.44523 3.94344 3.70272
# Velocity P-wave (km/s) = 5.49315 6.60264 6.07328
#
# Compressibility (1/GPa) = 0.02861395
#
# Stress axis : x y z
#
# Youngs Moduli (GPa) = 57.18987 65.23323 97.02625
#
# Poissons Ratio (x) = 0.03347 0.37914
# Poissons Ratio (y) = 0.02934 0.27490
# Poissons Ratio (z) = 0.22347 0.18483
#
# Static dielectric constant tensor:
#      x y z
#    x 1.986400 0.041270 0.014740 
#    y 0.041270 2.004900 0.011710 
#    z 0.014740 0.011710 1.876570 
# 
# From -- ./inp_files/169247.got.cif
#   From: 2010.05.17/outbox.cif.g08.bks.cpg/sg2_85_cif.got.tgz:169247.got - 2010.06.03 11:33:40.
