data_PCOD9084197
_publ_section_title
;
Structure prediction by ZEFSAII (Michael W. Deem and Ramdas Pophale) SiO2 
 PCOD9084197
Probable space group: P -1
;
_chemical_formula_sum "Si O2"
_cell_formula_units_Z 16
_cell_length_a 21.148081
_cell_length_b 14.919364
_cell_length_c 9.289285
_cell_angle_alpha 33.558327
_cell_angle_beta 139.760211
_cell_angle_gamma 148.454433
_cell_volume 833.186430
_symmetry_space_group_name_H-M "P -1"
_symmetry_group_IT_number 2
_symmetry_cell_setting 'triclinic'
loop_
_space_group_symop_operation_xyz
x,y,z
-x,-y,-z
loop_
_atom_site_type_symbol
_atom_site_label
_atom_site_fract_x
_atom_site_fract_y
_atom_site_fract_z
Si Si1 0.800477 0.039850 0.519963
Si Si2 0.886244 0.095470 0.002350
Si Si3 0.667172 0.304634 0.552835
Si Si4 0.972473 0.655781 0.352178
Si Si5 0.835499 0.769936 0.153383
Si Si6 0.438124 0.027750 0.723279
Si Si7 0.881959 0.269483 0.064902
Si Si8 0.721111 0.205464 0.495082
O O1 0.658764 0.943750 0.418140
O O2 0.841976 0.104547 0.341251
O O3 0.813233 0.887100 0.838041
O O4 0.894260 0.261692 0.465522
O O5 0.758861 0.055173 0.782236
O O6 0.997160 0.259581 0.869640
O O7 0.904535 0.184839 0.073547
O O8 0.872507 0.894630 0.200208
O O9 0.725416 0.537468 0.307595
O O10 0.548287 0.201841 0.582312
O O11 0.642036 0.193302 0.505853
O O12 0.770820 0.287894 0.823663
O O13 0.936469 0.758932 0.265596
O O14 0.854724 0.423951 0.453235
O O15 0.351589 0.836887 0.720694
O O16 0.500000 0.000000 0.000000
O O17 0.000000 0.500000 0.000000
#
# Coordination Sequence:
#
# PCOD9084197 Si02
#       8
#     2   2   2   2   2   2   2   2
#     4  11  21  39  62  90 126 158 201 252 311 352
#     4  10  19  34  61  90 119 160 200 247 309 361
#     4  10  23  41  60  89 122 157 212 247 302 364
#     4  10  20  37  65  93 118 154 212 255 302 364
#     4  10  21  41  63  90 121 161 206 256 300 370
#     4  12  23  38  62  90 124 162 202 255 302 363
#     4  11  23  38  61  93 128 160 201 260 305 356
#     4  10  20  37  62  90 117 159 207 255 296 366
#
# _framework density 19.203385000000001
#
# number of rings (size 3 to 8) (size 9 to 14) (size 15 to 20)
#    0.000    1.500    3.750    4.500    1.750    0.500 
#    0.000    8.125    0.000    3.750    0.000    0.000 
#    0.000    0.000    0.000    0.000    0.000    0.000 
#
# Total GULP energy -89097.340741 kJ/mol
# GULP energy per Si atom -5568.583796 kJ/mol
# Density = 1.915968 g / cm^3
# Si number density = 19.203385 Si / 1000 Ang^3
#
#
#
# Elastic Constant Matrix: (Units=GPa)
#
#
# Indices 1 2 3 4 5 6 
#
# 1 159.4372 61.4037 32.8561 -7.3958 -17.3921 1.1007
# 2 61.4037 92.1993 42.8403 3.2059 -0.2819 9.4089
# 3 32.8561 42.8403 67.1050 3.9401 -11.6758 0.9296
# 4 -7.3958 3.2059 3.9401 31.8553 2.5054 -5.8778
# 5 -17.3921 -0.2819 -11.6758 2.5054 32.0078 -2.1887
# 6 1.1007 9.4089 0.9296 -5.8778 -2.1887 43.5115
#
#
#
# Elastic Compliance Matrix: (Units=1/GPa)
#
#
# Indices 1 2 3 4 5 6 
#
# 1 0.009470 -0.006752 0.000379 0.002768 0.005134 0.001844
# 2 -0.006752 0.021181 -0.011346 -0.002592 -0.007753 -0.004907
# 3 0.000379 -0.011346 0.023618 -0.002010 0.009024 0.002122
# 4 0.002768 -0.002592 -0.002010 0.033586 -0.001540 0.004993
# 5 0.005134 -0.007753 0.009024 -0.001540 0.037583 0.003036
# 6 0.001844 -0.004907 0.002122 0.004993 0.003036 0.024779
#
#
# Mechanical properties :
#
#
# Convention : Reuss Voigt Hill
#
# Bulk Modulus (GPa) = 53.09847 65.88241 59.49044
# Shear Modulus (GPa) = 26.05080 33.58434 29.81757
#
# Velocity S-wave (km/s) = 3.68716 4.18649 3.94474
# Velocity P-wave (km/s) = 6.77034 7.59942 7.19683
#
# Compressibility (1/GPa) = 0.01883294
#
# Stress axis : x y z
#
# Youngs Moduli (GPa) = 105.59745 47.21109 42.34002
#
# Poissons Ratio (x) = 0.31875 -0.01604
# Poissons Ratio (y) = 0.71296 0.48037
# Poissons Ratio (z) = -0.04000 0.53564
#
# Static dielectric constant tensor:
#      x y z
#    x 1.728580 -0.018330 -0.000530 
#    y -0.018330 1.694510 -0.003390 
#    z -0.000530 -0.003390 1.710010 
# 
# From -- ./inp_files/347476.got.cif
#   From: 2010.05.17/outbox.cif.g08.bks.cpg/sg2_174_cif.got.tgz:347476.got - 2010.06.03 11:33:40.
