data_PCOD9084830
_publ_section_title
;
Structure prediction by ZEFSAII (Michael W. Deem and Ramdas Pophale) SiO2 
 PCOD9084830
Probable space group: P -1
;
_chemical_formula_sum "Si O2"
_cell_formula_units_Z 16
_cell_length_a 9.194449
_cell_length_b 11.108907
_cell_length_c 13.706934
_cell_angle_alpha 44.607093
_cell_angle_beta 79.178914
_cell_angle_gamma 112.549340
_cell_volume 639.013036
_symmetry_space_group_name_H-M "P -1"
_symmetry_group_IT_number 2
_symmetry_cell_setting 'triclinic'
loop_
_space_group_symop_operation_xyz
x,y,z
-x,-y,-z
loop_
_atom_site_type_symbol
_atom_site_label
_atom_site_fract_x
_atom_site_fract_y
_atom_site_fract_z
Si Si1 0.816544 0.608633 0.416162
Si Si2 0.753169 0.291136 0.191788
Si Si3 0.464428 0.718099 0.609870
Si Si4 0.035980 0.469227 0.371276
Si Si5 0.487395 0.783392 0.049834
Si Si6 0.650988 0.717467 0.247609
Si Si7 0.353052 0.076873 0.249923
Si Si8 0.252194 0.251478 0.292502
O O1 0.922882 0.546773 0.376439
O O2 0.848170 0.823258 0.235826
O O3 0.549480 0.381380 0.603534
O O4 0.904527 0.630549 0.499652
O O5 0.735672 0.363379 0.258997
O O6 0.599470 0.260177 0.153438
O O7 0.629391 0.000962 0.380263
O O8 0.000000 0.500000 0.000000
O O9 0.399643 0.511279 0.664162
O O10 0.602674 0.750072 0.659748
O O11 0.279824 0.717117 0.151920
O O12 0.824789 0.189239 0.511667
O O13 0.636344 0.830714 0.090284
O O14 0.347354 0.513772 0.165682
O O15 0.640966 0.985144 0.826604
O O16 0.283766 0.213559 0.199289
O O17 0.000000 0.000000 0.500000
#
# Coordination Sequence:
#
# PCOD9084830 Si02
#       8
#     2   2   2   2   2   2   2   2
#     4   9  19  36  63  82 108 147 196 245 288 335
#     4  10  22  36  55  86 119 150 182 225 279 342
#     4   9  20  37  57  81 115 148 186 227 274 342
#     4  10  20  38  60  85 109 150 193 239 293 332
#     4  10  21  36  58  85 118 152 187 232 282 343
#     4   9  18  38  58  84 112 149 191 238 288 333
#     4  11  22  35  58  86 117 151 189 229 282 346
#     4  10  19  35  57  83 115 153 184 225 275 335
#
# _framework density 25.038612000000001
#
# number of rings (size 3 to 8) (size 9 to 14) (size 15 to 20)
#    0.000    2.250    1.250    1.125    1.750    2.000 
#    0.000    6.250    0.000    3.000    0.000    0.000 
#    0.000    0.000    0.000    0.000    0.000    0.000 
#
# Total GULP energy -89210.027585 kJ/mol
# GULP energy per Si atom -5575.626724 kJ/mol
# Density = 2.498162 g / cm^3
# Si number density = 25.038612 Si / 1000 Ang^3
#
#
#
# Elastic Constant Matrix: (Units=GPa)
#
#
# Indices 1 2 3 4 5 6 
#
# 1 138.1649 36.4316 48.9203 15.4820 -13.7792 0.5678
# 2 36.4316 66.0943 19.8914 20.3863 0.4596 -9.6234
# 3 48.9203 19.8914 127.3428 10.9169 -25.4189 -9.5901
# 4 15.4820 20.3863 10.9169 38.0852 1.1472 4.5240
# 5 -13.7792 0.4596 -25.4189 1.1472 43.5606 4.0989
# 6 0.5678 -9.6234 -9.5901 4.5240 4.0989 39.4147
#
#
#
# Elastic Compliance Matrix: (Units=1/GPa)
#
#
# Indices 1 2 3 4 5 6 
#
# 1 0.009680 -0.004683 -0.002766 -0.000439 0.001705 -0.002083
# 2 -0.004683 0.022172 -0.000760 -0.010474 -0.002519 0.006760
# 3 -0.002766 -0.000760 0.010350 -0.001831 0.005027 0.002060
# 4 -0.000439 -0.010474 -0.001831 0.033402 -0.001347 -0.006690
# 5 0.001705 -0.002519 0.005027 -0.001347 0.026683 -0.002037
# 6 -0.002083 0.006760 0.002060 -0.006690 -0.002037 0.028533
#
#
# Mechanical properties :
#
#
# Convention : Reuss Voigt Hill
#
# Bulk Modulus (GPa) = 38.78397 60.23207 49.50802
# Shear Modulus (GPa) = 32.08587 39.30268 35.69428
#
# Velocity S-wave (km/s) = 3.58363 3.96622 3.77977
# Velocity P-wave (km/s) = 5.71371 6.71435 6.23414
#
# Compressibility (1/GPa) = 0.02578385
#
# Stress axis : x y z
#
# Youngs Moduli (GPa) = 103.30992 45.10145 96.62115
#
# Poissons Ratio (x) = 0.21119 0.26725
# Poissons Ratio (y) = 0.48375 0.07346
# Poissons Ratio (z) = 0.28575 0.03429
#
# Static dielectric constant tensor:
#      x y z
#    x 2.014190 0.062180 0.091150 
#    y 0.062180 2.202760 0.063070 
#    z 0.091150 0.063070 1.921650 
# 
# From -- ./inp_files/397704.got.cif
#   From: 2010.05.17/outbox.cif.g08.bks.cpg/sg2_199_cif.got.tgz:397704.got - 2010.06.03 11:33:40.
