data_PCOD9084307
_publ_section_title
;
Structure prediction by ZEFSAII (Michael W. Deem and Ramdas Pophale) SiO2 
 PCOD9084307
Probable space group: P -1
;
_chemical_formula_sum "Si O2"
_cell_formula_units_Z 16
_cell_length_a 8.156478
_cell_length_b 15.041605
_cell_length_c 16.926011
_cell_angle_alpha 28.816521
_cell_angle_beta 43.640185
_cell_angle_gamma 35.772562
_cell_volume 584.508089
_symmetry_space_group_name_H-M "P -1"
_symmetry_group_IT_number 2
_symmetry_cell_setting 'triclinic'
loop_
_space_group_symop_operation_xyz
x,y,z
-x,-y,-z
loop_
_atom_site_type_symbol
_atom_site_label
_atom_site_fract_x
_atom_site_fract_y
_atom_site_fract_z
Si Si1 0.226321 0.790384 0.838012
Si Si2 0.348571 0.676914 0.528714
Si Si3 0.602519 0.725256 0.553385
Si Si4 0.115278 0.743249 0.341221
Si Si5 0.887335 0.813393 0.806993
Si Si6 0.900208 0.303395 0.877993
Si Si7 0.633154 0.128782 0.990499
Si Si8 0.215546 0.229404 0.305080
O O1 0.539754 0.726199 0.797723
O O2 0.178177 0.714098 0.830025
O O3 0.117153 0.714889 0.008323
O O4 0.028089 0.054154 0.706743
O O5 0.444700 0.654364 0.604789
O O6 0.631504 0.487210 0.537186
O O7 0.078864 0.654897 0.636310
O O8 0.249759 0.926174 0.353228
O O9 0.769279 0.541699 0.703163
O O10 0.848294 0.733703 0.414192
O O11 0.377868 0.968781 0.470282
O O12 0.256123 0.803291 0.175749
O O13 0.863032 0.745790 0.779873
O O14 0.692348 0.772556 0.963763
O O15 0.733074 0.198614 0.978600
O O16 0.210849 0.132068 0.870758
#
# Coordination Sequence:
#
# PCOD9084307 Si02
#       8
#     2   2   2   2   2   2   2   2
#     4  10  23  42  66  93 130 168 207 263 321 376
#     4  11  22  38  65  94 128 167 214 265 314 375
#     4  10  19  36  65  96 123 162 215 261 314 376
#     4  10  21  37  64 101 125 163 215 262 319 377
#     4  11  22  40  65  92 129 169 212 258 318 379
#     4  10  19  34  62  94 126 167 205 259 323 371
#     4  10  20  34  60  95 130 164 207 262 317 379
#     4  10  23  44  66  93 126 168 218 261 314 377
#
# _framework density 27.373445
#
# number of rings (size 3 to 8) (size 9 to 14) (size 15 to 20)
#    0.000    1.750    2.500    2.625    5.250    3.000 
#    0.000    6.250    0.000    8.250    0.000    0.000 
#    0.000    0.000    0.000    0.000    0.000    0.000 
#
# Total GULP energy -89712.748357 kJ/mol
# GULP energy per Si atom -5607.046772 kJ/mol
# Density = 2.731114 g / cm^3
# Si number density = 27.373445 Si / 1000 Ang^3
#
#
#
# Elastic Constant Matrix: (Units=GPa)
#
#
# Indices 1 2 3 4 5 6 
#
# 1 147.8888 39.7429 34.5670 14.2500 27.7844 -21.3193
# 2 39.7429 157.1732 33.3814 -2.1189 -15.1460 -18.1315
# 3 34.5670 33.3814 93.9452 12.0148 11.1883 -6.7708
# 4 14.2500 -2.1189 12.0148 53.8907 -6.6933 -18.2137
# 5 27.7844 -15.1460 11.1883 -6.6933 26.7986 13.6987
# 6 -21.3193 -18.1315 -6.7708 -18.2137 13.6987 41.1257
#
#
#
# Elastic Compliance Matrix: (Units=1/GPa)
#
#
# Indices 1 2 3 4 5 6 
#
# 1 0.015048 -0.005021 0.000712 -0.003189 -0.026185 0.013014
# 2 -0.005021 0.009637 -0.003896 0.003623 0.014282 -0.002148
# 3 0.000712 -0.003896 0.013796 -0.003804 -0.011160 0.002955
# 4 -0.003189 0.003623 -0.003804 0.023837 0.009458 0.006724
# 5 -0.026185 0.014282 -0.011160 0.009458 0.098918 -0.037875
# 6 0.013014 -0.002148 0.002955 0.006724 -0.037875 0.046195
#
#
# Mechanical properties :
#
#
# Convention : Reuss Voigt Hill
#
# Bulk Modulus (GPa) = 45.31164 68.26555 56.78860
# Shear Modulus (GPa) = 21.62659 43.78405 32.70532
#
# Velocity S-wave (km/s) = 2.81385 4.00372 3.46031
# Velocity P-wave (km/s) = 5.21019 6.80925 6.06267
#
# Compressibility (1/GPa) = 0.02206939
#
# Stress axis : x y z
#
# Youngs Moduli (GPa) = 66.45580 103.76969 72.48727
#
# Poissons Ratio (x) = 0.52104 -0.05158
# Poissons Ratio (y) = 0.33368 0.28239
# Poissons Ratio (z) = -0.04729 0.40426
#
# Static dielectric constant tensor:
#      x y z
#    x 2.101710 0.031390 -0.000790 
#    y 0.031390 2.122870 -0.061300 
#    z -0.000790 -0.061300 2.178740 
# 
# From -- ./inp_files/562055.got.cif
#   From: 2010.05.17/outbox.cif.g08.bks.cpg/sg2_282_cif.got.tgz:562055.got - 2010.06.03 11:33:40.
