data_PCOD9084970
_publ_section_title
;
Structure prediction by ZEFSAII (Michael W. Deem and Ramdas Pophale) SiO2 
 PCOD9084970
Probable space group: P -1
;
_chemical_formula_sum "Si O2"
_cell_formula_units_Z 16
_cell_length_a 10.662887
_cell_length_b 20.755046
_cell_length_c 10.338901
_cell_angle_alpha 144.126469
_cell_angle_beta 41.888379
_cell_angle_gamma 129.030693
_cell_volume 893.181875
_symmetry_space_group_name_H-M "P -1"
_symmetry_group_IT_number 2
_symmetry_cell_setting 'triclinic'
loop_
_space_group_symop_operation_xyz
x,y,z
-x,-y,-z
loop_
_atom_site_type_symbol
_atom_site_label
_atom_site_fract_x
_atom_site_fract_y
_atom_site_fract_z
Si Si1 0.968836 0.050446 0.437671
Si Si2 0.904511 0.573472 0.586243
Si Si3 0.879757 0.176872 0.453023
Si Si4 0.098200 0.560315 0.144034
Si Si5 0.500782 0.817781 0.376919
Si Si6 0.664872 0.961077 0.717870
Si Si7 0.482788 0.560384 0.974743
Si Si8 0.093765 0.172309 0.021511
O O1 0.921033 0.118333 0.459015
O O2 0.169007 0.090361 0.410833
O O3 0.796817 0.047106 0.667716
O O4 0.986389 0.924400 0.169169
O O5 0.680249 0.554599 0.740932
O O6 0.956757 0.704640 0.779790
O O7 0.000000 0.500000 0.500000
O O8 0.974857 0.544846 0.343576
O O9 0.882451 0.308538 0.684795
O O10 0.677379 0.138111 0.485745
O O11 0.025379 0.153453 0.189263
O O12 0.303157 0.520944 0.962042
O O13 0.000000 0.500000 0.000000
O O14 0.561384 0.879818 0.561947
O O15 0.456112 0.689092 0.231817
O O16 0.681960 0.828264 0.162720
O O17 0.500000 0.000000 0.000000
O O18 0.500000 0.500000 0.000000
#
# Coordination Sequence:
#
# PCOD9084970 Si02
#       8
#     2   2   2   2   2   2   2   2
#     4  10  21  36  54  82 108 146 180 222 275 323
#     4  10  19  36  59  85 106 148 191 226 278 335
#     4  10  20  36  58  79 107 144 186 218 274 331
#     4  10  22  38  54  84 119 144 179 240 285 325
#     4   9  20  35  54  80 106 143 181 225 265 322
#     4  10  21  37  52  77 115 143 178 224 269 322
#     4  10  19  35  58  82 107 142 194 230 269 334
#     4   9  19  34  56  80 109 137 183 231 265 322
#
# _framework density 17.913485999999999
#
# number of rings (size 3 to 8) (size 9 to 14) (size 15 to 20)
#    0.000    2.250    1.250    1.125    0.000    4.500 
#    4.500    0.000    0.000    0.000    0.000    0.000 
#    0.000    0.000    0.000    0.000    0.000    0.000 
#
# Total GULP energy -89218.752144 kJ/mol
# GULP energy per Si atom -5576.172009 kJ/mol
# Density = 1.787271 g / cm^3
# Si number density = 17.913486 Si / 1000 Ang^3
#
#
#
# Elastic Constant Matrix: (Units=GPa)
#
#
# Indices 1 2 3 4 5 6 
#
# 1 183.9818 71.9981 67.3184 -10.1506 4.9182 -3.8152
# 2 71.9981 66.2895 46.3721 -16.6228 -3.5013 -14.7215
# 3 67.3184 46.3721 98.5207 -22.8353 -0.4576 -2.4320
# 4 -10.1506 -16.6228 -22.8353 18.8606 5.6196 4.5298
# 5 4.9182 -3.5013 -0.4576 5.6196 20.7036 1.7875
# 6 -3.8152 -14.7215 -2.4320 4.5298 1.7875 33.8734
#
#
#
# Elastic Compliance Matrix: (Units=1/GPa)
#
#
# Indices 1 2 3 4 5 6 
#
# 1 0.011219 -0.012376 -0.003774 -0.007955 -0.002406 -0.003195
# 2 -0.012376 0.040267 -0.006217 0.016984 0.003864 0.013185
# 3 -0.003774 -0.006217 0.019917 0.018903 -0.004501 -0.003987
# 4 -0.007955 0.016984 0.018903 0.093374 -0.019854 -0.003596
# 5 -0.002406 0.003864 -0.004501 -0.019854 0.054742 0.000852
# 6 -0.003195 0.013185 -0.003987 -0.003596 0.000852 0.035042
#
#
# Mechanical properties :
#
#
# Convention : Reuss Voigt Hill
#
# Bulk Modulus (GPa) = 37.49665 80.01882 58.75774
# Shear Modulus (GPa) = 16.22405 25.56109 20.89257
#
# Velocity S-wave (km/s) = 3.01273 3.78156 3.41882
# Velocity P-wave (km/s) = 5.75149 7.98958 6.96107
#
# Compressibility (1/GPa) = 0.02666905
#
# Stress axis : x y z
#
# Youngs Moduli (GPa) = 89.13729 24.83423 50.20775
#
# Poissons Ratio (x) = 0.30735 0.18950
# Poissons Ratio (y) = 1.10316 0.31212
# Poissons Ratio (z) = 0.33644 0.15438
#
# Static dielectric constant tensor:
#      x y z
#    x 1.591920 0.017610 -0.016340 
#    y 0.017610 1.634090 0.002860 
#    z -0.016340 0.002860 1.614950 
# 
# From -- ./inp_files/201084.got.cif
#   From: 2010.05.17/outbox.cif.g08.bks.cpg/sg2_101_cif.got.tgz:201084.got - 2010.06.03 11:33:40.
