data_PCOD9084815
_publ_section_title
;
Structure prediction by ZEFSAII (Michael W. Deem and Ramdas Pophale) SiO2 
 PCOD9084815
Probable space group: P -1
;
_chemical_formula_sum "Si O2"
_cell_formula_units_Z 16
_cell_length_a 10.355259
_cell_length_b 8.960066
_cell_length_c 15.019098
_cell_angle_alpha 93.675153
_cell_angle_beta 33.980810
_cell_angle_gamma 106.810536
_cell_volume 704.222868
_symmetry_space_group_name_H-M "P -1"
_symmetry_group_IT_number 2
_symmetry_cell_setting 'triclinic'
loop_
_space_group_symop_operation_xyz
x,y,z
-x,-y,-z
loop_
_atom_site_type_symbol
_atom_site_label
_atom_site_fract_x
_atom_site_fract_y
_atom_site_fract_z
Si Si1 0.828401 0.697836 0.977504
Si Si2 0.675098 0.958022 0.027876
Si Si3 0.922786 0.448177 0.809467
Si Si4 0.900349 0.287261 0.002074
Si Si5 0.151137 0.888879 0.254830
Si Si6 0.604763 0.842111 0.617461
Si Si7 0.466450 0.662193 0.500179
Si Si8 0.368412 0.020610 0.666050
O O1 0.766308 0.550447 0.936237
O O2 0.894684 0.645305 0.033655
O O3 0.633110 0.779767 0.080506
O O4 0.095464 0.863848 0.817230
O O5 0.409413 0.972404 0.166098
O O6 0.844861 0.099181 0.003801
O O7 0.810791 0.004496 0.854067
O O8 0.850507 0.285997 0.784092
O O9 0.176597 0.592082 0.631245
O O10 0.984443 0.387354 0.867029
O O11 0.616855 0.267790 0.192014
O O12 0.899331 0.871462 0.451881
O O13 0.514711 0.747701 0.571674
O O14 0.550029 0.003954 0.638846
O O15 0.500000 0.500000 0.500000
O O16 0.629794 0.800247 0.340911
O O17 0.500000 0.000000 0.500000
#
# Coordination Sequence:
#
# PCOD9084815 Si02
#       8
#     2   2   2   2   2   2   2   2
#     4  11  20  35  60  84 118 145 181 243 282 337
#     4  10  22  39  57  82 114 151 194 229 280 333
#     4  11  21  35  58  89 116 146 188 230 292 333
#     4  10  22  37  56  88 113 149 189 227 290 337
#     4  10  22  38  59  82 112 154 191 233 274 339
#     4  10  19  35  57  82 114 145 189 232 279 334
#     4  11  19  31  55  88 116 146 180 242 285 329
#     4   9  17  30  50  86 112 137 184 226 286 326
#
# _framework density 22.720079999999999
#
# number of rings (size 3 to 8) (size 9 to 14) (size 15 to 20)
#    0.000    1.750    5.000    2.250    1.750    1.000 
#    0.000    0.000    0.000    0.750    0.000    0.000 
#    0.000    0.000    0.000    0.000    0.000    0.000 
#
# Total GULP energy -89114.960865 kJ/mol
# GULP energy per Si atom -5569.685054 kJ/mol
# Density = 2.266837 g / cm^3
# Si number density = 22.720080 Si / 1000 Ang^3
#
#
#
# Elastic Constant Matrix: (Units=GPa)
#
#
# Indices 1 2 3 4 5 6 
#
# 1 45.8297 14.9427 26.9327 2.9655 -4.4488 4.0906
# 2 14.9427 117.0314 3.2942 4.9683 1.4651 -17.0047
# 3 26.9327 3.2942 107.4279 -2.2707 -0.4174 -10.0876
# 4 2.9655 4.9683 -2.2707 30.0877 -9.0235 -0.5050
# 5 -4.4488 1.4651 -0.4174 -9.0235 21.4674 -0.8740
# 6 4.0906 -17.0047 -10.0876 -0.5050 -0.8740 26.3401
#
#
#
# Elastic Compliance Matrix: (Units=1/GPa)
#
#
# Indices 1 2 3 4 5 6 
#
# 1 0.030086 -0.005234 -0.008433 -0.001296 0.005431 -0.011126
# 2 -0.005234 0.010435 0.001712 -0.001570 -0.002093 0.008106
# 3 -0.008433 0.001712 0.012056 0.001343 -0.000779 0.007032
# 4 -0.001296 -0.001570 0.001343 0.038575 0.016119 0.000976
# 5 0.005431 -0.002093 -0.000779 0.016119 0.054596 -0.000373
# 6 -0.011126 0.008106 0.007032 0.000976 -0.000373 0.047625
#
#
# Mechanical properties :
#
#
# Convention : Reuss Voigt Hill
#
# Bulk Modulus (GPa) = 34.88239 40.06981 37.47610
# Shear Modulus (GPa) = 22.04204 30.58700 26.31452
#
# Velocity S-wave (km/s) = 3.11811 3.67311 3.40693
# Velocity P-wave (km/s) = 5.32447 5.97190 5.65745
#
# Compressibility (1/GPa) = 0.02866776
#
# Stress axis : x y z
#
# Youngs Moduli (GPa) = 33.23766 95.82781 82.94619
#
# Poissons Ratio (x) = 0.50152 0.69951
# Poissons Ratio (y) = 0.17395 -0.14200
# Poissons Ratio (z) = 0.28030 -0.16405
#
# Static dielectric constant tensor:
#      x y z
#    x 1.750690 0.091680 0.133740 
#    y 0.091680 1.755030 -0.166560 
#    z 0.133740 -0.166560 1.721180 
# 
# From -- ./inp_files/391092.got.cif
#   From: 2010.05.17/outbox.cif.g08.bks.cpg/sg2_196_cif.got.tgz:391092.got - 2010.06.03 11:33:40.
