data_PCOD9084166
_publ_section_title
;
Structure prediction by ZEFSAII (Michael W. Deem and Ramdas Pophale) SiO2 
 PCOD9084166
Probable space group: P -1
;
_chemical_formula_sum "Si O2"
_cell_formula_units_Z 16
_cell_length_a 12.831549
_cell_length_b 8.650269
_cell_length_c 12.194750
_cell_angle_alpha 132.617067
_cell_angle_beta 55.823769
_cell_angle_gamma 135.472714
_cell_volume 690.266230
_symmetry_space_group_name_H-M "P -1"
_symmetry_group_IT_number 2
_symmetry_cell_setting 'triclinic'
loop_
_space_group_symop_operation_xyz
x,y,z
-x,-y,-z
loop_
_atom_site_type_symbol
_atom_site_label
_atom_site_fract_x
_atom_site_fract_y
_atom_site_fract_z
Si Si1 0.622991 0.142492 0.359160
Si Si2 0.910353 0.585251 0.702167
Si Si3 0.344341 0.291116 0.764911
Si Si4 0.965202 0.889760 0.090891
Si Si5 0.284227 0.963151 0.445994
Si Si6 0.111057 0.961473 0.341486
Si Si7 0.910897 0.404710 0.181581
Si Si8 0.674815 0.566224 0.707574
O O1 0.649414 0.337731 0.534217
O O2 0.741560 0.296516 0.266658
O O3 0.657718 0.937951 0.281805
O O4 0.448228 0.004254 0.365759
O O5 0.846797 0.309344 0.556762
O O6 0.998135 0.578475 0.752578
O O7 0.750383 0.566291 0.778184
O O8 0.010548 0.873934 0.741783
O O9 0.512786 0.524081 0.794056
O O10 0.211060 0.318829 0.896535
O O11 0.312274 0.196761 0.612988
O O12 0.069262 0.783486 0.994027
O O13 0.000000 0.000000 0.000000
O O14 0.227533 0.963839 0.359028
O O15 0.000754 0.687767 0.223174
O O16 0.208695 0.184956 0.307700
O O17 0.000000 0.000000 0.500000
#
# Coordination Sequence:
#
# PCOD9084166 Si02
#       8
#     2   2   2   2   2   2   2   2
#     4  11  18  36  61  88 124 144 186 251 293 347
#     4  10  19  34  61  87 114 148 198 240 289 339
#     4  11  20  36  61  91 125 146 192 247 294 347
#     4  10  21  36  58  87 119 157 193 240 290 344
#     4  10  22  36  59  94 116 154 191 240 306 334
#     4  11  24  40  60  88 120 153 195 245 285 356
#     4  10  22  40  58  85 122 152 197 241 288 346
#     4  11  22  37  58  94 115 153 194 244 300 337
#
# _framework density 23.179462999999998
#
# number of rings (size 3 to 8) (size 9 to 14) (size 15 to 20)
#    0.000    1.500    6.250    0.750    1.750    3.000 
#    0.000    8.125    0.000    0.000    0.000    0.000 
#    0.000    0.000    0.000    0.000    0.000    0.000 
#
# Total GULP energy -89181.061929 kJ/mol
# GULP energy per Si atom -5573.816371 kJ/mol
# Density = 2.312671 g / cm^3
# Si number density = 23.179463 Si / 1000 Ang^3
#
#
#
# Elastic Constant Matrix: (Units=GPa)
#
#
# Indices 1 2 3 4 5 6 
#
# 1 42.7757 18.2363 20.1076 -5.7279 -1.7339 18.3806
# 2 18.2363 130.3521 25.7676 -4.9204 -6.1271 19.9012
# 3 20.1076 25.7676 65.3318 -12.3988 -16.1754 15.8441
# 4 -5.7279 -4.9204 -12.3988 36.3215 5.8350 -11.5512
# 5 -1.7339 -6.1271 -16.1754 5.8350 19.3449 -6.5931
# 6 18.3806 19.9012 15.8441 -11.5512 -6.5931 28.2049
#
#
#
# Elastic Compliance Matrix: (Units=1/GPa)
#
#
# Indices 1 2 3 4 5 6 
#
# 1 0.036466 -0.000606 -0.008880 -0.002579 -0.011066 -0.021991
# 2 -0.000606 0.008966 -0.002501 -0.001281 -0.000696 -0.005214
# 3 -0.008880 -0.002501 0.024110 0.003552 0.017335 -0.000485
# 4 -0.002579 -0.001281 0.003552 0.032899 -0.003040 0.013352
# 5 -0.011066 -0.000696 0.017335 -0.003040 0.070382 0.013172
# 6 -0.021991 -0.005214 -0.000485 0.013352 0.013172 0.062285
#
#
# Mechanical properties :
#
#
# Convention : Reuss Voigt Hill
#
# Bulk Modulus (GPa) = 21.94577 40.74250 31.34414
# Shear Modulus (GPa) = 18.23019 28.39745 23.31382
#
# Velocity S-wave (km/s) = 2.80747 3.50396 3.17487
# Velocity P-wave (km/s) = 4.47186 5.82970 5.19533
#
# Compressibility (1/GPa) = 0.04556686
#
# Stress axis : x y z
#
# Youngs Moduli (GPa) = 27.42258 111.53807 41.47728
#
# Poissons Ratio (x) = 0.06762 0.36834
# Poissons Ratio (y) = 0.01662 0.10372
# Poissons Ratio (z) = 0.24352 0.27891
#
# Static dielectric constant tensor:
#      x y z
#    x 1.903840 -0.011360 0.027980 
#    y -0.011360 1.911200 0.023830 
#    z 0.027980 0.023830 1.962590 
# 
# From -- ./inp_files/182594.got.cif
#   From: 2010.05.17/outbox.cif.g08.bks.cpg/sg2_92_cif.got.tgz:182594.got - 2010.06.03 11:33:40.
