data_PCOD9084013
_publ_section_title
;
Structure prediction by ZEFSAII (Michael W. Deem and Ramdas Pophale) SiO2 
 PCOD9084013
Probable space group: P -1
;
_chemical_formula_sum "Si O2"
_cell_formula_units_Z 16
_cell_length_a 14.696275
_cell_length_b 5.744435
_cell_length_c 25.872309
_cell_angle_alpha 53.152283
_cell_angle_beta 21.228031
_cell_angle_gamma 49.923892
_cell_volume 605.151088
_symmetry_space_group_name_H-M "P -1"
_symmetry_group_IT_number 2
_symmetry_cell_setting 'triclinic'
loop_
_space_group_symop_operation_xyz
x,y,z
-x,-y,-z
loop_
_atom_site_type_symbol
_atom_site_label
_atom_site_fract_x
_atom_site_fract_y
_atom_site_fract_z
Si Si1 0.754602 0.476248 0.334430
Si Si2 0.764239 0.712627 0.062473
Si Si3 0.263700 0.172721 0.426236
Si Si4 0.963774 0.344394 0.462403
Si Si5 0.231674 0.533472 0.202467
Si Si6 0.822925 0.984333 0.756147
Si Si7 0.086199 0.983966 0.777219
Si Si8 0.685459 0.114643 0.145498
O O1 0.500000 0.500000 0.500000
O O2 0.740626 0.294505 0.312909
O O3 0.999398 0.247633 0.265689
O O4 0.789520 0.813119 0.277632
O O5 0.628285 0.475899 0.140341
O O6 0.618041 0.987424 0.142793
O O7 0.000000 0.500000 0.000000
O O8 0.903047 0.846536 0.926796
O O9 0.165186 0.357471 0.399998
O O10 0.536604 0.966170 0.287228
O O11 0.310038 0.424675 0.406975
O O12 0.045912 0.056096 0.589074
O O13 0.024670 0.443891 0.361670
O O14 0.000000 0.000000 0.500000
O O15 0.347820 0.207723 0.156169
O O16 0.341445 0.727981 0.160428
O O17 0.086732 0.768546 0.204506
O O18 0.000000 0.000000 0.000000
#
# Coordination Sequence:
#
# PCOD9084013 Si02
#       8
#     2   2   2   2   2   2   2   2
#     4  10  20  32  51  80 110 144 184 228 287 352
#     4  10  22  39  58  80 106 153 210 242 278 328
#     4  10  21  34  57  87 121 151 183 247 289 346
#     4  10  19  34  59  90 118 145 187 233 309 358
#     4   9  18  33  52  80 111 142 178 220 291 354
#     4   9  18  31  49  79 112 144 177 218 285 351
#     4  10  20  36  54  72 109 149 185 239 285 334
#     4  10  23  40  58  85 116 155 201 239 281 337
#
# _framework density 26.439679000000002
#
# number of rings (size 3 to 8) (size 9 to 14) (size 15 to 20)
#    0.000    2.250    1.250    1.125    1.750    4.000 
#    0.000    3.750    0.000    1.500    0.000    0.000 
#    0.000    0.000    0.000    0.000    0.000    0.000 
#
# Total GULP energy -89087.939272 kJ/mol
# GULP energy per Si atom -5567.996204 kJ/mol
# Density = 2.637950 g / cm^3
# Si number density = 26.439679 Si / 1000 Ang^3
#
#
#
# Elastic Constant Matrix: (Units=GPa)
#
#
# Indices 1 2 3 4 5 6 
#
# 1 103.9682 62.4703 16.0773 -3.6379 17.1856 26.9386
# 2 62.4703 187.9918 61.9201 -15.9365 12.0104 71.0647
# 3 16.0773 61.9201 55.7434 0.8126 12.7492 12.1205
# 4 -3.6379 -15.9365 0.8126 31.5837 0.7230 10.9075
# 5 17.1856 12.0104 12.7492 0.7230 39.9244 -3.9268
# 6 26.9386 71.0647 12.1205 10.9075 -3.9268 65.2758
#
#
#
# Elastic Compliance Matrix: (Units=1/GPa)
#
#
# Indices 1 2 3 4 5 6 
#
# 1 0.013054 -0.004242 0.002493 -0.000047 -0.005290 -0.001542
# 2 -0.004242 0.025526 -0.021380 0.021913 -0.001965 -0.025849
# 3 0.002493 -0.021380 0.038482 -0.017504 -0.004869 0.017734
# 4 -0.000047 0.021913 -0.017504 0.053579 -0.004887 -0.029834
# 5 -0.005290 -0.001965 -0.004869 -0.004887 0.030332 0.007867
# 6 -0.001542 -0.025849 0.017734 -0.029834 0.007867 0.046263
#
#
# Mechanical properties :
#
#
# Convention : Reuss Voigt Hill
#
# Bulk Modulus (GPa) = 32.46404 69.84877 51.15640
# Shear Modulus (GPa) = 18.95644 41.17249 30.06446
#
# Velocity S-wave (km/s) = 2.68053 3.95045 3.37574
# Velocity P-wave (km/s) = 4.67820 6.87630 5.88086
#
# Compressibility (1/GPa) = 0.03080332
#
# Stress axis : x y z
#
# Youngs Moduli (GPa) = 76.60441 39.17617 25.98590
#
# Poissons Ratio (x) = 0.16619 -0.06479
# Poissons Ratio (y) = 0.32497 0.55559
# Poissons Ratio (z) = -0.19098 0.83760
#
# Static dielectric constant tensor:
#      x y z
#    x 1.871180 -0.357170 -0.072600 
#    y -0.357170 2.338190 0.548900 
#    z -0.072600 0.548900 2.324570 
# 
# From -- ./inp_files/75826.got.cif
#   From: 2010.05.17/outbox.cif.g08.bks.cpg/sg2_38_cif.got.tgz:75826.got - 2010.06.03 11:33:40.
