data_PCOD9084962
_publ_section_title
;
Structure prediction by ZEFSAII (Michael W. Deem and Ramdas Pophale) SiO2 
 PCOD9084962
Probable space group: P -1
;
_chemical_formula_sum "Si O2"
_cell_formula_units_Z 14
_cell_length_a 9.084161
_cell_length_b 9.170010
_cell_length_c 9.284079
_cell_angle_alpha 76.486194
_cell_angle_beta 85.779277
_cell_angle_gamma 44.811095
_cell_volume 525.149305
_symmetry_space_group_name_H-M "P -1"
_symmetry_group_IT_number 2
_symmetry_cell_setting 'triclinic'
loop_
_space_group_symop_operation_xyz
x,y,z
-x,-y,-z
loop_
_atom_site_type_symbol
_atom_site_label
_atom_site_fract_x
_atom_site_fract_y
_atom_site_fract_z
Si Si1 0.702398 0.519688 0.439781
Si Si2 0.369766 0.986813 0.863023
Si Si3 0.389383 0.990055 0.382230
Si Si4 0.915992 0.198838 0.767039
Si Si5 0.747048 0.507782 0.944224
Si Si6 0.902540 0.558324 0.183973
Si Si7 0.028694 0.857002 0.656479
O O1 0.477351 0.755686 0.427621
O O2 0.793981 0.378533 0.608811
O O3 0.825952 0.571415 0.346115
O O4 0.735890 0.373468 0.343873
O O5 0.511123 0.736696 0.938024
O O6 0.525632 0.981854 0.766037
O O7 0.255968 0.195116 0.923309
O O8 0.157214 0.083556 0.777731
O O9 0.500000 0.000000 0.500000
O O10 0.139871 0.150968 0.366869
O O11 0.794317 0.320880 0.897522
O O12 0.948995 0.000947 0.770190
O O13 0.869999 0.533036 0.821781
O O14 0.870719 0.446155 0.098845
O O15 0.000000 0.000000 0.500000
#
# Coordination Sequence:
#
# PCOD9084962 Si02
#       7
#     2   2   2   2   2   2   2
#     4  10  21  37  56  80 116 144 181 235 280 331
#     4  10  20  34  57  84 112 145 187 231 280 336
#     4  11  21  33  56  86 111 146 188 229 282 333
#     4  10  22  36  56  85 113 149 188 228 281 336
#     4  10  19  35  58  81 115 148 188 234 278 332
#     4   9  20  35  55  86 112 147 187 234 286 328
#     4  10  22  37  53  80 117 151 184 227 283 336
#
# _framework density 26.659085000000001
#
# number of rings (size 3 to 8) (size 9 to 14) (size 15 to 20)
#    0.000    2.000    0.000    3.857    0.000   11.429 
#    0.000    0.714    0.000    4.286    0.000    0.000 
#    0.000    0.000    0.000    0.000    0.000    0.000 
#
# Total GULP energy -78102.442169 kJ/mol
# GULP energy per Si atom -5578.745869 kJ/mol
# Density = 2.659841 g / cm^3
# Si number density = 26.659085 Si / 1000 Ang^3
#
#
#
# Elastic Constant Matrix: (Units=GPa)
#
#
# Indices 1 2 3 4 5 6 
#
# 1 85.9452 18.9262 20.9024 2.1251 -5.2068 -2.8547
# 2 18.9262 219.5847 13.7252 22.5404 36.2780 -3.7808
# 3 20.9024 13.7252 56.6215 2.3662 10.8886 3.2241
# 4 2.1251 22.5404 2.3662 36.3130 10.1791 14.3604
# 5 -5.2068 36.2780 10.8886 10.1791 37.8207 8.4512
# 6 -2.8547 -3.7808 3.2241 14.3604 8.4512 45.2274
#
#
#
# Elastic Compliance Matrix: (Units=1/GPa)
#
#
# Indices 1 2 3 4 5 6 
#
# 1 0.013719 -0.001563 -0.005670 -0.001131 0.005208 0.000525
# 2 -0.001563 0.005970 0.000222 -0.002968 -0.005743 0.002400
# 3 -0.005670 0.000222 0.021083 0.001180 -0.007185 -0.000874
# 4 -0.001131 -0.002968 0.001180 0.034871 -0.004664 -0.010604
# 5 0.005208 -0.005743 -0.007185 -0.004664 0.037129 -0.005096
# 6 0.000525 0.002400 -0.000874 -0.010604 -0.005096 0.026726
#
#
# Mechanical properties :
#
#
# Convention : Reuss Voigt Hill
#
# Bulk Modulus (GPa) = 37.38454 52.13990 44.76222
# Shear Modulus (GPa) = 30.78129 44.44537 37.61333
#
# Velocity S-wave (km/s) = 3.40167 4.08754 3.76027
# Velocity P-wave (km/s) = 5.42974 6.47130 5.97327
#
# Compressibility (1/GPa) = 0.02674903
#
# Stress axis : x y z
#
# Youngs Moduli (GPa) = 72.88936 167.51308 47.43229
#
# Poissons Ratio (x) = 0.26188 0.26893
# Poissons Ratio (y) = 0.11395 -0.01052
# Poissons Ratio (z) = 0.41327 -0.03715
#
# Static dielectric constant tensor:
#      x y z
#    x 2.103350 0.101400 0.034650 
#    y 0.101400 2.450090 -0.087020 
#    z 0.034650 -0.087020 2.127110 
# 
# From -- ./inp_files/381946.got.cif
#   From: 2010.05.17/outbox.cif.g08.bks.cpg/sg2_191_cif.got.tgz:381946.got - 2010.06.03 11:33:40.
