data_PCOD9084725
_publ_section_title
;
Structure prediction by ZEFSAII (Michael W. Deem and Ramdas Pophale) SiO2 
 PCOD9084725
Probable space group: P -1
;
_chemical_formula_sum "Si O2"
_cell_formula_units_Z 14
_cell_length_a 11.592892
_cell_length_b 9.006411
_cell_length_c 11.272846
_cell_angle_alpha 139.030995
_cell_angle_beta 64.569215
_cell_angle_gamma 88.170217
_cell_volume 556.748183
_symmetry_space_group_name_H-M "P -1"
_symmetry_group_IT_number 2
_symmetry_cell_setting 'triclinic'
loop_
_space_group_symop_operation_xyz
x,y,z
-x,-y,-z
loop_
_atom_site_type_symbol
_atom_site_label
_atom_site_fract_x
_atom_site_fract_y
_atom_site_fract_z
Si Si1 0.717420 0.862335 0.361360
Si Si2 0.563847 0.584259 0.299608
Si Si3 0.210483 0.735794 0.804214
Si Si4 0.088072 0.216849 0.969292
Si Si5 0.139531 0.685306 0.299803
Si Si6 0.949348 0.785340 0.638296
Si Si7 0.330105 0.841152 0.195180
O O1 0.588891 0.101745 0.470729
O O2 0.660443 0.999793 0.600839
O O3 0.708758 0.599545 0.203192
O O4 0.879659 0.794257 0.193494
O O5 0.613895 0.494955 0.359975
O O6 0.557543 0.367162 0.088476
O O7 0.191134 0.902621 0.794154
O O8 0.088359 0.654512 0.822962
O O9 0.133857 0.979917 0.084309
O O10 0.130061 0.429108 0.119072
O O11 0.297136 0.640668 0.158881
O O12 0.108296 0.724306 0.476824
O O13 0.000000 0.000000 0.500000
O O14 0.000000 0.500000 0.500000
O O15 0.820947 0.908981 0.663770
#
# Coordination Sequence:
#
# PCOD9084725 Si02
#       7
#     2   2   2   2   2   2   2
#     4  11  23  40  64  88 124 161 208 254 301 363
#     4  10  23  41  61  91 121 164 205 253 304 361
#     4  10  23  38  61  90 125 160 203 251 309 363
#     4  11  22  39  62  94 124 161 203 252 308 366
#     4  10  20  34  57  91 124 157 197 245 307 360
#     4  10  19  35  56  86 123 157 195 248 305 361
#     4  10  21  38  60  87 118 163 203 249 302 363
#
# _framework density 25.146017000000001
#
# number of rings (size 3 to 8) (size 9 to 14) (size 15 to 20)
#    0.000    1.714    2.857    1.286    4.000    2.286 
#    0.000    0.000    0.000    0.857    0.000    0.000 
#    0.000    0.000    0.000    0.000    0.000    0.000 
#
# Total GULP energy -78037.930076 kJ/mol
# GULP energy per Si atom -5574.137863 kJ/mol
# Density = 2.508878 g / cm^3
# Si number density = 25.146017 Si / 1000 Ang^3
#
#
#
# Elastic Constant Matrix: (Units=GPa)
#
#
# Indices 1 2 3 4 5 6 
#
# 1 67.2708 35.5237 15.1796 9.8763 17.3245 -15.1757
# 2 35.5237 129.1649 21.7308 9.6626 -10.2521 -5.6468
# 3 15.1796 21.7308 49.4455 21.3348 19.7358 -0.7092
# 4 9.8763 9.6626 21.3348 44.4067 -0.0468 -5.0990
# 5 17.3245 -10.2521 19.7358 -0.0468 39.9885 8.8010
# 6 -15.1757 -5.6468 -0.7092 -5.0990 8.8010 47.4314
#
#
#
# Elastic Compliance Matrix: (Units=1/GPa)
#
#
# Indices 1 2 3 4 5 6 
#
# 1 0.026161 -0.008807 0.005877 -0.005563 -0.018764 0.010293
# 2 -0.008807 0.012244 -0.008955 0.003220 0.012126 -0.003398
# 3 0.005877 -0.008955 0.040717 -0.018461 -0.025893 0.004243
# 4 -0.005563 0.003220 -0.018461 0.031873 0.012509 -0.000567
# 5 -0.018764 0.012126 -0.025893 0.012509 0.051953 -0.013242
# 6 0.010293 -0.003398 0.004243 -0.000567 -0.013242 0.026432
#
#
# Mechanical properties :
#
#
# Convention : Reuss Voigt Hill
#
# Bulk Modulus (GPa) = 18.06635 43.41660 30.74148
# Shear Modulus (GPa) = 21.58886 37.92846 29.75866
#
# Velocity S-wave (km/s) = 2.93326 3.88793 3.44384
# Velocity P-wave (km/s) = 4.32114 6.12029 5.29765
#
# Compressibility (1/GPa) = 0.05535152
#
# Stress axis : x y z
#
# Youngs Moduli (GPa) = 38.22469 81.67367 24.55979
#
# Poissons Ratio (x) = 0.71929 -0.14434
# Poissons Ratio (y) = 0.33664 0.21994
# Poissons Ratio (z) = -0.22464 0.73141
#
# Static dielectric constant tensor:
#      x y z
#    x 2.146980 -0.001650 -0.029460 
#    y -0.001650 2.005220 -0.046880 
#    z -0.029460 -0.046880 2.034110 
# 
# From -- ./inp_files/416168.got.cif
#   From: 2010.05.17/outbox.cif.g08.bks.cpg/sg2_209_cif.got.tgz:416168.got - 2010.06.03 11:33:40.
