data_PCOD9084193
_publ_section_title
;
Structure prediction by ZEFSAII (Michael W. Deem and Ramdas Pophale) SiO2 
 PCOD9084193
Probable space group: P -1
;
_chemical_formula_sum "Si O2"
_cell_formula_units_Z 16
_cell_length_a 5.881371
_cell_length_b 7.883111
_cell_length_c 15.970558
_cell_angle_alpha 117.600015
_cell_angle_beta 63.023587
_cell_angle_gamma 117.352930
_cell_volume 554.891674
_symmetry_space_group_name_H-M "P -1"
_symmetry_group_IT_number 2
_symmetry_cell_setting 'triclinic'
loop_
_space_group_symop_operation_xyz
x,y,z
-x,-y,-z
loop_
_atom_site_type_symbol
_atom_site_label
_atom_site_fract_x
_atom_site_fract_y
_atom_site_fract_z
Si Si1 0.030540 0.369864 0.832880
Si Si2 0.624396 0.342450 0.527288
Si Si3 0.762446 0.741597 0.698311
Si Si4 0.875089 0.983958 0.426880
Si Si5 0.303865 0.130461 0.969274
Si Si6 0.705783 0.218272 0.306200
Si Si7 0.275169 0.756102 0.975981
Si Si8 0.482241 0.753337 0.220792
O O1 0.832878 0.335050 0.776226
O O2 0.067698 0.589502 0.916806
O O3 0.335499 0.353212 0.780931
O O4 0.871771 0.232429 0.907327
O O5 0.767305 0.547973 0.598022
O O6 0.744477 0.163494 0.488762
O O7 0.642940 0.345157 0.423765
O O8 0.325032 0.241628 0.588777
O O9 0.451710 0.732143 0.735567
O O10 0.921537 0.947690 0.668899
O O11 0.972913 0.747575 0.739976
O O12 0.000000 0.000000 0.500000
O O13 0.374473 0.208073 0.884118
O O14 0.406876 0.943792 0.935646
O O15 0.463574 0.299102 0.046714
O O16 0.000000 0.000000 0.000000
O O17 0.559014 0.980759 0.297518
#
# Coordination Sequence:
#
# PCOD9084193 Si02
#       8
#     2   2   2   2   2   2   2   2
#     4  10  21  37  60  88 111 154 196 242 285 354
#     4  10  22  37  63  92 116 157 205 256 297 355
#     4  11  23  40  66  88 117 159 206 252 298 358
#     4  10  19  34  61  90 116 144 194 256 297 350
#     4  10  19  35  60  87 115 153 194 247 286 342
#     4  11  22  39  61  85 119 159 196 240 301 367
#     4   9  20  34  60  89 113 143 202 248 286 331
#     4  11  23  38  61  81 121 161 193 233 304 355
#
# _framework density 28.834455999999999
#
# number of rings (size 3 to 8) (size 9 to 14) (size 15 to 20)
#    0.000    1.750    2.500    2.625    3.500    1.500 
#    0.000    0.000   22.000    0.000    0.000    0.000 
#    0.000    0.000    0.000    0.000    0.000    0.000 
#
# Total GULP energy -89294.714548 kJ/mol
# GULP energy per Si atom -5580.919659 kJ/mol
# Density = 2.876883 g / cm^3
# Si number density = 28.834456 Si / 1000 Ang^3
#
#
#
# Elastic Constant Matrix: (Units=GPa)
#
#
# Indices 1 2 3 4 5 6 
#
# 1 239.6491 20.2414 55.3778 -3.3277 42.0760 15.9321
# 2 20.2414 109.5356 10.2300 -4.1485 19.8554 3.7431
# 3 55.3778 10.2300 94.6042 1.4696 23.5956 11.1975
# 4 -3.3277 -4.1485 1.4696 35.4021 6.2223 10.9268
# 5 42.0760 19.8554 23.5956 6.2223 36.6960 14.5900
# 6 15.9321 3.7431 11.1975 10.9268 14.5900 47.4720
#
#
#
# Elastic Compliance Matrix: (Units=1/GPa)
#
#
# Indices 1 2 3 4 5 6 
#
# 1 0.005603 0.000213 -0.001936 0.001640 -0.005525 -0.000120
# 2 0.000213 0.010328 0.000311 0.002207 -0.006634 0.000572
# 3 -0.001936 0.000311 0.013326 0.000637 -0.006341 -0.000716
# 4 0.001640 0.002207 0.000637 0.031670 -0.006389 -0.006201
# 5 -0.005525 -0.006634 -0.006341 -0.006389 0.045810 -0.008735
# 6 -0.000120 0.000572 -0.000716 -0.006201 -0.008735 0.025341
#
#
# Mechanical properties :
#
#
# Convention : Reuss Voigt Hill
#
# Bulk Modulus (GPa) = 37.83081 68.38747 53.10914
# Shear Modulus (GPa) = 34.79181 47.77666 41.28423
#
# Velocity S-wave (km/s) = 3.47739 4.07496 3.78798
# Velocity P-wave (km/s) = 5.41031 6.77563 6.13109
#
# Compressibility (1/GPa) = 0.02643348
#
# Stress axis : x y z
#
# Youngs Moduli (GPa) = 178.47607 96.82793 75.03972
#
# Poissons Ratio (x) = -0.02065 0.14528
# Poissons Ratio (y) = -0.03805 -0.02334
# Poissons Ratio (z) = 0.34553 -0.03012
#
# Static dielectric constant tensor:
#      x y z
#    x 2.573680 0.033660 0.006050 
#    y 0.033660 2.323100 0.123570 
#    z 0.006050 0.123570 2.402770 
# 
# From -- ./inp_files/107585.got.cif
#   From: 2010.05.17/outbox.cif.g08.bks.cpg/sg2_54_cif.got.tgz:107585.got - 2010.06.03 11:33:40.
