data_PCOD9084762
_publ_section_title
;
Structure prediction by ZEFSAII (Michael W. Deem and Ramdas Pophale) SiO2 
 PCOD9084762
Probable space group: P -1
;
_chemical_formula_sum "Si O2"
_cell_formula_units_Z 16
_cell_length_a 7.490359
_cell_length_b 5.318483
_cell_length_c 20.210186
_cell_angle_alpha 90.251468
_cell_angle_beta 132.657540
_cell_angle_gamma 90.130376
_cell_volume 592.078253
_symmetry_space_group_name_H-M "P -1"
_symmetry_group_IT_number 2
_symmetry_cell_setting 'triclinic'
loop_
_space_group_symop_operation_xyz
x,y,z
-x,-y,-z
loop_
_atom_site_type_symbol
_atom_site_label
_atom_site_fract_x
_atom_site_fract_y
_atom_site_fract_z
Si Si1 0.617109 0.551592 0.653779
Si Si2 0.458370 0.059186 0.667680
Si Si3 0.226136 0.850649 0.005635
Si Si4 0.636062 0.228040 0.105882
Si Si5 0.073849 0.282906 0.801300
Si Si6 0.877251 0.480716 0.540320
Si Si7 0.775188 0.134803 0.855097
Si Si8 0.763009 0.988001 0.531085
O O1 0.484813 0.363356 0.671787
O O2 0.414527 0.548255 0.545612
O O3 0.853408 0.385404 0.700033
O O4 0.644104 0.835117 0.687276
O O5 0.521217 0.033023 0.760733
O O6 0.274966 0.021405 0.559012
O O7 0.340526 0.742968 0.967912
O O8 0.250349 0.719634 0.082332
O O9 0.950295 0.905408 0.917807
O O10 0.369324 0.117928 0.050736
O O11 0.731749 0.493303 0.156192
O O12 0.806387 0.992149 0.172378
O O13 0.932248 0.275265 0.837275
O O14 0.902638 0.737308 0.585561
O O15 0.000000 0.500000 0.500000
O O16 0.940327 0.219889 0.588482
O O17 0.500000 0.000000 0.500000
#
# Coordination Sequence:
#
# PCOD9084762 Si02
#       8
#     2   2   2   2   2   2   2   2
#     4   9  17  32  56  78 104 143 183 219 273 334
#     4   9  18  33  55  78 106 141 184 228 266 321
#     4   9  19  34  54  80 109 144 185 230 278 332
#     4  10  21  35  52  78 109 142 183 236 282 318
#     4  10  19  35  57  76 104 147 186 225 276 330
#     4  10  20  35  60  89 118 149 186 235 288 343
#     4   9  18  34  57  80 106 147 190 223 274 339
#     4  10  20  36  61  88 115 152 195 232 280 346
#
# _framework density 27.023455999999999
#
# number of rings (size 3 to 8) (size 9 to 14) (size 15 to 20)
#    0.000    2.500    0.000    3.000    0.000    5.000 
#    0.000    8.750    0.000   70.500    0.000    0.000 
#    0.000    0.000    0.000    0.000    0.000    0.000 
#
# Total GULP energy -89075.679926 kJ/mol
# GULP energy per Si atom -5567.229995 kJ/mol
# Density = 2.696195 g / cm^3
# Si number density = 27.023456 Si / 1000 Ang^3
#
#
#
# Elastic Constant Matrix: (Units=GPa)
#
#
# Indices 1 2 3 4 5 6 
#
# 1 97.3231 25.2487 16.1823 -7.4461 -3.8073 1.1855
# 2 25.2487 174.0423 -8.6677 -14.3885 -0.6211 -0.9957
# 3 16.1823 -8.6677 100.2324 -15.7395 10.8973 -1.4736
# 4 -7.4461 -14.3885 -15.7395 19.1650 -0.3343 6.6716
# 5 -3.8073 -0.6211 10.8973 -0.3343 36.1964 -2.8495
# 6 1.1855 -0.9957 -1.4736 6.6716 -2.8495 25.9528
#
#
#
# Elastic Compliance Matrix: (Units=1/GPa)
#
#
# Indices 1 2 3 4 5 6 
#
# 1 0.011213 -0.001543 -0.001806 0.002104 0.001635 -0.001035
# 2 -0.001543 0.006572 0.001857 0.006287 -0.000650 -0.001259
# 3 -0.001806 0.001857 0.012717 0.011989 -0.004085 -0.002655
# 4 0.002104 0.006287 0.011989 0.073979 -0.004064 -0.018638
# 5 0.001635 -0.000650 -0.004085 -0.004064 0.029289 0.003929
# 6 -0.001035 -0.001259 -0.002655 -0.018638 0.003929 0.043602
#
#
# Mechanical properties :
#
#
# Convention : Reuss Voigt Hill
#
# Bulk Modulus (GPa) = 36.34096 48.56941 42.45518
# Shear Modulus (GPa) = 26.38103 38.85180 32.61642
#
# Velocity S-wave (km/s) = 3.12785 3.79582 3.47791
# Velocity P-wave (km/s) = 5.14993 6.10107 5.64557
#
# Compressibility (1/GPa) = 0.02751716
#
# Stress axis : x y z
#
# Youngs Moduli (GPa) = 89.18070 152.15507 78.63675
#
# Poissons Ratio (x) = 0.23475 0.14205
# Poissons Ratio (y) = 0.13759 -0.14601
# Poissons Ratio (z) = 0.16109 -0.28251
#
# Static dielectric constant tensor:
#      x y z
#    x 2.350300 0.023040 0.051880 
#    y 0.023040 2.331900 -0.041820 
#    z 0.051880 -0.041820 2.189900 
# 
# From -- ./inp_files/584920.got.cif
#   From: 2010.05.17/outbox.cif.g08.bks.cpg/sg2_293_cif.got.tgz:584920.got - 2010.06.03 11:33:40.
