data_PCOD9084006
_publ_section_title
;
Structure prediction by ZEFSAII (Michael W. Deem and Ramdas Pophale) SiO2 
 PCOD9084006
Probable space group: P -1
;
_chemical_formula_sum "Si O2"
_cell_formula_units_Z 14
_cell_length_a 10.924444
_cell_length_b 8.457466
_cell_length_c 12.681577
_cell_angle_alpha 150.315956
_cell_angle_beta 76.751686
_cell_angle_gamma 99.989962
_cell_volume 563.999765
_symmetry_space_group_name_H-M "P -1"
_symmetry_group_IT_number 2
_symmetry_cell_setting 'triclinic'
loop_
_space_group_symop_operation_xyz
x,y,z
-x,-y,-z
loop_
_atom_site_type_symbol
_atom_site_label
_atom_site_fract_x
_atom_site_fract_y
_atom_site_fract_z
Si Si1 0.349156 0.310082 0.713946
Si Si2 0.139168 0.842301 0.399457
Si Si3 0.312551 0.351278 0.442693
Si Si4 0.174917 0.735190 0.872291
Si Si5 0.873160 0.399831 0.516008
Si Si6 0.528607 0.102979 0.376375
Si Si7 0.880243 0.787182 0.021301
O O1 0.270099 0.637798 0.892096
O O2 0.468167 0.294336 0.600664
O O3 0.253124 0.046018 0.536662
O O4 0.400762 0.198261 0.754069
O O5 0.115400 0.624352 0.378258
O O6 0.167980 0.563609 0.146749
O O7 0.000000 0.000000 0.500000
O O8 0.213499 0.452560 0.614054
O O9 0.229383 0.329025 0.342996
O O10 0.408350 0.074797 0.306683
O O11 0.388433 0.663260 0.573682
O O12 0.031930 0.748340 0.950340
O O13 0.182555 0.032395 0.963414
O O14 0.000000 0.500000 0.500000
O O15 0.855339 0.044634 0.268363
#
# Coordination Sequence:
#
# PCOD9084006 Si02
#       7
#     2   2   2   2   2   2   2
#     4  10  19  34  59  89 118 161 203 252 301 353
#     4  12  23  38  61  93 129 156 197 251 311 358
#     4   9  17  33  58  89 116 157 206 249 286 366
#     4   9  17  34  58  80 119 158 190 244 298 351
#     4  11  23  38  64  94 122 161 202 241 308 374
#     4   9  18  33  56  87 116 158 216 241 295 352
#     4  10  21  38  60  91 127 160 195 244 306 372
#
# _framework density 24.822706
#
# number of rings (size 3 to 8) (size 9 to 14) (size 15 to 20)
#    0.000    2.000    2.857    2.571    2.000    0.571 
#    0.000    0.000    0.000   17.143    0.000    0.000 
#    0.000    0.000    0.000    0.000    0.000    0.000 
#
# Total GULP energy -77990.550794 kJ/mol
# GULP energy per Si atom -5570.753628 kJ/mol
# Density = 2.476621 g / cm^3
# Si number density = 24.822706 Si / 1000 Ang^3
#
#
#
# Elastic Constant Matrix: (Units=GPa)
#
#
# Indices 1 2 3 4 5 6 
#
# 1 104.1773 27.0645 31.3123 11.7718 -39.0638 -37.6059
# 2 27.0645 81.2595 0.9838 2.9305 -30.4152 -36.5629
# 3 31.3123 0.9838 109.8607 25.2882 -13.3269 -17.8383
# 4 11.7718 2.9305 25.2882 28.5690 -6.7805 -22.1430
# 5 -39.0638 -30.4152 -13.3269 -6.7805 38.2331 13.8001
# 6 -37.6059 -36.5629 -17.8383 -22.1430 13.8001 66.8143
#
#
#
# Elastic Compliance Matrix: (Units=1/GPa)
#
#
# Indices 1 2 3 4 5 6 
#
# 1 0.021065 0.007278 -0.003236 0.009182 0.023026 0.013262
# 2 0.007278 0.027038 0.000472 0.014096 0.024917 0.018544
# 3 -0.003236 0.000472 0.012261 -0.011081 0.000093 -0.001981
# 4 0.009182 0.014096 -0.011081 0.065516 0.018297 0.027857
# 5 0.023026 0.024917 0.000093 0.018297 0.065896 0.019073
# 6 0.013262 0.018544 -0.001981 0.027857 0.019073 0.037343
#
#
# Mechanical properties :
#
#
# Convention : Reuss Voigt Hill
#
# Bulk Modulus (GPa) = 14.41069 46.00206 30.20638
# Shear Modulus (GPa) = 20.55739 42.45240 31.50490
#
# Velocity S-wave (km/s) = 2.88091 4.13997 3.56644
# Velocity P-wave (km/s) = 4.10905 6.43622 5.39950
#
# Compressibility (1/GPa) = 0.06939292
#
# Stress axis : x y z
#
# Youngs Moduli (GPa) = 47.47264 36.98448 81.55999
#
# Poissons Ratio (x) = -0.26917 0.26393
# Poissons Ratio (y) = -0.34551 -0.03853
# Poissons Ratio (z) = 0.15362 -0.01747
#
# Static dielectric constant tensor:
#      x y z
#    x 2.011060 0.021910 0.055470 
#    y 0.021910 1.978560 0.065850 
#    z 0.055470 0.065850 2.101220 
# 
# From -- ./inp_files/293859.got.cif
#   From: 2010.05.17/outbox.cif.g08.bks.cpg/sg2_147_cif.got.tgz:293859.got - 2010.06.03 11:33:40.
