data_PCOD9084557
_publ_section_title
;
Structure prediction by ZEFSAII (Michael W. Deem and Ramdas Pophale) SiO2 
 PCOD9084557
Probable space group: P -1
;
_chemical_formula_sum "Si O2"
_cell_formula_units_Z 16
_cell_length_a 9.212003
_cell_length_b 12.624373
_cell_length_c 12.056532
_cell_angle_alpha 50.597699
_cell_angle_beta 124.346221
_cell_angle_gamma 96.904645
_cell_volume 830.003763
_symmetry_space_group_name_H-M "P -1"
_symmetry_group_IT_number 2
_symmetry_cell_setting 'triclinic'
loop_
_space_group_symop_operation_xyz
x,y,z
-x,-y,-z
loop_
_atom_site_type_symbol
_atom_site_label
_atom_site_fract_x
_atom_site_fract_y
_atom_site_fract_z
Si Si1 0.506761 0.602071 0.765388
Si Si2 0.965304 0.539615 0.279900
Si Si3 0.458511 0.704311 0.257519
Si Si4 0.134921 0.012189 0.953265
Si Si5 0.308537 0.440278 0.339501
Si Si6 0.907794 0.306957 0.564824
Si Si7 0.487865 0.310393 0.050441
Si Si8 0.558469 0.872541 0.016137
O O1 0.662609 0.611070 0.740753
O O2 0.313391 0.649281 0.580583
O O3 0.554358 0.435936 0.943237
O O4 0.471513 0.700670 0.794706
O O5 0.979704 0.387798 0.446699
O O6 0.742147 0.625468 0.104582
O O7 0.096161 0.504330 0.251620
O O8 0.050771 0.626048 0.345978
O O9 0.396594 0.567879 0.298985
O O10 0.566542 0.680662 0.436882
O O11 0.594524 0.728119 0.205008
O O12 0.267219 0.849870 0.078479
O O13 0.279204 0.090093 0.000692
O O14 0.012332 0.130500 0.731364
O O15 0.000000 0.000000 0.000000
O O16 0.565864 0.160403 0.111847
O O17 0.500000 0.000000 0.000000
#
# Coordination Sequence:
#
# PCOD9084557 Si02
#       8
#     2   2   2   2   2   2   2   2
#     4  10  21  34  58  81 122 149 190 227 284 350
#     4  10  20  31  59  83 115 145 195 238 280 325
#     4  10  21  32  53  85 115 142 186 240 286 326
#     4  11  20  32  54  83 110 144 190 238 280 326
#     4  11  19  33  53  86 114 144 186 244 277 326
#     4  10  19  35  54  84 112 152 187 241 279 335
#     4  10  20  38  54  86 112 160 185 226 292 346
#     4  10  20  36  57  81 114 149 189 234 279 343
#
# _framework density 19.277021999999999
#
# number of rings (size 3 to 8) (size 9 to 14) (size 15 to 20)
#    0.000    1.750    2.500    3.750    1.750    0.500 
#    0.000    0.000    0.000    9.750    0.000    0.000 
#    0.000    0.000    0.000    0.000    0.000    0.000 
#
# Total GULP energy -89148.472708 kJ/mol
# GULP energy per Si atom -5571.779544 kJ/mol
# Density = 1.923315 g / cm^3
# Si number density = 19.277022 Si / 1000 Ang^3
#
#
#
# Elastic Constant Matrix: (Units=GPa)
#
#
# Indices 1 2 3 4 5 6 
#
# 1 90.0702 21.1994 12.2768 4.0676 -15.0065 -1.5491
# 2 21.1994 70.3982 13.3327 -1.5199 -11.4072 -12.3625
# 3 12.2768 13.3327 57.4655 -10.4255 0.1011 -3.0444
# 4 4.0676 -1.5199 -10.4255 25.2535 -4.9399 -4.3822
# 5 -15.0065 -11.4072 0.1011 -4.9399 27.1460 -0.9236
# 6 -1.5491 -12.3625 -3.0444 -4.3822 -0.9236 22.2604
#
#
#
# Elastic Compliance Matrix: (Units=1/GPa)
#
#
# Indices 1 2 3 4 5 6 
#
# 1 0.013159 -0.002828 -0.002692 -0.002531 0.005592 -0.001289
# 2 -0.002828 0.018729 -0.002465 0.003912 0.007400 0.010945
# 3 -0.002692 -0.002465 0.020346 0.009033 -0.000855 0.002969
# 4 -0.002531 0.003912 0.009033 0.048082 0.009406 0.013087
# 5 0.005592 0.007400 -0.000855 0.009406 0.045029 0.008102
# 6 -0.001289 0.010945 0.002969 0.013087 0.008102 0.054230
#
#
# Mechanical properties :
#
#
# Convention : Reuss Voigt Hill
#
# Bulk Modulus (GPa) = 27.57538 34.61685 31.09611
# Shear Modulus (GPa) = 21.96525 26.34032 24.15278
#
# Velocity S-wave (km/s) = 3.37924 3.70051 3.54352
# Velocity P-wave (km/s) = 5.43705 6.02120 5.73657
#
# Compressibility (1/GPa) = 0.03626424
#
# Stress axis : x y z
#
# Youngs Moduli (GPa) = 75.99536 53.39391 49.14876
#
# Poissons Ratio (x) = 0.15098 0.13233
# Poissons Ratio (y) = 0.21488 0.12114
# Poissons Ratio (z) = 0.20462 0.13160
#
# Static dielectric constant tensor:
#      x y z
#    x 1.755330 -0.046000 0.019320 
#    y -0.046000 1.722970 -0.020170 
#    z 0.019320 -0.020170 1.698980 
# 
# From -- ./inp_files/392167.got.cif
#   From: 2010.05.17/outbox.cif.g08.bks.cpg/sg2_197_cif.got.tgz:392167.got - 2010.06.03 11:33:40.
