data_PCOD9084185
_publ_section_title
;
Structure prediction by ZEFSAII (Michael W. Deem and Ramdas Pophale) SiO2 
 PCOD9084185
Probable space group: P -1
;
_chemical_formula_sum "Si O2"
_cell_formula_units_Z 14
_cell_length_a 8.515222
_cell_length_b 15.289910
_cell_length_c 5.040400
_cell_angle_alpha 89.343854
_cell_angle_beta 92.746542
_cell_angle_gamma 64.116948
_cell_volume 589.354003
_symmetry_space_group_name_H-M "P -1"
_symmetry_group_IT_number 2
_symmetry_cell_setting 'triclinic'
loop_
_space_group_symop_operation_xyz
x,y,z
-x,-y,-z
loop_
_atom_site_type_symbol
_atom_site_label
_atom_site_fract_x
_atom_site_fract_y
_atom_site_fract_z
Si Si1 0.402581 0.612839 0.567941
Si Si2 0.352642 0.863100 0.672225
Si Si3 0.894246 0.941708 0.090218
Si Si4 0.225318 0.428583 0.316274
Si Si5 0.876473 0.435004 0.194577
Si Si6 0.246913 0.785469 0.172336
Si Si7 0.598858 0.935881 0.760167
O O1 0.500000 0.500000 0.500000
O O2 0.565143 0.631057 0.693093
O O3 0.238292 0.621747 0.734026
O O4 0.330787 0.678035 0.298870
O O5 0.328042 0.840036 0.370453
O O6 0.549813 0.845901 0.747462
O O7 0.232925 0.977863 0.718023
O O8 0.286091 0.805821 0.875268
O O9 0.039710 0.839730 0.210184
O O10 0.793588 0.917948 0.844175
O O11 0.000000 0.000000 0.000000
O O12 0.187252 0.473778 0.607461
O O13 0.087187 0.384144 0.249541
O O14 0.168931 0.518598 0.101999
O O15 0.500000 0.000000 0.500000
O O16 0.500000 0.000000 0.000000
#
# Coordination Sequence:
#
# PCOD9084185 Si02
#       7
#     2   2   2   2   2   2   2
#     4  10  22  40  63  88 121 167 210 260 310 364
#     4  10  21  39  59  88 122 159 197 250 302 373
#     4   9  19  37  62  89 120 157 193 249 297 363
#     4   9  18  34  58  83 110 147 199 251 307 354
#     4   9  18  34  58  84 108 148 200 252 302 362
#     4  11  23  38  59  89 123 157 207 248 309 362
#     4  10  19  34  61  89 117 158 196 234 302 365
#
# _framework density 23.754823999999999
#
# number of rings (size 3 to 8) (size 9 to 14) (size 15 to 20)
#    0.000    2.286    0.000    3.429    0.000    8.000 
#    2.571    0.000    6.286    0.000    0.000    0.000 
#    0.000    0.000    0.000    0.000    0.000    0.000 
#
# Total GULP energy -78105.252448 kJ/mol
# GULP energy per Si atom -5578.946603 kJ/mol
# Density = 2.370076 g / cm^3
# Si number density = 23.754824 Si / 1000 Ang^3
#
#
#
# Elastic Constant Matrix: (Units=GPa)
#
#
# Indices 1 2 3 4 5 6 
#
# 1 186.4826 32.8156 24.2029 -13.4795 15.8308 23.6047
# 2 32.8156 69.5540 11.0942 -16.4112 16.7716 -6.3305
# 3 24.2029 11.0942 78.6936 -5.6839 9.7394 -2.1454
# 4 -13.4795 -16.4112 -5.6839 39.3290 2.2290 7.3678
# 5 15.8308 16.7716 9.7394 2.2290 45.1042 0.5588
# 6 23.6047 -6.3305 -2.1454 7.3678 0.5588 34.6697
#
#
#
# Elastic Compliance Matrix: (Units=1/GPa)
#
#
# Indices 1 2 3 4 5 6 
#
# 1 0.007067 -0.002828 -0.001641 0.002168 -0.001109 -0.005873
# 2 -0.002828 0.019273 -0.000460 0.006601 -0.006452 0.004117
# 3 -0.001641 -0.000460 0.013680 0.001034 -0.002279 0.001697
# 4 0.002168 0.006601 0.001034 0.030591 -0.004868 -0.006629
# 5 -0.001109 -0.006452 -0.002279 -0.004868 0.025691 0.000056
# 6 -0.005873 0.004117 0.001697 -0.006629 0.000056 0.035107
#
#
# Mechanical properties :
#
#
# Convention : Reuss Voigt Hill
#
# Bulk Modulus (GPa) = 33.15422 52.32841 42.74132
# Shear Modulus (GPa) = 33.04226 41.59508 37.31867
#
# Velocity S-wave (km/s) = 3.73362 4.18905 3.96788
# Velocity P-wave (km/s) = 5.70734 6.74344 6.24690
#
# Compressibility (1/GPa) = 0.03016207
#
# Stress axis : x y z
#
# Youngs Moduli (GPa) = 141.49715 51.88632 73.09887
#
# Poissons Ratio (x) = 0.14674 0.11997
# Poissons Ratio (y) = 0.40018 0.03361
# Poissons Ratio (z) = 0.23222 0.02386
#
# Static dielectric constant tensor:
#      x y z
#    x 2.081480 0.020460 0.004870 
#    y 0.020460 1.952630 0.009440 
#    z 0.004870 0.009440 1.846980 
# 
# From -- ./inp_files/37528.got.cif
#   From: 2010.05.17/outbox.cif.g08.bks.cpg/sg2_19_cif.got.tgz:37528.got - 2010.06.03 11:33:40.
