data_PCOD9084954
_publ_section_title
;
Structure prediction by ZEFSAII (Michael W. Deem and Ramdas Pophale) SiO2 
 PCOD9084954
Probable space group: P -1
;
_chemical_formula_sum "Si O2"
_cell_formula_units_Z 16
_cell_length_a 5.142011
_cell_length_b 16.135092
_cell_length_c 17.774446
_cell_angle_alpha 34.503858
_cell_angle_beta 109.731961
_cell_angle_gamma 99.790358
_cell_volume 769.949731
_symmetry_space_group_name_H-M "P -1"
_symmetry_group_IT_number 2
_symmetry_cell_setting 'triclinic'
loop_
_space_group_symop_operation_xyz
x,y,z
-x,-y,-z
loop_
_atom_site_type_symbol
_atom_site_label
_atom_site_fract_x
_atom_site_fract_y
_atom_site_fract_z
Si Si1 0.443085 0.336231 0.790052
Si Si2 0.917672 0.135809 0.448040
Si Si3 0.705835 0.961582 0.977469
Si Si4 0.732382 0.459411 0.848143
Si Si5 0.865224 0.341872 0.522539
Si Si6 0.694456 0.473032 0.112533
Si Si7 0.488550 0.203644 0.482970
Si Si8 0.481853 0.737893 0.322653
O O1 0.703974 0.349031 0.859712
O O2 0.241168 0.498558 0.645977
O O3 0.524534 0.299647 0.738499
O O4 0.290533 0.211535 0.903456
O O5 0.807630 0.295950 0.275147
O O6 0.668586 0.122324 0.491559
O O7 0.208118 0.140687 0.517917
O O8 0.000000 0.000000 0.500000
O O9 0.593344 0.082071 0.812579
O O10 0.500000 0.000000 0.000000
O O11 0.000000 0.000000 0.000000
O O12 0.496858 0.453669 0.891579
O O13 0.644724 0.626234 0.681163
O O14 0.034869 0.450687 0.921638
O O15 0.714392 0.222920 0.554195
O O16 0.737502 0.338758 0.596282
O O17 0.200343 0.311014 0.580507
O O18 0.500000 0.500000 0.000000
#
# Coordination Sequence:
#
# PCOD9084954 Si02
#       8
#     2   2   2   2   2   2   2   2
#     4  10  22  39  61  85 113 154 204 235 276 352
#     4  10  19  35  58  81 106 146 183 218 276 350
#     4  10  22  39  56  77 113 155 188 232 291 343
#     4   9  20  35  58  82 109 147 186 231 281 333
#     4  11  22  37  59  86 116 151 193 245 283 321
#     4  10  20  37  57  82 112 141 179 233 286 332
#     4   9  19  35  54  81 115 145 181 226 281 337
#     4  11  22  37  57  86 117 151 191 244 290 322
#
# _framework density 20.780577000000001
#
# number of rings (size 3 to 8) (size 9 to 14) (size 15 to 20)
#    0.000    2.000    0.000    3.750    0.000    8.000 
#    0.000    3.750    0.000    0.000    0.000    0.000 
#    0.000    0.000    0.000    0.000    0.000    0.000 
#
# Total GULP energy -89303.264069 kJ/mol
# GULP energy per Si atom -5581.454004 kJ/mol
# Density = 2.073328 g / cm^3
# Si number density = 20.780577 Si / 1000 Ang^3
#
#
#
# Elastic Constant Matrix: (Units=GPa)
#
#
# Indices 1 2 3 4 5 6 
#
# 1 88.4127 4.0465 24.2064 -15.9140 10.9926 11.8951
# 2 4.0465 85.6622 22.3382 7.0801 5.6500 9.1633
# 3 24.2064 22.3382 83.3954 -7.0781 3.7668 10.3724
# 4 -15.9140 7.0801 -7.0781 16.2000 6.0749 -4.1973
# 5 10.9926 5.6500 3.7668 6.0749 20.9944 3.2317
# 6 11.8951 9.1633 10.3724 -4.1973 3.2317 16.4080
#
#
#
# Elastic Compliance Matrix: (Units=1/GPa)
#
#
# Indices 1 2 3 4 5 6 
#
# 1 0.018132 -0.000852 -0.002148 0.022109 -0.014856 -0.002729
# 2 -0.000852 0.014403 -0.003628 -0.011621 0.001889 -0.008477
# 3 -0.002148 -0.003628 0.014604 0.005371 -0.001460 -0.003988
# 4 0.022109 -0.011621 0.005371 0.115017 -0.046646 0.025676
# 5 -0.014856 0.001889 -0.001460 -0.046646 0.071014 -0.015281
# 6 -0.002729 -0.008477 -0.003988 0.025676 -0.015281 0.079757
#
#
# Mechanical properties :
#
#
# Convention : Reuss Voigt Hill
#
# Bulk Modulus (GPa) = 29.51312 39.85027 34.68169
# Shear Modulus (GPa) = 14.81585 24.51243 19.66414
#
# Velocity S-wave (km/s) = 2.67304 3.43823 3.07950
# Velocity P-wave (km/s) = 4.87442 5.91441 5.41942
#
# Compressibility (1/GPa) = 0.03388324
#
# Stress axis : x y z
#
# Youngs Moduli (GPa) = 55.15240 69.43072 68.47467
#
# Poissons Ratio (x) = 0.05915 0.14706
# Poissons Ratio (y) = 0.04699 0.24842
# Poissons Ratio (z) = 0.11845 0.25189
#
# Static dielectric constant tensor:
#      x y z
#    x 1.734790 -0.002200 0.003910 
#    y -0.002200 1.793790 -0.009970 
#    z 0.003910 -0.009970 1.768970 
# 
# From -- ./inp_files/550081.got.cif
#   From: 2010.05.17/outbox.cif.g08.bks.cpg/sg2_276_cif.got.tgz:550081.got - 2010.06.03 11:33:40.
