data_PCOD9084918
_publ_section_title
;
Structure prediction by ZEFSAII (Michael W. Deem and Ramdas Pophale) SiO2 
 PCOD9084918
Probable space group: P -1
;
_chemical_formula_sum "Si O2"
_cell_formula_units_Z 16
_cell_length_a 9.099896
_cell_length_b 11.622516
_cell_length_c 11.608901
_cell_angle_alpha 49.385610
_cell_angle_beta 116.102708
_cell_angle_gamma 85.475732
_cell_volume 706.655703
_symmetry_space_group_name_H-M "P -1"
_symmetry_group_IT_number 2
_symmetry_cell_setting 'triclinic'
loop_
_space_group_symop_operation_xyz
x,y,z
-x,-y,-z
loop_
_atom_site_type_symbol
_atom_site_label
_atom_site_fract_x
_atom_site_fract_y
_atom_site_fract_z
Si Si1 0.502050 0.029870 0.619933
Si Si2 0.404904 0.840413 0.885171
Si Si3 0.290571 0.674725 0.774531
Si Si4 0.080690 0.653121 0.016704
Si Si5 0.857132 0.038214 0.083611
Si Si6 0.275572 0.802624 0.307570
Si Si7 0.070478 0.345760 0.282566
Si Si8 0.477405 0.524348 0.723911
O O1 0.648252 0.090056 0.664721
O O2 0.287572 0.187365 0.485676
O O3 0.500000 0.000000 0.500000
O O4 0.536724 0.871756 0.822929
O O5 0.262818 0.824733 0.755710
O O6 0.266496 0.978482 0.846569
O O7 0.519235 0.651633 0.118445
O O8 0.332469 0.690167 0.647421
O O9 0.106848 0.658139 0.723777
O O10 0.500000 0.500000 0.000000
O O11 0.041444 0.538988 0.167240
O O12 0.307487 0.520327 0.149562
O O13 0.073935 0.829740 0.935219
O O14 0.951811 0.680079 0.844709
O O15 0.724636 0.143524 0.859487
O O16 0.054354 0.865452 0.219998
O O17 0.412318 0.596301 0.526963
#
# Coordination Sequence:
#
# PCOD9084918 Si02
#       8
#     2   2   2   2   2   2   2   2
#     4  12  26  40  63  99 132 166 209 267 326 375
#     4  10  23  39  63  93 125 170 210 257 318 375
#     4  10  19  35  57  91 128 161 202 256 313 373
#     4  10  20  38  62  93 127 163 208 258 316 376
#     4  10  23  44  66  90 124 171 219 261 312 386
#     4  11  24  43  67  90 127 168 217 265 318 373
#     4  11  21  35  61  95 129 163 204 258 321 370
#     4  10  20  40  61  94 121 168 208 258 314 377
#
# _framework density 22.641860999999999
#
# number of rings (size 3 to 8) (size 9 to 14) (size 15 to 20)
#    0.000    1.500    5.000    1.500    1.750    6.000 
#    0.000    0.000    0.000    2.250    0.000    0.000 
#    0.000    0.000    0.000    0.000    0.000    0.000 
#
# Total GULP energy -89225.162886 kJ/mol
# GULP energy per Si atom -5576.572680 kJ/mol
# Density = 2.259033 g / cm^3
# Si number density = 22.641861 Si / 1000 Ang^3
#
#
#
# Elastic Constant Matrix: (Units=GPa)
#
#
# Indices 1 2 3 4 5 6 
#
# 1 122.4658 10.9108 38.8713 -2.9505 -15.2925 -11.2752
# 2 10.9108 24.5060 5.2546 4.9534 -11.9319 -8.7698
# 3 38.8713 5.2546 91.5483 12.5124 -11.3275 1.8885
# 4 -2.9505 4.9534 12.5124 11.5434 -0.8526 -10.2487
# 5 -15.2925 -11.9319 -11.3275 -0.8526 37.4570 -3.5178
# 6 -11.2752 -8.7698 1.8885 -10.2487 -3.5178 35.1686
#
#
#
# Elastic Compliance Matrix: (Units=1/GPa)
#
#
# Indices 1 2 3 4 5 6 
#
# 1 0.013238 -0.003283 -0.008584 0.024415 0.003383 0.011340
# 2 -0.003283 0.057864 0.002705 -0.018702 0.018389 0.009621
# 3 -0.008584 0.002705 0.019932 -0.037172 0.001237 -0.013857
# 4 0.024415 -0.018702 -0.037172 0.197346 0.003177 0.062988
# 5 0.003383 0.018389 0.001237 0.003177 0.035328 0.010063
# 6 0.011340 0.009621 -0.013857 0.062988 0.010063 0.054575
#
#
# Mechanical properties :
#
#
# Convention : Reuss Voigt Hill
#
# Bulk Modulus (GPa) = 13.75309 38.73258 26.24284
# Shear Modulus (GPa) = 11.88089 29.06602 20.47346
#
# Velocity S-wave (km/s) = 2.29319 3.58680 3.01030
# Velocity P-wave (km/s) = 3.61925 5.85639 4.86807
#
# Compressibility (1/GPa) = 0.07271092
#
# Stress axis : x y z
#
# Youngs Moduli (GPa) = 75.54292 17.28182 50.16988
#
# Poissons Ratio (x) = 0.05673 0.43068
# Poissons Ratio (y) = 0.24798 -0.13573
# Poissons Ratio (z) = 0.64849 -0.04676
#
# Static dielectric constant tensor:
#      x y z
#    x 1.857140 -0.031180 -0.046700 
#    y -0.031180 1.908900 -0.046860 
#    z -0.046700 -0.046860 1.921730 
# 
# From -- ./inp_files/392154.got.cif
#   From: 2010.05.17/outbox.cif.g08.bks.cpg/sg2_197_cif.got.tgz:392154.got - 2010.06.03 11:33:40.
