data_PCOD9084527
_publ_section_title
;
Structure prediction by ZEFSAII (Michael W. Deem and Ramdas Pophale) SiO2 
 PCOD9084527
Probable space group: P -1
;
_chemical_formula_sum "Si O2"
_cell_formula_units_Z 12
_cell_length_a 6.398017
_cell_length_b 7.761060
_cell_length_c 13.316550
_cell_angle_alpha 91.877588
_cell_angle_beta 113.251259
_cell_angle_gamma 62.682419
_cell_volume 530.785440
_symmetry_space_group_name_H-M "P -1"
_symmetry_group_IT_number 2
_symmetry_cell_setting 'triclinic'
loop_
_space_group_symop_operation_xyz
x,y,z
-x,-y,-z
loop_
_atom_site_type_symbol
_atom_site_label
_atom_site_fract_x
_atom_site_fract_y
_atom_site_fract_z
Si Si1 0.232076 0.501160 0.943587
Si Si2 0.686407 0.903144 0.438336
Si Si3 0.364521 0.700871 0.346220
Si Si4 0.258505 0.180673 0.081380
Si Si5 0.807833 0.846958 0.155168
Si Si6 0.271524 0.727981 0.569992
O O1 0.205279 0.357652 0.854502
O O2 0.992941 0.723562 0.894054
O O3 0.500000 0.500000 0.000000
O O4 0.252935 0.382789 0.049265
O O5 0.551057 0.792384 0.356335
O O6 0.981406 0.759215 0.527475
O O7 0.500000 0.000000 0.500000
O O8 0.712117 0.078530 0.392355
O O9 0.326749 0.709377 0.460110
O O10 0.515219 0.470529 0.342236
O O11 0.077887 0.811740 0.249305
O O12 0.546198 0.015394 0.158741
O O13 0.199751 0.102219 0.964174
#
# Coordination Sequence:
#
# PCOD9084527 Si02
#       6
#     2   2   2   2   2   2
#     4   9  17  35  56  74 103 143 172 211 267 308
#     4   9  18  36  55  74 104 144 171 215 273 306
#     4  10  19  35  54  78 106 136 177 219 262 310
#     4   8  18  37  51  72 112 134 167 221 257 310
#     4   9  18  37  52  77 108 136 174 218 260 311
#     4   9  19  36  54  75 108 137 175 218 259 320
#
# _framework density 22.608004000000001
#
# number of rings (size 3 to 8) (size 9 to 14) (size 15 to 20)
#    1.000    2.000    0.000    0.500    0.000    0.667 
#   15.000    0.000    0.000    0.000    0.000    0.000 
#    0.000    0.000    0.000    0.000    0.000    0.000 
#
# Total GULP energy -66854.199869 kJ/mol
# GULP energy per Si atom -5571.183322 kJ/mol
# Density = 2.255655 g / cm^3
# Si number density = 22.608004 Si / 1000 Ang^3
#
#
#
# Elastic Constant Matrix: (Units=GPa)
#
#
# Indices 1 2 3 4 5 6 
#
# 1 78.5877 36.3155 42.3290 -13.1154 47.2200 -9.4364
# 2 36.3155 101.7811 53.4644 -33.6120 38.5252 -25.0074
# 3 42.3290 53.4644 119.4278 -16.2131 41.8687 -0.7634
# 4 -13.1154 -33.6120 -16.2131 28.6123 -13.1491 16.2739
# 5 47.2200 38.5252 41.8687 -13.1491 49.0336 -2.1547
# 6 -9.4364 -25.0074 -0.7634 16.2739 -2.1547 34.4683
#
#
#
# Elastic Compliance Matrix: (Units=1/GPa)
#
#
# Indices 1 2 3 4 5 6 
#
# 1 0.032789 0.003343 -0.001963 -0.003565 -0.033000 0.010979
# 2 0.003343 0.023553 -0.005138 0.014495 -0.013001 0.010233
# 3 -0.001963 -0.005138 0.013368 0.000782 -0.005484 -0.004681
# 4 -0.003565 0.014495 0.000782 0.066845 0.008359 -0.021480
# 5 -0.033000 -0.013001 -0.005484 0.008359 0.068511 -0.018252
# 6 0.010979 0.010233 -0.004681 -0.021480 -0.018252 0.048339
#
#
# Mechanical properties :
#
#
# Convention : Reuss Voigt Hill
#
# Bulk Modulus (GPa) = 16.07864 62.66827 39.37345
# Shear Modulus (GPa) = 17.75246 33.60203 25.67724
#
# Velocity S-wave (km/s) = 2.80523 3.85942 3.37376
# Velocity P-wave (km/s) = 4.19760 6.90217 5.71225
#
# Compressibility (1/GPa) = 0.06219432
#
# Stress axis : x y z
#
# Youngs Moduli (GPa) = 30.49832 42.45716 74.80799
#
# Poissons Ratio (x) = -0.14193 0.14681
# Poissons Ratio (y) = -0.10195 0.38436
# Poissons Ratio (z) = 0.05985 0.21814
#
# Static dielectric constant tensor:
#      x y z
#    x 2.163310 -0.144410 0.085130 
#    y -0.144410 1.943970 -0.052320 
#    z 0.085130 -0.052320 1.885340 
# 
# From -- ./inp_files/337418.got.cif
#   From: 2010.05.17/outbox.cif.g08.bks.cpg/sg2_169_cif.got.tgz:337418.got - 2010.06.03 11:33:40.
