data_PCOD9084711
_publ_section_title
;
Structure prediction by ZEFSAII (Michael W. Deem and Ramdas Pophale) SiO2 
 PCOD9084711
Probable space group: P -1
;
_chemical_formula_sum "Si O2"
_cell_formula_units_Z 16
_cell_length_a 14.444320
_cell_length_b 13.857438
_cell_length_c 10.778616
_cell_angle_alpha 43.611736
_cell_angle_beta 152.103952
_cell_angle_gamma 137.499305
_cell_volume 663.809171
_symmetry_space_group_name_H-M "P -1"
_symmetry_group_IT_number 2
_symmetry_cell_setting 'triclinic'
loop_
_space_group_symop_operation_xyz
x,y,z
-x,-y,-z
loop_
_atom_site_type_symbol
_atom_site_label
_atom_site_fract_x
_atom_site_fract_y
_atom_site_fract_z
Si Si1 0.105253 0.326642 0.365166
Si Si2 0.572440 0.802158 0.004054
Si Si3 0.781131 0.860282 0.543773
Si Si4 0.017143 0.777882 0.287344
Si Si5 0.259055 0.832068 0.782678
Si Si6 0.833474 0.017909 0.931775
Si Si7 0.463223 0.583312 0.504946
Si Si8 0.649286 0.501631 0.058142
O O1 0.129762 0.233018 0.361554
O O2 0.225329 0.497912 0.334793
O O3 0.870860 0.291834 0.163960
O O4 0.234986 0.261742 0.681158
O O5 0.481219 0.827393 0.005256
O O6 0.393393 0.671245 0.851008
O O7 0.653661 0.948172 0.883061
O O8 0.565252 0.754363 0.440300
O O9 0.955733 0.908025 0.812053
O O10 0.753506 0.013797 0.325084
O O11 0.132459 0.803754 0.530220
O O12 0.173528 0.857686 0.289261
O O13 0.857465 0.876606 0.017249
O O14 0.875259 0.612633 0.250373
O O15 0.500000 0.500000 0.500000
O O16 0.582213 0.551528 0.798410
O O17 0.500000 0.500000 0.000000
#
# Coordination Sequence:
#
# PCOD9084711 Si02
#       8
#     2   2   2   2   2   2   2   2
#     4  10  20  40  60  84 115 152 194 240 288 347
#     4  11  23  37  56  88 122 148 193 242 288 347
#     4  10  19  37  63  83 113 156 196 233 292 351
#     4  10  19  35  57  80 114 151 192 234 286 342
#     4  11  23  37  57  90 116 152 191 242 293 342
#     4  10  19  35  56  85 114 148 191 239 284 341
#     4   9  19  35  62  87 112 154 198 237 291 350
#     4  11  19  35  61  87 113 157 194 238 295 343
#
# _framework density 24.103314000000001
#
# number of rings (size 3 to 8) (size 9 to 14) (size 15 to 20)
#    0.000    1.750    5.000    1.125    0.000    1.500 
#    0.000    1.250    0.000    6.750    0.000    0.000 
#    0.000    0.000    0.000    0.000    0.000    0.000 
#
# Total GULP energy -89396.291141 kJ/mol
# GULP energy per Si atom -5587.268196 kJ/mol
# Density = 2.404845 g / cm^3
# Si number density = 24.103314 Si / 1000 Ang^3
#
#
#
# Elastic Constant Matrix: (Units=GPa)
#
#
# Indices 1 2 3 4 5 6 
#
# 1 97.3078 57.3160 15.9126 13.8149 2.7446 31.1550
# 2 57.3160 165.8293 44.1082 43.3793 -6.1030 32.3744
# 3 15.9126 44.1082 56.4523 15.8369 -10.8400 6.0447
# 4 13.8149 43.3793 15.8369 38.9908 0.1922 -3.2301
# 5 2.7446 -6.1030 -10.8400 0.1922 37.1939 13.2727
# 6 31.1550 32.3744 6.0447 -3.2301 13.2727 55.8138
#
#
#
# Elastic Compliance Matrix: (Units=1/GPa)
#
#
# Indices 1 2 3 4 5 6 
#
# 1 0.014528 -0.003072 -0.000237 -0.002184 0.000721 -0.006599
# 2 -0.003072 0.012869 -0.004406 -0.012021 0.003547 -0.006812
# 3 -0.000237 -0.004406 0.024192 -0.005032 0.007049 -0.001899
# 4 -0.002184 -0.012021 -0.005032 0.042970 -0.008201 0.013174
# 5 0.000721 0.003547 0.007049 -0.008201 0.033690 -0.011710
# 6 -0.006599 -0.006812 -0.001899 0.013174 -0.011710 0.029304
#
#
# Mechanical properties :
#
#
# Convention : Reuss Voigt Hill
#
# Bulk Modulus (GPa) = 27.65621 61.58477 44.62049
# Shear Modulus (GPa) = 27.02154 39.88323 33.45239
#
# Velocity S-wave (km/s) = 3.35187 4.07219 3.72946
# Velocity P-wave (km/s) = 5.14578 6.90768 6.09078
#
# Compressibility (1/GPa) = 0.03615824
#
# Stress axis : x y z
#
# Youngs Moduli (GPa) = 68.83496 77.70544 41.33544
#
# Poissons Ratio (x) = 0.23871 0.00980
# Poissons Ratio (y) = 0.21146 0.18214
# Poissons Ratio (z) = 0.01632 0.34239
#
# Static dielectric constant tensor:
#      x y z
#    x 1.956260 0.019610 0.017030 
#    y 0.019610 1.907330 -0.046780 
#    z 0.017030 -0.046780 2.083340 
# 
# From -- ./inp_files/305192.got.cif
#   From: 2010.05.17/outbox.cif.g08.bks.cpg/sg2_153_cif.got.tgz:305192.got - 2010.06.03 11:33:40.
