data_PCOD9084902
_publ_section_title
;
Structure prediction by ZEFSAII (Michael W. Deem and Ramdas Pophale) SiO2 
 PCOD9084902
Probable space group: P -1
;
_chemical_formula_sum "Si O2"
_cell_formula_units_Z 14
_cell_length_a 28.924030
_cell_length_b 5.099036
_cell_length_c 10.422342
_cell_angle_alpha 80.707427
_cell_angle_beta 151.809713
_cell_angle_gamma 114.643254
_cell_volume 579.062440
_symmetry_space_group_name_H-M "P -1"
_symmetry_group_IT_number 2
_symmetry_cell_setting 'triclinic'
loop_
_space_group_symop_operation_xyz
x,y,z
-x,-y,-z
loop_
_atom_site_type_symbol
_atom_site_label
_atom_site_fract_x
_atom_site_fract_y
_atom_site_fract_z
Si Si1 0.024961 0.643184 0.746534
Si Si2 0.720126 0.085124 0.688442
Si Si3 0.372301 0.521731 0.641358
Si Si4 0.467106 0.511855 0.135044
Si Si5 0.360252 0.222526 0.151354
Si Si6 0.210873 0.466949 0.819478
Si Si7 0.028443 0.029465 0.216435
O O1 0.840990 0.645633 0.443959
O O2 0.054076 0.890905 0.915190
O O3 0.984252 0.289955 0.731503
O O4 0.147117 0.791265 0.954793
O O5 0.715602 0.385141 0.620568
O O6 0.689828 0.862156 0.505442
O O7 0.594649 0.831466 0.477703
O O8 0.484124 0.677689 0.801294
O O9 0.421335 0.616907 0.896837
O O10 0.364369 0.303239 0.002938
O O11 0.500000 0.500000 0.500000
O O12 0.272746 0.284002 0.008278
O O13 0.310563 0.846273 0.061033
O O14 0.087585 0.378734 0.592084
O O15 0.000000 0.000000 0.000000
#
# Coordination Sequence:
#
# PCOD9084902 Si02
#       7
#     2   2   2   2   2   2   2
#     4  10  20  36  56  81 123 153 195 239 300 361
#     4  10  19  35  57  89 116 159 186 234 298 369
#     4   9  20  35  55  87 121 155 191 239 302 352
#     4   9  23  37  57  87 120 150 204 244 301 348
#     4  12  25  42  66  86 116 163 209 256 298 347
#     4  10  23  42  57  88 119 160 198 255 297 353
#     4  10  20  36  53  88 123 159 194 233 298 368
#
# _framework density 24.177012000000001
#
# number of rings (size 3 to 8) (size 9 to 14) (size 15 to 20)
#    1.714    0.286    1.429    2.143    2.000    3.429 
#    0.000    0.000    0.000    1.714    0.000    0.000 
#    0.000    0.000    0.000    0.000    0.000    0.000 
#
# Total GULP energy -77957.188827 kJ/mol
# GULP energy per Si atom -5568.370630 kJ/mol
# Density = 2.412198 g / cm^3
# Si number density = 24.177012 Si / 1000 Ang^3
#
#
#
# Elastic Constant Matrix: (Units=GPa)
#
#
# Indices 1 2 3 4 5 6 
#
# 1 75.7630 45.0075 34.1335 0.5117 5.7908 -9.3719
# 2 45.0075 120.7698 7.2890 9.0471 -3.5728 -30.6201
# 3 34.1335 7.2890 80.5851 2.8312 -5.0069 -10.6624
# 4 0.5117 9.0471 2.8312 42.7510 -16.0000 5.0095
# 5 5.7908 -3.5728 -5.0069 -16.0000 27.8871 0.0583
# 6 -9.3719 -30.6201 -10.6624 5.0095 0.0583 26.2652
#
#
#
# Elastic Compliance Matrix: (Units=1/GPa)
#
#
# Indices 1 2 3 4 5 6 
#
# 1 0.023995 -0.010722 -0.010827 0.000752 -0.007851 -0.008460
# 2 -0.010722 0.017453 0.005942 -0.005404 0.002387 0.019959
# 3 -0.010827 0.005942 0.018272 -0.001598 0.005351 0.010774
# 4 0.000752 -0.005404 -0.001598 0.032774 0.017696 -0.012971
# 5 -0.007851 0.002387 0.005351 0.017696 0.048911 -0.001330
# 6 -0.008460 0.019959 0.010774 -0.012971 -0.001330 0.065173
#
#
# Mechanical properties :
#
#
# Convention : Reuss Voigt Hill
#
# Bulk Modulus (GPa) = 35.08129 49.99754 42.53941
# Shear Modulus (GPa) = 20.21856 32.09319 26.15588
#
# Velocity S-wave (km/s) = 2.89497 3.64734 3.29272
# Velocity P-wave (km/s) = 5.07111 6.20178 5.66473
#
# Compressibility (1/GPa) = 0.02850523
#
# Stress axis : x y z
#
# Youngs Moduli (GPa) = 41.67455 57.29556 54.72807
#
# Poissons Ratio (x) = 0.61435 0.59257
# Poissons Ratio (y) = 0.44685 -0.32519
# Poissons Ratio (z) = 0.45123 -0.34045
#
# Static dielectric constant tensor:
#      x y z
#    x 1.986950 0.018510 -0.011530 
#    y 0.018510 1.893590 -0.010780 
#    z -0.011530 -0.010780 1.987100 
# 
# From -- ./inp_files/477325.got.cif
#   From: 2010.05.17/outbox.cif.g08.bks.cpg/sg2_239_cif.got.tgz:477325.got - 2010.06.03 11:33:40.
