data_PCOD9084162
_publ_section_title
;
Structure prediction by ZEFSAII (Michael W. Deem and Ramdas Pophale) SiO2 
 PCOD9084162
Probable space group: P -1
;
_chemical_formula_sum "Si O2"
_cell_formula_units_Z 14
_cell_length_a 15.452767
_cell_length_b 8.120851
_cell_length_c 7.481438
_cell_angle_alpha 100.403090
_cell_angle_beta 53.903375
_cell_angle_gamma 67.657789
_cell_volume 589.987612
_symmetry_space_group_name_H-M "P -1"
_symmetry_group_IT_number 2
_symmetry_cell_setting 'triclinic'
loop_
_space_group_symop_operation_xyz
x,y,z
-x,-y,-z
loop_
_atom_site_type_symbol
_atom_site_label
_atom_site_fract_x
_atom_site_fract_y
_atom_site_fract_z
Si Si1 0.511202 0.594102 0.271492
Si Si2 0.443314 0.089738 0.790765
Si Si3 0.180594 0.790557 0.203830
Si Si4 0.422151 0.356060 0.419506
Si Si5 0.132122 0.624543 0.761799
Si Si6 0.052666 0.030694 0.731353
Si Si7 0.857802 0.542265 0.659200
O O1 0.507969 0.767753 0.198500
O O2 0.420109 0.520780 0.327295
O O3 0.492456 0.672675 0.514907
O O4 0.661382 0.375309 0.042119
O O5 0.500000 0.000000 0.500000
O O6 0.512171 0.875451 0.776123
O O7 0.280231 0.245576 0.048682
O O8 0.145821 0.958668 0.431054
O O9 0.134863 0.650645 0.301748
O O10 0.088021 0.910342 0.167956
O O11 0.266590 0.475746 0.686811
O O12 0.118416 0.825276 0.734035
O O13 0.153777 0.480178 0.543123
O O14 0.994193 0.756292 0.069988
O O15 0.000000 0.500000 0.500000
#
# Coordination Sequence:
#
# PCOD9084162 Si02
#       7
#     2   2   2   2   2   2   2
#     4   9  18  35  59  89 113 156 201 238 295 369
#     4   9  20  39  60  86 121 157 199 251 296 356
#     4   9  17  35  60  81 120 153 198 245 296 361
#     4  10  19  34  61  86 118 160 196 241 303 360
#     4  10  20  36  56  87 122 148 204 253 294 353
#     4   9  18  33  56  84 113 154 185 251 302 338
#     4  10  22  40  60  83 117 165 205 244 304 364
#
# _framework density 23.729315
#
# number of rings (size 3 to 8) (size 9 to 14) (size 15 to 20)
#    0.000    2.571    1.429    0.000    0.000    4.000 
#   10.286    8.571    0.000    0.000    0.000    0.000 
#    0.000    0.000    0.000    0.000    0.000    0.000 
#
# Total GULP energy -78028.129830 kJ/mol
# GULP energy per Si atom -5573.437845 kJ/mol
# Density = 2.367531 g / cm^3
# Si number density = 23.729315 Si / 1000 Ang^3
#
#
#
# Elastic Constant Matrix: (Units=GPa)
#
#
# Indices 1 2 3 4 5 6 
#
# 1 34.1406 27.1585 35.5566 3.1992 9.0986 1.2033
# 2 27.1585 100.3979 50.2567 21.6617 -15.2005 6.5728
# 3 35.5566 50.2567 162.4588 31.0226 4.8379 16.0205
# 4 3.1992 21.6617 31.0226 40.6994 -3.2922 -2.7290
# 5 9.0986 -15.2005 4.8379 -3.2922 35.8365 -5.6163
# 6 1.2033 6.5728 16.0205 -2.7290 -5.6163 21.1101
#
#
#
# Elastic Compliance Matrix: (Units=1/GPa)
#
#
# Indices 1 2 3 4 5 6 
#
# 1 0.054325 -0.015228 -0.009007 0.009639 -0.017349 0.005111
# 2 -0.015228 0.017774 -0.000993 -0.006780 0.010608 -0.001967
# 3 -0.009007 -0.000993 0.010839 -0.007757 -0.001698 -0.008858
# 4 0.009639 -0.006780 -0.007757 0.034205 0.000758 0.012072
# 5 -0.017349 0.010608 -0.001698 0.000758 0.038571 0.009335
# 6 0.005111 -0.001967 -0.008858 0.012072 0.009335 0.058458
#
#
# Mechanical properties :
#
#
# Convention : Reuss Voigt Hill
#
# Bulk Modulus (GPa) = 30.78531 58.10454 44.44493
# Shear Modulus (GPa) = 18.15170 31.79756 24.97463
#
# Velocity S-wave (km/s) = 2.76877 3.66459 3.24771
# Velocity P-wave (km/s) = 4.81904 6.51500 5.73011
#
# Compressibility (1/GPa) = 0.03248302
#
# Stress axis : x y z
#
# Youngs Moduli (GPa) = 18.40767 56.26058 92.25714
#
# Poissons Ratio (x) = 0.85672 0.83098
# Poissons Ratio (y) = 0.28031 0.09161
# Poissons Ratio (z) = 0.16580 0.05586
#
# Static dielectric constant tensor:
#      x y z
#    x 1.940160 0.015720 0.066910 
#    y 0.015720 1.966770 -0.045980 
#    z 0.066910 -0.045980 1.976960 
# 
# From -- ./inp_files/221344.got.cif
#   From: 2010.05.17/outbox.cif.g08.bks.cpg/sg2_111_cif.got.tgz:221344.got - 2010.06.03 11:33:40.
