data_PCOD9084480
_publ_section_title
;
Structure prediction by ZEFSAII (Michael W. Deem and Ramdas Pophale) SiO2 
 PCOD9084480
Probable space group: P -1
;
_chemical_formula_sum "Si O2"
_cell_formula_units_Z 14
_cell_length_a 16.909143
_cell_length_b 16.658054
_cell_length_c 7.710088
_cell_angle_alpha 44.957312
_cell_angle_beta 42.916149
_cell_angle_gamma 23.658295
_cell_volume 587.993757
_symmetry_space_group_name_H-M "P -1"
_symmetry_group_IT_number 2
_symmetry_cell_setting 'triclinic'
loop_
_space_group_symop_operation_xyz
x,y,z
-x,-y,-z
loop_
_atom_site_type_symbol
_atom_site_label
_atom_site_fract_x
_atom_site_fract_y
_atom_site_fract_z
Si Si1 0.659933 0.157108 0.504779
Si Si2 0.071820 0.693575 0.567473
Si Si3 0.639971 0.774903 0.661824
Si Si4 0.285542 0.966243 0.753874
Si Si5 0.366971 0.491693 0.719058
Si Si6 0.849895 0.250613 0.001100
Si Si7 0.960428 0.607183 0.625063
O O1 0.516119 0.280935 0.710602
O O2 0.738081 0.220770 0.239424
O O3 0.587987 0.164325 0.425367
O O4 0.848389 0.925283 0.601533
O O5 0.193858 0.628944 0.639234
O O6 0.031636 0.597324 0.712716
O O7 0.167893 0.681001 0.265420
O O8 0.832296 0.603935 0.480293
O O9 0.769420 0.676271 0.785591
O O10 0.500000 0.000000 0.500000
O O11 0.457740 0.832583 0.827627
O O12 0.148454 0.192026 0.595746
O O13 0.094483 0.034530 0.978969
O O14 0.500000 0.500000 0.500000
O O15 0.249263 0.585898 0.946801
#
# Coordination Sequence:
#
# PCOD9084480 Si02
#       7
#     2   2   2   2   2   2   2
#     4   9  18  33  50  72 103 139 172 202 249 299
#     4  10  19  35  53  72 104 135 165 212 251 293
#     4   9  15  26  47  75 100 123 162 208 247 298
#     4   9  16  29  49  71  99 133 165 204 248 292
#     4  10  21  33  49  74 101 135 175 208 248 295
#     4   9  19  34  50  74 105 136 171 207 247 295
#     4   8  16  28  46  74  98 125 165 203 249 298
#
# _framework density 23.809775999999999
#
# number of rings (size 3 to 8) (size 9 to 14) (size 15 to 20)
#    0.000    3.143    0.000    2.571    0.000    4.571 
#    0.000   11.429    0.000    1.714    0.000   86.000 
#    0.000    0.000    0.000    0.000    0.000    0.000 
#
# Total GULP energy -77986.010247 kJ/mol
# GULP energy per Si atom -5570.429303 kJ/mol
# Density = 2.375558 g / cm^3
# Si number density = 23.809776 Si / 1000 Ang^3
#
#
#
# Elastic Constant Matrix: (Units=GPa)
#
#
# Indices 1 2 3 4 5 6 
#
# 1 208.2265 125.0280 109.9748 1.1458 81.3323 -1.6833
# 2 125.0280 146.3498 64.0555 41.4057 41.5195 10.4839
# 3 109.9748 64.0555 93.4829 31.7321 26.2911 -1.0412
# 4 1.1458 41.4057 31.7321 16.8399 27.7306 16.5982
# 5 81.3323 41.5195 26.2911 27.7306 41.2560 2.5954
# 6 -1.6833 10.4839 -1.0412 16.5982 2.5954 37.5366
#
#
#
# Elastic Compliance Matrix: (Units=1/GPa)
#
#
# Indices 1 2 3 4 5 6 
#
# 1 0.002738 0.000018 0.001077 -0.015926 0.004168 0.006902
# 2 0.000018 0.011817 -0.006502 0.003013 -0.009550 -0.004152
# 3 0.001077 -0.006502 0.013420 0.010506 -0.011089 -0.001642
# 4 -0.015926 0.003013 0.010506 -0.000056 0.021880 -0.002752
# 5 0.004168 -0.009550 -0.011089 0.021880 0.018522 -0.008409
# 6 0.006902 -0.004152 -0.001642 -0.002752 -0.008409 0.029863
#
#
# Mechanical properties :
#
#
# Convention : Reuss Voigt Hill
#
# Bulk Modulus (GPa) = 58.26980 116.24176 87.25578
# Shear Modulus (GPa) = 53.85573 29.05988 41.45781
#
# Velocity S-wave (km/s) = 4.76112 3.49736 4.17731
# Velocity P-wave (km/s) = 7.39936 8.07686 7.74552
#
# Compressibility (1/GPa) = 0.01716155
#
# Stress axis : x y z
#
# Youngs Moduli (GPa) = 365.18557 84.62100 74.51340
#
# Poissons Ratio (x) = -0.00156 -0.08023
# Poissons Ratio (y) = -0.00674 0.48452
# Poissons Ratio (z) = -0.39319 0.55024
#
# Static dielectric constant tensor:
#      x y z
#    x 2.008970 0.045840 -0.050580 
#    y 0.045840 2.025640 -0.188690 
#    z -0.050580 -0.188690 2.119580 
# 
# From -- ./inp_files/312935.got.cif
#   From: 2010.05.17/outbox.cif.g08.bks.cpg/sg2_157_cif.got.tgz:312935.got - 2010.06.03 11:33:40.
