data_PCOD9084950
_publ_section_title
;
Structure prediction by ZEFSAII (Michael W. Deem and Ramdas Pophale) SiO2 
 PCOD9084950
Probable space group: P -1
;
_chemical_formula_sum "Si O2"
_cell_formula_units_Z 14
_cell_length_a 8.801068
_cell_length_b 8.525840
_cell_length_c 13.930670
_cell_angle_alpha 67.285331
_cell_angle_beta 83.913334
_cell_angle_gamma 49.954749
_cell_volume 722.990363
_symmetry_space_group_name_H-M "P -1"
_symmetry_group_IT_number 2
_symmetry_cell_setting 'triclinic'
loop_
_space_group_symop_operation_xyz
x,y,z
-x,-y,-z
loop_
_atom_site_type_symbol
_atom_site_label
_atom_site_fract_x
_atom_site_fract_y
_atom_site_fract_z
Si Si1 0.474109 0.276087 0.626862
Si Si2 0.621852 0.087541 0.461776
Si Si3 0.156502 0.826900 0.269477
Si Si4 0.054658 0.652468 0.492269
Si Si5 0.694493 0.412798 0.885501
Si Si6 0.236813 0.770329 0.870723
Si Si7 0.530269 0.123715 0.245718
O O1 0.635504 0.241119 0.693701
O O2 0.245099 0.508741 0.584509
O O3 0.550166 0.248695 0.518280
O O4 0.471626 0.075270 0.695521
O O5 0.858850 0.877201 0.501096
O O6 0.500000 0.000000 0.500000
O O7 0.572685 0.176352 0.335656
O O8 0.103209 0.722655 0.376271
O O9 0.195538 0.726594 0.184398
O O10 0.966023 0.095417 0.209744
O O11 0.000000 0.500000 0.500000
O O12 0.453494 0.533626 0.877147
O O13 0.671889 0.634931 0.833963
O O14 0.791786 0.272286 0.009381
O O15 0.294041 0.930123 0.821528
#
# Coordination Sequence:
#
# PCOD9084950 Si02
#       7
#     2   2   2   2   2   2   2
#     4  11  24  35  53  90 120 146 180 233 282 331
#     4  10  19  35  58  79 112 149 190 219 270 337
#     4  12  23  36  57  87 119 142 184 240 285 317
#     4  12  21  36  58  82 111 155 193 217 267 346
#     4   9  20  37  65  79 105 149 200 227 274 334
#     4   9  19  39  63  80 104 151 200 228 271 336
#     4   9  17  39  58  77 109 149 189 224 267 333
#
# _framework density 19.364018999999999
#
# number of rings (size 3 to 8) (size 9 to 14) (size 15 to 20)
#    0.857    0.857    4.286    1.714    2.000    1.714 
#    0.000    1.429    0.000    0.000    0.000    0.000 
#    0.000    0.000    0.000    0.000    0.000    0.000 
#
# Total GULP energy -77989.751438 kJ/mol
# GULP energy per Si atom -5570.696531 kJ/mol
# Density = 1.931995 g / cm^3
# Si number density = 19.364019 Si / 1000 Ang^3
#
#
#
# Elastic Constant Matrix: (Units=GPa)
#
#
# Indices 1 2 3 4 5 6 
#
# 1 62.2005 14.1914 39.8571 -13.4640 5.2693 -15.7314
# 2 14.1914 39.8428 20.1969 -4.2206 -5.5162 -20.3785
# 3 39.8571 20.1969 126.4246 -25.0841 -7.0512 -4.7427
# 4 -13.4640 -4.2206 -25.0841 25.3334 -6.3945 0.8298
# 5 5.2693 -5.5162 -7.0512 -6.3945 23.2099 -4.1821
# 6 -15.7314 -20.3785 -4.7427 0.8298 -4.1821 21.7662
#
#
#
# Elastic Compliance Matrix: (Units=1/GPa)
#
#
# Indices 1 2 3 4 5 6 
#
# 1 0.026846 0.007412 -0.007241 0.007518 -0.000053 0.024468
# 2 0.007412 0.069120 -0.005980 0.014766 0.030336 0.074034
# 3 -0.007241 -0.005980 0.013136 0.009815 0.005608 -0.007267
# 4 0.007518 0.014766 0.009815 0.061434 0.026045 0.024059
# 5 -0.000053 0.030336 0.005608 0.026045 0.066646 0.041398
# 6 0.024468 0.074034 -0.007267 0.024059 0.041398 0.138394
#
#
# Mechanical properties :
#
#
# Convention : Reuss Voigt Hill
#
# Bulk Modulus (GPa) = 10.25807 41.88427 26.07117
# Shear Modulus (GPa) = 11.91359 24.34339 18.12849
#
# Velocity S-wave (km/s) = 2.48310 3.54947 3.06305
# Velocity P-wave (km/s) = 3.67832 6.20284 5.09928
#
# Compressibility (1/GPa) = 0.09748423
#
# Stress axis : x y z
#
# Youngs Moduli (GPa) = 37.24944 14.46753 76.12829
#
# Poissons Ratio (x) = -0.10724 0.55125
# Poissons Ratio (y) = -0.27611 0.45526
# Poissons Ratio (z) = 0.26973 0.08652
#
# Static dielectric constant tensor:
#      x y z
#    x 7.540700 -6.144800 0.095080 
#    y -6.144800 8.122540 -0.118770 
#    z 0.095080 -0.118770 1.696810 
# 
# From -- ./inp_files/490782.got.cif
#   From: 2010.05.17/outbox.cif.g08.bks.cpg/sg2_246_cif.got.tgz:490782.got - 2010.06.03 11:33:40.
