data_PCOD9084027
_publ_section_title
;
Structure prediction by ZEFSAII (Michael W. Deem and Ramdas Pophale) SiO2 
 PCOD9084027
Probable space group: P -1
;
_chemical_formula_sum "Si O2"
_cell_formula_units_Z 10
_cell_length_a 16.875987
_cell_length_b 5.129724
_cell_length_c 7.705219
_cell_angle_alpha 92.204714
_cell_angle_beta 136.190473
_cell_angle_gamma 70.596325
_cell_volume 414.326159
_symmetry_space_group_name_H-M "P -1"
_symmetry_group_IT_number 2
_symmetry_cell_setting 'triclinic'
loop_
_space_group_symop_operation_xyz
x,y,z
-x,-y,-z
loop_
_atom_site_type_symbol
_atom_site_label
_atom_site_fract_x
_atom_site_fract_y
_atom_site_fract_z
Si Si1 0.666866 0.946455 0.567660
Si Si2 0.053845 0.108745 0.924410
Si Si3 0.560683 0.551200 0.363906
Si Si4 0.038620 0.298425 0.388860
Si Si5 0.327522 0.881086 0.777181
O O1 0.564685 0.270711 0.460062
O O2 0.651952 0.922669 0.334474
O O3 0.638212 0.694524 0.589775
O O4 0.803542 0.930869 0.823089
O O5 0.976042 0.452676 0.770257
O O6 0.045907 0.878858 0.768396
O O7 0.000000 0.000000 0.000000
O O8 0.638027 0.394410 0.303341
O O9 0.423935 0.782300 0.086765
O O10 0.000000 0.500000 0.500000
O O11 0.182732 0.049746 0.610476
#
# Coordination Sequence:
#
# PCOD9084027 Si02
#       5
#     2   2   2   2   2
#     4  10  19  34  59  92 117 144 210 260 299 338
#     4  12  24  41  66  91 123 166 212 260 296 361
#     4   9  19  33  56  96 114 154 201 269 291 342
#     4  12  27  42  61  93 132 167 197 250 324 377
#     4   9  21  33  62  85 127 152 207 251 303 357
#
# _framework density 24.135577000000001
#
# number of rings (size 3 to 8) (size 9 to 14) (size 15 to 20)
#    1.200    0.400    2.000    3.000    5.600    0.000 
#    0.000    0.000    0.000    7.200    0.000    0.000 
#    0.000    0.000    0.000    0.000    0.000    0.000 
#
# Total GULP energy -55768.799591 kJ/mol
# GULP energy per Si atom -5576.879959 kJ/mol
# Density = 2.408064 g / cm^3
# Si number density = 24.135577 Si / 1000 Ang^3
#
#
#
# Elastic Constant Matrix: (Units=GPa)
#
#
# Indices 1 2 3 4 5 6 
#
# 1 67.9842 26.9523 29.5440 1.7866 11.1229 6.8791
# 2 26.9523 148.6275 59.8704 18.5447 20.7252 32.5462
# 3 29.5440 59.8704 125.6446 -17.5605 27.5482 4.6131
# 4 1.7866 18.5447 -17.5605 34.8048 -3.3948 6.1262
# 5 11.1229 20.7252 27.5482 -3.3948 21.6294 4.9856
# 6 6.8791 32.5462 4.6131 6.1262 4.9856 37.7597
#
#
#
# Elastic Compliance Matrix: (Units=1/GPa)
#
#
# Indices 1 2 3 4 5 6 
#
# 1 0.017205 -0.000782 -0.002975 -0.002190 -0.004385 -0.001162
# 2 -0.000782 0.012623 -0.005947 -0.008603 -0.003593 -0.008141
# 3 -0.002975 -0.005947 0.015160 0.009168 -0.011529 0.003850
# 4 -0.002190 -0.008603 0.009168 0.038423 0.003732 -0.000032
# 5 -0.004385 -0.003593 -0.011529 0.003732 0.068193 -0.004305
# 6 -0.001162 -0.008141 0.003850 -0.000032 -0.004305 0.033815
#
#
# Mechanical properties :
#
#
# Convention : Reuss Voigt Hill
#
# Bulk Modulus (GPa) = 39.09357 63.88776 51.49067
# Shear Modulus (GPa) = 23.43543 33.89807 28.66675
#
# Velocity S-wave (km/s) = 3.11945 3.75171 3.45010
# Velocity P-wave (km/s) = 5.40438 6.73015 6.10337
#
# Compressibility (1/GPa) = 0.02557966
#
# Stress axis : x y z
#
# Youngs Moduli (GPa) = 58.12328 79.22323 65.96409
#
# Poissons Ratio (x) = 0.06198 0.19623
# Poissons Ratio (y) = 0.04547 0.39226
# Poissons Ratio (z) = 0.17290 0.47111
#
# Static dielectric constant tensor:
#      x y z
#    x 2.601650 -0.023970 -0.323910 
#    y -0.023970 1.932330 0.017620 
#    z -0.323910 0.017620 2.061270 
# 
# From -- ./inp_files/25342.got.cif
#   From: 2010.05.17/outbox.cif.g08.bks.cpg/sg2_13_cif.got.tgz:25342.got - 2010.06.03 11:33:40.
