data_PCOD9084129
_publ_section_title
;
Structure prediction by ZEFSAII (Michael W. Deem and Ramdas Pophale) SiO2 
 PCOD9084129
Probable space group: P -1
;
_chemical_formula_sum "Si O2"
_cell_formula_units_Z 15
_cell_length_a 10.841166
_cell_length_b 7.862942
_cell_length_c 13.782849
_cell_angle_alpha 103.526521
_cell_angle_beta 53.462853
_cell_angle_gamma 62.541356
_cell_volume 587.238337
_symmetry_space_group_name_H-M "P -1"
_symmetry_group_IT_number 2
_symmetry_cell_setting 'triclinic'
loop_
_space_group_symop_operation_xyz
x,y,z
-x,-y,-z
loop_
_atom_site_type_symbol
_atom_site_label
_atom_site_fract_x
_atom_site_fract_y
_atom_site_fract_z
Si Si1 0.500000 0.000000 0.000000
Si Si2 0.081486 0.715967 0.842152
Si Si3 0.954086 0.427564 0.608795
Si Si4 0.859973 0.208631 0.487298
Si Si5 0.776589 0.133780 0.883365
Si Si6 0.659480 0.686707 0.498838
Si Si7 0.579325 0.569699 0.177344
Si Si8 0.745524 0.797098 0.125568
O O1 0.292514 0.298426 0.190261
O O2 0.338156 0.956876 0.090277
O O3 0.279146 0.427173 0.653755
O O4 0.201961 0.660137 0.879512
O O5 0.994986 0.929748 0.832889
O O6 0.828348 0.839472 0.001587
O O7 0.943558 0.244171 0.546302
O O8 0.000000 0.500000 0.500000
O O9 0.168191 0.298225 0.561453
O O10 0.740989 0.458976 0.503009
O O11 0.648057 0.271748 0.629810
O O12 0.082609 0.935894 0.288244
O O13 0.604133 0.425669 0.052848
O O14 0.395782 0.972752 0.695818
O O15 0.594089 0.759101 0.163602
O O16 0.000000 0.500000 0.000000
#
# Coordination Sequence:
#
# PCOD9084129 Si02
#       8
#     1   2   2   2   2   2   2   2
#     4  12  18  34  64  90 120 146 194 240 304 346
#     4  10  22  39  60  87 113 159 199 244 286 352
#     4  10  19  34  60  92 114 147 190 245 290 348
#     4  10  21  37  61  91 116 149 191 250 297 340
#     4  11  22  35  62  93 114 151 195 245 298 343
#     4  10  21  38  63  89 111 155 204 237 291 350
#     4  11  23  37  56  85 126 153 191 245 296 341
#     4  10  24  40  58  82 118 167 200 235 285 352
#
# _framework density 25.543292000000001
#
# number of rings (size 3 to 8) (size 9 to 14) (size 15 to 20)
#    0.000    1.600    5.333    1.200    1.867    8.533 
#    0.000    0.667    0.000    4.000    0.000    0.000 
#    0.000    0.000    0.000    0.000    0.000    0.000 
#
# Total GULP energy -83714.344050 kJ/mol
# GULP energy per Si atom -5580.956270 kJ/mol
# Density = 2.548515 g / cm^3
# Si number density = 25.543292 Si / 1000 Ang^3
#
#
#
# Elastic Constant Matrix: (Units=GPa)
#
#
# Indices 1 2 3 4 5 6 
#
# 1 96.4965 37.1216 64.5762 -12.0787 15.3205 19.7143
# 2 37.1216 38.3585 36.6119 -3.7773 -1.0764 -2.4113
# 3 64.5762 36.6119 259.4076 -4.1962 16.8033 12.2078
# 4 -12.0787 -3.7773 -4.1962 40.8744 8.9033 -5.7483
# 5 15.3205 -1.0764 16.8033 8.9033 51.2351 2.9736
# 6 19.7143 -2.4113 12.2078 -5.7483 2.9736 30.0216
#
#
#
# Elastic Compliance Matrix: (Units=1/GPa)
#
#
# Indices 1 2 3 4 5 6 
#
# 1 0.026128 -0.024491 -0.001691 0.004574 -0.007592 -0.016809
# 2 -0.024491 0.054094 -0.003083 -0.001527 0.008544 0.020542
# 3 -0.001691 -0.003083 0.004824 -0.000207 -0.001045 -0.001035
# 4 0.004574 -0.001527 -0.000207 0.027416 -0.006260 0.002827
# 5 -0.007592 0.008544 -0.001045 -0.006260 0.023248 0.002596
# 6 -0.016809 0.020542 -0.001035 0.002827 0.002596 0.046703
#
#
# Mechanical properties :
#
#
# Convention : Reuss Voigt Hill
#
# Bulk Modulus (GPa) = 37.71165 74.54245 56.12705
# Shear Modulus (GPa) = 20.01748 41.48975 30.75362
#
# Velocity S-wave (km/s) = 2.80245 4.03462 3.47361
# Velocity P-wave (km/s) = 5.02668 7.13795 6.17324
#
# Compressibility (1/GPa) = 0.02651701
#
# Stress axis : x y z
#
# Youngs Moduli (GPa) = 38.27255 18.48618 207.29625
#
# Poissons Ratio (x) = 0.45275 0.35051
# Poissons Ratio (y) = 0.93734 0.63905
# Poissons Ratio (z) = 0.06471 0.05699
#
# Static dielectric constant tensor:
#      x y z
#    x 2.094480 -0.015360 -0.043940 
#    y -0.015360 2.150500 0.011740 
#    z -0.043940 0.011740 1.970020 
# 
# From -- ./inp_files/285742.got.cif
#   From: 2010.05.17/outbox.cif.g08.bks.cpg/sg2_143_cif.got.tgz:285742.got - 2010.06.03 11:33:40.
