data_PCOD9084751
_publ_section_title
;
Structure prediction by ZEFSAII (Michael W. Deem and Ramdas Pophale) SiO2 
 PCOD9084751
Probable space group: P -1
;
_chemical_formula_sum "Si O2"
_cell_formula_units_Z 16
_cell_length_a 19.234077
_cell_length_b 8.266567
_cell_length_c 9.320797
_cell_angle_alpha 95.041116
_cell_angle_beta 39.142592
_cell_angle_gamma 71.199208
_cell_volume 730.506585
_symmetry_space_group_name_H-M "P -1"
_symmetry_group_IT_number 2
_symmetry_cell_setting 'triclinic'
loop_
_space_group_symop_operation_xyz
x,y,z
-x,-y,-z
loop_
_atom_site_type_symbol
_atom_site_label
_atom_site_fract_x
_atom_site_fract_y
_atom_site_fract_z
Si Si1 0.444813 0.185987 0.253978
Si Si2 0.779280 0.101728 0.353138
Si Si3 0.116294 0.892067 0.101254
Si Si4 0.650149 0.401537 0.826224
Si Si5 0.165519 0.006824 0.316043
Si Si6 0.486059 0.215745 0.739133
Si Si7 0.732006 0.870383 0.625571
Si Si8 0.400849 0.441049 0.610533
O O1 0.302593 0.268317 0.403311
O O2 0.430392 0.346667 0.397744
O O3 0.483602 0.992895 0.272775
O O4 0.572712 0.082665 0.928625
O O5 0.753468 0.275226 0.516385
O O6 0.631130 0.186032 0.521177
O O7 0.806688 0.921488 0.397027
O O8 0.886703 0.039889 0.050204
O O9 0.156019 0.995809 0.160491
O O10 0.241914 0.647492 0.887281
O O11 0.975653 0.937256 0.385667
O O12 0.711952 0.222536 0.834395
O O13 0.500000 0.500000 0.000000
O O14 0.626264 0.590935 0.963081
O O15 0.193245 0.161243 0.346126
O O16 0.432277 0.278121 0.668314
O O17 0.500000 0.500000 0.500000
#
# Coordination Sequence:
#
# PCOD9084751 Si02
#       8
#     2   2   2   2   2   2   2   2
#     4  10  22  36  59  88 123 157 198 251 308 356
#     4   9  19  32  57  91 118 153 201 250 295 351
#     4  11  22  35  59  94 122 159 204 251 306 352
#     4   9  18  33  58  85 119 153 197 246 293 350
#     4  10  21  39  60  85 127 159 204 252 301 359
#     4  10  19  35  56  91 123 154 194 251 306 348
#     4   9  20  39  58  82 122 162 198 243 307 360
#     4  12  22  35  61  92 120 154 205 259 294 357
#
# _framework density 21.902609999999999
#
# number of rings (size 3 to 8) (size 9 to 14) (size 15 to 20)
#    0.000    2.000    2.500    1.875    1.750    5.000 
#    0.000    0.625    0.000    3.750    0.000    0.000 
#    0.000    0.000    0.000    0.000    0.000    0.000 
#
# Total GULP energy -89307.778515 kJ/mol
# GULP energy per Si atom -5581.736157 kJ/mol
# Density = 2.185276 g / cm^3
# Si number density = 21.902610 Si / 1000 Ang^3
#
#
#
# Elastic Constant Matrix: (Units=GPa)
#
#
# Indices 1 2 3 4 5 6 
#
# 1 107.3229 8.9409 27.9567 11.8589 24.4695 23.1147
# 2 8.9409 44.9993 6.7499 0.4835 -1.6031 7.0147
# 3 27.9567 6.7499 98.9620 0.0528 22.7212 10.8614
# 4 11.8589 0.4835 0.0528 22.4591 -4.5880 9.6070
# 5 24.4695 -1.6031 22.7212 -4.5880 41.3326 7.6597
# 6 23.1147 7.0147 10.8614 9.6070 7.6597 34.4442
#
#
#
# Elastic Compliance Matrix: (Units=1/GPa)
#
#
# Indices 1 2 3 4 5 6 
#
# 1 0.013124 -0.001829 -0.001492 -0.006280 -0.006848 -0.004690
# 2 -0.001829 0.023702 -0.001502 0.003446 0.004139 -0.005007
# 3 -0.001492 -0.001502 0.012043 0.000231 -0.005523 -0.001326
# 4 -0.006280 0.003446 0.000231 0.056947 0.012883 -0.015309
# 5 -0.006848 0.004139 -0.005523 0.012883 0.033921 -0.005642
# 6 -0.004690 -0.005007 -0.001326 -0.015309 -0.005642 0.039142
#
#
# Mechanical properties :
#
#
# Convention : Reuss Voigt Hill
#
# Bulk Modulus (GPa) = 25.49656 37.61993 31.55824
# Shear Modulus (GPa) = 24.80159 33.48962 29.14560
#
# Velocity S-wave (km/s) = 3.36870 3.91452 3.65182
# Velocity P-wave (km/s) = 5.17658 6.13551 5.67634
#
# Compressibility (1/GPa) = 0.03922098
#
# Stress axis : x y z
#
# Youngs Moduli (GPa) = 76.19529 42.18992 83.03916
#
# Poissons Ratio (x) = 0.07717 0.12393
# Poissons Ratio (y) = 0.13938 0.12476
# Poissons Ratio (z) = 0.11372 0.06339
#
# Static dielectric constant tensor:
#      x y z
#    x 1.858580 0.021260 0.011670 
#    y 0.021260 1.860400 -0.033180 
#    z 0.011670 -0.033180 1.811670 
# 
# From -- ./inp_files/342805.got.cif
#   From: 2010.05.17/outbox.cif.g08.bks.cpg/sg2_172_cif.got.tgz:342805.got - 2010.06.03 11:33:40.
