data_PCOD9084161
_publ_section_title
;
Structure prediction by ZEFSAII (Michael W. Deem and Ramdas Pophale) SiO2 
 PCOD9084161
Probable space group: P -1
;
_chemical_formula_sum "Si O2"
_cell_formula_units_Z 16
_cell_length_a 7.882755
_cell_length_b 6.606761
_cell_length_c 14.100025
_cell_angle_alpha 93.055617
_cell_angle_beta 101.460599
_cell_angle_gamma 97.958551
_cell_volume 710.274233
_symmetry_space_group_name_H-M "P -1"
_symmetry_group_IT_number 2
_symmetry_cell_setting 'triclinic'
loop_
_space_group_symop_operation_xyz
x,y,z
-x,-y,-z
loop_
_atom_site_type_symbol
_atom_site_label
_atom_site_fract_x
_atom_site_fract_y
_atom_site_fract_z
Si Si1 0.662526 0.756376 0.237736
Si Si2 0.407938 0.685534 0.532102
Si Si3 0.863493 0.452364 0.346804
Si Si4 0.621874 0.614450 0.867840
Si Si5 0.840721 0.498688 0.054547
Si Si6 0.608768 0.061846 0.653953
Si Si7 0.672780 0.156353 0.157946
Si Si8 0.879688 0.405481 0.758190
O O1 0.800057 0.666900 0.317260
O O2 0.544134 0.563132 0.170746
O O3 0.543893 0.859703 0.300964
O O4 0.710808 0.927879 0.167969
O O5 0.500000 0.500000 0.500000
O O6 0.225219 0.612656 0.564733
O O7 0.378453 0.829235 0.444466
O O8 0.546128 0.822163 0.621910
O O9 0.772430 0.277514 0.260488
O O10 0.063727 0.491646 0.334830
O O11 0.532566 0.818891 0.854380
O O12 0.760586 0.549071 0.805133
O O13 0.703887 0.601033 0.980221
O O14 0.748225 0.275817 0.074891
O O15 0.943923 0.596562 0.160737
O O16 0.000000 0.500000 0.000000
O O17 0.781918 0.173919 0.728978
#
# Coordination Sequence:
#
# PCOD9084161 Si02
#       8
#     2   2   2   2   2   2   2   2
#     4  10  19  35  59  87 118 152 205 238 283 353
#     4  11  21  37  64  86 112 156 197 245 288 350
#     4  10  20  37  59  86 122 155 194 243 299 342
#     4   9  19  35  59  86 117 157 197 244 282 347
#     4   9  18  36  58  86 124 157 192 240 298 342
#     4  10  21  37  60  87 117 148 202 238 288 360
#     4  10  19  34  61  86 116 161 199 241 289 344
#     4   9  20  38  59  86 124 155 185 248 296 347
#
# _framework density 22.526509000000001
#
# number of rings (size 3 to 8) (size 9 to 14) (size 15 to 20)
#    0.000    2.250    2.500    0.375    0.000    1.000 
#    0.000   10.625    0.000   13.500    0.000    0.000 
#    0.000    0.000    0.000    0.000    0.000    0.000 
#
# Total GULP energy -89212.487698 kJ/mol
# GULP energy per Si atom -5575.780481 kJ/mol
# Density = 2.247524 g / cm^3
# Si number density = 22.526509 Si / 1000 Ang^3
#
#
#
# Elastic Constant Matrix: (Units=GPa)
#
#
# Indices 1 2 3 4 5 6 
#
# 1 64.5447 27.4173 17.2591 -5.6122 -15.9765 12.2043
# 2 27.4173 82.5650 17.0795 -7.5012 -9.5357 -1.8781
# 3 17.2591 17.0795 81.4320 -6.9462 -20.5643 8.2744
# 4 -5.6122 -7.5012 -6.9462 35.5157 7.1066 -1.2791
# 5 -15.9765 -9.5357 -20.5643 7.1066 42.0306 -8.0315
# 6 12.2043 -1.8781 8.2744 -1.2791 -8.0315 27.2904
#
#
#
# Elastic Compliance Matrix: (Units=1/GPa)
#
#
# Indices 1 2 3 4 5 6 
#
# 1 0.021236 -0.006443 -0.001156 0.000598 0.004362 -0.008278
# 2 -0.006443 0.014999 -0.001958 0.001819 0.000600 0.004769
# 3 -0.001156 -0.001958 0.014700 0.001057 0.005680 -0.002354
# 4 0.000598 0.001819 0.001057 0.029613 -0.003892 -0.000220
# 5 0.004362 0.000600 0.005680 -0.003892 0.029981 0.005009
# 6 -0.008278 0.004769 -0.002354 -0.000220 0.005009 0.042851
#
#
# Mechanical properties :
#
#
# Convention : Reuss Voigt Hill
#
# Bulk Modulus (GPa) = 31.42639 39.11706 35.27172
# Shear Modulus (GPa) = 27.30751 32.08639 29.69695
#
# Velocity S-wave (km/s) = 3.48550 3.77819 3.63479
# Velocity P-wave (km/s) = 5.49358 6.03619 5.77127
#
# Compressibility (1/GPa) = 0.03182039
#
# Stress axis : x y z
#
# Youngs Moduli (GPa) = 47.08999 66.67009 68.02898
#
# Poissons Ratio (x) = 0.42955 0.07863
# Poissons Ratio (y) = 0.30340 0.13323
# Poissons Ratio (z) = 0.05443 0.13057
#
# Static dielectric constant tensor:
#      x y z
#    x 1.895270 0.018970 -0.031380 
#    y 0.018970 1.843580 -0.006480 
#    z -0.031380 -0.006480 1.903030 
# 
# From -- ./inp_files/335280.got.cif
#   From: 2010.05.17/outbox.cif.g08.bks.cpg/sg2_168_cif.got.tgz:335280.got - 2010.06.03 11:33:40.
