data_PCOD9084324
_publ_section_title
;
Structure prediction by ZEFSAII (Michael W. Deem and Ramdas Pophale) SiO2 
 PCOD9084324
Probable space group: P -1
;
_chemical_formula_sum "Si O2"
_cell_formula_units_Z 16
_cell_length_a 9.546071
_cell_length_b 11.608334
_cell_length_c 12.330509
_cell_angle_alpha 132.858274
_cell_angle_beta 94.485681
_cell_angle_gamma 55.487428
_cell_volume 710.641955
_symmetry_space_group_name_H-M "P -1"
_symmetry_group_IT_number 2
_symmetry_cell_setting 'triclinic'
loop_
_space_group_symop_operation_xyz
x,y,z
-x,-y,-z
loop_
_atom_site_type_symbol
_atom_site_label
_atom_site_fract_x
_atom_site_fract_y
_atom_site_fract_z
Si Si1 0.700794 0.914088 0.680862
Si Si2 0.169194 0.908959 0.558963
Si Si3 0.267772 0.155617 0.595108
Si Si4 0.755829 0.702373 0.098416
Si Si5 0.261958 0.752214 0.158722
Si Si6 0.371932 0.474956 0.170060
Si Si7 0.075707 0.137034 0.899990
Si Si8 0.329136 0.015203 0.042851
O O1 0.469133 0.053568 0.766423
O O2 0.693738 0.105502 0.777746
O O3 0.804654 0.767848 0.484665
O O4 0.773180 0.837743 0.759308
O O5 0.069508 0.911677 0.333027
O O6 0.269117 0.668154 0.374663
O O7 0.228415 0.014918 0.557206
O O8 0.209038 0.912047 0.691466
O O9 0.211442 0.329954 0.791479
O O10 0.500000 0.000000 0.500000
O O11 0.895073 0.728993 0.081945
O O12 0.758814 0.552858 0.920913
O O13 0.423258 0.547614 0.117904
O O14 0.147972 0.749927 0.053791
O O15 0.550037 0.236867 0.078721
O O16 0.167912 0.099242 0.997218
O O17 0.500000 0.000000 0.000000
#
# Coordination Sequence:
#
# PCOD9084324 Si02
#       8
#     2   2   2   2   2   2   2   2
#     4  10  19  34  63  82 116 159 191 242 296 347
#     4   9  20  36  60  87 124 147 197 236 306 342
#     4   9  17  34  55  86 116 155 190 242 288 345
#     4   9  19  34  57  89 113 151 199 238 287 341
#     4  10  22  36  59  94 119 149 191 249 306 341
#     4  11  20  35  64  90 115 156 194 251 286 349
#     4   9  20  40  57  84 119 153 195 235 289 356
#     4  11  22  40  59  88 117 159 203 236 290 353
#
# _framework density 22.514852000000001
#
# number of rings (size 3 to 8) (size 9 to 14) (size 15 to 20)
#    0.750    1.500    3.750    0.375    0.000    3.500 
#    0.000    0.000    0.000    0.750    0.000    0.000 
#    0.000    0.000    0.000    0.000    0.000    0.000 
#
# Total GULP energy -89076.030465 kJ/mol
# GULP energy per Si atom -5567.251904 kJ/mol
# Density = 2.246361 g / cm^3
# Si number density = 22.514852 Si / 1000 Ang^3
#
#
#
# Elastic Constant Matrix: (Units=GPa)
#
#
# Indices 1 2 3 4 5 6 
#
# 1 51.3257 31.3138 -21.5226 -10.8558 31.7485 -9.1413
# 2 31.3138 43.0500 50.6878 -29.2630 -20.8417 -0.0211
# 3 -21.5226 50.6878 158.4533 -35.1899 22.7249 -15.3397
# 4 -10.8558 -29.2630 -35.1899 47.3734 1.5579 7.9073
# 5 31.7485 -20.8417 22.7249 1.5579 13.4864 -5.5233
# 6 -9.1413 -0.0211 -15.3397 7.9073 -5.5233 24.4484
#
#
#
# Elastic Compliance Matrix: (Units=1/GPa)
#
#
# Indices 1 2 3 4 5 6 
#
# 1 0.004092 0.010814 -0.003798 0.004226 0.013316 0.000798
# 2 0.010814 0.009092 0.003942 0.012009 -0.020227 -0.001929
# 3 -0.003798 0.003942 0.004631 0.004474 0.007415 0.001717
# 4 0.004226 0.012009 0.004474 0.034381 -0.006228 -0.008129
# 5 0.013316 -0.020227 0.007415 -0.006228 0.004992 0.012756
# 6 0.000798 -0.001929 0.001717 -0.008129 0.012756 0.047788
#
#
# Mechanical properties :
#
#
# Convention : Reuss Voigt Hill
#
# Bulk Modulus (GPa) = 25.16898 41.53189 33.35044
# Shear Modulus (GPa) = 51.91981 29.88496 40.90238
#
# Velocity S-wave (km/s) = 4.80732 3.64723 4.26688
# Velocity P-wave (km/s) = 6.48204 6.01854 6.25459
#
# Compressibility (1/GPa) = 0.03973144
#
# Stress axis : x y z
#
# Youngs Moduli (GPa) = 244.36367 109.98932 215.95088
#
# Poissons Ratio (x) = -1.18944 0.82008
# Poissons Ratio (y) = -2.64259 -0.85121
# Poissons Ratio (z) = 0.92798 -0.43354
#
# Static dielectric constant tensor:
#      x y z
#    x 1.900070 -0.030650 -0.064840 
#    y -0.030650 1.864440 -0.023720 
#    z -0.064840 -0.023720 2.048780 
# 
# From -- ./inp_files/424281.got.cif
#   From: 2010.05.17/outbox.cif.g08.bks.cpg/sg2_213_cif.got.tgz:424281.got - 2010.06.03 11:33:40.
