data_PCOD9084513
_publ_section_title
;
Structure prediction by ZEFSAII (Michael W. Deem and Ramdas Pophale) SiO2 
 PCOD9084513
Probable space group: P -1
;
_chemical_formula_sum "Si O2"
_cell_formula_units_Z 14
_cell_length_a 17.909939
_cell_length_b 31.754552
_cell_length_c 8.233230
_cell_angle_alpha 146.462121
_cell_angle_beta 39.200393
_cell_angle_gamma 165.136926
_cell_volume 647.837286
_symmetry_space_group_name_H-M "P -1"
_symmetry_group_IT_number 2
_symmetry_cell_setting 'triclinic'
loop_
_space_group_symop_operation_xyz
x,y,z
-x,-y,-z
loop_
_atom_site_type_symbol
_atom_site_label
_atom_site_fract_x
_atom_site_fract_y
_atom_site_fract_z
Si Si1 0.488030 0.154711 0.647971
Si Si2 0.201116 0.403777 0.284039
Si Si3 0.647531 0.138937 0.563041
Si Si4 0.001616 0.596835 0.630594
Si Si5 0.272861 0.176191 0.228474
Si Si6 0.964081 0.099255 0.710443
Si Si7 0.606548 0.226273 0.182657
O O1 0.432619 0.042597 0.474379
O O2 0.454158 0.206063 0.991061
O O3 0.817505 0.340087 0.614092
O O4 0.260032 0.027418 0.473742
O O5 0.123735 0.400961 0.234408
O O6 0.931646 0.268661 0.422153
O O7 0.503558 0.621885 0.540172
O O8 0.182976 0.301697 0.983668
O O9 0.500000 0.000000 0.500000
O O10 0.715062 0.254217 0.922707
O O11 0.745803 0.393063 0.486176
O O12 0.250449 0.744764 0.828177
O O13 0.138188 0.123704 0.459478
O O14 0.000000 0.000000 0.000000
O O15 0.745064 0.975849 0.837214
#
# Coordination Sequence:
#
# PCOD9084513 Si02
#       7
#     2   2   2   2   2   2   2
#     4   9  20  37  59  84 113 154 189 226 281 342
#     4  11  21  37  60  86 113 148 190 236 286 332
#     4  11  21  33  59  88 119 140 180 240 291 331
#     4   9  20  34  60  85 115 145 186 233 288 343
#     4  10  21  39  60  80 109 156 199 229 265 342
#     4  10  21  36  60  82 117 150 190 229 278 333
#     4  10  19  35  53  90 117 147 181 231 290 335
#
# _framework density 21.610365999999999
#
# number of rings (size 3 to 8) (size 9 to 14) (size 15 to 20)
#    0.000    2.000    1.429    2.143    2.000    5.143 
#    0.000    2.857    0.000    1.714    0.000    0.000 
#    0.000    0.000    0.000    0.000    0.000    0.000 
#
# Total GULP energy -78015.422257 kJ/mol
# GULP energy per Si atom -5572.530161 kJ/mol
# Density = 2.156118 g / cm^3
# Si number density = 21.610366 Si / 1000 Ang^3
#
#
#
# Elastic Constant Matrix: (Units=GPa)
#
#
# Indices 1 2 3 4 5 6 
#
# 1 65.5049 12.3344 8.4680 0.4964 -7.6162 -7.1559
# 2 12.3344 51.1569 20.6885 5.1603 -8.3845 0.9690
# 3 8.4680 20.6885 86.8789 -0.1497 -12.8644 8.5264
# 4 0.4964 5.1603 -0.1497 42.3195 -7.3330 -3.5433
# 5 -7.6162 -8.3845 -12.8644 -7.3330 19.5880 5.0550
# 6 -7.1559 0.9690 8.5264 -3.5433 5.0550 21.8991
#
#
#
# Elastic Compliance Matrix: (Units=1/GPa)
#
#
# Indices 1 2 3 4 5 6 
#
# 1 0.017023 -0.003394 -0.000826 0.001307 0.003723 0.005387
# 2 -0.003394 0.023220 -0.004145 -0.001998 0.005708 -0.002164
# 3 -0.000826 -0.004145 0.014907 0.001699 0.010400 -0.008016
# 4 0.001307 -0.001998 0.001699 0.025734 0.009958 0.001719
# 5 0.003723 0.005708 0.010400 0.009958 0.070054 -0.017644
# 6 0.005387 -0.002164 -0.008016 0.001719 -0.017644 0.054992
#
#
# Mechanical properties :
#
#
# Convention : Reuss Voigt Hill
#
# Bulk Modulus (GPa) = 26.02721 31.83583 28.93152
# Shear Modulus (GPa) = 21.23438 27.56466 24.39952
#
# Velocity S-wave (km/s) = 3.13805 3.57533 3.36380
# Velocity P-wave (km/s) = 5.01994 5.63983 5.33889
#
# Compressibility (1/GPa) = 0.03842133
#
# Stress axis : x y z
#
# Youngs Moduli (GPa) = 58.74295 43.06591 67.08109
#
# Poissons Ratio (x) = 0.14617 0.05542
# Poissons Ratio (y) = 0.19938 0.27802
# Poissons Ratio (z) = 0.04853 0.17849
#
# Static dielectric constant tensor:
#      x y z
#    x 1.837800 0.013070 0.008860 
#    y 0.013070 1.810280 0.005490 
#    z 0.008860 0.005490 1.851550 
# 
# From -- ./inp_files/320727.got.cif
#   From: 2010.05.17/outbox.cif.g08.bks.cpg/sg2_161_cif.got.tgz:320727.got - 2010.06.03 11:33:40.
