data_PCOD9084517
_publ_section_title
;
Structure prediction by ZEFSAII (Michael W. Deem and Ramdas Pophale) SiO2 
 PCOD9084517
Probable space group: P -1
;
_chemical_formula_sum "Si O2"
_cell_formula_units_Z 16
_cell_length_a 12.091754
_cell_length_b 15.854015
_cell_length_c 11.310059
_cell_angle_alpha 48.201616
_cell_angle_beta 131.409598
_cell_angle_gamma 155.480535
_cell_volume 660.095877
_symmetry_space_group_name_H-M "P -1"
_symmetry_group_IT_number 2
_symmetry_cell_setting 'triclinic'
loop_
_space_group_symop_operation_xyz
x,y,z
-x,-y,-z
loop_
_atom_site_type_symbol
_atom_site_label
_atom_site_fract_x
_atom_site_fract_y
_atom_site_fract_z
Si Si1 0.320103 0.066943 0.905639
Si Si2 0.446436 0.768544 0.572617
Si Si3 0.588746 0.448099 0.860126
Si Si4 0.437122 0.931553 0.743135
Si Si5 0.022755 0.076833 0.738355
Si Si6 0.143954 0.531610 0.794099
Si Si7 0.409088 0.695144 0.350396
Si Si8 0.876156 0.694289 0.612589
O O1 0.551316 0.304456 0.895633
O O2 0.052586 0.961212 0.855659
O O3 0.369351 0.105534 0.764999
O O4 0.380474 0.993179 0.089193
O O5 0.198371 0.561943 0.665017
O O6 0.483090 0.732819 0.504721
O O7 0.427920 0.888787 0.413882
O O8 0.723393 0.924295 0.695601
O O9 0.272514 0.276710 0.812296
O O10 0.750936 0.629560 0.713724
O O11 0.759478 0.520385 0.025578
O O12 0.341389 0.761173 0.761401
O O13 0.163664 0.815176 0.705750
O O14 0.094986 0.176780 0.568022
O O15 0.851058 0.388898 0.756022
O O16 0.315761 0.514796 0.401812
#
# Coordination Sequence:
#
# PCOD9084517 Si02
#       8
#     2   2   2   2   2   2   2   2
#     4   8  17  33  53  79 100 124 170 214 262 283
#     4  11  22  33  50  76 110 139 166 195 258 314
#     4   8  16  30  54  77  97 123 171 215 246 281
#     4   9  18  34  55  77  96 132 178 220 239 287
#     4   9  19  33  55  80  99 132 167 215 254 298
#     4  10  19  35  54  74  99 138 177 210 239 292
#     4  10  20  32  54  77 105 134 162 214 256 305
#     4   9  16  32  57  81  97 125 175 215 257 289
#
# _framework density 24.238902
#
# number of rings (size 3 to 8) (size 9 to 14) (size 15 to 20)
#    0.750    2.000    0.000    1.875    0.000    4.500 
#    0.000    0.000    2.750    0.750    0.000    0.000 
#    0.000    0.000    0.000    0.000    0.000    0.000 
#
# Total GULP energy -89337.145356 kJ/mol
# GULP energy per Si atom -5583.571585 kJ/mol
# Density = 2.418373 g / cm^3
# Si number density = 24.238902 Si / 1000 Ang^3
#
#
#
# Elastic Constant Matrix: (Units=GPa)
#
#
# Indices 1 2 3 4 5 6 
#
# 1 41.0033 17.0885 24.4792 5.5202 3.6198 10.1970
# 2 17.0885 58.7409 10.1338 10.3142 13.9009 -0.3700
# 3 24.4792 10.1338 89.6860 16.7569 27.7853 11.2623
# 4 5.5202 10.3142 16.7569 20.6929 0.7251 3.0408
# 5 3.6198 13.9009 27.7853 0.7251 26.9190 4.7727
# 6 10.1970 -0.3700 11.2623 3.0408 4.7727 24.6767
#
#
#
# Elastic Compliance Matrix: (Units=1/GPa)
#
#
# Indices 1 2 3 4 5 6 
#
# 1 0.041894 -0.017085 -0.017115 0.012709 0.023320 -0.015833
# 2 -0.017085 0.030003 0.012353 -0.020874 -0.027102 0.009686
# 3 -0.017115 0.012353 0.029123 -0.024506 -0.034113 0.003584
# 4 0.012709 -0.020874 -0.024506 0.075500 0.034156 -0.010290
# 5 0.023320 -0.027102 -0.034113 0.034156 0.084979 -0.015118
# 6 -0.015833 0.009686 0.003584 -0.010290 -0.015118 0.049768
#
#
# Mechanical properties :
#
#
# Convention : Reuss Voigt Hill
#
# Bulk Modulus (GPa) = 17.44408 32.53702 24.99055
# Shear Modulus (GPa) = 13.36648 23.63963 18.50305
#
# Velocity S-wave (km/s) = 2.35084 3.12633 2.76590
# Velocity P-wave (km/s) = 3.81850 5.14631 4.53131
#
# Compressibility (1/GPa) = 0.05732605
#
# Stress axis : x y z
#
# Youngs Moduli (GPa) = 23.86959 33.33027 34.33726
#
# Poissons Ratio (x) = 0.56944 0.58769
# Poissons Ratio (y) = 0.40781 -0.42418
# Poissons Ratio (z) = 0.40854 -0.41174
#
# Static dielectric constant tensor:
#      x y z
#    x 1.904540 -0.041350 -0.016830 
#    y -0.041350 1.989480 0.029690 
#    z -0.016830 0.029690 1.938180 
# 
# From -- ./inp_files/436657.got.cif
#   From: 2010.05.17/outbox.cif.g08.bks.cpg/sg2_219_cif.got.tgz:436657.got - 2010.06.03 11:33:40.
