data_PCOD9084790
_publ_section_title
;
Structure prediction by ZEFSAII (Michael W. Deem and Ramdas Pophale) SiO2 
 PCOD9084790
Probable space group: P -1
;
_chemical_formula_sum "Si O2"
_cell_formula_units_Z 16
_cell_length_a 8.254150
_cell_length_b 15.250042
_cell_length_c 9.827051
_cell_angle_alpha 90.704994
_cell_angle_beta 31.810322
_cell_angle_gamma 90.686287
_cell_volume 651.976988
_symmetry_space_group_name_H-M "P -1"
_symmetry_group_IT_number 2
_symmetry_cell_setting 'triclinic'
loop_
_space_group_symop_operation_xyz
x,y,z
-x,-y,-z
loop_
_atom_site_type_symbol
_atom_site_label
_atom_site_fract_x
_atom_site_fract_y
_atom_site_fract_z
Si Si1 0.743807 0.559783 0.252572
Si Si2 0.600418 0.731959 0.442357
Si Si3 0.037581 0.795697 0.941770
Si Si4 0.140167 0.973870 0.753828
Si Si5 0.474957 0.562302 0.176824
Si Si6 0.816000 0.810060 0.567885
Si Si7 0.787250 0.614429 0.684419
Si Si8 0.739206 0.118305 0.928262
O O1 0.500000 0.500000 0.500000
O O2 0.808064 0.644223 0.301896
O O3 0.562810 0.602651 0.257217
O O4 0.000000 0.500000 0.000000
O O5 0.243355 0.716266 0.734176
O O6 0.692600 0.796736 0.500740
O O7 0.692213 0.776372 0.235012
O O8 0.088021 0.869928 0.793826
O O9 0.166905 0.827762 0.998624
O O10 0.936725 0.029506 0.795355
O O11 0.500000 0.000000 0.500000
O O12 0.000000 0.000000 0.000000
O O13 0.449311 0.456396 0.213077
O O14 0.129098 0.590633 0.389854
O O15 0.720198 0.590183 0.889329
O O16 0.751665 0.716632 0.682495
O O17 0.164078 0.835099 0.280827
O O18 0.625643 0.882874 0.786941
#
# Coordination Sequence:
#
# PCOD9084790 Si02
#       8
#     2   2   2   2   2   2   2   2
#     4  12  24  38  56  77 105 136 171 215 259 303
#     4  10  20  32  48  72 101 133 171 206 246 307
#     4   9  17  29  44  66  99 137 168 199 243 299
#     4  10  16  26  42  64  99 139 168 197 243 300
#     4  10  22  37  53  75  97 131 172 209 254 303
#     4  10  18  30  48  72 100 131 163 202 252 293
#     4  10  20  36  55  72 100 131 168 213 254 302
#     4   9  17  26  42  69  99 129 165 199 239 302
#
# _framework density 24.540744
#
# number of rings (size 3 to 8) (size 9 to 14) (size 15 to 20)
#    0.000    2.000    0.000    6.750    0.000    4.000 
#    0.000    0.000    0.000    0.000    0.000    0.000 
#    0.000   20.000    0.000    0.000    0.000    0.000 
#
# Total GULP energy -89162.652218 kJ/mol
# GULP energy per Si atom -5572.665764 kJ/mol
# Density = 2.448489 g / cm^3
# Si number density = 24.540744 Si / 1000 Ang^3
#
#
#
# Elastic Constant Matrix: (Units=GPa)
#
#
# Indices 1 2 3 4 5 6 
#
# 1 21.6922 3.9545 3.1375 -2.5643 5.6243 2.7729
# 2 3.9545 90.8523 51.5804 2.2422 0.9856 -18.3234
# 3 3.1375 51.5804 216.9288 6.3921 3.6463 -10.6814
# 4 -2.5643 2.2422 6.3921 39.1477 -12.9126 0.9132
# 5 5.6243 0.9856 3.6463 -12.9126 10.9195 -1.3493
# 6 2.7729 -18.3234 -10.6814 0.9132 -1.3493 16.2252
#
#
#
# Elastic Compliance Matrix: (Units=1/GPa)
#
#
# Indices 1 2 3 4 5 6 
#
# 1 0.060293 -0.006358 0.000711 -0.010308 -0.045406 -0.020211
# 2 -0.006358 0.016646 -0.003080 0.000616 0.005791 0.018304
# 3 0.000711 -0.003080 0.005457 -0.002136 -0.004468 -0.000259
# 4 -0.010308 0.000616 -0.002136 0.044612 0.059149 0.003459
# 5 -0.045406 0.005791 -0.004468 0.059149 0.188812 0.023731
# 6 -0.020211 0.018304 -0.000259 0.003459 0.023731 0.087366
#
#
# Mechanical properties :
#
#
# Convention : Reuss Voigt Hill
#
# Bulk Modulus (GPa) = 15.39798 49.64648 32.52223
# Shear Modulus (GPa) = 11.30488 31.31188 21.30838
#
# Velocity S-wave (km/s) = 2.14862 3.57587 2.94987
# Velocity P-wave (km/s) = 3.52754 6.10928 4.98833
#
# Compressibility (1/GPa) = 0.06494359
#
# Stress axis : x y z
#
# Youngs Moduli (GPa) = 16.58559 60.07452 183.24312
#
# Poissons Ratio (x) = 0.38193 -0.13036
# Poissons Ratio (y) = 0.10544 0.56444
# Poissons Ratio (z) = -0.01180 0.18505
#
# Static dielectric constant tensor:
#      x y z
#    x 2.035010 0.037550 -0.056540 
#    y 0.037550 2.114180 -0.007550 
#    z -0.056540 -0.007550 1.950500 
# 
# From -- ./inp_files/437294.got.cif
#   From: 2010.05.17/outbox.cif.g08.bks.cpg/sg2_219_cif.got.tgz:437294.got - 2010.06.03 11:33:40.
