data_PCOD9084450
_publ_section_title
;
Structure prediction by ZEFSAII (Michael W. Deem and Ramdas Pophale) SiO2 
 PCOD9084450
Probable space group: P -1
;
_chemical_formula_sum "Si O2"
_cell_formula_units_Z 16
_cell_length_a 7.992610
_cell_length_b 16.099826
_cell_length_c 12.399996
_cell_angle_alpha 50.727986
_cell_angle_beta 85.364380
_cell_angle_gamma 44.348892
_cell_volume 627.345569
_symmetry_space_group_name_H-M "P -1"
_symmetry_group_IT_number 2
_symmetry_cell_setting 'triclinic'
loop_
_space_group_symop_operation_xyz
x,y,z
-x,-y,-z
loop_
_atom_site_type_symbol
_atom_site_label
_atom_site_fract_x
_atom_site_fract_y
_atom_site_fract_z
Si Si1 0.657240 0.105967 0.765333
Si Si2 0.364785 0.885866 0.556131
Si Si3 0.545095 0.125724 0.207887
Si Si4 0.689166 0.698225 0.160608
Si Si5 0.171454 0.251111 0.506940
Si Si6 0.596708 0.587084 0.622491
Si Si7 0.361512 0.632148 0.072818
Si Si8 0.928405 0.323281 0.151208
O O1 0.564576 0.134898 0.869130
O O2 0.438793 0.145264 0.669580
O O3 0.536022 0.289572 0.582442
O O4 0.040292 0.879584 0.906669
O O5 0.368863 0.852931 0.708188
O O6 0.678107 0.785109 0.583096
O O7 0.395517 0.766743 0.575217
O O8 0.075309 0.129283 0.345781
O O9 0.215039 0.245574 0.165514
O O10 0.817869 0.881728 0.386195
O O11 0.472181 0.206043 0.026490
O O12 0.838369 0.498341 0.339651
O O13 0.016216 0.593161 0.237790
O O14 0.565502 0.479763 0.735098
O O15 0.254758 0.604742 0.009118
O O16 0.684526 0.502341 0.107357
#
# Coordination Sequence:
#
# PCOD9084450 Si02
#       8
#     2   2   2   2   2   2   2   2
#     4  10  19  35  50  79 112 140 180 223 266 322
#     4   9  19  35  54  78 113 138 178 226 266 319
#     4  11  19  36  54  81 114 142 174 221 271 321
#     4  10  20  31  52  80 110 142 181 217 270 321
#     4   9  17  31  48  78 105 138 170 221 270 309
#     4  10  19  35  52  85 109 140 176 226 276 312
#     4  11  20  34  56  79 113 144 173 219 274 329
#     4  10  19  36  52  81 114 138 178 216 274 328
#
# _framework density 25.504283999999998
#
# number of rings (size 3 to 8) (size 9 to 14) (size 15 to 20)
#    0.000    2.250    5.000    3.000    0.000    5.500 
#    2.250    0.000    0.000    0.750    0.000    8.750 
#    0.000    0.000    0.000    0.000    0.000    0.000 
#
# Total GULP energy -89621.434594 kJ/mol
# GULP energy per Si atom -5601.339662 kJ/mol
# Density = 2.544624 g / cm^3
# Si number density = 25.504284 Si / 1000 Ang^3
#
#
#
# Elastic Constant Matrix: (Units=GPa)
#
#
# Indices 1 2 3 4 5 6 
#
# 1 57.6877 19.7605 16.2751 5.6610 11.0091 -12.8144
# 2 19.7605 160.7599 59.7373 18.4811 12.2436 -17.3622
# 3 16.2751 59.7373 123.7637 13.3820 -2.3253 -11.2962
# 4 5.6610 18.4811 13.3820 40.1159 -1.3360 2.3132
# 5 11.0091 12.2436 -2.3253 -1.3360 20.8223 -4.4647
# 6 -12.8144 -17.3622 -11.2962 2.3132 -4.4647 17.2288
#
#
#
# Elastic Compliance Matrix: (Units=1/GPa)
#
#
# Indices 1 2 3 4 5 6 
#
# 1 0.023185 0.000621 -0.001743 -0.004155 -0.009930 0.014711
# 2 0.000621 0.008911 -0.003508 -0.003550 -0.004822 0.006369
# 3 -0.001743 -0.003508 0.010609 -0.001724 0.004832 0.003608
# 4 -0.004155 -0.003550 -0.001724 0.028461 0.003628 -0.010680
# 5 -0.009930 -0.004822 0.004832 0.003628 0.058059 0.005482
# 6 0.014711 0.006369 0.003608 -0.010680 0.005482 0.080622
#
#
# Mechanical properties :
#
#
# Convention : Reuss Voigt Hill
#
# Bulk Modulus (GPa) = 29.90112 59.30633 44.60373
# Shear Modulus (GPa) = 21.71505 32.06264 26.88885
#
# Velocity S-wave (km/s) = 2.92109 3.54947 3.25050
# Velocity P-wave (km/s) = 4.80899 6.33264 5.62267
#
# Compressibility (1/GPa) = 0.03344356
#
# Stress axis : x y z
#
# Youngs Moduli (GPa) = 43.13222 112.22135 94.26095
#
# Poissons Ratio (x) = -0.06965 0.16429
# Poissons Ratio (y) = -0.02677 0.33068
# Poissons Ratio (z) = 0.07517 0.39369
#
# Static dielectric constant tensor:
#      x y z
#    x 2.109070 0.000930 0.003740 
#    y 0.000930 1.940540 -0.010410 
#    z 0.003740 -0.010410 2.035150 
# 
# From -- ./inp_files/438414.got.cif
#   From: 2010.05.17/outbox.cif.g08.bks.cpg/sg2_220_cif.got.tgz:438414.got - 2010.06.03 11:33:40.
