data_PCOD9084080
_publ_section_title
;
Structure prediction by ZEFSAII (Michael W. Deem and Ramdas Pophale) SiO2 
 PCOD9084080
Probable space group: P -1
;
_chemical_formula_sum "Si O2"
_cell_formula_units_Z 16
_cell_length_a 7.375456
_cell_length_b 15.302642
_cell_length_c 9.263275
_cell_angle_alpha 130.578341
_cell_angle_beta 109.349147
_cell_angle_gamma 86.653387
_cell_volume 730.980582
_symmetry_space_group_name_H-M "P -1"
_symmetry_group_IT_number 2
_symmetry_cell_setting 'triclinic'
loop_
_space_group_symop_operation_xyz
x,y,z
-x,-y,-z
loop_
_atom_site_type_symbol
_atom_site_label
_atom_site_fract_x
_atom_site_fract_y
_atom_site_fract_z
Si Si1 0.992013 0.238145 0.456948
Si Si2 0.362158 0.652996 0.190700
Si Si3 0.193964 0.581430 0.571257
Si Si4 0.259776 0.354066 0.215001
Si Si5 0.796335 0.244878 0.009658
Si Si6 0.792663 0.038551 0.007942
Si Si7 0.387437 0.221089 0.356917
Si Si8 0.753884 0.615945 0.093440
O O1 0.188688 0.235278 0.408611
O O2 0.069812 0.285843 0.685003
O O3 0.886862 0.335780 0.470675
O O4 0.838144 0.116055 0.249571
O O5 0.277670 0.738768 0.152999
O O6 0.432323 0.716998 0.428486
O O7 0.560787 0.630147 0.144754
O O8 0.227574 0.520572 0.028749
O O9 0.294909 0.487445 0.423730
O O10 0.000000 0.500000 0.500000
O O11 0.289641 0.662290 0.815788
O O12 0.387126 0.285875 0.273834
O O13 0.276473 0.358694 0.053494
O O14 0.032697 0.288606 0.116370
O O15 0.755510 0.123077 0.957357
O O16 0.633249 0.916720 0.829318
O O17 0.000000 0.000000 0.000000
#
# Coordination Sequence:
#
# PCOD9084080 Si02
#       8
#     2   2   2   2   2   2   2   2
#     4   9  16  32  54  79 107 147 183 233 273 326
#     4  10  23  37  53  81 124 153 174 227 296 344
#     4   9  15  27  51  81 108 133 181 228 274 315
#     4  11  20  33  60  86 109 147 196 234 265 336
#     4  10  19  34  60  87 107 145 193 237 273 326
#     4   9  16  34  61  85 103 145 200 232 263 334
#     4  10  19  35  57  80 113 152 190 222 281 338
#     4  10  22  36  54  83 123 149 182 224 294 338
#
# _framework density 21.888407000000001
#
# number of rings (size 3 to 8) (size 9 to 14) (size 15 to 20)
#    0.000    2.250    5.000    1.500    3.500    3.000 
#    0.000    0.625    0.000    0.750    0.000    0.000 
#    0.000    0.000    0.000    0.000    0.000    0.000 
#
# Total GULP energy -89351.531962 kJ/mol
# GULP energy per Si atom -5584.470748 kJ/mol
# Density = 2.183859 g / cm^3
# Si number density = 21.888407 Si / 1000 Ang^3
#
#
#
# Elastic Constant Matrix: (Units=GPa)
#
#
# Indices 1 2 3 4 5 6 
#
# 1 50.4391 10.3660 43.6990 0.6255 10.4406 3.9965
# 2 10.3660 138.3586 114.6358 0.3783 0.5056 -11.6111
# 3 43.6990 114.6358 177.6060 -5.2247 -4.5640 -1.1361
# 4 0.6255 0.3783 -5.2247 47.8137 -1.6111 -0.4334
# 5 10.4406 0.5056 -4.5640 -1.6111 18.3658 -10.8473
# 6 3.9965 -11.6111 -1.1361 -0.4334 -10.8473 25.9559
#
#
#
# Elastic Compliance Matrix: (Units=1/GPa)
#
#
# Indices 1 2 3 4 5 6 
#
# 1 0.046026 0.011797 -0.020358 -0.004617 -0.044605 -0.021418
# 2 0.011797 0.019838 -0.016028 -0.002389 -0.010243 0.002036
# 3 -0.020358 -0.016028 0.021669 0.003526 0.021138 0.005806
# 4 -0.004617 -0.002389 0.003526 0.021657 0.007382 0.003243
# 5 -0.044605 -0.010243 0.021138 0.007382 0.116784 0.052140
# 6 -0.021418 0.002036 0.005806 0.003243 0.052140 0.064834
#
#
# Mechanical properties :
#
#
# Convention : Reuss Voigt Hill
#
# Bulk Modulus (GPa) = 26.07145 78.20060 52.13603
# Shear Modulus (GPa) = 14.17353 31.60726 22.89039
#
# Velocity S-wave (km/s) = 2.54743 3.80415 3.23736
# Velocity P-wave (km/s) = 4.53756 7.42293 6.15180
#
# Compressibility (1/GPa) = 0.03835613
#
# Stress axis : x y z
#
# Youngs Moduli (GPa) = 21.72667 50.40794 46.14971
#
# Poissons Ratio (x) = -0.59469 0.93953
# Poissons Ratio (y) = -0.25632 0.73967
# Poissons Ratio (z) = 0.44232 0.80792
#
# Static dielectric constant tensor:
#      x y z
#    x 1.874300 0.014780 0.011970 
#    y 0.014780 1.744450 0.002770 
#    z 0.011970 0.002770 1.817930 
# 
# From -- ./inp_files/204444.got.cif
#   From: 2010.05.17/outbox.cif.g08.bks.cpg/sg2_103_cif.got.tgz:204444.got - 2010.06.03 11:33:40.
