data_PCOD9084432
_publ_section_title
;
Structure prediction by ZEFSAII (Michael W. Deem and Ramdas Pophale) SiO2 
 PCOD9084432
Probable space group: P -1
;
_chemical_formula_sum "Si O2"
_cell_formula_units_Z 14
_cell_length_a 10.794610
_cell_length_b 8.670654
_cell_length_c 17.295634
_cell_angle_alpha 102.444648
_cell_angle_beta 46.130801
_cell_angle_gamma 132.973922
_cell_volume 745.754570
_symmetry_space_group_name_H-M "P -1"
_symmetry_group_IT_number 2
_symmetry_cell_setting 'triclinic'
loop_
_space_group_symop_operation_xyz
x,y,z
-x,-y,-z
loop_
_atom_site_type_symbol
_atom_site_label
_atom_site_fract_x
_atom_site_fract_y
_atom_site_fract_z
Si Si1 0.340665 0.431609 0.937208
Si Si2 0.854921 0.622800 0.728370
Si Si3 0.332131 0.362557 0.760103
Si Si4 0.061277 0.208058 0.454671
Si Si5 0.145729 0.915313 0.774246
Si Si6 0.297161 0.663850 0.870500
Si Si7 0.631320 0.153375 0.695175
O O1 0.597647 0.524390 0.867674
O O2 0.278274 0.297067 0.868562
O O3 0.408922 0.650978 0.895989
O O4 0.090721 0.266846 0.081872
O O5 0.941710 0.793704 0.637607
O O6 0.075348 0.765157 0.713355
O O7 0.762125 0.394012 0.706335
O O8 0.636148 0.543467 0.630204
O O9 0.292653 0.524013 0.790660
O O10 0.162496 0.112467 0.764866
O O11 0.859724 0.201654 0.567805
O O12 0.000000 0.000000 0.500000
O O13 0.419429 0.059076 0.712005
O O14 0.465081 0.929184 0.801572
O O15 0.000000 0.500000 0.000000
#
# Coordination Sequence:
#
# PCOD9084432 Si02
#       7
#     2   2   2   2   2   2   2
#     4   9  19  39  59  87 121 160 193 235 301 347
#     4  11  25  38  61  94 115 155 202 242 298 353
#     4   9  20  37  62  86 114 163 195 233 300 343
#     4  11  21  43  64  81 118 163 197 239 298 352
#     4  12  22  38  63  90 122 152 197 251 292 348
#     4  10  19  34  66  88 113 160 200 233 293 356
#     4  12  21  40  64  84 123 156 195 248 293 345
#
# _framework density 18.772931
#
# number of rings (size 3 to 8) (size 9 to 14) (size 15 to 20)
#    0.857    0.571    5.714    1.286    2.000    0.571 
#    0.000    4.286    0.000    0.000    0.000    0.000 
#    0.000    0.000    0.000    0.000    0.000    0.000 
#
# Total GULP energy -77971.774551 kJ/mol
# GULP energy per Si atom -5569.412468 kJ/mol
# Density = 1.873020 g / cm^3
# Si number density = 18.772931 Si / 1000 Ang^3
#
#
#
# Elastic Constant Matrix: (Units=GPa)
#
#
# Indices 1 2 3 4 5 6 
#
# 1 64.2039 68.5071 36.2494 -1.4589 -7.4344 -3.5259
# 2 68.5071 108.5926 37.4688 -10.8953 4.7823 0.5050
# 3 36.2494 37.4688 117.7818 4.0693 -4.0078 -5.9057
# 4 -1.4589 -10.8953 4.0693 19.9845 -14.7601 0.8368
# 5 -7.4344 4.7823 -4.0078 -14.7601 25.8781 -2.8845
# 6 -3.5259 0.5050 -5.9057 0.8368 -2.8845 29.3767
#
#
#
# Elastic Compliance Matrix: (Units=1/GPa)
#
#
# Indices 1 2 3 4 5 6 
#
# 1 0.066849 -0.040814 -0.006246 0.005799 0.030232 0.010273
# 2 -0.040814 0.036234 -0.000061 0.004976 -0.016405 -0.007286
# 3 -0.006246 -0.000061 0.010565 -0.004663 -0.002668 0.001246
# 4 0.005799 0.004976 -0.004663 0.093711 0.053728 0.002279
# 5 0.030232 -0.016405 -0.002668 0.053728 0.081691 0.009865
# 6 0.010273 -0.007286 0.001246 0.002279 0.009865 0.036553
#
#
# Mechanical properties :
#
#
# Convention : Reuss Voigt Hill
#
# Bulk Modulus (GPa) = 51.53626 63.89208 57.71417
# Shear Modulus (GPa) = 11.72846 24.93807 18.33326
#
# Velocity S-wave (km/s) = 2.50222 3.64868 3.12842
# Velocity P-wave (km/s) = 5.98834 7.20129 6.62264
#
# Compressibility (1/GPa) = 0.01940381
#
# Stress axis : x y z
#
# Youngs Moduli (GPa) = 14.95913 27.59866 94.65323
#
# Poissons Ratio (x) = 1.12643 0.59125
# Poissons Ratio (y) = 0.61055 0.00575
# Poissons Ratio (z) = 0.09344 0.00168
#
# Static dielectric constant tensor:
#      x y z
#    x 1.681950 -0.022500 -0.000450 
#    y -0.022500 1.667020 0.006840 
#    z -0.000450 0.006840 1.653590 
# 
# From -- ./inp_files/593615.got.cif
#   From: 2010.05.17/outbox.cif.g08.bks.cpg/sg2_297_cif.got.tgz:593615.got - 2010.06.03 11:33:40.
