data_PCOD9084485
_publ_section_title
;
Structure prediction by ZEFSAII (Michael W. Deem and Ramdas Pophale) SiO2 
 PCOD9084485
Probable space group: P -1
;
_chemical_formula_sum "Si O2"
_cell_formula_units_Z 14
_cell_length_a 12.192046
_cell_length_b 17.802782
_cell_length_c 8.274073
_cell_angle_alpha 77.578830
_cell_angle_beta 72.841390
_cell_angle_gamma 144.661917
_cell_volume 561.386009
_symmetry_space_group_name_H-M "P -1"
_symmetry_group_IT_number 2
_symmetry_cell_setting 'triclinic'
loop_
_space_group_symop_operation_xyz
x,y,z
-x,-y,-z
loop_
_atom_site_type_symbol
_atom_site_label
_atom_site_fract_x
_atom_site_fract_y
_atom_site_fract_z
Si Si1 0.740711 0.405404 0.632854
Si Si2 0.741091 0.123286 0.481804
Si Si3 0.847298 0.755626 0.309246
Si Si4 0.126961 0.777011 0.111894
Si Si5 0.524707 0.327079 0.085199
Si Si6 0.141625 0.235240 0.316159
Si Si7 0.487558 0.300407 0.477777
O O1 0.523805 0.273455 0.952304
O O2 0.533657 0.268788 0.617021
O O3 0.000000 0.500000 0.500000
O O4 0.946190 0.615600 0.412024
O O5 0.494982 0.976713 0.812812
O O6 0.094174 0.394378 0.211865
O O7 0.851562 0.104214 0.423585
O O8 0.500000 0.000000 0.500000
O O9 0.500000 0.500000 0.500000
O O10 0.876027 0.767480 0.483253
O O11 0.789521 0.810975 0.291354
O O12 0.125375 0.868115 0.079300
O O13 0.847236 0.575394 0.191446
O O14 0.230534 0.204828 0.243756
O O15 0.465211 0.257368 0.323981
O O16 0.500000 0.500000 0.000000
#
# Coordination Sequence:
#
# PCOD9084485 Si02
#       7
#     2   2   2   2   2   2   2
#     4  10  21  34  52  76 103 141 185 218 254 306
#     4  11  19  30  50  83 116 134 163 218 279 326
#     4   9  16  29  48  72 105 132 162 217 261 310
#     4   9  18  31  47  77 111 132 166 214 264 307
#     4  10  19  35  53  76 106 139 176 215 264 319
#     4   9  19  28  47  74 103 138 170 199 262 330
#     4   8  18  33  50  77 106 131 172 215 258 317
#
# _framework density 24.938279999999999
#
# number of rings (size 3 to 8) (size 9 to 14) (size 15 to 20)
#    0.857    1.714    1.429    1.714    2.000    2.857 
#    0.000    0.000    0.000    0.857    0.000   12.000 
#    0.000    0.000    0.000    0.000    0.000    0.000 
#
# Total GULP energy -78085.651053 kJ/mol
# GULP energy per Si atom -5577.546504 kJ/mol
# Density = 2.488152 g / cm^3
# Si number density = 24.938280 Si / 1000 Ang^3
#
#
#
# Elastic Constant Matrix: (Units=GPa)
#
#
# Indices 1 2 3 4 5 6 
#
# 1 123.3488 52.5117 63.1192 -2.6179 -11.8171 28.1044
# 2 52.5117 92.9282 77.9119 -1.6515 13.2021 37.3393
# 3 63.1192 77.9119 144.5627 4.5836 -34.1318 6.9766
# 4 -2.6179 -1.6515 4.5836 52.2375 4.0091 7.9616
# 5 -11.8171 13.2021 -34.1318 4.0091 40.6843 -25.5257
# 6 28.1044 37.3393 6.9766 7.9616 -25.5257 47.7754
#
#
#
# Elastic Compliance Matrix: (Units=1/GPa)
#
#
# Indices 1 2 3 4 5 6 
#
# 1 0.011693 -0.005063 -0.001680 0.000558 0.002764 -0.001293
# 2 -0.005063 -0.007141 0.010802 -0.006361 0.023439 0.020565
# 3 -0.001680 0.010802 -0.001203 0.004048 -0.015632 -0.016305
# 4 0.000558 -0.006361 0.004048 0.017333 0.006986 0.004896
# 5 0.002764 0.023439 -0.015632 0.006986 -0.011790 -0.025126
# 6 -0.001293 0.020565 -0.016305 0.004896 -0.025126 -0.006240
#
#
# Mechanical properties :
#
#
# Convention : Reuss Voigt Hill
#
# Bulk Modulus (GPa) = 87.19372 83.10283 85.14827
# Shear Modulus (GPa) = -3036.47776 39.29256 -1498.59260
#
# Velocity S-wave (km/s) = -34.93194 3.97368 -24.54028
# Velocity P-wave (km/s) = 39.89922 7.37897 27.72633
#
# Compressibility (1/GPa) = 0.01146872
#
# Stress axis : x y z
#
# Youngs Moduli (GPa) = 85.52133 -140.03398 -830.96663
#
# Poissons Ratio (x) = -0.70896 -1.39562
# Poissons Ratio (y) = 0.43298 8.97645
# Poissons Ratio (z) = 0.14363 1.51271
#
# Static dielectric constant tensor:
#      x y z
#    x 2.017380 -0.038460 0.061520 
#    y -0.038460 2.043720 -0.007720 
#    z 0.061520 -0.007720 2.000760 
# 
# From -- ./inp_files/284262.got.cif
#   From: 2010.05.17/outbox.cif.g08.bks.cpg/sg2_143_cif.got.tgz:284262.got - 2010.06.03 11:33:40.
