data_PCOD9084833
_publ_section_title
;
Structure prediction by ZEFSAII (Michael W. Deem and Ramdas Pophale) SiO2 
 PCOD9084833
Probable space group: P -1
;
_chemical_formula_sum "Si O2"
_cell_formula_units_Z 16
_cell_length_a 13.657502
_cell_length_b 11.534416
_cell_length_c 9.385038
_cell_angle_alpha 138.837890
_cell_angle_beta 46.477238
_cell_angle_gamma 129.634747
_cell_volume 683.136116
_symmetry_space_group_name_H-M "P -1"
_symmetry_group_IT_number 2
_symmetry_cell_setting 'triclinic'
loop_
_space_group_symop_operation_xyz
x,y,z
-x,-y,-z
loop_
_atom_site_type_symbol
_atom_site_label
_atom_site_fract_x
_atom_site_fract_y
_atom_site_fract_z
Si Si1 0.795570 0.397877 0.256037
Si Si2 0.932926 0.605722 0.878215
Si Si3 0.329335 0.111162 0.738730
Si Si4 0.447581 0.241460 0.180489
Si Si5 0.321486 0.399904 0.696657
Si Si6 0.920674 0.222139 0.399646
Si Si7 0.785796 0.713304 0.748629
Si Si8 0.551638 0.074967 0.285272
O O1 0.952891 0.381657 0.098501
O O2 0.754906 0.507757 0.266018
O O3 0.778513 0.509018 0.519798
O O4 0.681359 0.209634 0.204919
O O5 0.886584 0.396558 0.672983
O O6 0.015593 0.717299 0.765336
O O7 0.801261 0.667552 0.129933
O O8 0.445102 0.172611 0.559377
O O9 0.392551 0.018225 0.720986
O O10 0.276833 0.266978 0.016533
O O11 0.206482 0.950846 0.650089
O O12 0.395763 0.263529 0.412634
O O13 0.555095 0.433797 0.216957
O O14 0.306268 0.215586 0.207616
O O15 0.512469 0.082585 0.910219
O O16 0.052028 0.182524 0.315678
#
# Coordination Sequence:
#
# PCOD9084833 Si02
#       8
#     2   2   2   2   2   2   2   2
#     4  10  20  37  57  83 113 144 186 230 264 331
#     4  10  20  35  58  87 109 145 185 225 278 326
#     4  10  19  35  57  83 116 149 174 224 283 330
#     4   9  20  39  56  79 112 145 186 232 269 322
#     4  10  20  38  61  76 111 151 184 227 276 320
#     4  10  19  35  58  85 115 140 183 230 270 332
#     4   9  20  36  56  82 113 144 181 229 276 321
#     4  10  20  35  58  83 114 145 182 226 278 325
#
# _framework density 23.421392000000001
#
# number of rings (size 3 to 8) (size 9 to 14) (size 15 to 20)
#    0.000    2.250    1.250    1.500    0.000    1.000 
#    6.750    0.625    5.500    0.000    0.000    0.000 
#    0.000    0.000    0.000    0.000    0.000    0.000 
#
# Total GULP energy -89413.866390 kJ/mol
# GULP energy per Si atom -5588.366649 kJ/mol
# Density = 2.336808 g / cm^3
# Si number density = 23.421392 Si / 1000 Ang^3
#
#
#
# Elastic Constant Matrix: (Units=GPa)
#
#
# Indices 1 2 3 4 5 6 
#
# 1 44.5653 3.0096 -10.1527 -9.0502 15.2737 -3.9475
# 2 3.0096 62.9608 41.7130 1.5292 15.3059 7.1680
# 3 -10.1527 41.7130 108.9555 1.3737 -9.6613 12.6203
# 4 -9.0502 1.5292 1.3737 31.5134 3.0748 5.8866
# 5 15.2737 15.3059 -9.6613 3.0748 35.7710 -1.2099
# 6 -3.9475 7.1680 12.6203 5.8866 -1.2099 25.8220
#
#
#
# Elastic Compliance Matrix: (Units=1/GPa)
#
#
# Indices 1 2 3 4 5 6 
#
# 1 0.029172 0.000864 0.000973 0.009413 -0.013339 0.000973
# 2 0.000864 0.027531 -0.011510 0.001475 -0.015484 -0.002947
# 3 0.000973 -0.011510 0.014826 0.000030 0.008392 -0.003516
# 4 0.009413 0.001475 0.000030 0.036587 -0.008048 -0.007703
# 5 -0.013339 -0.015484 0.008392 -0.008048 0.043303 0.002021
# 6 0.000973 -0.002947 -0.003516 -0.007703 0.002021 0.043263
#
#
# Mechanical properties :
#
#
# Convention : Reuss Voigt Hill
#
# Bulk Modulus (GPa) = 19.16299 31.73571 25.44935
# Shear Modulus (GPa) = 21.60556 30.74874 26.17715
#
# Velocity S-wave (km/s) = 3.04052 3.62726 3.34677
# Velocity P-wave (km/s) = 4.53055 5.57870 5.08172
#
# Compressibility (1/GPa) = 0.05218393
#
# Stress axis : x y z
#
# Youngs Moduli (GPa) = 34.27981 36.32251 67.44772
#
# Poissons Ratio (x) = -0.03138 -0.06565
# Poissons Ratio (y) = -0.02962 0.77632
# Poissons Ratio (z) = -0.03337 0.41807
#
# Static dielectric constant tensor:
#      x y z
#    x 1.982790 -0.030030 -0.029980 
#    y -0.030030 1.816100 0.013600 
#    z -0.029980 0.013600 1.896990 
# 
# From -- ./inp_files/209234.got.cif
#   From: 2010.05.17/outbox.cif.g08.bks.cpg/sg2_105_cif.got.tgz:209234.got - 2010.06.03 11:33:40.
