data_PCOD9084794
_publ_section_title
;
Structure prediction by ZEFSAII (Michael W. Deem and Ramdas Pophale) SiO2 
 PCOD9084794
Probable space group: P -1
;
_chemical_formula_sum "Si O2"
_cell_formula_units_Z 10
_cell_length_a 5.042268
_cell_length_b 8.218136
_cell_length_c 9.376977
_cell_angle_alpha 89.287571
_cell_angle_beta 79.643980
_cell_angle_gamma 87.875791
_cell_volume 381.964543
_symmetry_space_group_name_H-M "P -1"
_symmetry_group_IT_number 2
_symmetry_cell_setting 'triclinic'
loop_
_space_group_symop_operation_xyz
x,y,z
-x,-y,-z
loop_
_atom_site_type_symbol
_atom_site_label
_atom_site_fract_x
_atom_site_fract_y
_atom_site_fract_z
Si Si1 0.761572 0.523217 0.232792
Si Si2 0.770136 0.080919 0.423232
Si Si3 0.839316 0.050481 0.836567
Si Si4 0.229372 0.665480 0.365934
Si Si5 0.888702 0.741116 0.956791
O O1 0.941727 0.615706 0.331969
O O2 0.455274 0.525984 0.316109
O O3 0.937205 0.366053 0.169524
O O4 0.745182 0.623231 0.082377
O O5 0.879450 0.022126 0.260582
O O6 0.765806 0.268739 0.473644
O O7 0.500000 0.000000 0.500000
O O8 0.000000 0.000000 0.500000
O O9 0.706758 0.881903 0.895644
O O10 0.699579 0.174872 0.737331
O O11 0.915281 0.160120 0.960776
#
# Coordination Sequence:
#
# PCOD9084794 Si02
#       5
#     2   2   2   2   2
#     4  10  21  37  57  80 112 147 176 221 278 324
#     4  10  19  35  57  81 108 140 181 225 269 316
#     4   9  19  35  58  84 108 142 186 227 264 318
#     4  10  20  37  58  80 107 145 185 221 269 323
#     4   9  19  36  56  82 113 143 181 224 271 323
#
# _framework density 26.180440999999998
#
# number of rings (size 3 to 8) (size 9 to 14) (size 15 to 20)
#    0.000    2.400    0.000    3.600    0.000    8.000 
#    0.000   16.000    0.000    0.000    0.000    0.000 
#    0.000    0.000    0.000    0.000    0.000    0.000 
#
# Total GULP energy -55897.636358 kJ/mol
# GULP energy per Si atom -5589.763636 kJ/mol
# Density = 2.612085 g / cm^3
# Si number density = 26.180441 Si / 1000 Ang^3
#
#
#
# Elastic Constant Matrix: (Units=GPa)
#
#
# Indices 1 2 3 4 5 6 
#
# 1 100.8513 -5.0360 29.6212 0.8562 -5.8988 -15.3755
# 2 -5.0360 102.7482 13.0699 6.1096 -3.1257 -10.4205
# 3 29.6212 13.0699 151.0910 32.4987 -11.9411 0.4478
# 4 0.8562 6.1096 32.4987 48.7615 -9.1965 -3.7597
# 5 -5.8988 -3.1257 -11.9411 -9.1965 26.6238 9.8954
# 6 -15.3755 -10.4205 0.4478 -3.7597 9.8954 29.4898
#
#
#
# Elastic Compliance Matrix: (Units=1/GPa)
#
#
# Indices 1 2 3 4 5 6 
#
# 1 0.011924 0.001560 -0.002972 0.002041 -0.000494 0.007239
# 2 0.001560 0.010441 -0.001223 -0.000314 -0.000859 0.004770
# 3 -0.002972 -0.001223 0.008679 -0.005372 0.002599 -0.003671
# 4 0.002041 -0.000314 -0.005372 0.025385 0.005926 0.002282
# 5 -0.000494 -0.000859 0.002599 0.005926 0.046277 -0.015373
# 6 0.007239 0.004770 -0.003671 0.002282 -0.015373 0.044875
#
#
# Mechanical properties :
#
#
# Convention : Reuss Voigt Hill
#
# Bulk Modulus (GPa) = 38.80025 47.77787 43.28906
# Shear Modulus (GPa) = 30.97078 42.11071 36.54075
#
# Velocity S-wave (km/s) = 3.44317 4.01494 3.74000
# Velocity P-wave (km/s) = 5.53712 6.30730 5.93472
#
# Compressibility (1/GPa) = 0.02577303
#
# Stress axis : x y z
#
# Youngs Moduli (GPa) = 83.86495 95.77702 115.22414
#
# Poissons Ratio (x) = -0.14944 0.34246
# Poissons Ratio (y) = -0.13085 0.14097
# Poissons Ratio (z) = 0.24926 0.11718
#
# Static dielectric constant tensor:
#      x y z
#    x 1.955490 0.059370 -0.076940 
#    y 0.059370 2.160480 -0.083490 
#    z -0.076940 -0.083490 2.154870 
# 
# From -- ./inp_files/57730.got.cif
#   From: 2010.05.17/outbox.cif.g08.bks.cpg/sg2_29_cif.got.tgz:57730.got - 2010.06.03 11:33:40.
