data_PCOD9084262
_publ_section_title
;
Structure prediction by ZEFSAII (Michael W. Deem and Ramdas Pophale) SiO2 
 PCOD9084262
Probable space group: P -1
;
_chemical_formula_sum "Si O2"
_cell_formula_units_Z 16
_cell_length_a 9.508526
_cell_length_b 14.301865
_cell_length_c 9.763538
_cell_angle_alpha 130.293343
_cell_angle_beta 63.511290
_cell_angle_gamma 139.377154
_cell_volume 656.669546
_symmetry_space_group_name_H-M "P -1"
_symmetry_group_IT_number 2
_symmetry_cell_setting 'triclinic'
loop_
_space_group_symop_operation_xyz
x,y,z
-x,-y,-z
loop_
_atom_site_type_symbol
_atom_site_label
_atom_site_fract_x
_atom_site_fract_y
_atom_site_fract_z
Si Si1 0.697552 0.444752 0.578389
Si Si2 0.124498 0.975188 0.524523
Si Si3 0.317820 0.340618 0.523768
Si Si4 0.876772 0.309248 0.529642
Si Si5 0.793491 0.592090 0.082988
Si Si6 0.790897 0.236323 0.817676
Si Si7 0.676660 0.941227 0.203741
Si Si8 0.698137 0.698324 0.987743
O O1 0.453257 0.302889 0.497593
O O2 0.767122 0.369219 0.568492
O O3 0.869812 0.544619 0.476038
O O4 0.712880 0.583719 0.781274
O O5 0.919942 0.829228 0.577580
O O6 0.206698 0.910044 0.329191
O O7 0.000000 0.000000 0.500000
O O8 0.314278 0.086892 0.661891
O O9 0.500000 0.500000 0.500000
O O10 0.255718 0.396099 0.728823
O O11 0.839830 0.290798 0.689267
O O12 0.782357 0.133394 0.336574
O O13 0.823023 0.725330 0.097099
O O14 0.011710 0.629745 0.036448
O O15 0.557687 0.417121 0.974573
O O16 0.554724 0.165720 0.872627
O O17 0.770478 0.861284 0.036052
#
# Coordination Sequence:
#
# PCOD9084262 Si02
#       8
#     2   2   2   2   2   2   2   2
#     4  10  22  40  63  83 122 161 201 246 298 365
#     4  10  20  33  56  88 121 157 201 247 300 351
#     4  10  19  34  62  87 115 153 208 249 288 349
#     4  10  22  39  60  91 119 155 200 254 304 348
#     4   9  20  38  58  88 122 158 206 238 296 365
#     4  10  21  35  60  89 124 151 201 252 300 348
#     4  11  22  36  59  92 125 151 198 251 308 351
#     4  10  22  39  61  88 119 165 198 242 302 363
#
# _framework density 24.365376999999999
#
# number of rings (size 3 to 8) (size 9 to 14) (size 15 to 20)
#    0.000    2.000    0.000    5.250    8.750    1.000 
#    0.000    0.000    0.000    0.750    0.000    0.000 
#    0.000    0.000    0.000    0.000    0.000    0.000 
#
# Total GULP energy -89185.551923 kJ/mol
# GULP energy per Si atom -5574.096995 kJ/mol
# Density = 2.430992 g / cm^3
# Si number density = 24.365377 Si / 1000 Ang^3
#
#
#
# Elastic Constant Matrix: (Units=GPa)
#
#
# Indices 1 2 3 4 5 6 
#
# 1 182.8866 32.8153 30.8171 26.7842 -5.1807 3.3567
# 2 32.8153 63.7096 18.0173 7.5413 -5.7053 12.0937
# 3 30.8171 18.0173 52.5724 26.5189 -11.3323 -0.1146
# 4 26.7842 7.5413 26.5189 25.2797 -7.4304 -1.0047
# 5 -5.1807 -5.7053 -11.3323 -7.4304 45.2609 17.0722
# 6 3.3567 12.0937 -0.1146 -1.0047 17.0722 41.7867
#
#
#
# Elastic Compliance Matrix: (Units=1/GPa)
#
#
# Indices 1 2 3 4 5 6 
#
# 1 0.006950 -0.003007 0.000325 -0.007036 -0.000841 0.000487
# 2 -0.003007 0.020335 -0.007121 0.005494 0.004048 -0.007185
# 3 0.000325 -0.007121 0.043709 -0.043183 0.003042 -0.000126
# 4 -0.007036 0.005494 -0.043183 0.091952 0.004455 -0.000752
# 5 -0.000841 0.004048 0.003042 0.004455 0.028814 -0.012761
# 6 0.000487 -0.007185 -0.000126 -0.000752 -0.012761 0.031166
#
#
# Mechanical properties :
#
#
# Convention : Reuss Voigt Hill
#
# Bulk Modulus (GPa) = 19.45911 51.38534 35.42222
# Shear Modulus (GPa) = 19.25580 36.96674 28.11127
#
# Velocity S-wave (km/s) = 2.81427 3.89933 3.40036
# Velocity P-wave (km/s) = 4.30858 6.43493 5.47595
#
# Compressibility (1/GPa) = 0.05138981
#
# Stress axis : x y z
#
# Youngs Moduli (GPa) = 143.88010 49.17664 22.87847
#
# Poissons Ratio (x) = 0.14787 -0.00744
# Poissons Ratio (y) = 0.43262 0.16291
# Poissons Ratio (z) = -0.04680 0.35017
#
# Static dielectric constant tensor:
#      x y z
#    x 2.000560 -0.034680 0.002070 
#    y -0.034680 2.072480 0.130360 
#    z 0.002070 0.130360 2.060860 
# 
# From -- ./inp_files/396362.got.cif
#   From: 2010.05.17/outbox.cif.g08.bks.cpg/sg2_199_cif.got.tgz:396362.got - 2010.06.03 11:33:40.
