data_PCOD9084911
_publ_section_title
;
Structure prediction by ZEFSAII (Michael W. Deem and Ramdas Pophale) SiO2 
 PCOD9084911
Probable space group: P -1
;
_chemical_formula_sum "Si O2"
_cell_formula_units_Z 15
_cell_length_a 13.885538
_cell_length_b 14.141248
_cell_length_c 8.594246
_cell_angle_alpha 44.673762
_cell_angle_beta 136.611087
_cell_angle_gamma 140.583279
_cell_volume 691.367662
_symmetry_space_group_name_H-M "P -1"
_symmetry_group_IT_number 2
_symmetry_cell_setting 'triclinic'
loop_
_space_group_symop_operation_xyz
x,y,z
-x,-y,-z
loop_
_atom_site_type_symbol
_atom_site_label
_atom_site_fract_x
_atom_site_fract_y
_atom_site_fract_z
Si Si1 0.000000 0.500000 0.000000
Si Si2 0.254962 0.155349 0.056212
Si Si3 0.602044 0.334860 0.352328
Si Si4 0.907565 0.162678 0.187411
Si Si5 0.549795 0.075728 0.800709
Si Si6 0.714451 0.133715 0.517093
Si Si7 0.041469 0.428059 0.483989
Si Si8 0.052662 0.028449 0.284633
O O1 0.985719 0.506560 0.784065
O O2 0.008062 0.668026 0.830091
O O3 0.438073 0.309638 0.108904
O O4 0.292361 0.015317 0.238813
O O5 0.122931 0.121075 0.807889
O O6 0.161989 0.115652 0.159944
O O7 0.551755 0.236339 0.571933
O O8 0.663935 0.235501 0.442422
O O9 0.764185 0.509181 0.352999
O O10 0.868364 0.035321 0.426640
O O11 0.015590 0.142955 0.207224
O O12 0.739111 0.126425 0.952994
O O13 0.417112 0.941244 0.688444
O O14 0.500000 0.000000 0.000000
O O15 0.901401 0.244054 0.547460
O O16 0.000000 0.500000 0.500000
#
# Coordination Sequence:
#
# PCOD9084911 Si02
#       8
#     1   2   2   2   2   2   2   2
#     4  12  22  40  64  90 132 162 210 270 320 368
#     4  10  19  36  63  87 119 168 208 265 310 374
#     4  10  19  35  57  90 125 154 207 270 319 370
#     4  11  22  38  59  94 123 170 202 265 320 382
#     4  11  19  32  57  92 119 150 206 267 313 366
#     4  10  20  34  59  95 119 156 212 268 315 372
#     4  10  22  36  58  97 127 162 201 264 335 379
#     4  10  22  37  59  90 128 162 219 246 317 393
#
# _framework density 21.696126
#
# number of rings (size 3 to 8) (size 9 to 14) (size 15 to 20)
#    0.000    1.600    1.333    6.400    1.867    0.000 
#    0.000    0.000    0.000    8.000    6.933    0.000 
#    0.000    0.000    0.000    0.000    0.000    0.000 
#
# Total GULP energy -83512.470203 kJ/mol
# GULP energy per Si atom -5567.498014 kJ/mol
# Density = 2.164675 g / cm^3
# Si number density = 21.696126 Si / 1000 Ang^3
#
#
#
# Elastic Constant Matrix: (Units=GPa)
#
#
# Indices 1 2 3 4 5 6 
#
# 1 87.4915 31.7032 12.2199 3.9036 -6.4185 -13.0716
# 2 31.7032 104.4606 18.7629 12.4148 6.6691 22.7407
# 3 12.2199 18.7629 70.8093 29.8829 2.1248 -4.4868
# 4 3.9036 12.4148 29.8829 29.5481 -5.0353 5.7170
# 5 -6.4185 6.6691 2.1248 -5.0353 34.1475 5.9599
# 6 -13.0716 22.7407 -4.4868 5.7170 5.9599 43.8757
#
#
#
# Elastic Compliance Matrix: (Units=1/GPa)
#
#
# Indices 1 2 3 4 5 6 
#
# 1 0.015066 -0.006240 -0.000826 0.000582 0.002937 0.007164
# 2 -0.006240 0.014204 -0.002777 -0.000981 -0.002338 -0.009059
# 3 -0.000826 -0.002777 0.028917 -0.031050 -0.007602 0.009229
# 4 0.000582 -0.000981 -0.031050 0.070814 0.015078 -0.013769
# 5 0.002937 -0.002338 -0.007602 0.015078 0.033908 -0.005261
# 6 0.007164 -0.009059 0.009229 -0.013769 -0.005261 0.033074
#
#
# Mechanical properties :
#
#
# Convention : Reuss Voigt Hill
#
# Bulk Modulus (GPa) = 25.97360 43.12594 34.54977
# Shear Modulus (GPa) = 21.88160 34.85265 28.36712
#
# Velocity S-wave (km/s) = 3.17921 4.01234 3.61982
# Velocity P-wave (km/s) = 5.04718 6.43316 5.78185
#
# Compressibility (1/GPa) = 0.03850063
#
# Stress axis : x y z
#
# Youngs Moduli (GPa) = 66.37439 70.40467 34.58120
#
# Poissons Ratio (x) = 0.43934 0.02857
# Poissons Ratio (y) = 0.41419 0.09603
# Poissons Ratio (z) = 0.05484 0.19550
#
# Static dielectric constant tensor:
#      x y z
#    x 1.841950 0.023610 0.010220 
#    y 0.023610 1.845230 0.003090 
#    z 0.010220 0.003090 1.774570 
# 
# From -- ./inp_files/314515.got.cif
#   From: 2010.05.17/outbox.cif.g08.bks.cpg/sg2_158_cif.got.tgz:314515.got - 2010.06.03 11:33:40.
