data_PCOD9084556
_publ_section_title
;
Structure prediction by ZEFSAII (Michael W. Deem and Ramdas Pophale) SiO2 
 PCOD9084556
Probable space group: P -1
;
_chemical_formula_sum "Si O2"
_cell_formula_units_Z 16
_cell_length_a 20.461820
_cell_length_b 9.264382
_cell_length_c 7.678923
_cell_angle_alpha 56.315917
_cell_angle_beta 134.429202
_cell_angle_gamma 135.240105
_cell_volume 727.150066
_symmetry_space_group_name_H-M "P -1"
_symmetry_group_IT_number 2
_symmetry_cell_setting 'triclinic'
loop_
_space_group_symop_operation_xyz
x,y,z
-x,-y,-z
loop_
_atom_site_type_symbol
_atom_site_label
_atom_site_fract_x
_atom_site_fract_y
_atom_site_fract_z
Si Si1 0.944087 0.334126 0.161481
Si Si2 0.383518 0.961871 0.279779
Si Si3 0.341709 0.392894 0.317541
Si Si4 0.646433 0.189286 0.299309
Si Si5 0.835888 0.603219 0.456376
Si Si6 0.255525 0.120894 0.998001
Si Si7 0.796062 0.462557 0.881973
Si Si8 0.473966 0.244377 0.812293
O O1 0.039519 0.305558 0.423107
O O2 0.843855 0.117722 0.045974
O O3 0.893533 0.429631 0.130093
O O4 0.000000 0.500000 0.000000
O O5 0.336715 0.890534 0.435006
O O6 0.312548 0.766077 0.157455
O O7 0.500000 0.000000 0.500000
O O8 0.356641 0.133856 0.076024
O O9 0.237929 0.398915 0.175937
O O10 0.397242 0.334473 0.612503
O O11 0.438205 0.612605 0.270824
O O12 0.301659 0.223606 0.203649
O O13 0.759057 0.400438 0.331500
O O14 0.600684 0.996745 0.214975
O O15 0.555104 0.248506 0.105645
O O16 0.792578 0.751806 0.253165
O O17 0.816771 0.536271 0.669033
#
# Coordination Sequence:
#
# PCOD9084556 Si02
#       8
#     2   2   2   2   2   2   2   2
#     4   9  20  40  63  80 110 150 190 233 285 336
#     4  10  20  34  55  80 116 153 191 227 276 336
#     4  11  21  37  57  88 117 147 186 234 280 335
#     4  10  19  35  54  84 107 157 188 221 277 339
#     4  10  20  38  62  82 109 148 198 234 274 333
#     4  11  21  37  61  86 109 151 191 230 282 335
#     4   9  21  36  57  83 116 144 187 234 283 333
#     4  10  21  33  56  79 122 150 182 223 284 336
#
# _framework density 22.003710999999999
#
# number of rings (size 3 to 8) (size 9 to 14) (size 15 to 20)
#    0.000    2.000    2.500    1.875    1.750    1.000 
#    0.000    6.875    0.000    0.000    0.000    0.000 
#    0.000    0.000    0.000    0.000    0.000    0.000 
#
# Total GULP energy -89157.076302 kJ/mol
# GULP energy per Si atom -5572.317269 kJ/mol
# Density = 2.195363 g / cm^3
# Si number density = 22.003711 Si / 1000 Ang^3
#
#
#
# Elastic Constant Matrix: (Units=GPa)
#
#
# Indices 1 2 3 4 5 6 
#
# 1 70.2217 37.7258 32.9100 -6.1482 42.7300 -10.2351
# 2 37.7258 96.4763 35.8302 -0.3270 24.0304 -4.0303
# 3 32.9100 35.8302 129.2729 -17.7829 42.6549 -0.5013
# 4 -6.1482 -0.3270 -17.7829 41.6437 -1.2453 9.0246
# 5 42.7300 24.0304 42.6549 -1.2453 52.4728 -7.9642
# 6 -10.2351 -4.0303 -0.5013 9.0246 -7.9642 23.5082
#
#
#
# Elastic Compliance Matrix: (Units=1/GPa)
#
#
# Indices 1 2 3 4 5 6 
#
# 1 0.033196 -0.007539 0.002556 0.004540 -0.025100 0.002969
# 2 -0.007539 0.013884 -0.003003 -0.002373 0.002275 0.000716
# 3 0.002556 -0.003003 0.012671 0.006638 -0.011706 -0.005646
# 4 0.004540 -0.002373 0.006638 0.030030 -0.009259 -0.012954
# 5 -0.025100 0.002275 -0.011706 -0.009259 0.049182 0.009429
# 6 0.002969 0.000716 -0.005646 -0.012954 0.009429 0.052001
#
#
# Mechanical properties :
#
#
# Convention : Reuss Voigt Hill
#
# Bulk Modulus (GPa) = 22.84172 56.54478 39.69325
# Shear Modulus (GPa) = 22.57045 36.15858 29.36451
#
# Velocity S-wave (km/s) = 3.20622 4.05815 3.65708
# Velocity P-wave (km/s) = 4.91018 6.90737 5.99256
#
# Compressibility (1/GPa) = 0.04377953
#
# Stress axis : x y z
#
# Youngs Moduli (GPa) = 30.12379 72.02557 78.92139
#
# Poissons Ratio (x) = 0.54301 -0.20176
# Poissons Ratio (y) = 0.22711 0.23701
# Poissons Ratio (z) = -0.07701 0.21630
#
# Static dielectric constant tensor:
#      x y z
#    x 1.873990 0.027000 -0.003800 
#    y 0.027000 1.813550 -0.036500 
#    z -0.003800 -0.036500 1.870250 
# 
# From -- ./inp_files/195633.got.cif
#   From: 2010.05.17/outbox.cif.g08.bks.cpg/sg2_98_cif.got.tgz:195633.got - 2010.06.03 11:33:40.
