data_PCOD9084972
_publ_section_title
;
Structure prediction by ZEFSAII (Michael W. Deem and Ramdas Pophale) SiO2 
 PCOD9084972
Probable space group: P -1
;
_chemical_formula_sum "Si O2"
_cell_formula_units_Z 14
_cell_length_a 12.224618
_cell_length_b 17.336730
_cell_length_c 8.394967
_cell_angle_alpha 109.790977
_cell_angle_beta 37.195718
_cell_angle_gamma 135.389365
_cell_volume 636.649163
_symmetry_space_group_name_H-M "P -1"
_symmetry_group_IT_number 2
_symmetry_cell_setting 'triclinic'
loop_
_space_group_symop_operation_xyz
x,y,z
-x,-y,-z
loop_
_atom_site_type_symbol
_atom_site_label
_atom_site_fract_x
_atom_site_fract_y
_atom_site_fract_z
Si Si1 0.255862 0.075769 0.573928
Si Si2 0.411726 0.393469 0.235399
Si Si3 0.713832 0.261764 0.418320
Si Si4 0.181918 0.460468 0.742353
Si Si5 0.625065 0.323828 0.139522
Si Si6 0.202837 0.190660 0.956923
Si Si7 0.911267 0.676463 0.729794
O O1 0.501364 0.136306 0.460231
O O2 0.425031 0.175007 0.300817
O O3 0.118205 0.107809 0.841520
O O4 0.017053 0.922623 0.734682
O O5 0.343534 0.435781 0.482102
O O6 0.500726 0.335350 0.151178
O O7 0.137598 0.305160 0.375819
O O8 0.684770 0.523893 0.912393
O O9 0.794890 0.250604 0.483716
O O10 0.525704 0.276236 0.680879
O O11 0.991377 0.376730 0.065414
O O12 0.368799 0.606062 0.674194
O O13 0.952567 0.406174 0.832287
O O14 0.175835 0.276657 0.028827
#
# Coordination Sequence:
#
# PCOD9084972 Si02
#       7
#     2   2   2   2   2   2   2
#     4   8  18  36  59  85 103 139 190 231 267 308
#     4  11  24  35  51  86 116 149 177 217 282 335
#     4   9  19  35  59  86 105 139 186 230 270 317
#     4  10  20  33  59  85 108 138 185 232 276 317
#     4  10  19  35  58  82 109 141 182 234 272 313
#     4   9  19  38  56  84 109 141 185 230 268 319
#     4  11  23  36  54  79 120 150 175 220 278 333
#
# _framework density 21.990133
#
# number of rings (size 3 to 8) (size 9 to 14) (size 15 to 20)
#    0.857    1.429    1.429    1.286    4.000    1.714 
#    0.000    3.571    0.000    4.286    0.000    1.000 
#    0.000    0.000    0.000    0.000    0.000    0.000 
#
# Total GULP energy -77936.039660 kJ/mol
# GULP energy per Si atom -5566.859976 kJ/mol
# Density = 2.194008 g / cm^3
# Si number density = 21.990133 Si / 1000 Ang^3
#
#
#
# Elastic Constant Matrix: (Units=GPa)
#
#
# Indices 1 2 3 4 5 6 
#
# 1 145.0045 7.9167 6.4145 -25.6422 -15.8429 -11.9809
# 2 7.9167 40.6667 6.6401 -10.5517 2.7956 -5.3083
# 3 6.4145 6.6401 40.5517 -25.2564 -2.2825 -4.8893
# 4 -25.6422 -10.5517 -25.2564 -0.5540 -9.8581 0.1992
# 5 -15.8429 2.7956 -2.2825 -9.8581 20.5087 6.6822
# 6 -11.9809 -5.3083 -4.8893 0.1992 6.6822 17.8917
#
#
#
# Elastic Compliance Matrix: (Units=1/GPa)
#
#
# Indices 1 2 3 4 5 6 
#
# 1 0.006062 -0.002050 -0.005124 -0.007641 0.000027 0.002126
# 2 -0.002050 0.027032 -0.005178 -0.002564 -0.010010 0.008999
# 3 -0.005124 -0.005178 0.012966 -0.020971 -0.013095 0.003700
# 4 -0.007641 -0.002564 -0.020971 -0.033691 -0.023251 -0.002549
# 5 0.000027 -0.010010 -0.013095 -0.023251 0.045035 -0.023091
# 6 0.002126 0.008999 0.003700 -0.002549 -0.023091 0.069649
#
#
# Mechanical properties :
#
#
# Convention : Reuss Voigt Hill
#
# Bulk Modulus (GPa) = 46.82490 29.79616 38.31053
# Shear Modulus (GPa) = 31.47074 21.25272 26.36173
#
# Velocity S-wave (km/s) = 3.78713 3.11218 3.46612
# Velocity P-wave (km/s) = 6.36105 5.14717 5.78603
#
# Compressibility (1/GPa) = 0.02135616
#
# Stress axis : x y z
#
# Youngs Moduli (GPa) = 164.95341 36.99307 77.12247
#
# Poissons Ratio (x) = 0.07585 0.39520
# Poissons Ratio (y) = 0.33822 0.39931
# Poissons Ratio (z) = 0.84528 0.19153
#
# Static dielectric constant tensor:
#      x y z
#    x 1.894220 0.040770 0.036450 
#    y 0.040770 1.797590 -0.004170 
#    z 0.036450 -0.004170 1.887600 
# 
# From -- ./inp_files/277952.got.cif
#   From: 2010.05.17/outbox.cif.g08.bks.cpg/sg2_139_cif.got.tgz:277952.got - 2010.06.03 11:33:40.
