data_PCOD9084447
_publ_section_title
;
Structure prediction by ZEFSAII (Michael W. Deem and Ramdas Pophale) SiO2 
 PCOD9084447
Probable space group: P -1
;
_chemical_formula_sum "Si O2"
_cell_formula_units_Z 16
_cell_length_a 8.562835
_cell_length_b 8.564265
_cell_length_c 11.887422
_cell_angle_alpha 123.174046
_cell_angle_beta 63.826722
_cell_angle_gamma 88.340743
_cell_volume 610.986445
_symmetry_space_group_name_H-M "P -1"
_symmetry_group_IT_number 2
_symmetry_cell_setting 'triclinic'
loop_
_space_group_symop_operation_xyz
x,y,z
-x,-y,-z
loop_
_atom_site_type_symbol
_atom_site_label
_atom_site_fract_x
_atom_site_fract_y
_atom_site_fract_z
Si Si1 0.890713 0.663888 0.321120
Si Si2 0.790675 0.035841 0.658702
Si Si3 0.365409 0.591015 0.313533
Si Si4 0.084708 0.838412 0.660345
Si Si5 0.327140 0.425470 0.055880
Si Si6 0.825900 0.810692 0.155307
Si Si7 0.695096 0.017257 0.926914
Si Si8 0.221539 0.641928 0.849945
O O1 0.817936 0.823624 0.507128
O O2 0.792348 0.762219 0.274543
O O3 0.839834 0.464307 0.276572
O O4 0.112415 0.591863 0.193056
O O5 0.993615 0.979728 0.633607
O O6 0.347274 0.408125 0.176833
O O7 0.674366 0.096282 0.834982
O O8 0.234469 0.643208 0.483969
O O9 0.298210 0.789102 0.334089
O O10 0.581303 0.520551 0.242920
O O11 0.183363 0.960972 0.750661
O O12 0.896987 0.838841 0.779437
O O13 0.500000 0.500000 0.000000
O O14 0.299115 0.257136 0.919149
O O15 0.042037 0.684725 0.004832
O O16 0.738275 0.154881 0.063556
O O17 0.500000 0.000000 0.000000
#
# Coordination Sequence:
#
# PCOD9084447 Si02
#       8
#     2   2   2   2   2   2   2   2
#     4  11  19  36  50  83 125 154 188 217 299 354
#     4  10  21  33  60  79 120 157 183 235 289 347
#     4  12  20  34  54  93 123 140 188 236 295 349
#     4   9  19  36  58  80 113 163 180 234 290 346
#     4  11  21  29  50  78 122 158 184 224 266 354
#     4  10  19  35  50  77 124 157 184 217 287 357
#     4   9  21  42  59  79 108 158 207 232 281 339
#     4  10  23  34  57  89 117 153 188 241 281 344
#
# _framework density 26.187161
#
# number of rings (size 3 to 8) (size 9 to 14) (size 15 to 20)
#    0.750    1.000    2.500    4.125    3.500    0.500 
#    2.250    1.250    0.000    0.000    0.000    8.750 
#    0.000    0.000    0.000    0.000    0.000    4.500 
#
# Total GULP energy -89155.996593 kJ/mol
# GULP energy per Si atom -5572.249787 kJ/mol
# Density = 2.612756 g / cm^3
# Si number density = 26.187161 Si / 1000 Ang^3
#
#
#
# Elastic Constant Matrix: (Units=GPa)
#
#
# Indices 1 2 3 4 5 6 
#
# 1 172.2076 50.2585 69.6301 6.5128 9.1959 37.1243
# 2 50.2585 52.6995 66.7145 -5.2851 8.3996 25.2222
# 3 69.6301 66.7145 176.9336 18.6436 28.1992 33.2601
# 4 6.5128 -5.2851 18.6436 26.7704 17.2899 1.6700
# 5 9.1959 8.3996 28.1992 17.2899 36.3337 8.8122
# 6 37.1243 25.2222 33.2601 1.6700 8.8122 56.6860
#
#
#
# Elastic Compliance Matrix: (Units=1/GPa)
#
#
# Indices 1 2 3 4 5 6 
#
# 1 0.008797 -0.009054 0.000570 -0.006024 0.002857 -0.002334
# 2 -0.009054 0.064717 -0.021100 0.038060 -0.012044 -0.009735
# 3 0.000570 -0.021100 0.014776 -0.014687 0.000069 0.000768
# 4 -0.006024 0.038060 -0.014687 0.077593 -0.032406 -0.001620
# 5 0.002857 -0.012044 0.000069 -0.032406 0.045603 -0.002687
# 6 -0.002334 -0.009735 0.000768 -0.001620 -0.002687 0.023516
#
#
# Mechanical properties :
#
#
# Convention : Reuss Voigt Hill
#
# Bulk Modulus (GPa) = 34.33775 86.11634 60.22704
# Shear Modulus (GPa) = 16.45396 38.30719 27.38057
#
# Velocity S-wave (km/s) = 2.50935 3.82884 3.23704
# Velocity P-wave (km/s) = 4.64077 7.24589 6.08439
#
# Compressibility (1/GPa) = 0.02912247
#
# Stress axis : x y z
#
# Youngs Moduli (GPa) = 113.67197 15.45188 67.67767
#
# Poissons Ratio (x) = 0.13990 -0.03857
# Poissons Ratio (y) = 1.02914 1.42801
# Poissons Ratio (z) = -0.06478 0.32604
#
# Static dielectric constant tensor:
#      x y z
#    x 2.092420 -0.044830 0.012250 
#    y -0.044830 2.278680 -0.002710 
#    z 0.012250 -0.002710 2.153290 
# 
# From -- ./inp_files/560900.got.cif
#   From: 2010.05.17/outbox.cif.g08.bks.cpg/sg2_281_cif.got.tgz:560900.got - 2010.06.03 11:33:40.
