data_PCOD9084752
_publ_section_title
;
Structure prediction by ZEFSAII (Michael W. Deem and Ramdas Pophale) SiO2 
 PCOD9084752
Probable space group: P -1
;
_chemical_formula_sum "Si O2"
_cell_formula_units_Z 16
_cell_length_a 4.974853
_cell_length_b 15.854060
_cell_length_c 12.322582
_cell_angle_alpha 69.680455
_cell_angle_beta 115.834008
_cell_angle_gamma 101.938050
_cell_volume 818.556488
_symmetry_space_group_name_H-M "P -1"
_symmetry_group_IT_number 2
_symmetry_cell_setting 'triclinic'
loop_
_space_group_symop_operation_xyz
x,y,z
-x,-y,-z
loop_
_atom_site_type_symbol
_atom_site_label
_atom_site_fract_x
_atom_site_fract_y
_atom_site_fract_z
Si Si1 0.520737 0.892956 0.073325
Si Si2 0.802807 0.402443 0.138537
Si Si3 0.943517 0.763238 0.630452
Si Si4 0.239998 0.972975 0.380552
Si Si5 0.353133 0.133121 0.640378
Si Si6 0.109518 0.395199 0.970671
Si Si7 0.410553 0.161864 0.264785
Si Si8 0.899971 0.791670 0.019077
O O1 0.572062 0.869007 0.219044
O O2 0.780708 0.850588 0.068879
O O3 0.209124 0.839927 0.010599
O O4 0.500000 0.000000 0.000000
O O5 0.935060 0.333509 0.277439
O O6 0.933358 0.505637 0.127961
O O7 0.444370 0.401968 0.077164
O O8 0.892679 0.374959 0.044155
O O9 0.235881 0.832870 0.657041
O O10 0.778027 0.780959 0.480174
O O11 0.729768 0.789673 0.679133
O O12 0.359782 0.893230 0.365307
O O13 0.916309 0.945162 0.383210
O O14 0.500000 0.000000 0.500000
O O15 0.248532 0.062795 0.270704
O O16 0.066796 0.314695 0.912460
O O17 0.342311 0.208220 0.119665
#
# Coordination Sequence:
#
# PCOD9084752 Si02
#       8
#     2   2   2   2   2   2   2   2
#     4  12  26  43  58  78 117 164 203 243 268 329
#     4  10  19  35  56  91 124 141 177 237 312 348
#     4  12  20  35  56  86 120 141 178 237 301 346
#     4  12  21  37  54  83 115 145 189 240 289 349
#     4  12  24  39  56  81 114 157 196 234 295 336
#     4  10  20  35  60  87 118 151 182 234 292 365
#     4  12  22  33  57  87 113 147 185 239 288 340
#     4  12  22  40  61  83 113 155 204 232 283 341
#
# _framework density 19.546602
#
# number of rings (size 3 to 8) (size 9 to 14) (size 15 to 20)
#    0.000    0.500    5.000    5.250    0.000    0.000 
#    0.000    0.000    0.000    1.500    0.000    0.000 
#    0.000    0.000    0.000    0.000    0.000    0.000 
#
# Total GULP energy -89371.111377 kJ/mol
# GULP energy per Si atom -5585.694461 kJ/mol
# Density = 1.950211 g / cm^3
# Si number density = 19.546602 Si / 1000 Ang^3
#
#
#
# Elastic Constant Matrix: (Units=GPa)
#
#
# Indices 1 2 3 4 5 6 
#
# 1 64.8321 -1.3189 -6.5332 4.3607 -6.8894 -8.8677
# 2 -1.3189 103.0323 24.1742 -30.4542 -2.3241 -5.4539
# 3 -6.5332 24.1742 104.6353 -20.1422 -0.2859 -8.2207
# 4 4.3607 -30.4542 -20.1422 34.9012 1.5231 1.3667
# 5 -6.8894 -2.3241 -0.2859 1.5231 18.9815 3.2261
# 6 -8.8677 -5.4539 -8.2207 1.3667 3.2261 22.3404
#
#
#
# Elastic Compliance Matrix: (Units=1/GPa)
#
#
# Indices 1 2 3 4 5 6 
#
# 1 0.017147 -0.000230 0.001249 -0.002110 0.005265 0.006578
# 2 -0.000230 0.013277 -0.000782 0.011067 0.000278 0.002145
# 3 0.001249 -0.000782 0.011199 0.005488 -0.000625 0.004180
# 4 -0.002110 0.011067 0.005488 0.041801 -0.002981 0.001757
# 5 0.005265 0.000278 -0.000625 -0.002981 0.055870 -0.005958
# 6 0.006578 0.002145 0.004180 0.001757 -0.005958 0.050188
#
#
# Mechanical properties :
#
#
# Convention : Reuss Voigt Hill
#
# Bulk Modulus (GPa) = 23.75539 33.90486 28.83013
# Shear Modulus (GPa) = 24.62556 32.32313 28.47434
#
# Velocity S-wave (km/s) = 3.55327 4.07091 3.82087
# Velocity P-wave (km/s) = 5.38646 6.28329 5.85208
#
# Compressibility (1/GPa) = 0.04209571
#
# Stress axis : x y z
#
# Youngs Moduli (GPa) = 58.31987 75.31728 89.29483
#
# Poissons Ratio (x) = 0.01734 -0.11152
# Poissons Ratio (y) = 0.01342 0.06985
# Poissons Ratio (z) = -0.07283 0.05892
#
# Static dielectric constant tensor:
#      x y z
#    x 1.684220 -0.007260 -0.003620 
#    y -0.007260 1.741580 -0.065770 
#    z -0.003620 -0.065770 1.753340 
# 
# From -- ./inp_files/367701.got.cif
#   From: 2010.05.17/outbox.cif.g08.bks.cpg/sg2_184_cif.got.tgz:367701.got - 2010.06.03 11:33:40.
