data_PCOD9084278
_publ_section_title
;
Structure prediction by ZEFSAII (Michael W. Deem and Ramdas Pophale) SiO2 
 PCOD9084278
Probable space group: P -1
;
_chemical_formula_sum "Si O2"
_cell_formula_units_Z 14
_cell_length_a 19.659624
_cell_length_b 9.279095
_cell_length_c 11.600182
_cell_angle_alpha 80.941541
_cell_angle_beta 143.699995
_cell_angle_gamma 70.520008
_cell_volume 762.565535
_symmetry_space_group_name_H-M "P -1"
_symmetry_group_IT_number 2
_symmetry_cell_setting 'triclinic'
loop_
_space_group_symop_operation_xyz
x,y,z
-x,-y,-z
loop_
_atom_site_type_symbol
_atom_site_label
_atom_site_fract_x
_atom_site_fract_y
_atom_site_fract_z
Si Si1 0.708453 0.896171 0.349535
Si Si2 0.549536 0.960888 0.439594
Si Si3 0.353039 0.636276 0.611853
Si Si4 0.280452 0.403443 0.453256
Si Si5 0.857672 0.873447 0.779400
Si Si6 0.199637 0.331661 0.740023
Si Si7 0.367856 0.450170 0.880354
O O1 0.660191 0.787184 0.355408
O O2 0.856848 0.815493 0.652949
O O3 0.767591 0.802437 0.311777
O O4 0.538365 0.180176 0.096847
O O5 0.500000 0.000000 0.500000
O O6 0.665488 0.706497 0.584792
O O7 0.689571 0.954067 0.601571
O O8 0.364352 0.151156 0.082680
O O9 0.372136 0.467961 0.590395
O O10 0.303796 0.626685 0.673567
O O11 0.196668 0.903018 0.320902
O O12 0.539382 0.546587 0.892595
O O13 0.941170 0.358521 0.864629
O O14 0.215897 0.484268 0.703564
O O15 0.000000 0.500000 0.500000
#
# Coordination Sequence:
#
# PCOD9084278 Si02
#       7
#     2   2   2   2   2   2   2
#     4  10  19  37  60  90 112 150 212 248 291 336
#     4  11  24  40  58  88 126 160 197 247 302 351
#     4  10  19  34  62  90 119 148 203 242 304 348
#     4  11  20  36  65  86 117 159 200 249 293 356
#     4  10  22  37  61  90 121 154 198 251 294 356
#     4  12  23  35  61  91 119 153 199 253 295 350
#     4  10  19  37  61  87 118 151 195 261 290 348
#
# _framework density 18.359079000000001
#
# number of rings (size 3 to 8) (size 9 to 14) (size 15 to 20)
#    0.000    1.429    5.714    3.429    4.000    0.000 
#    0.000    0.714    0.000   15.429    0.000    0.000 
#    0.000    0.000    0.000    0.000    0.000    0.000 
#
# Total GULP energy -78054.168070 kJ/mol
# GULP energy per Si atom -5575.297719 kJ/mol
# Density = 1.831729 g / cm^3
# Si number density = 18.359079 Si / 1000 Ang^3
#
#
#
# Elastic Constant Matrix: (Units=GPa)
#
#
# Indices 1 2 3 4 5 6 
#
# 1 95.1199 50.1018 39.5976 -3.4850 11.5810 -11.8337
# 2 50.1018 118.4405 12.4926 -3.9556 3.7377 12.8653
# 3 39.5976 12.4926 65.0192 -8.1360 15.1272 5.4721
# 4 -3.4850 -3.9556 -8.1360 22.9626 3.5621 -1.5718
# 5 11.5810 3.7377 15.1272 3.5621 29.1211 3.2629
# 6 -11.8337 12.8653 5.4721 -1.5718 3.2629 35.7323
#
#
#
# Elastic Compliance Matrix: (Units=1/GPa)
#
#
# Indices 1 2 3 4 5 6 
#
# 1 0.022821 -0.009709 -0.012735 -0.001430 -0.002515 0.013171
# 2 -0.009709 0.013070 0.004124 0.001527 0.000814 -0.008560
# 3 -0.012735 0.004124 0.026344 0.008972 -0.009295 -0.008493
# 4 -0.001430 0.001527 0.008972 0.048416 -0.010285 0.000672
# 5 -0.002515 0.000814 -0.009295 -0.010285 0.041766 -0.003969
# 6 0.013171 -0.008560 -0.008493 0.000672 -0.003969 0.037122
#
#
# Mechanical properties :
#
#
# Convention : Reuss Voigt Hill
#
# Bulk Modulus (GPa) = 39.07136 53.66264 46.36700
# Shear Modulus (GPa) = 21.30278 29.32237 25.31258
#
# Velocity S-wave (km/s) = 3.41007 4.00078 3.71718
# Velocity P-wave (km/s) = 6.06900 7.11580 6.61315
#
# Compressibility (1/GPa) = 0.02559419
#
# Stress axis : x y z
#
# Youngs Moduli (GPa) = 43.81932 76.50891 37.95994
#
# Poissons Ratio (x) = 0.74285 0.48342
# Poissons Ratio (y) = 0.42546 -0.15655
# Poissons Ratio (z) = 0.55804 -0.31552
#
# Static dielectric constant tensor:
#      x y z
#    x 1.625040 -0.003620 -0.036490 
#    y -0.003620 1.661490 0.039140 
#    z -0.036490 0.039140 1.673550 
# 
# From -- ./inp_files/460557.got.cif
#   From: 2010.05.17/outbox.cif.g08.bks.cpg/sg2_231_cif.got.tgz:460557.got - 2010.06.03 11:33:40.
