data_PCOD9084284
_publ_section_title
;
Structure prediction by ZEFSAII (Michael W. Deem and Ramdas Pophale) SiO2 
 PCOD9084284
Probable space group: P -1
;
_chemical_formula_sum "Si O2"
_cell_formula_units_Z 16
_cell_length_a 5.966091
_cell_length_b 13.819491
_cell_length_c 11.780329
_cell_angle_alpha 48.344330
_cell_angle_beta 105.853344
_cell_angle_gamma 86.682213
_cell_volume 658.206698
_symmetry_space_group_name_H-M "P -1"
_symmetry_group_IT_number 2
_symmetry_cell_setting 'triclinic'
loop_
_space_group_symop_operation_xyz
x,y,z
-x,-y,-z
loop_
_atom_site_type_symbol
_atom_site_label
_atom_site_fract_x
_atom_site_fract_y
_atom_site_fract_z
Si Si1 0.167778 0.086485 0.104707
Si Si2 0.267728 0.522535 0.537757
Si Si3 0.891819 0.024232 0.591609
Si Si4 0.974988 0.176064 0.787570
Si Si5 0.105371 0.612679 0.874717
Si Si6 0.611107 0.748871 0.597662
Si Si7 0.676053 0.908105 0.278911
Si Si8 0.482956 0.476301 0.835017
O O1 0.115056 0.092000 0.226586
O O2 0.459451 0.051670 0.156011
O O3 0.132328 0.946306 0.158361
O O4 0.997479 0.198464 0.908052
O O5 0.500000 0.500000 0.500000
O O6 0.381697 0.439589 0.732451
O O7 0.000000 0.500000 0.500000
O O8 0.173416 0.687686 0.405583
O O9 0.615967 0.133933 0.467404
O O10 0.075532 0.085829 0.634779
O O11 0.000000 0.000000 0.500000
O O12 0.252564 0.127858 0.812568
O O13 0.261617 0.542749 0.840499
O O14 0.869102 0.735679 0.704292
O O15 0.300602 0.632105 0.978028
O O16 0.000000 0.500000 0.000000
O O17 0.618408 0.792213 0.434679
O O18 0.578077 0.602174 0.717445
#
# Coordination Sequence:
#
# PCOD9084284 Si02
#       8
#     2   2   2   2   2   2   2   2
#     4   9  20  38  68  94 118 164 219 283 327 378
#     4  12  29  45  66  97 143 191 222 272 348 418
#     4  10  21  36  54  89 131 159 199 252 335 411
#     4  10  21  41  65  93 124 160 231 277 323 395
#     4   9  19  35  67  89 115 154 213 288 321 370
#     4  10  19  34  62  91 118 160 213 268 329 389
#     4  10  19  35  64  91 114 161 206 271 330 387
#     4  10  21  41  63  91 122 161 229 273 323 401
#
# _framework density 24.308475000000001
#
# number of rings (size 3 to 8) (size 9 to 14) (size 15 to 20)
#    0.000    2.000    0.000    4.125    7.000    2.000 
#    0.000    6.250    0.000    0.000    0.000    0.000 
#    0.000    0.000    0.000    0.000    0.000    0.000 
#
# Total GULP energy -89296.223718 kJ/mol
# GULP energy per Si atom -5581.013982 kJ/mol
# Density = 2.425315 g / cm^3
# Si number density = 24.308475 Si / 1000 Ang^3
#
#
#
# Elastic Constant Matrix: (Units=GPa)
#
#
# Indices 1 2 3 4 5 6 
#
# 1 137.9916 26.8305 42.3002 23.5159 26.7237 -11.5186
# 2 26.8305 41.3401 13.0504 23.3640 11.7422 -4.8216
# 3 42.3002 13.0504 109.3207 41.3778 29.0215 -5.3273
# 4 23.5159 23.3640 41.3778 41.0641 -0.1904 -3.4155
# 5 26.7237 11.7422 29.0215 -0.1904 35.2141 -2.4075
# 6 -11.5186 -4.8216 -5.3273 -3.4155 -2.4075 26.4257
#
#
#
# Elastic Compliance Matrix: (Units=1/GPa)
#
#
# Indices 1 2 3 4 5 6 
#
# 1 0.009884 -0.001452 0.000144 -0.004777 -0.006969 0.002820
# 2 -0.001452 0.069732 0.032524 -0.071432 -0.049003 0.004950
# 3 0.000144 0.032524 0.038285 -0.057161 -0.042650 0.002442
# 4 -0.004777 -0.071432 -0.057161 0.125375 0.074985 -0.003603
# 5 -0.006969 -0.049003 -0.042650 0.074985 0.085369 -0.003107
# 6 0.002820 0.004950 0.002442 -0.003603 -0.003107 0.039718
#
#
# Mechanical properties :
#
#
# Convention : Reuss Voigt Hill
#
# Bulk Modulus (GPa) = 5.54526 50.33495 27.94010
# Shear Modulus (GPa) = 13.65966 34.30552 23.98259
#
# Velocity S-wave (km/s) = 2.37308 3.76075 3.14442
# Velocity P-wave (km/s) = 3.12967 6.29359 4.97012
#
# Compressibility (1/GPa) = 0.18033436
#
# Stress axis : x y z
#
# Youngs Moduli (GPa) = 101.17364 14.34071 26.11964
#
# Poissons Ratio (x) = 0.02083 -0.00377
# Poissons Ratio (y) = 0.14693 -0.84953
# Poissons Ratio (z) = -0.01462 -0.46642
#
# Static dielectric constant tensor:
#      x y z
#    x 2.020250 0.036480 -0.005400 
#    y 0.036480 1.973370 0.027010 
#    z -0.005400 0.027010 1.968650 
# 
# From -- ./inp_files/367530.got.cif
#   From: 2010.05.17/outbox.cif.g08.bks.cpg/sg2_184_cif.got.tgz:367530.got - 2010.06.03 11:33:40.
