data_PCOD9084279
_publ_section_title
;
Structure prediction by ZEFSAII (Michael W. Deem and Ramdas Pophale) SiO2 
 PCOD9084279
Probable space group: P -1
;
_chemical_formula_sum "Si O2"
_cell_formula_units_Z 14
_cell_length_a 7.910885
_cell_length_b 7.202427
_cell_length_c 11.191210
_cell_angle_alpha 71.487275
_cell_angle_beta 59.339393
_cell_angle_gamma 92.887931
_cell_volume 502.197621
_symmetry_space_group_name_H-M "P -1"
_symmetry_group_IT_number 2
_symmetry_cell_setting 'triclinic'
loop_
_space_group_symop_operation_xyz
x,y,z
-x,-y,-z
loop_
_atom_site_type_symbol
_atom_site_label
_atom_site_fract_x
_atom_site_fract_y
_atom_site_fract_z
Si Si1 0.350072 0.773441 0.979161
Si Si2 0.526583 0.677108 0.559529
Si Si3 0.773814 0.717129 0.866871
Si Si4 0.255940 0.754845 0.277789
Si Si5 0.080616 0.282657 0.424374
Si Si6 0.673121 0.880100 0.240632
Si Si7 0.155755 0.400138 0.890062
O O1 0.589171 0.801086 0.869481
O O2 0.267827 0.896233 0.882795
O O3 0.284114 0.529610 0.061548
O O4 0.296896 0.843549 0.113353
O O5 0.500000 0.500000 0.500000
O O6 0.718374 0.719970 0.571895
O O7 0.585727 0.867834 0.408450
O O8 0.330227 0.590439 0.733486
O O9 0.942910 0.782570 0.692252
O O10 0.802593 0.747929 0.989698
O O11 0.119239 0.526127 0.352381
O O12 0.474212 0.765953 0.255806
O O13 0.118817 0.826299 0.409630
O O14 0.847998 0.758449 0.186849
O O15 0.000000 0.500000 0.000000
#
# Coordination Sequence:
#
# PCOD9084279 Si02
#       7
#     2   2   2   2   2   2   2
#     4  10  20  38  65  89 121 159 208 255 303 356
#     4  10  20  38  58  88 125 163 202 245 310 366
#     4  10  21  40  63  89 123 161 205 253 310 359
#     4  10  19  34  62  90 119 156 208 251 294 364
#     4  10  20  36  61  90 121 162 207 245 303 368
#     4  11  22  39  64  93 124 161 204 257 301 363
#     4  11  23  39  63  91 126 164 202 250 310 369
#
# _framework density 27.877472000000001
#
# number of rings (size 3 to 8) (size 9 to 14) (size 15 to 20)
#    0.000    1.714    4.286    2.143    2.000    3.429 
#    0.000    7.857    0.000    0.000    0.000    0.000 
#    0.000    0.000    0.000    0.000    0.000    0.000 
#
# Total GULP energy -78067.494468 kJ/mol
# GULP energy per Si atom -5576.249605 kJ/mol
# Density = 2.781402 g / cm^3
# Si number density = 27.877472 Si / 1000 Ang^3
#
#
#
# Elastic Constant Matrix: (Units=GPa)
#
#
# Indices 1 2 3 4 5 6 
#
# 1 66.2289 3.9448 70.4035 14.0795 -10.3413 -15.9494
# 2 3.9448 121.3619 64.5044 -17.4707 -11.2078 -10.0698
# 3 70.4035 64.5044 274.7830 20.1520 8.2065 -27.9158
# 4 14.0795 -17.4707 20.1520 45.6019 -6.3160 2.5958
# 5 -10.3413 -11.2078 8.2065 -6.3160 43.2747 -3.1710
# 6 -15.9494 -10.0698 -27.9158 2.5958 -3.1710 38.4094
#
#
#
# Elastic Compliance Matrix: (Units=1/GPa)
#
#
# Indices 1 2 3 4 5 6 
#
# 1 0.025893 0.003809 -0.006799 -0.002775 0.008623 0.007708
# 2 0.003809 0.011876 -0.004196 0.005930 0.005773 0.001721
# 3 -0.006799 -0.004196 0.006821 -0.003183 -0.004405 0.000886
# 4 -0.002775 0.005930 -0.003183 0.027378 0.005228 -0.003330
# 5 0.008623 0.005773 -0.004405 0.005228 0.028548 0.003896
# 6 0.007708 0.001721 0.000886 -0.003330 0.003896 0.030878
#
#
# Mechanical properties :
#
#
# Convention : Reuss Voigt Hill
#
# Bulk Modulus (GPa) = 33.09443 82.23104 57.66273
# Shear Modulus (GPa) = 32.08449 47.02529 39.55489
#
# Velocity S-wave (km/s) = 3.39619 4.11159 3.77089
# Velocity P-wave (km/s) = 5.22264 7.21814 6.29990
#
# Compressibility (1/GPa) = 0.03021656
#
# Stress axis : x y z
#
# Youngs Moduli (GPa) = 38.62110 84.20458 146.60083
#
# Poissons Ratio (x) = -0.32069 0.99674
# Poissons Ratio (y) = -0.14709 0.61514
# Poissons Ratio (z) = 0.26259 0.35333
#
# Static dielectric constant tensor:
#      x y z
#    x 2.339070 0.036180 -0.039320 
#    y 0.036180 2.374960 0.052960 
#    z -0.039320 0.052960 2.181180 
# 
# From -- ./inp_files/381197.got.cif
#   From: 2010.05.17/outbox.cif.g08.bks.cpg/sg2_191_cif.got.tgz:381197.got - 2010.06.03 11:33:40.
