data_PCOD9084056
_publ_section_title
;
Structure prediction by ZEFSAII (Michael W. Deem and Ramdas Pophale) SiO2 
 PCOD9084056
Probable space group: P -1
;
_chemical_formula_sum "Si O2"
_cell_formula_units_Z 11
_cell_length_a 7.697912
_cell_length_b 13.654223
_cell_length_c 6.904631
_cell_angle_alpha 117.788141
_cell_angle_beta 140.888881
_cell_angle_gamma 63.342698
_cell_volume 400.076901
_symmetry_space_group_name_H-M "P -1"
_symmetry_group_IT_number 2
_symmetry_cell_setting 'triclinic'
loop_
_space_group_symop_operation_xyz
x,y,z
-x,-y,-z
loop_
_atom_site_type_symbol
_atom_site_label
_atom_site_fract_x
_atom_site_fract_y
_atom_site_fract_z
Si Si1 0.000000 0.000000 0.000000
Si Si2 0.625977 0.374442 0.823504
Si Si3 0.523947 0.127551 0.165103
Si Si4 0.070075 0.511727 0.301468
Si Si5 0.432758 0.162032 0.571752
Si Si6 0.984890 0.255342 0.670512
O O1 0.698947 0.080210 0.806639
O O2 0.844186 0.892070 0.682779
O O3 0.368468 0.440028 0.538968
O O4 0.495502 0.289244 0.770732
O O5 0.845801 0.301789 0.798800
O O6 0.818572 0.463318 0.149491
O O7 0.440940 0.155329 0.338343
O O8 0.831873 0.149016 0.414108
O O9 0.309965 0.211562 0.930838
O O10 0.500000 0.000000 0.000000
O O11 0.076158 0.644156 0.441385
O O12 0.000000 0.500000 0.000000
#
# Coordination Sequence:
#
# PCOD9084056 Si02
#       6
#     1   2   2   2   2   2
#     4  10  20  32  50  66  96 126 160 206 240 276
#     4  10  17  27  45  66  95 125 153 188 240 295
#     4  11  21  33  49  69 101 136 164 191 229 283
#     4  10  16  25  42  66  94 127 153 182 234 294
#     4  10  19  33  48  71  97 126 159 198 241 279
#     4  10  18  29  43  67  99 130 160 188 227 287
#
# _framework density 27.494716
#
# number of rings (size 3 to 8) (size 9 to 14) (size 15 to 20)
#    0.000    1.818    0.000   11.455    0.000    0.000 
#    0.000    0.000    0.000    0.000    0.000    0.000 
#    0.000  101.818    0.000    0.000    0.000    0.000 
#
# Total GULP energy -61379.719781 kJ/mol
# GULP energy per Si atom -5579.974526 kJ/mol
# Density = 2.743214 g / cm^3
# Si number density = 27.494716 Si / 1000 Ang^3
#
#
#
# Elastic Constant Matrix: (Units=GPa)
#
#
# Indices 1 2 3 4 5 6 
#
# 1 97.6325 20.5041 20.9506 1.3668 13.9661 3.2381
# 2 20.5041 119.6105 26.1289 27.5606 11.8447 16.1530
# 3 20.9506 26.1289 166.4519 5.9666 39.2349 3.3931
# 4 1.3668 27.5606 5.9666 66.9619 -0.8137 13.6169
# 5 13.9661 11.8447 39.2349 -0.8137 32.5038 -3.8347
# 6 3.2381 16.1530 3.3931 13.6169 -3.8347 19.2314
#
#
#
# Elastic Compliance Matrix: (Units=1/GPa)
#
#
# Indices 1 2 3 4 5 6 
#
# 1 0.011245 -0.001337 -0.000152 0.000713 -0.004394 -0.002125
# 2 -0.001337 0.010718 -0.000349 -0.002887 -0.003860 -0.007442
# 3 -0.000152 -0.000349 0.008662 -0.000090 -0.010652 -0.003270
# 4 0.000713 -0.002887 -0.000090 0.018273 0.000060 -0.010606
# 5 -0.004394 -0.003860 -0.010652 0.000060 0.048752 0.015540
# 6 -0.002125 -0.007442 -0.003270 -0.010606 0.015540 0.069792
#
#
# Mechanical properties :
#
#
# Convention : Reuss Voigt Hill
#
# Bulk Modulus (GPa) = 37.10635 57.65133 47.37884
# Shear Modulus (GPa) = 27.76215 44.81350 36.28783
#
# Velocity S-wave (km/s) = 3.18107 4.04158 3.63686
# Velocity P-wave (km/s) = 5.19782 6.54162 5.90805
#
# Compressibility (1/GPa) = 0.02694956
#
# Stress axis : x y z
#
# Youngs Moduli (GPa) = 88.92960 93.29849 115.44324
#
# Poissons Ratio (x) = 0.12471 0.01756
# Poissons Ratio (y) = 0.11887 0.04031
# Poissons Ratio (z) = 0.01353 0.03258
#
# Static dielectric constant tensor:
#      x y z
#    x 2.414140 -0.009210 -0.115560 
#    y -0.009210 2.192880 0.206210 
#    z -0.115560 0.206210 2.187360 
# 
# From -- ./inp_files/195451.got.cif
#   From: 2010.05.17/outbox.cif.g08.bks.cpg/sg2_98_cif.got.tgz:195451.got - 2010.06.03 11:33:40.
