data_PCOD9084449
_publ_section_title
;
Structure prediction by ZEFSAII (Michael W. Deem and Ramdas Pophale) SiO2 
 PCOD9084449
Probable space group: P -1
;
_chemical_formula_sum "Si O2"
_cell_formula_units_Z 15
_cell_length_a 15.713122
_cell_length_b 6.632133
_cell_length_c 11.016281
_cell_angle_alpha 63.777491
_cell_angle_beta 54.542752
_cell_angle_gamma 102.625086
_cell_volume 637.571282
_symmetry_space_group_name_H-M "P -1"
_symmetry_group_IT_number 2
_symmetry_cell_setting 'triclinic'
loop_
_space_group_symop_operation_xyz
x,y,z
-x,-y,-z
loop_
_atom_site_type_symbol
_atom_site_label
_atom_site_fract_x
_atom_site_fract_y
_atom_site_fract_z
Si Si1 0.530971 0.305912 0.862439
Si Si2 0.591633 0.143824 0.629852
Si Si3 0.841724 0.195026 0.405924
Si Si4 0.500000 0.000000 0.500000
Si Si5 0.050838 0.893029 0.083412
Si Si6 0.238567 0.884619 0.782346
Si Si7 0.081296 0.232338 0.195993
Si Si8 0.347169 0.455868 0.048563
O O1 0.586977 0.347116 0.669845
O O2 0.407672 0.313786 0.974292
O O3 0.632301 0.525074 0.828086
O O4 0.500000 0.000000 0.000000
O O5 0.698267 0.100424 0.597045
O O6 0.616461 0.237144 0.445314
O O7 0.447273 0.801073 0.828892
O O8 0.815603 0.117317 0.304901
O O9 0.942524 0.542656 0.254719
O O10 0.935556 0.121159 0.394152
O O11 0.399864 0.068451 0.599147
O O12 0.054567 0.999501 0.184495
O O13 0.195491 0.000915 0.889333
O O14 0.000000 0.000000 0.000000
O O15 0.155627 0.542133 0.980352
O O16 0.195559 0.307949 0.174666
#
# Coordination Sequence:
#
# PCOD9084449 Si02
#       8
#     2   2   2   1   2   2   2   2
#     4   9  21  41  64  84 113 150 194 249 299 341
#     4  10  21  39  59  86 124 154 189 236 299 341
#     4  10  21  35  54  81 123 159 186 236 283 340
#     4  10  20  34  54  88 128 148 182 240 284 348
#     4  11  19  32  53  76 112 165 200 216 279 346
#     4  10  19  35  50  78 121 158 187 232 275 337
#     4  11  20  34  56  83 114 149 199 238 272 345
#     4  10  21  39  65  88 108 151 205 245 286 343
#
# _framework density 23.526782999999998
#
# number of rings (size 3 to 8) (size 9 to 14) (size 15 to 20)
#    0.000    1.867    4.000    0.800    1.867    2.133 
#    0.000    2.000    0.000    8.000    0.000    0.000 
#    0.000    0.000    0.000    0.000    0.000    0.000 
#
# Total GULP energy -83535.683367 kJ/mol
# GULP energy per Si atom -5569.045558 kJ/mol
# Density = 2.347324 g / cm^3
# Si number density = 23.526783 Si / 1000 Ang^3
#
#
#
# Elastic Constant Matrix: (Units=GPa)
#
#
# Indices 1 2 3 4 5 6 
#
# 1 137.0026 44.9104 44.6468 11.9942 -56.0130 -1.9866
# 2 44.9104 126.1969 35.9734 34.5268 -16.8961 -10.7424
# 3 44.6468 35.9734 58.9113 13.8850 -26.5158 -5.7259
# 4 11.9942 34.5268 13.8850 36.1998 -5.5698 -3.6183
# 5 -56.0130 -16.8961 -26.5158 -5.5698 44.8917 3.0820
# 6 -1.9866 -10.7424 -5.7259 -3.6183 3.0820 21.3300
#
#
#
# Elastic Compliance Matrix: (Units=1/GPa)
#
#
# Indices 1 2 3 4 5 6 
#
# 1 0.016576 -0.003215 -0.003092 0.001203 0.018022 -0.003305
# 2 -0.003215 0.012797 -0.004120 -0.009651 -0.003090 0.003849
# 3 -0.003092 -0.004120 0.027613 -0.003770 0.010232 0.002932
# 4 0.001203 -0.009651 -0.003770 0.037989 0.000311 0.000639
# 5 0.018022 -0.003090 0.010232 0.000311 0.049977 -0.004300
# 6 -0.003305 0.003849 0.002932 0.000639 -0.004300 0.050030
#
#
# Mechanical properties :
#
#
# Convention : Reuss Voigt Hill
#
# Bulk Modulus (GPa) = 27.67683 63.68577 45.68130
# Shear Modulus (GPa) = 21.94157 33.58963 27.76560
#
# Velocity S-wave (km/s) = 3.05720 3.78262 3.43909
# Velocity P-wave (km/s) = 4.92458 6.79749 5.93537
#
# Compressibility (1/GPa) = 0.03613130
#
# Stress axis : x y z
#
# Youngs Moduli (GPa) = 60.32977 78.14322 36.21513
#
# Poissons Ratio (x) = 0.25123 0.11198
# Poissons Ratio (y) = 0.19396 0.14920
# Poissons Ratio (z) = 0.18655 0.32194
#
# Static dielectric constant tensor:
#      x y z
#    x 2.074770 -0.026440 0.255960 
#    y -0.026440 1.892590 -0.012160 
#    z 0.255960 -0.012160 2.553980 
# 
# From -- ./inp_files/44261.got.cif
#   From: 2010.05.17/outbox.cif.g08.bks.cpg/sg2_23_cif.got.tgz:44261.got - 2010.06.03 11:33:40.
