data_PCOD9084389
_publ_section_title
;
Structure prediction by ZEFSAII (Michael W. Deem and Ramdas Pophale) SiO2 
 PCOD9084389
Probable space group: P -1
;
_chemical_formula_sum "Si O2"
_cell_formula_units_Z 16
_cell_length_a 8.552602
_cell_length_b 12.004941
_cell_length_c 13.565472
_cell_angle_alpha 149.040366
_cell_angle_beta 55.843833
_cell_angle_gamma 109.568373
_cell_volume 556.689045
_symmetry_space_group_name_H-M "P -1"
_symmetry_group_IT_number 2
_symmetry_cell_setting 'triclinic'
loop_
_space_group_symop_operation_xyz
x,y,z
-x,-y,-z
loop_
_atom_site_type_symbol
_atom_site_label
_atom_site_fract_x
_atom_site_fract_y
_atom_site_fract_z
Si Si1 0.943631 0.880926 0.640916
Si Si2 0.807983 0.499966 0.919326
Si Si3 0.532897 0.502733 0.828698
Si Si4 0.732419 0.244136 0.157095
Si Si5 0.734576 0.723475 0.440373
Si Si6 0.539220 0.969900 0.133922
Si Si7 0.017122 0.376690 0.295594
Si Si8 0.296701 0.994103 0.621464
O O1 0.018151 0.601570 0.404557
O O2 0.106368 0.976859 0.607225
O O3 0.742188 0.896485 0.663528
O O4 0.872373 0.029880 0.878014
O O5 0.655080 0.491289 0.879174
O O6 0.041516 0.336313 0.724557
O O7 0.688926 0.483581 0.048741
O O8 0.807802 0.758667 0.106941
O O9 0.650876 0.264435 0.553057
O O10 0.514095 0.720532 0.935242
O O11 0.698495 0.485441 0.292715
O O12 0.836739 0.303965 0.263069
O O13 0.547309 0.169353 0.202266
O O14 0.524143 0.928841 0.651398
O O15 0.787274 0.843919 0.955513
O O16 0.000000 0.500000 0.500000
O O17 0.500000 0.000000 0.500000
#
# Coordination Sequence:
#
# PCOD9084389 Si02
#       8
#     2   2   2   2   2   2   2   2
#     4  11  21  40  65  86 123 164 208 255 308 363
#     4  10  20  39  68  87 119 160 208 256 311 371
#     4  10  21  39  63  94 116 157 211 262 305 361
#     4  11  24  43  64  89 124 169 212 247 306 371
#     4  11  24  41  59  90 129 170 204 250 314 378
#     4  12  24  40  60  92 132 161 204 259 317 365
#     4  11  23  41  63  91 119 156 208 265 298 356
#     4  10  19  34  64  90 111 150 212 260 299 354
#
# _framework density 28.741357000000001
#
# number of rings (size 3 to 8) (size 9 to 14) (size 15 to 20)
#    0.000    1.250    5.000    1.500    0.000    1.000 
#    2.250    0.000    0.000    1.500    0.000    0.000 
#    0.000    0.000    0.000    0.000    0.000    0.000 
#
# Total GULP energy -89136.061321 kJ/mol
# GULP energy per Si atom -5571.003833 kJ/mol
# Density = 2.867594 g / cm^3
# Si number density = 28.741357 Si / 1000 Ang^3
#
#
#
# Elastic Constant Matrix: (Units=GPa)
#
#
# Indices 1 2 3 4 5 6 
#
# 1 72.5847 28.7108 42.9719 11.7381 25.8750 29.6999
# 2 28.7108 116.2206 38.5521 16.1214 -2.6034 35.5247
# 3 42.9719 38.5521 211.0467 14.2901 -15.7266 22.2029
# 4 11.7381 16.1214 14.2901 42.4116 17.9048 -1.1038
# 5 25.8750 -2.6034 -15.7266 17.9048 57.9344 11.2696
# 6 29.6999 35.5247 22.2029 -1.1038 11.2696 50.6971
#
#
#
# Elastic Compliance Matrix: (Units=1/GPa)
#
#
# Indices 1 2 3 4 5 6 
#
# 1 0.024605 -0.002169 -0.004480 -0.000243 -0.010557 -0.008591
# 2 -0.002169 0.013058 -0.000107 -0.006860 0.005434 -0.009190
# 3 -0.004480 -0.000107 0.006364 -0.002954 0.004877 -0.001235
# 4 -0.000243 -0.006860 -0.002954 0.033053 -0.013140 0.009884
# 5 -0.010557 0.005434 0.004877 -0.013140 0.028862 -0.006461
# 6 -0.008591 -0.009190 -0.001235 0.009884 -0.006461 0.033390
#
#
# Mechanical properties :
#
#
# Convention : Reuss Voigt Hill
#
# Bulk Modulus (GPa) = 32.77231 68.92461 50.84846
# Shear Modulus (GPa) = 30.67188 49.51644 40.09416
#
# Velocity S-wave (km/s) = 3.27030 4.15520 3.73902
# Velocity P-wave (km/s) = 5.06824 6.85959 6.03080
#
# Compressibility (1/GPa) = 0.03051357
#
# Stress axis : x y z
#
# Youngs Moduli (GPa) = 40.64208 76.58041 157.14493
#
# Poissons Ratio (x) = 0.16611 0.70402
# Poissons Ratio (y) = 0.08816 0.01688
# Poissons Ratio (z) = 0.18208 0.00823
#
# Static dielectric constant tensor:
#      x y z
#    x 2.949380 -0.246710 0.067540 
#    y -0.246710 2.475330 -0.175700 
#    z 0.067540 -0.175700 2.255090 
# 
# From -- ./inp_files/595859.got.cif
#   From: 2010.05.17/outbox.cif.g08.bks.cpg/sg2_298_cif.got.tgz:595859.got - 2010.06.03 11:33:40.
