data_PCOD9084216
_publ_section_title
;
Structure prediction by ZEFSAII (Michael W. Deem and Ramdas Pophale) SiO2 
 PCOD9084216
Probable space group: P -1
;
_chemical_formula_sum "Si O2"
_cell_formula_units_Z 14
_cell_length_a 13.314944
_cell_length_b 5.487392
_cell_length_c 10.567200
_cell_angle_alpha 89.296248
_cell_angle_beta 136.336506
_cell_angle_gamma 87.742684
_cell_volume 531.719519
_symmetry_space_group_name_H-M "P -1"
_symmetry_group_IT_number 2
_symmetry_cell_setting 'triclinic'
loop_
_space_group_symop_operation_xyz
x,y,z
-x,-y,-z
loop_
_atom_site_type_symbol
_atom_site_label
_atom_site_fract_x
_atom_site_fract_y
_atom_site_fract_z
Si Si1 0.978807 0.887596 0.680802
Si Si2 0.892483 0.401217 0.556840
Si Si3 0.325798 0.511069 0.858856
Si Si4 0.380076 0.004810 0.002925
Si Si5 0.543923 0.172700 0.651936
Si Si6 0.760107 0.626224 0.655025
Si Si7 0.153537 0.014756 0.074329
O O1 0.939521 0.127635 0.562198
O O2 0.292799 0.771460 0.891364
O O3 0.831676 0.836474 0.630841
O O4 0.103650 0.973343 0.886522
O O5 0.752882 0.492525 0.347140
O O6 0.850313 0.402826 0.668761
O O7 0.002168 0.617176 0.642869
O O8 0.298451 0.271595 0.916040
O O9 0.500000 0.500000 0.000000
O O10 0.451735 0.956987 0.205998
O O11 0.500000 0.000000 0.000000
O O12 0.715626 0.195307 0.781999
O O13 0.500000 0.000000 0.500000
O O14 0.412286 0.380978 0.528388
O O15 0.789976 0.730646 0.821819
O O16 0.000000 0.000000 0.000000
#
# Coordination Sequence:
#
# PCOD9084216 Si02
#       7
#     2   2   2   2   2   2   2
#     4   9  20  34  60  86 128 167 211 257 318 383
#     4  10  19  34  61  92 120 165 217 255 319 379
#     4  10  20  33  59  91 125 163 208 260 322 382
#     4  10  21  37  62  93 132 165 206 260 332 378
#     4  10  20  39  68  99 136 163 223 271 325 380
#     4   8  18  33  59  92 124 160 211 270 319 371
#     4   9  18  39  61  93 126 179 214 265 321 391
#
# _framework density 26.329668999999999
#
# number of rings (size 3 to 8) (size 9 to 14) (size 15 to 20)
#    0.857    1.714    0.000    2.571    4.000    0.571 
#    0.000    2.143    9.429    5.143    0.000    0.000 
#    0.000    0.000    0.000    0.000    0.000    0.000 
#
# Total GULP energy -78107.228686 kJ/mol
# GULP energy per Si atom -5579.087763 kJ/mol
# Density = 2.626974 g / cm^3
# Si number density = 26.329669 Si / 1000 Ang^3
#
#
#
# Elastic Constant Matrix: (Units=GPa)
#
#
# Indices 1 2 3 4 5 6 
#
# 1 120.4848 34.7816 26.5013 15.4787 6.1343 -13.2648
# 2 34.7816 192.0456 33.8511 8.3062 -8.5098 2.9174
# 3 26.5013 33.8511 162.0409 16.3234 -0.6357 2.1288
# 4 15.4787 8.3062 16.3234 25.8324 -11.5231 -0.8600
# 5 6.1343 -8.5098 -0.6357 -11.5231 51.1829 3.5485
# 6 -13.2648 2.9174 2.1288 -0.8600 3.5485 36.8066
#
#
#
# Elastic Compliance Matrix: (Units=1/GPa)
#
#
# Indices 1 2 3 4 5 6 
#
# 1 0.010411 -0.001677 -0.000759 -0.006553 -0.003295 0.004093
# 2 -0.001677 0.005737 -0.000933 0.000286 0.001285 -0.001122
# 3 -0.000759 -0.000933 0.006898 -0.003997 -0.000836 -0.000611
# 4 -0.006553 0.000286 -0.003997 0.050486 0.012299 -0.002159
# 5 -0.003295 0.001285 -0.000836 0.012299 0.023126 -0.003183
# 6 0.004093 -0.001122 -0.000611 -0.002159 -0.003183 0.029025
#
#
# Mechanical properties :
#
#
# Convention : Reuss Voigt Hill
#
# Bulk Modulus (GPa) = 61.31930 73.87103 67.59517
# Shear Modulus (GPa) = 36.26976 48.06021 42.16498
#
# Velocity S-wave (km/s) = 3.71553 4.27702 4.00612
# Velocity P-wave (km/s) = 6.46115 7.24621 6.86491
#
# Compressibility (1/GPa) = 0.01630808
#
# Stress axis : x y z
#
# Youngs Moduli (GPa) = 96.05192 174.31066 144.97417
#
# Poissons Ratio (x) = 0.29224 0.11004
# Poissons Ratio (y) = 0.16103 0.13530
# Poissons Ratio (z) = 0.07291 0.16268
#
# Static dielectric constant tensor:
#      x y z
#    x 2.153790 0.056060 -0.018010 
#    y 0.056060 2.027770 0.045950 
#    z -0.018010 0.045950 1.976490 
# 
# From -- ./inp_files/379893.got.cif
#   From: 2010.05.17/outbox.cif.g08.bks.cpg/sg2_190_cif.got.tgz:379893.got - 2010.06.03 11:33:40.
