data_PCOD9084591
_publ_section_title
;
Structure prediction by ZEFSAII (Michael W. Deem and Ramdas Pophale) SiO2 
 PCOD9084591
Probable space group: P -1
;
_chemical_formula_sum "Si O2"
_cell_formula_units_Z 14
_cell_length_a 8.913711
_cell_length_b 8.070758
_cell_length_c 8.137069
_cell_angle_alpha 70.310572
_cell_angle_beta 105.432376
_cell_angle_gamma 101.996309
_cell_volume 526.761892
_symmetry_space_group_name_H-M "P -1"
_symmetry_group_IT_number 2
_symmetry_cell_setting 'triclinic'
loop_
_space_group_symop_operation_xyz
x,y,z
-x,-y,-z
loop_
_atom_site_type_symbol
_atom_site_label
_atom_site_fract_x
_atom_site_fract_y
_atom_site_fract_z
Si Si1 0.868845 0.432999 0.168193
Si Si2 0.393441 0.112540 0.585815
Si Si3 0.329042 0.058587 0.230445
Si Si4 0.352335 0.571717 0.569497
Si Si5 0.613436 0.520613 0.871475
Si Si6 0.107763 0.721360 0.240930
Si Si7 0.936629 0.801880 0.500246
O O1 0.754735 0.425394 0.298771
O O2 0.247351 0.594529 0.011208
O O3 0.973539 0.623826 0.119011
O O4 0.994090 0.304045 0.295607
O O5 0.313884 0.012338 0.436496
O O6 0.526766 0.253792 0.497945
O O7 0.251113 0.207669 0.582154
O O8 0.495463 0.983010 0.756676
O O9 0.319839 0.268682 0.164044
O O10 0.201771 0.912930 0.156803
O O11 0.494536 0.462024 0.706337
O O12 0.226250 0.582087 0.382958
O O13 0.500000 0.500000 0.000000
O O14 0.011452 0.749640 0.370134
O O15 0.000000 0.000000 0.500000
#
# Coordination Sequence:
#
# PCOD9084591 Si02
#       7
#     2   2   2   2   2   2   2
#     4  10  21  35  51  82 110 138 168 216 272 309
#     4   9  17  30  54  80 101 130 184 222 245 298
#     4   9  17  32  53  78 102 141 175 213 259 307
#     4   8  16  33  53  76  99 138 177 212 245 306
#     4   9  18  31  54  78 104 138 181 210 250 322
#     4  10  19  35  55  79 109 135 175 219 261 308
#     4  11  20  31  54  83 105 134 176 225 259 300
#
# _framework density 26.577472
#
# number of rings (size 3 to 8) (size 9 to 14) (size 15 to 20)
#    0.000    2.571    1.429    2.571    6.000    0.571 
#    0.000    9.286    0.000    0.857    3.714    0.000 
#    0.000    0.000    0.000    0.000    0.000    0.000 
#
# Total GULP energy -78052.291482 kJ/mol
# GULP energy per Si atom -5575.163677 kJ/mol
# Density = 2.651698 g / cm^3
# Si number density = 26.577472 Si / 1000 Ang^3
#
#
#
# Elastic Constant Matrix: (Units=GPa)
#
#
# Indices 1 2 3 4 5 6 
#
# 1 206.5279 47.2769 41.6437 -9.6842 18.3426 3.8681
# 2 47.2769 86.1836 28.7410 -10.2886 14.8888 29.1660
# 3 41.6437 28.7410 51.9837 -3.4429 17.9407 13.6243
# 4 -9.6842 -10.2886 -3.4429 25.8256 6.1391 1.7609
# 5 18.3426 14.8888 17.9407 6.1391 49.7349 11.8247
# 6 3.8681 29.1660 13.6243 1.7609 11.8247 52.7283
#
#
#
# Elastic Compliance Matrix: (Units=1/GPa)
#
#
# Indices 1 2 3 4 5 6 
#
# 1 0.006287 -0.002679 -0.003803 0.000817 -0.000756 0.002145
# 2 -0.002679 0.018778 -0.004930 0.006800 -0.001607 -0.008784
# 3 -0.003803 -0.004930 0.028287 0.002221 -0.006928 -0.002824
# 4 0.000817 0.006800 0.002221 0.044122 -0.007594 -0.004166
# 5 -0.000756 -0.001607 -0.006928 -0.007594 0.024921 -0.002601
# 6 0.002145 -0.008784 -0.002824 -0.004166 -0.002601 0.025118
#
#
# Mechanical properties :
#
#
# Convention : Reuss Voigt Hill
#
# Bulk Modulus (GPa) = 32.75420 64.44647 48.60034
# Shear Modulus (GPa) = 27.69882 40.79332 34.24607
#
# Velocity S-wave (km/s) = 3.23180 3.92201 3.59351
# Velocity P-wave (km/s) = 5.12610 6.69408 5.96186
#
# Compressibility (1/GPa) = 0.03053043
#
# Stress axis : x y z
#
# Youngs Moduli (GPa) = 159.05341 53.25299 35.35184
#
# Poissons Ratio (x) = 0.14264 0.13444
# Poissons Ratio (y) = 0.42603 0.17427
# Poissons Ratio (z) = 0.60487 0.26252
#
# Static dielectric constant tensor:
#      x y z
#    x 2.187000 -0.056340 0.059100 
#    y -0.056340 2.259070 -0.051340 
#    z 0.059100 -0.051340 2.106160 
# 
# From -- ./inp_files/375638.got.cif
#   From: 2010.05.17/outbox.cif.g08.bks.cpg/sg2_188_cif.got.tgz:375638.got - 2010.06.03 11:33:40.
