data_PCOD9084356
_publ_section_title
;
Structure prediction by ZEFSAII (Michael W. Deem and Ramdas Pophale) SiO2 
 PCOD9084356
Probable space group: P -1
;
_chemical_formula_sum "Si O2"
_cell_formula_units_Z 14
_cell_length_a 7.757946
_cell_length_b 5.161864
_cell_length_c 18.329821
_cell_angle_alpha 111.853667
_cell_angle_beta 110.705142
_cell_angle_gamma 78.293039
_cell_volume 635.122538
_symmetry_space_group_name_H-M "P -1"
_symmetry_group_IT_number 2
_symmetry_cell_setting 'triclinic'
loop_
_space_group_symop_operation_xyz
x,y,z
-x,-y,-z
loop_
_atom_site_type_symbol
_atom_site_label
_atom_site_fract_x
_atom_site_fract_y
_atom_site_fract_z
Si Si1 0.998120 0.869225 0.866617
Si Si2 0.733719 0.953933 0.186101
Si Si3 0.826420 0.337291 0.983603
Si Si4 0.708007 0.502508 0.744195
Si Si5 0.493362 0.450200 0.130174
Si Si6 0.461241 0.168930 0.585442
Si Si7 0.640761 0.216045 0.344758
O O1 0.087195 0.058138 0.839495
O O2 0.908422 0.610626 0.788732
O O3 0.142257 0.758572 0.938988
O O4 0.841274 0.053010 0.908074
O O5 0.587418 0.150594 0.136502
O O6 0.357416 0.471808 0.043137
O O7 0.646062 0.670765 0.165025
O O8 0.000000 0.500000 0.000000
O O9 0.634822 0.453577 0.809454
O O10 0.655684 0.248227 0.658934
O O11 0.567330 0.753688 0.717172
O O12 0.763818 0.117415 0.283605
O O13 0.344934 0.469351 0.591523
O O14 0.500000 0.000000 0.500000
O O15 0.356601 0.995916 0.610976
#
# Coordination Sequence:
#
# PCOD9084356 Si02
#       7
#     2   2   2   2   2   2   2
#     4  11  25  39  61  91 120 164 212 251 307 353
#     4  11  23  40  61  91 121 164 201 252 304 364
#     4  11  24  41  60  85 122 164 211 262 294 351
#     4   9  20  36  62  84 118 159 201 242 292 362
#     4  11  22  41  62  82 124 161 205 249 307 348
#     4  10  19  34  63  93 113 150 202 245 288 357
#     4   9  18  35  58  86 119 154 190 247 293 355
#
# _framework density 22.042988999999999
#
# number of rings (size 3 to 8) (size 9 to 14) (size 15 to 20)
#    0.857    0.857    2.857    2.143    4.000    1.143 
#    0.000    0.000    0.000    1.714    0.000    0.000 
#    0.000    0.000    0.000    0.000    0.000    0.000 
#
# Total GULP energy -78209.773093 kJ/mol
# GULP energy per Si atom -5586.412364 kJ/mol
# Density = 2.199282 g / cm^3
# Si number density = 22.042989 Si / 1000 Ang^3
#
#
#
# Elastic Constant Matrix: (Units=GPa)
#
#
# Indices 1 2 3 4 5 6 
#
# 1 52.7192 11.7493 26.5076 -0.6881 -10.0338 26.0821
# 2 11.7493 80.0558 9.9553 12.9280 5.8310 18.4170
# 3 26.5076 9.9553 89.0893 6.2187 -9.2410 9.4426
# 4 -0.6881 12.9280 6.2187 26.6203 0.8104 -2.6506
# 5 -10.0338 5.8310 -9.2410 0.8104 19.1209 0.9936
# 6 26.0821 18.4170 9.4426 -2.6506 0.9936 37.5060
#
#
#
# Elastic Compliance Matrix: (Units=1/GPa)
#
#
# Indices 1 2 3 4 5 6 
#
# 1 0.038539 -0.000214 -0.006810 -0.000406 0.018340 -0.025495
# 2 -0.000214 0.016157 -0.000789 -0.008328 -0.004650 -0.008051
# 3 -0.006810 -0.000789 0.013752 -0.002972 0.003368 0.001362
# 4 -0.000406 -0.008328 -0.002972 0.043152 -0.001365 0.008205
# 5 0.018340 -0.004650 0.003368 -0.001365 0.065710 -0.013156
# 6 -0.025495 -0.008051 0.001362 0.008205 -0.013156 0.048931
#
#
# Mechanical properties :
#
#
# Convention : Reuss Voigt Hill
#
# Bulk Modulus (GPa) = 18.93223 35.36541 27.14882
# Shear Modulus (GPa) = 19.26973 28.22624 23.74798
#
# Velocity S-wave (km/s) = 2.95988 3.58230 3.28586
# Velocity P-wave (km/s) = 4.50428 5.76100 5.17096
#
# Compressibility (1/GPa) = 0.05281999
#
# Stress axis : x y z
#
# Youngs Moduli (GPa) = 25.94776 61.89450 72.71857
#
# Poissons Ratio (x) = 0.01326 0.49521
# Poissons Ratio (y) = 0.00556 0.05740
# Poissons Ratio (z) = 0.17670 0.04885
#
# Static dielectric constant tensor:
#      x y z
#    x 1.839620 -0.048850 -0.013680 
#    y -0.048850 1.834200 0.039220 
#    z -0.013680 0.039220 1.824950 
# 
# From -- ./inp_files/585045.got.cif
#   From: 2010.05.17/outbox.cif.g08.bks.cpg/sg2_293_cif.got.tgz:585045.got - 2010.06.03 11:33:40.
