data_PCOD9084580
_publ_section_title
;
Structure prediction by ZEFSAII (Michael W. Deem and Ramdas Pophale) SiO2 
 PCOD9084580
Probable space group: P -1
;
_chemical_formula_sum "Si O2"
_cell_formula_units_Z 12
_cell_length_a 11.419104
_cell_length_b 11.933525
_cell_length_c 5.221230
_cell_angle_alpha 58.917555
_cell_angle_beta 99.473274
_cell_angle_gamma 123.398565
_cell_volume 501.551143
_symmetry_space_group_name_H-M "P -1"
_symmetry_group_IT_number 2
_symmetry_cell_setting 'triclinic'
loop_
_space_group_symop_operation_xyz
x,y,z
-x,-y,-z
loop_
_atom_site_type_symbol
_atom_site_label
_atom_site_fract_x
_atom_site_fract_y
_atom_site_fract_z
Si Si1 0.241426 0.678102 0.018826
Si Si2 0.674301 0.138933 0.659017
Si Si3 0.964632 0.138932 0.063119
Si Si4 0.465800 0.188121 0.243756
Si Si5 0.063324 0.321898 0.375032
Si Si6 0.777678 0.811877 0.619997
O O1 0.270064 0.796024 0.118414
O O2 0.122593 0.500000 0.246181
O O3 0.224355 0.735732 0.668515
O O4 0.393974 0.696775 0.006598
O O5 0.528611 0.133316 0.558583
O O6 0.636645 0.969081 0.770289
O O7 0.988621 0.264265 0.139985
O O8 0.104707 0.133318 0.174785
O O9 0.974042 0.203977 0.710463
O O10 0.832436 0.969078 0.291549
O O11 0.375835 0.251668 0.248334
O O12 0.197201 0.303229 0.400144
#
# Coordination Sequence:
#
# PCOD9084580 Si02
#       6
#     2   2   2   2   2   2
#     4  10  19  35  55  77 108 136 167 213 265 306
#     4   9  20  36  52  79 102 141 173 205 259 303
#     4   9  20  36  52  79 102 141 173 205 259 303
#     4   9  20  35  56  79 103 135 177 213 253 305
#     4  10  19  35  55  77 108 136 167 213 265 306
#     4   9  20  35  56  79 103 135 177 213 253 305
#
# _framework density 23.925775000000002
#
# number of rings (size 3 to 8) (size 9 to 14) (size 15 to 20)
#    2.000    0.667    0.000    2.000    0.000    2.000 
#    0.000    1.667    0.000    6.000    0.000    0.000 
#    0.000    0.000    0.000    0.000    0.000    0.000 
#
# Total GULP energy -67049.577840 kJ/mol
# GULP energy per Si atom -5587.464820 kJ/mol
# Density = 2.387132 g / cm^3
# Si number density = 23.925775 Si / 1000 Ang^3
#
#
#
# Elastic Constant Matrix: (Units=GPa)
#
#
# Indices 1 2 3 4 5 6 
#
# 1 106.5114 2.9559 19.7226 17.3720 -4.6158 -5.1084
# 2 2.9559 95.2408 45.4955 1.4796 14.2986 2.6844
# 3 19.7226 45.4955 112.0710 15.7011 7.4312 13.0815
# 4 17.3720 1.4796 15.7011 40.4608 1.1704 -3.8071
# 5 -4.6158 14.2986 7.4312 1.1704 33.7535 8.4479
# 6 -5.1084 2.6844 13.0815 -3.8071 8.4479 26.5842
#
#
#
# Elastic Compliance Matrix: (Units=1/GPa)
#
#
# Indices 1 2 3 4 5 6 
#
# 1 0.010455 0.000322 -0.001765 -0.003676 0.001335 0.001894
# 2 0.000322 0.014145 -0.006186 0.002263 -0.005612 0.003785
# 3 -0.001765 -0.006186 0.013189 -0.004871 0.001490 -0.007376
# 4 -0.003676 0.002263 -0.004871 0.028805 -0.003027 0.006549
# 5 0.001335 -0.005612 0.001490 -0.003027 0.034819 -0.011408
# 6 0.001894 0.003785 -0.007376 0.006549 -0.011408 0.045791
#
#
# Mechanical properties :
#
#
# Convention : Reuss Voigt Hill
#
# Bulk Modulus (GPa) = 44.38242 50.01902 47.20072
# Shear Modulus (GPa) = 29.41657 36.53633 32.97645
#
# Velocity S-wave (km/s) = 3.51022 3.91201 3.71655
# Velocity P-wave (km/s) = 5.91770 6.43090 6.17963
#
# Compressibility (1/GPa) = 0.02253144
#
# Stress axis : x y z
#
# Youngs Moduli (GPa) = 95.64918 70.69499 75.81915
#
# Poissons Ratio (x) = -0.02276 0.13384
# Poissons Ratio (y) = -0.03080 0.46900
# Poissons Ratio (z) = 0.16885 0.43730
#
# Static dielectric constant tensor:
#      x y z
#    x 2.077300 0.007260 0.024810 
#    y 0.007260 1.818170 0.038690 
#    z 0.024810 0.038690 1.855920 
# 
# From -- ./inp_files/79832.got.cif
#   From: 2010.05.17/outbox.cif.g08.bks.cpg/sg2_40_cif.got.tgz:79832.got - 2010.06.03 11:33:40.
