data_PCOD9084375
_publ_section_title
;
Structure prediction by ZEFSAII (Michael W. Deem and Ramdas Pophale) SiO2 
 PCOD9084375
Probable space group: P -1
;
_chemical_formula_sum "Si O2"
_cell_formula_units_Z 16
_cell_length_a 9.927057
_cell_length_b 9.097127
_cell_length_c 8.557045
_cell_angle_alpha 125.579788
_cell_angle_beta 85.163708
_cell_angle_gamma 90.413923
_cell_volume 625.423672
_symmetry_space_group_name_H-M "P -1"
_symmetry_group_IT_number 2
_symmetry_cell_setting 'triclinic'
loop_
_space_group_symop_operation_xyz
x,y,z
-x,-y,-z
loop_
_atom_site_type_symbol
_atom_site_label
_atom_site_fract_x
_atom_site_fract_y
_atom_site_fract_z
Si Si1 0.520148 0.575085 0.286214
Si Si2 0.637658 0.695035 0.658469
Si Si3 0.697581 0.357531 0.893574
Si Si4 0.917589 0.603963 0.939465
Si Si5 0.874152 0.905959 0.372483
Si Si6 0.896298 0.159580 0.299307
Si Si7 0.097138 0.416312 0.582754
Si Si8 0.805666 0.043126 0.911715
O O1 0.554526 0.699369 0.506776
O O2 0.447586 0.403933 0.263942
O O3 0.429934 0.675441 0.223773
O O4 0.647216 0.485328 0.122572
O O5 0.770054 0.567673 0.522758
O O6 0.699568 0.883665 0.819018
O O7 0.769747 0.181903 0.859084
O O8 0.792197 0.480228 0.855493
O O9 0.879604 0.793018 0.138418
O O10 0.029192 0.589552 0.785930
O O11 0.000000 0.500000 0.000000
O O12 0.850137 0.747397 0.401746
O O13 0.808358 0.087859 0.411497
O O14 0.000000 0.000000 0.500000
O O15 0.966322 0.336069 0.465707
O O16 0.807331 0.136264 0.138887
O O17 0.042941 0.045942 0.184094
#
# Coordination Sequence:
#
# PCOD9084375 Si02
#       8
#     2   2   2   2   2   2   2   2
#     4  10  24  46  69  89 133 174 237 279 330 386
#     4  10  22  44  69  94 129 178 222 288 335 391
#     4  11  24  44  67  96 128 179 224 281 330 405
#     4  10  19  34  63  98 132 163 217 270 337 408
#     4   9  17  31  59  90 131 174 211 254 317 404
#     4   9  19  36  59  97 140 171 206 270 346 415
#     4   9  18  36  62  98 133 169 212 273 345 407
#     4  10  21  39  67  94 134 171 224 274 342 402
#
# _framework density 25.582657000000001
#
# number of rings (size 3 to 8) (size 9 to 14) (size 15 to 20)
#    0.000    2.250    0.000    3.000    1.750    2.000 
#    6.750    0.625    0.000    2.250    0.000    0.000 
#    0.000    0.000    0.000    0.000    0.000    0.000 
#
# Total GULP energy -89239.932725 kJ/mol
# GULP energy per Si atom -5577.495795 kJ/mol
# Density = 2.552443 g / cm^3
# Si number density = 25.582657 Si / 1000 Ang^3
#
#
#
# Elastic Constant Matrix: (Units=GPa)
#
#
# Indices 1 2 3 4 5 6 
#
# 1 72.1286 32.9289 25.4740 4.6766 10.4496 13.9995
# 2 32.9289 81.8686 36.7027 -15.4937 23.5789 6.1884
# 3 25.4740 36.7027 113.9313 -16.4998 22.3855 5.4512
# 4 4.6766 -15.4937 -16.4998 39.0587 -0.6360 4.6447
# 5 10.4496 23.5789 22.3855 -0.6360 52.4502 -7.5446
# 6 13.9995 6.1884 5.4512 4.6447 -7.5446 46.3789
#
#
#
# Elastic Compliance Matrix: (Units=1/GPa)
#
#
# Indices 1 2 3 4 5 6 
#
# 1 0.019315 -0.007407 -0.002582 -0.005872 -0.000057 -0.003960
# 2 -0.007407 0.019733 -0.002142 0.007942 -0.006676 -0.002027
# 3 -0.002582 -0.002142 0.011437 0.004387 -0.003537 -0.001294
# 4 -0.005872 0.007942 0.004387 0.031676 -0.004420 -0.003694
# 5 -0.000057 -0.006676 -0.003537 -0.004420 0.024358 0.005729
# 6 -0.003960 -0.002027 -0.001294 -0.003694 0.005729 0.024481
#
#
# Mechanical properties :
#
#
# Convention : Reuss Voigt Hill
#
# Bulk Modulus (GPa) = 38.13411 50.90442 44.51927
# Shear Modulus (GPa) = 30.48713 39.09910 34.79311
#
# Velocity S-wave (km/s) = 3.45586 3.91365 3.69186
# Velocity P-wave (km/s) = 5.55541 6.35322 5.96766
#
# Compressibility (1/GPa) = 0.02622324
#
# Stress axis : x y z
#
# Youngs Moduli (GPa) = 51.77325 50.67621 87.43744
#
# Poissons Ratio (x) = 0.37534 0.22579
# Poissons Ratio (y) = 0.38346 0.18729
# Poissons Ratio (z) = 0.13369 0.10855
#
# Static dielectric constant tensor:
#      x y z
#    x 1.978730 -0.016170 -0.074860 
#    y -0.016170 2.246120 -0.037240 
#    z -0.074860 -0.037240 2.166710 
# 
# From -- ./inp_files/241078.got.cif
#   From: 2010.05.17/outbox.cif.g08.bks.cpg/sg2_121_cif.got.tgz:241078.got - 2010.06.03 11:33:40.
