data_PCOD9084014
_publ_section_title
;
Structure prediction by ZEFSAII (Michael W. Deem and Ramdas Pophale) SiO2 
 PCOD9084014
Probable space group: P -1
;
_chemical_formula_sum "Si O2"
_cell_formula_units_Z 14
_cell_length_a 12.051555
_cell_length_b 17.510624
_cell_length_c 9.076998
_cell_angle_alpha 147.962448
_cell_angle_beta 48.157760
_cell_angle_gamma 142.857360
_cell_volume 613.320574
_symmetry_space_group_name_H-M "P -1"
_symmetry_group_IT_number 2
_symmetry_cell_setting 'triclinic'
loop_
_space_group_symop_operation_xyz
x,y,z
-x,-y,-z
loop_
_atom_site_type_symbol
_atom_site_label
_atom_site_fract_x
_atom_site_fract_y
_atom_site_fract_z
Si Si1 0.364528 0.538059 0.893463
Si Si2 0.755491 0.888808 0.436024
Si Si3 0.704459 0.573800 0.788696
Si Si4 0.387628 0.072239 0.665060
Si Si5 0.150219 0.152430 0.412270
Si Si6 0.083799 0.846592 0.770280
Si Si7 0.193317 0.619563 0.437693
O O1 0.511276 0.522197 0.822606
O O2 0.247831 0.355163 0.609116
O O3 0.506213 0.737769 0.033593
O O4 0.227438 0.549270 0.141160
O O5 0.620598 0.889829 0.438599
O O6 0.734012 0.865873 0.592416
O O7 0.766733 0.728581 0.107711
O O8 0.954811 0.073549 0.534171
O O9 0.684014 0.403775 0.595856
O O10 0.871680 0.678366 0.694785
O O11 0.500000 0.000000 0.500000
O O12 0.179922 0.922798 0.653600
O O13 0.110095 0.015304 0.098159
O O14 0.199174 0.789320 0.663043
O O15 0.000000 0.500000 0.500000
#
# Coordination Sequence:
#
# PCOD9084014 Si02
#       7
#     2   2   2   2   2   2   2
#     4  11  21  36  66  85 121 159 211 246 299 360
#     4   9  20  37  62  87 121 160 200 241 314 357
#     4   9  19  35  63  89 112 162 213 242 288 363
#     4  11  23  40  63  87 123 170 202 240 303 384
#     4  10  21  38  62  94 120 154 202 266 303 344
#     4  10  22  40  60  90 127 156 203 251 308 361
#     4  10  19  34  59  90 118 158 204 252 287 363
#
# _framework density 22.826560000000001
#
# number of rings (size 3 to 8) (size 9 to 14) (size 15 to 20)
#    0.000    2.000    2.857    0.429    4.000    5.714 
#    0.000    3.571    0.000    0.000    0.000    0.000 
#    0.000    0.000    0.000    0.000    0.000    0.000 
#
# Total GULP energy -77995.557136 kJ/mol
# GULP energy per Si atom -5571.111224 kJ/mol
# Density = 2.277461 g / cm^3
# Si number density = 22.826560 Si / 1000 Ang^3
#
#
#
# Elastic Constant Matrix: (Units=GPa)
#
#
# Indices 1 2 3 4 5 6 
#
# 1 91.8052 15.4652 30.6503 3.8707 -22.0044 -4.3501
# 2 15.4652 128.7338 15.6730 9.7150 -5.6852 -8.0652
# 3 30.6503 15.6730 47.0927 16.0347 -21.2659 4.8271
# 4 3.8707 9.7150 16.0347 43.8859 -1.3631 -3.1746
# 5 -22.0044 -5.6852 -21.2659 -1.3631 36.1712 1.7346
# 6 -4.3501 -8.0652 4.8271 -3.1746 1.7346 27.7593
#
#
#
# Elastic Compliance Matrix: (Units=1/GPa)
#
#
# Indices 1 2 3 4 5 6 
#
# 1 0.014989 -0.000463 -0.009303 0.002571 0.003485 0.003908
# 2 -0.000463 0.008370 -0.002996 -0.000537 -0.000886 0.002874
# 3 -0.009303 -0.002996 0.043365 -0.014680 0.019423 -0.012762
# 4 0.002571 -0.000537 -0.014680 0.028309 -0.006393 0.006437
# 5 0.003485 -0.000886 0.019423 -0.006393 0.041112 -0.006389
# 6 0.003908 0.002874 -0.012762 0.006437 -0.006389 0.040826
#
#
# Mechanical properties :
#
#
# Convention : Reuss Voigt Hill
#
# Bulk Modulus (GPa) = 24.27266 43.46763 33.87015
# Shear Modulus (GPa) = 23.12367 35.28614 29.20491
#
# Velocity S-wave (km/s) = 3.18624 3.93598 3.58079
# Velocity P-wave (km/s) = 4.91862 6.30395 5.65388
#
# Compressibility (1/GPa) = 0.04119861
#
# Stress axis : x y z
#
# Youngs Moduli (GPa) = 66.71612 119.47690 23.06025
#
# Poissons Ratio (x) = 0.05534 0.21454
# Poissons Ratio (y) = 0.03090 0.06908
# Poissons Ratio (z) = 0.62069 0.35793
#
# Static dielectric constant tensor:
#      x y z
#    x 1.894390 0.000830 0.009120 
#    y 0.000830 1.952530 -0.005970 
#    z 0.009120 -0.005970 1.853800 
# 
# From -- ./inp_files/254297.got.cif
#   From: 2010.05.17/outbox.cif.g08.bks.cpg/sg2_128_cif.got.tgz:254297.got - 2010.06.03 11:33:40.
