data_PCOD9084352
_publ_section_title
;
Structure prediction by ZEFSAII (Michael W. Deem and Ramdas Pophale) SiO2 
 PCOD9084352
Probable space group: P -1
;
_chemical_formula_sum "Si O2"
_cell_formula_units_Z 12
_cell_length_a 5.576488
_cell_length_b 14.807349
_cell_length_c 10.371329
_cell_angle_alpha 140.221501
_cell_angle_beta 114.230717
_cell_angle_gamma 62.972092
_cell_volume 485.275010
_symmetry_space_group_name_H-M "P -1"
_symmetry_group_IT_number 2
_symmetry_cell_setting 'triclinic'
loop_
_space_group_symop_operation_xyz
x,y,z
-x,-y,-z
loop_
_atom_site_type_symbol
_atom_site_label
_atom_site_fract_x
_atom_site_fract_y
_atom_site_fract_z
Si Si1 0.960295 0.383304 0.757476
Si Si2 0.179780 0.053073 0.490037
Si Si3 0.622683 0.513375 0.186659
Si Si4 0.103445 0.684025 0.750188
Si Si5 0.454662 0.254978 0.247180
Si Si6 0.171365 0.039225 0.896020
O O1 0.098605 0.225730 0.665218
O O2 0.129859 0.411397 0.701919
O O3 0.638374 0.401098 0.696670
O O4 0.000000 0.500000 0.000000
O O5 0.500000 0.000000 0.500000
O O6 0.000000 0.000000 0.500000
O O7 0.068391 0.995829 0.274639
O O8 0.752297 0.369435 0.139759
O O9 0.500000 0.500000 0.000000
O O10 0.337359 0.661217 0.672311
O O11 0.813442 0.641146 0.635833
O O12 0.977325 0.860119 0.909384
O O13 0.616405 0.114870 0.209449
O O14 0.324063 0.161293 0.008285
#
# Coordination Sequence:
#
# PCOD9084352 Si02
#       6
#     2   2   2   2   2   2
#     4  10  23  39  58  81 127 164 203 240 304 373
#     4  12  28  40  63  96 129 166 205 262 317 367
#     4  10  21  35  59  83 120 161 204 244 297 376
#     4  10  19  34  63  92 114 159 213 251 302 366
#     4   9  20  36  62  94 115 162 205 269 303 358
#     4   9  23  36  63  89 129 151 213 261 312 354
#
# _framework density 24.728245999999999
#
# number of rings (size 3 to 8) (size 9 to 14) (size 15 to 20)
#    1.000    1.000    0.000    2.500   11.667    0.000 
#    0.000    0.000    0.000    6.000    0.000    0.000 
#    0.000    0.000    0.000    0.000    0.000    0.000 
#
# Total GULP energy -66905.039695 kJ/mol
# GULP energy per Si atom -5575.419975 kJ/mol
# Density = 2.467196 g / cm^3
# Si number density = 24.728246 Si / 1000 Ang^3
#
#
#
# Elastic Constant Matrix: (Units=GPa)
#
#
# Indices 1 2 3 4 5 6 
#
# 1 287.9356 90.2022 51.9488 18.7703 -10.6408 -25.2046
# 2 90.2022 114.5468 20.9915 20.5332 -5.6567 -22.3667
# 3 51.9488 20.9915 67.3452 14.5588 6.7319 -9.6717
# 4 18.7703 20.5332 14.5588 41.0459 -7.1446 5.7802
# 5 -10.6408 -5.6567 6.7319 -7.1446 36.4685 3.4622
# 6 -25.2046 -22.3667 -9.6717 5.7802 3.4622 59.0211
#
#
#
# Elastic Compliance Matrix: (Units=1/GPa)
#
#
# Indices 1 2 3 4 5 6 
#
# 1 0.005181 -0.003516 -0.003219 0.000803 0.001701 0.000174
# 2 -0.003516 0.013256 0.000528 -0.005915 -0.000627 0.004225
# 3 -0.003219 0.000528 0.019840 -0.007365 -0.006263 0.003165
# 4 0.000803 -0.005915 -0.007365 0.031819 0.007543 -0.006664
# 5 0.001701 -0.000627 -0.006263 0.007543 0.030746 -0.003080
# 6 0.000174 0.004225 0.003165 -0.006664 -0.003080 0.019971
#
#
# Mechanical properties :
#
#
# Convention : Reuss Voigt Hill
#
# Bulk Modulus (GPa) = 38.66394 88.45693 63.56043
# Shear Modulus (GPa) = 35.24893 47.75278 41.50086
#
# Velocity S-wave (km/s) = 3.77961 4.39920 4.10112
# Velocity P-wave (km/s) = 5.89209 7.85196 6.94154
#
# Compressibility (1/GPa) = 0.02586389
#
# Stress axis : x y z
#
# Youngs Moduli (GPa) = 193.01257 75.43664 50.40201
#
# Poissons Ratio (x) = 0.26522 0.16226
# Poissons Ratio (y) = 0.67860 -0.02663
# Poissons Ratio (z) = 0.62137 -0.03985
#
# Static dielectric constant tensor:
#      x y z
#    x 2.033190 0.016010 -0.009710 
#    y 0.016010 1.983740 -0.107430 
#    z -0.009710 -0.107430 2.079280 
# 
# From -- ./inp_files/367274.got.cif
#   From: 2010.05.17/outbox.cif.g08.bks.cpg/sg2_184_cif.got.tgz:367274.got - 2010.06.03 11:33:40.
