data_PCOD9084318
_publ_section_title
;
Structure prediction by ZEFSAII (Michael W. Deem and Ramdas Pophale) SiO2 
 PCOD9084318
Probable space group: P -1
;
_chemical_formula_sum "Si O2"
_cell_formula_units_Z 14
_cell_length_a 9.914534
_cell_length_b 15.131524
_cell_length_c 10.327009
_cell_angle_alpha 26.296744
_cell_angle_beta 107.575800
_cell_angle_gamma 110.717654
_cell_volume 641.547037
_symmetry_space_group_name_H-M "P -1"
_symmetry_group_IT_number 2
_symmetry_cell_setting 'triclinic'
loop_
_space_group_symop_operation_xyz
x,y,z
-x,-y,-z
loop_
_atom_site_type_symbol
_atom_site_label
_atom_site_fract_x
_atom_site_fract_y
_atom_site_fract_z
Si Si1 0.380695 0.830081 0.755710
Si Si2 0.155008 0.457160 0.142569
Si Si3 0.848263 0.130163 0.887439
Si Si4 0.553517 0.167309 0.683410
Si Si5 0.748455 0.957804 0.355693
Si Si6 0.582099 0.587137 0.282339
Si Si7 0.128268 0.311662 0.612832
O O1 0.500000 0.000000 0.500000
O O2 0.255315 0.927177 0.661390
O O3 0.288197 0.638001 0.903274
O O4 0.486145 0.739432 0.002101
O O5 0.177932 0.238609 0.380349
O O6 0.161242 0.449803 0.312625
O O7 0.000000 0.500000 0.000000
O O8 0.713916 0.137224 0.744782
O O9 0.979192 0.305633 0.652382
O O10 0.801763 0.115711 0.044689
O O11 0.886009 0.911144 0.161750
O O12 0.422815 0.127647 0.599635
O O13 0.571978 0.397659 0.433176
O O14 0.500000 0.000000 0.000000
O O15 0.500000 0.500000 0.500000
O O16 0.744728 0.662777 0.278494
#
# Coordination Sequence:
#
# PCOD9084318 Si02
#       7
#     2   2   2   2   2   2   2
#     4  12  27  45  70 102 136 183 232 283 341 412
#     4  11  25  46  66  97 139 185 226 279 349 408
#     4   9  19  36  61 101 130 168 215 278 346 394
#     4  10  19  34  63 100 128 166 215 281 335 393
#     4  10  21  44  69  90 138 177 224 279 347 401
#     4  12  20  40  69  97 130 169 232 277 336 399
#     4  10  21  38  66  97 134 172 222 283 332 405
#
# _framework density 21.822251999999999
#
# number of rings (size 3 to 8) (size 9 to 14) (size 15 to 20)
#    0.000    1.429    2.857    4.286    0.000    6.286 
#    2.571    0.000    0.000    0.000    0.000    0.000 
#    0.000    0.000    0.000    0.000    0.000    0.000 
#
# Total GULP energy -78072.212027 kJ/mol
# GULP energy per Si atom -5576.586573 kJ/mol
# Density = 2.177258 g / cm^3
# Si number density = 21.822252 Si / 1000 Ang^3
#
#
#
# Elastic Constant Matrix: (Units=GPa)
#
#
# Indices 1 2 3 4 5 6 
#
# 1 116.6894 6.1024 36.5928 3.4242 -0.5252 21.5232
# 2 6.1024 35.5338 13.7127 -5.5947 5.5199 0.6946
# 3 36.5928 13.7127 105.3455 1.8370 8.8656 -2.9913
# 4 3.4242 -5.5947 1.8370 21.4070 7.2438 9.9030
# 5 -0.5252 5.5199 8.8656 7.2438 37.4954 -0.3614
# 6 21.5232 0.6946 -2.9913 9.9030 -0.3614 39.3176
#
#
#
# Elastic Compliance Matrix: (Units=1/GPa)
#
#
# Indices 1 2 3 4 5 6 
#
# 1 0.011066 -0.000087 -0.004115 0.001392 0.000807 -0.006712
# 2 -0.000087 0.032862 -0.004052 0.013071 -0.006447 -0.004193
# 3 -0.004115 -0.004052 0.011748 -0.002622 -0.001695 0.003863
# 4 0.001392 0.013071 -0.002622 0.062622 -0.013548 -0.017090
# 5 0.000807 -0.006447 -0.001695 -0.013548 0.030680 0.003237
# 6 -0.006712 -0.004193 0.003863 -0.017090 0.003237 0.033811
#
#
# Mechanical properties :
#
#
# Convention : Reuss Voigt Hill
#
# Bulk Modulus (GPa) = 25.53179 41.15386 33.34282
# Shear Modulus (GPa) = 23.54581 33.05473 28.30027
#
# Velocity S-wave (km/s) = 3.28835 3.89617 3.60509
# Velocity P-wave (km/s) = 5.11302 6.25618 5.71326
#
# Compressibility (1/GPa) = 0.03916686
#
# Stress axis : x y z
#
# Youngs Moduli (GPa) = 90.36946 30.43015 85.12442
#
# Poissons Ratio (x) = 0.00265 0.35031
# Poissons Ratio (y) = 0.00788 0.34490
# Poissons Ratio (z) = 0.37189 0.12330
#
# Static dielectric constant tensor:
#      x y z
#    x 1.831060 -0.042830 -0.007640 
#    y -0.042830 1.843710 -0.014690 
#    z -0.007640 -0.014690 1.810160 
# 
# From -- ./inp_files/391831.got.cif
#   From: 2010.05.17/outbox.cif.g08.bks.cpg/sg2_196_cif.got.tgz:391831.got - 2010.06.03 11:33:40.
