data_PCOD9084190
_publ_section_title
;
Structure prediction by ZEFSAII (Michael W. Deem and Ramdas Pophale) SiO2 
 PCOD9084190
Probable space group: P -1
;
_chemical_formula_sum "Si O2"
_cell_formula_units_Z 16
_cell_length_a 16.129299
_cell_length_b 9.463304
_cell_length_c 14.453892
_cell_angle_alpha 28.102867
_cell_angle_beta 139.846933
_cell_angle_gamma 133.969637
_cell_volume 668.671178
_symmetry_space_group_name_H-M "P -1"
_symmetry_group_IT_number 2
_symmetry_cell_setting 'triclinic'
loop_
_space_group_symop_operation_xyz
x,y,z
-x,-y,-z
loop_
_atom_site_type_symbol
_atom_site_label
_atom_site_fract_x
_atom_site_fract_y
_atom_site_fract_z
Si Si1 0.868172 0.518181 0.251650
Si Si2 0.665814 0.854974 0.753766
Si Si3 0.493077 0.145481 0.214748
Si Si4 0.978365 0.667771 0.981430
Si Si5 0.278493 0.050938 0.601839
Si Si6 0.142655 0.731495 0.419615
Si Si7 0.737346 0.305735 0.029261
Si Si8 0.260118 0.753395 0.152219
O O1 0.837226 0.500512 0.346266
O O2 0.018551 0.624432 0.314485
O O3 0.844904 0.173983 0.396003
O O4 0.769082 0.707195 0.999214
O O5 0.538526 0.895076 0.680939
O O6 0.734794 0.163333 0.597167
O O7 0.656995 0.595236 0.817939
O O8 0.619332 0.034670 0.338788
O O9 0.374769 0.960929 0.171633
O O10 0.500000 0.500000 0.000000
O O11 0.120919 0.799267 0.051985
O O12 0.888495 0.427370 0.101319
O O13 0.000000 0.500000 0.000000
O O14 0.895948 0.958015 0.744757
O O15 0.270763 0.402142 0.385215
O O16 0.309992 0.949595 0.791438
O O17 0.732310 0.211992 0.972436
#
# Coordination Sequence:
#
# PCOD9084190 Si02
#       8
#     2   2   2   2   2   2   2   2
#     4  10  19  34  61  89 125 159 197 256 310 370
#     4  10  20  40  62  89 128 164 207 260 312 365
#     4  12  24  44  65  92 126 167 219 269 305 357
#     4   9  18  35  59  92 124 157 200 249 312 376
#     4  11  23  42  64  90 127 165 213 258 314 367
#     4  10  20  35  60  95 126 164 205 246 323 384
#     4   9  20  40  67  93 125 165 203 253 317 389
#     4  11  24  42  67  89 128 169 204 260 316 372
#
# _framework density 23.928052999999998
#
# number of rings (size 3 to 8) (size 9 to 14) (size 15 to 20)
#    0.000    1.750    2.500    3.750    0.000    3.000 
#    0.000   13.750    0.000    0.000    0.000    0.000 
#    0.000    0.000    0.000    0.000    0.000    0.000 
#
# Total GULP energy -89432.064000 kJ/mol
# GULP energy per Si atom -5589.504000 kJ/mol
# Density = 2.387359 g / cm^3
# Si number density = 23.928053 Si / 1000 Ang^3
#
#
#
# Elastic Constant Matrix: (Units=GPa)
#
#
# Indices 1 2 3 4 5 6 
#
# 1 171.2641 17.2382 35.7524 -5.4262 -17.3391 11.1143
# 2 17.2382 109.9391 14.6439 -12.0288 -8.7576 6.8021
# 3 35.7524 14.6439 76.3644 -8.2052 -17.4604 7.0279
# 4 -5.4262 -12.0288 -8.2052 21.7738 2.0378 -4.6336
# 5 -17.3391 -8.7576 -17.4604 2.0378 35.0744 -4.0676
# 6 11.1143 6.8021 7.0279 -4.6336 -4.0676 31.8059
#
#
#
# Elastic Compliance Matrix: (Units=1/GPa)
#
#
# Indices 1 2 3 4 5 6 
#
# 1 0.006683 -0.000486 -0.002499 -0.000020 0.001771 -0.001456
# 2 -0.000486 0.009969 -0.000746 0.004771 0.001495 -0.000911
# 3 -0.002499 -0.000746 0.016436 0.004316 0.006376 -0.001155
# 4 -0.000020 0.004771 0.004316 0.051289 0.001004 0.005633
# 5 0.001771 0.001495 0.006376 0.001004 0.033111 0.002033
# 6 -0.001456 -0.000911 -0.001155 0.005633 0.002033 0.033480
#
#
# Mechanical properties :
#
#
# Convention : Reuss Voigt Hill
#
# Bulk Modulus (GPa) = 39.02294 54.75963 46.89129
# Shear Modulus (GPa) = 29.94536 37.05971 33.50254
#
# Velocity S-wave (km/s) = 3.54146 3.93975 3.74590
# Velocity P-wave (km/s) = 5.75034 6.60532 6.19260
#
# Compressibility (1/GPa) = 0.02562595
#
# Stress axis : x y z
#
# Youngs Moduli (GPa) = 149.64268 100.31107 60.84251
#
# Poissons Ratio (x) = 0.04876 0.15204
# Poissons Ratio (y) = 0.07274 0.04538
# Poissons Ratio (z) = 0.37393 0.07482
#
# Static dielectric constant tensor:
#      x y z
#    x 1.931510 -0.024980 0.000700 
#    y -0.024980 1.956120 0.054770 
#    z 0.000700 0.054770 1.970380 
# 
# From -- ./inp_files/529239.got.cif
#   From: 2010.05.17/outbox.cif.g08.bks.cpg/sg2_265_cif.got.tgz:529239.got - 2010.06.03 11:33:40.
