data_PCOD9084926
_publ_section_title
;
Structure prediction by ZEFSAII (Michael W. Deem and Ramdas Pophale) SiO2 
 PCOD9084926
Probable space group: P -1
;
_chemical_formula_sum "Si O2"
_cell_formula_units_Z 16
_cell_length_a 8.744226
_cell_length_b 8.724058
_cell_length_c 11.098655
_cell_angle_alpha 132.546137
_cell_angle_beta 92.540689
_cell_angle_gamma 80.166926
_cell_volume 611.641554
_symmetry_space_group_name_H-M "P -1"
_symmetry_group_IT_number 2
_symmetry_cell_setting 'triclinic'
loop_
_space_group_symop_operation_xyz
x,y,z
-x,-y,-z
loop_
_atom_site_type_symbol
_atom_site_label
_atom_site_fract_x
_atom_site_fract_y
_atom_site_fract_z
Si Si1 0.244270 0.081653 0.515628
Si Si2 0.538616 0.307680 0.310146
Si Si3 0.527303 0.091626 0.916714
Si Si4 0.036585 0.575598 0.340018
Si Si5 0.468349 0.679000 0.334642
Si Si6 0.727376 0.524791 0.922500
Si Si7 0.164229 0.853681 0.144292
Si Si8 0.897567 0.228372 0.294094
O O1 0.374979 0.229533 0.600079
O O2 0.083804 0.233661 0.627834
O O3 0.329462 0.869345 0.476103
O O4 0.200354 0.988746 0.335983
O O5 0.500000 0.500000 0.500000
O O6 0.487376 0.441173 0.259468
O O7 0.719864 0.215454 0.261756
O O8 0.449499 0.134821 0.268922
O O9 0.691026 0.161091 0.948390
O O10 0.373714 0.243440 0.940980
O O11 0.500000 0.000000 0.000000
O O12 0.173285 0.490378 0.205638
O O13 0.091061 0.669491 0.517454
O O14 0.951762 0.389276 0.285632
O O15 0.404824 0.625273 0.173501
O O16 0.841040 0.388658 0.950771
O O17 0.008136 0.999173 0.167278
#
# Coordination Sequence:
#
# PCOD9084926 Si02
#       8
#     2   2   2   2   2   2   2   2
#     4   9  19  36  63  92 129 161 211 262 314 366
#     4  12  24  39  66  95 127 164 215 263 313 372
#     4  12  25  43  66  95 127 168 215 258 320 385
#     4  10  20  37  64  94 128 167 208 260 319 377
#     4  10  19  35  57  94 124 163 207 260 311 363
#     4  11  23  41  63  90 129 171 213 256 320 382
#     4  10  23  42  64  91 127 171 213 261 316 375
#     4  10  22  38  63  95 129 164 210 265 315 370
#
# _framework density 26.159112
#
# number of rings (size 3 to 8) (size 9 to 14) (size 15 to 20)
#    0.000    1.500    2.500    2.625    3.500    5.500 
#    0.000    4.375    0.000    0.000    0.000    0.000 
#    0.000    0.000    0.000    0.000    0.000    0.000 
#
# Total GULP energy -89417.097055 kJ/mol
# GULP energy per Si atom -5588.568566 kJ/mol
# Density = 2.609957 g / cm^3
# Si number density = 26.159112 Si / 1000 Ang^3
#
#
#
# Elastic Constant Matrix: (Units=GPa)
#
#
# Indices 1 2 3 4 5 6 
#
# 1 101.9647 50.2983 12.3975 12.6968 -27.8969 -4.3483
# 2 50.2983 121.5986 36.2976 41.9412 -34.5362 0.6779
# 3 12.3975 36.2976 76.2587 24.5912 -28.7624 -0.4039
# 4 12.6968 41.9412 24.5912 56.7888 -3.3099 -12.8943
# 5 -27.8969 -34.5362 -28.7624 -3.3099 49.3517 9.3849
# 6 -4.3483 0.6779 -0.4039 -12.8943 9.3849 41.5588
#
#
#
# Elastic Compliance Matrix: (Units=1/GPa)
#
#
# Indices 1 2 3 4 5 6 
#
# 1 0.013327 -0.004478 0.002165 -0.000250 0.005618 0.000142
# 2 -0.004478 0.017482 0.000599 -0.013195 0.010541 -0.007222
# 3 0.002165 0.000599 0.021411 -0.010758 0.014580 -0.006205
# 4 -0.000250 -0.013195 -0.010758 0.034399 -0.016074 0.014387
# 5 0.005618 0.010541 0.014580 -0.016074 0.040830 -0.013650
# 6 0.000142 -0.007222 -0.006205 0.014387 -0.013650 0.031681
#
#
# Mechanical properties :
#
#
# Convention : Reuss Voigt Hill
#
# Bulk Modulus (GPa) = 20.49430 55.31208 37.90319
# Shear Modulus (GPa) = 27.96074 42.92846 35.44460
#
# Velocity S-wave (km/s) = 3.27291 4.05538 3.68497
# Velocity P-wave (km/s) = 4.70468 6.56647 5.71194
#
# Compressibility (1/GPa) = 0.04879406
#
# Stress axis : x y z
#
# Youngs Moduli (GPa) = 75.03455 57.20036 46.70390
#
# Poissons Ratio (x) = 0.25613 -0.10112
# Poissons Ratio (y) = 0.33599 -0.02798
# Poissons Ratio (z) = -0.16246 -0.03427
#
# Static dielectric constant tensor:
#      x y z
#    x 2.118890 -0.135310 0.234210 
#    y -0.135310 1.836150 -0.107680 
#    z 0.234210 -0.107680 2.441740 
# 
# From -- ./inp_files/493865.got.cif
#   From: 2010.05.17/outbox.cif.g08.bks.cpg/sg2_247_cif.got.tgz:493865.got - 2010.06.03 11:33:40.
