data_PCOD9084846
_publ_section_title
;
Structure prediction by ZEFSAII (Michael W. Deem and Ramdas Pophale) SiO2 
 PCOD9084846
Probable space group: P -1
;
_chemical_formula_sum "Si O2"
_cell_formula_units_Z 14
_cell_length_a 17.398317
_cell_length_b 8.266228
_cell_length_c 12.690755
_cell_angle_alpha 95.953048
_cell_angle_beta 50.416215
_cell_angle_gamma 136.886023
_cell_volume 699.313959
_symmetry_space_group_name_H-M "P -1"
_symmetry_group_IT_number 2
_symmetry_cell_setting 'triclinic'
loop_
_space_group_symop_operation_xyz
x,y,z
-x,-y,-z
loop_
_atom_site_type_symbol
_atom_site_label
_atom_site_fract_x
_atom_site_fract_y
_atom_site_fract_z
Si Si1 0.188868 0.720227 0.919637
Si Si2 0.786224 0.614883 0.176107
Si Si3 0.336978 0.863245 0.200442
Si Si4 0.899296 0.729443 0.494231
Si Si5 0.935751 0.353570 0.748758
Si Si6 0.388126 0.048499 0.391698
Si Si7 0.376052 0.662915 0.468942
O O1 0.196113 0.534930 0.906507
O O2 0.394767 0.067372 0.708921
O O3 0.167647 0.762569 0.057262
O O4 0.000000 0.500000 0.000000
O O5 0.581867 0.409126 0.296401
O O6 0.738618 0.516932 0.334013
O O7 0.000000 0.000000 0.000000
O O8 0.211593 0.550679 0.350139
O O9 0.196081 0.764711 0.239414
O O10 0.424821 0.088817 0.236934
O O11 0.500000 0.000000 0.000000
O O12 0.744112 0.589487 0.538433
O O13 0.031188 0.791627 0.312843
O O14 0.000000 0.000000 0.500000
O O15 0.151559 0.752499 0.589690
O O16 0.387150 0.868885 0.438034
#
# Coordination Sequence:
#
# PCOD9084846 Si02
#       7
#     2   2   2   2   2   2   2
#     4  11  20  37  61  81 109 154 194 228 275 348
#     4  11  22  37  57  85 114 146 190 244 286 322
#     4  10  19  35  57  84 113 151 191 226 280 346
#     4  10  21  37  58  83 113 148 188 241 286 326
#     4  10  19  36  61  87 111 151 197 231 276 346
#     4   9  18  35  57  78 110 154 188 224 276 345
#     4   9  19  37  56  80 112 152 190 222 281 351
#
# _framework density 20.019622999999999
#
# number of rings (size 3 to 8) (size 9 to 14) (size 15 to 20)
#    0.000    2.286    0.000    8.571    0.000    2.286 
#    0.000    8.571    0.000    0.000    0.000    1.000 
#    0.000    0.000    0.000    0.000    0.000    0.000 
#
# Total GULP energy -78035.544029 kJ/mol
# GULP energy per Si atom -5573.967431 kJ/mol
# Density = 1.997406 g / cm^3
# Si number density = 20.019623 Si / 1000 Ang^3
#
#
#
# Elastic Constant Matrix: (Units=GPa)
#
#
# Indices 1 2 3 4 5 6 
#
# 1 75.9730 23.9441 32.6433 -8.0861 -3.4620 40.3760
# 2 23.9441 110.4070 42.8675 -6.8693 2.8925 22.2918
# 3 32.6433 42.8675 129.9234 4.0588 6.5351 11.2130
# 4 -8.0861 -6.8693 4.0588 29.8831 13.7593 -8.2107
# 5 -3.4620 2.8925 6.5351 13.7593 31.4315 2.0208
# 6 40.3760 22.2918 11.2130 -8.2107 2.0208 32.2317
#
#
#
# Elastic Compliance Matrix: (Units=1/GPa)
#
#
# Indices 1 2 3 4 5 6 
#
# 1 0.051517 0.005211 -0.009254 -0.009629 0.015729 -0.068358
# 2 0.005211 0.012325 -0.004284 0.000733 0.000873 -0.013429
# 3 -0.009254 -0.004284 0.010671 -0.000366 -0.003388 0.010961
# 4 -0.009629 0.000733 -0.000366 0.049355 -0.024315 0.025780
# 5 0.015729 0.000873 -0.003388 -0.024315 0.046632 -0.028246
# 6 -0.068358 -0.013429 0.010961 0.025780 -0.028246 0.130469
#
#
# Mechanical properties :
#
#
# Convention : Reuss Voigt Hill
#
# Bulk Modulus (GPa) = 17.28298 57.24592 37.26445
# Shear Modulus (GPa) = 14.84088 33.16585 24.00336
#
# Velocity S-wave (km/s) = 2.72567 4.07463 3.46640
# Velocity P-wave (km/s) = 4.30783 7.12698 5.88860
#
# Compressibility (1/GPa) = 0.05786038
#
# Stress axis : x y z
#
# Youngs Moduli (GPa) = 19.41101 81.13827 93.71168
#
# Poissons Ratio (x) = -0.42282 0.86719
# Poissons Ratio (y) = -0.10115 0.40142
# Poissons Ratio (z) = 0.17962 0.34756
#
# Static dielectric constant tensor:
#      x y z
#    x 1.719790 0.005750 -0.074090 
#    y 0.005750 1.759800 -0.019080 
#    z -0.074090 -0.019080 1.728170 
# 
# From -- ./inp_files/462214.got.cif
#   From: 2010.05.17/outbox.cif.g08.bks.cpg/sg2_232_cif.got.tgz:462214.got - 2010.06.03 11:33:40.
