data_PCOD9084089
_publ_section_title
;
Structure prediction by ZEFSAII (Michael W. Deem and Ramdas Pophale) SiO2 
 PCOD9084089
Probable space group: P -1
;
_chemical_formula_sum "Si O2"
_cell_formula_units_Z 14
_cell_length_a 13.839542
_cell_length_b 16.407145
_cell_length_c 7.274213
_cell_angle_alpha 113.122915
_cell_angle_beta 101.240193
_cell_angle_gamma 23.939870
_cell_volume 553.682164
_symmetry_space_group_name_H-M "P -1"
_symmetry_group_IT_number 2
_symmetry_cell_setting 'triclinic'
loop_
_space_group_symop_operation_xyz
x,y,z
-x,-y,-z
loop_
_atom_site_type_symbol
_atom_site_label
_atom_site_fract_x
_atom_site_fract_y
_atom_site_fract_z
Si Si1 0.198029 0.530803 0.030187
Si Si2 0.549857 0.345619 0.702368
Si Si3 0.672564 0.030588 0.766712
Si Si4 0.928820 0.171128 0.646291
Si Si5 0.083615 0.842372 0.785451
Si Si6 0.142985 0.283057 0.192967
Si Si7 0.423027 0.145697 0.463877
O O1 0.380146 0.423159 0.840927
O O2 0.381494 0.299874 0.977409
O O3 0.930030 0.709181 0.014307
O O4 0.138796 0.669394 0.240455
O O5 0.739670 0.266412 0.784205
O O6 0.331009 0.582757 0.724072
O O7 0.760099 0.108374 0.460240
O O8 0.619982 0.051190 0.550916
O O9 0.821599 0.826042 0.742372
O O10 0.841094 0.976683 0.817717
O O11 0.861946 0.190773 0.437502
O O12 0.000000 0.000000 0.000000
O O13 0.381743 0.146985 0.237817
O O14 0.871326 0.567705 0.356602
O O15 0.500000 0.000000 0.500000
#
# Coordination Sequence:
#
# PCOD9084089 Si02
#       7
#     2   2   2   2   2   2   2
#     4  11  21  38  62  87 122 159 204 255 305 360
#     4  11  24  40  61  84 120 164 209 258 302 358
#     4  10  19  34  60  87 124 160 199 252 305 360
#     4  11  26  40  58  86 121 165 210 256 305 353
#     4  12  25  40  60  87 125 166 210 253 301 362
#     4   9  17  32  59  92 120 155 200 248 307 367
#     4   8  16  31  56  95 121 150 201 248 302 371
#
# _framework density 25.285261999999999
#
# number of rings (size 3 to 8) (size 9 to 14) (size 15 to 20)
#    0.000    1.714    2.857    1.714    4.000    1.143 
#    0.000    0.000    0.000    0.857    0.000   15.000 
#    0.000    0.000    0.000    0.000    0.000    0.000 
#
# Total GULP energy -78001.201296 kJ/mol
# GULP energy per Si atom -5571.514378 kJ/mol
# Density = 2.522771 g / cm^3
# Si number density = 25.285262 Si / 1000 Ang^3
#
#
#
# Elastic Constant Matrix: (Units=GPa)
#
#
# Indices 1 2 3 4 5 6 
#
# 1 77.7626 44.6954 26.6978 19.5066 25.5801 -12.8248
# 2 44.6954 204.9957 45.3184 18.7348 15.8935 -2.3690
# 3 26.6978 45.3184 121.0096 -1.7742 37.9351 0.0792
# 4 19.5066 18.7348 -1.7742 35.1724 -8.2490 10.1171
# 5 25.5801 15.8935 37.9351 -8.2490 40.0297 2.9270
# 6 -12.8248 -2.3690 0.0792 10.1171 2.9270 56.5076
#
#
#
# Elastic Compliance Matrix: (Units=1/GPa)
#
#
# Indices 1 2 3 4 5 6 
#
# 1 0.031332 -0.002682 0.002313 -0.026037 -0.027471 0.013080
# 2 -0.002682 0.005964 -0.001938 -0.001546 0.000873 -0.000124
# 3 0.002313 -0.001938 0.012666 -0.003273 -0.013512 0.001712
# 4 -0.026037 -0.001546 -0.003273 0.056458 0.033290 -0.017802
# 5 -0.027471 0.000873 -0.013512 0.033290 0.062981 -0.015402
# 6 0.013080 -0.000124 0.001712 -0.017802 -0.015402 0.024643
#
#
# Mechanical properties :
#
#
# Convention : Reuss Voigt Hill
#
# Bulk Modulus (GPa) = 22.05164 70.79902 46.42533
# Shear Modulus (GPa) = 23.38939 45.47902 34.43420
#
# Velocity S-wave (km/s) = 3.04471 4.24564 3.69430
# Velocity P-wave (km/s) = 4.59352 7.21767 6.04960
#
# Compressibility (1/GPa) = 0.04534810
#
# Stress axis : x y z
#
# Youngs Moduli (GPa) = 31.91607 167.68562 78.95278
#
# Poissons Ratio (x) = 0.44978 -0.18266
# Poissons Ratio (y) = 0.08561 0.15301
# Poissons Ratio (z) = -0.07384 0.32496
#
# Static dielectric constant tensor:
#      x y z
#    x 2.143240 -0.033280 -0.063550 
#    y -0.033280 2.025050 0.034450 
#    z -0.063550 0.034450 2.191550 
# 
# From -- ./inp_files/337334.got.cif
#   From: 2010.05.17/outbox.cif.g08.bks.cpg/sg2_169_cif.got.tgz:337334.got - 2010.06.03 11:33:40.
