data_PCOD9084533
_publ_section_title
;
Structure prediction by ZEFSAII (Michael W. Deem and Ramdas Pophale) SiO2 
 PCOD9084533
Probable space group: P -1
;
_chemical_formula_sum "Si O2"
_cell_formula_units_Z 14
_cell_length_a 9.621734
_cell_length_b 19.956126
_cell_length_c 8.205229
_cell_angle_alpha 92.542844
_cell_angle_beta 88.552828
_cell_angle_gamma 151.081005
_cell_volume 760.821004
_symmetry_space_group_name_H-M "P -1"
_symmetry_group_IT_number 2
_symmetry_cell_setting 'triclinic'
loop_
_space_group_symop_operation_xyz
x,y,z
-x,-y,-z
loop_
_atom_site_type_symbol
_atom_site_label
_atom_site_fract_x
_atom_site_fract_y
_atom_site_fract_z
Si Si1 0.483771 0.319548 0.846357
Si Si2 0.496624 0.594434 0.648691
Si Si3 0.028698 0.966769 0.333651
Si Si4 0.318310 0.200157 0.192512
Si Si5 0.084661 0.584286 0.353931
Si Si6 0.347293 0.771250 0.643392
Si Si7 0.290553 0.458157 0.284359
O O1 0.750982 0.388215 0.782907
O O2 0.580917 0.437526 0.842104
O O3 0.227361 0.190929 0.716230
O O4 0.378237 0.253534 0.019265
O O5 0.706674 0.746368 0.681801
O O6 0.422962 0.543378 0.459493
O O7 0.612345 0.577457 0.731777
O O8 0.192629 0.494163 0.711842
O O9 0.059821 0.038097 0.201971
O O10 0.340841 0.062178 0.338812
O O11 0.000000 0.000000 0.500000
O O12 0.583860 0.266712 0.257161
O O13 0.289731 0.724219 0.454327
O O14 0.000000 0.500000 0.500000
O O15 0.055469 0.681625 0.705262
#
# Coordination Sequence:
#
# PCOD9084533 Si02
#       7
#     2   2   2   2   2   2   2
#     4  12  20  32  57  81 112 135 176 219 277 306
#     4  10  19  35  54  79 112 134 186 212 264 309
#     4  10  19  35  58  77 104 140 178 226 257 313
#     4  10  21  33  52  83 110 138 174 222 269 313
#     4  11  16  33  56  81 102 137 181 224 253 310
#     4   9  18  34  53  80 103 136 182 214 263 304
#     4  10  20  34  58  78 104 148 174 223 254 315
#
# _framework density 18.401174999999999
#
# number of rings (size 3 to 8) (size 9 to 14) (size 15 to 20)
#    0.857    0.857    5.714    1.286    0.000    2.857 
#    0.000    0.000    3.143    4.286    0.000    0.000 
#    0.000    0.000    0.000    0.000    0.000    0.000 
#
# Total GULP energy -77950.822265 kJ/mol
# GULP energy per Si atom -5567.915876 kJ/mol
# Density = 1.835929 g / cm^3
# Si number density = 18.401175 Si / 1000 Ang^3
#
#
#
# Elastic Constant Matrix: (Units=GPa)
#
#
# Indices 1 2 3 4 5 6 
#
# 1 114.6573 33.6220 4.2505 -4.0264 9.9020 9.7303
# 2 33.6220 62.5881 -4.0543 -1.3272 -2.8883 5.7310
# 3 4.2505 -4.0543 49.3062 -11.8184 4.7284 4.6272
# 4 -4.0264 -1.3272 -11.8184 26.4386 -4.3983 0.6203
# 5 9.9020 -2.8883 4.7284 -4.3983 13.7555 1.1712
# 6 9.7303 5.7310 4.6272 0.6203 1.1712 11.8335
#
#
#
# Elastic Compliance Matrix: (Units=1/GPa)
#
#
# Indices 1 2 3 4 5 6 
#
# 1 0.011862 -0.006281 -0.000098 0.000031 -0.009324 -0.005752
# 2 -0.006281 0.020672 0.002717 0.003040 0.009497 -0.007008
# 3 -0.000098 0.002717 0.024448 0.010745 -0.003389 -0.011023
# 4 0.000031 0.003040 0.010745 0.045015 0.012104 -0.009257
# 5 -0.009324 0.009497 -0.003389 0.012104 0.086852 -0.004838
# 6 -0.005752 -0.007008 -0.011023 -0.009257 -0.004838 0.097904
#
#
# Mechanical properties :
#
#
# Convention : Reuss Voigt Hill
#
# Bulk Modulus (GPa) = 20.13759 32.68755 26.41257
# Shear Modulus (GPa) = 16.09634 23.25440 19.67537
#
# Velocity S-wave (km/s) = 2.96082 3.55878 3.27348
# Velocity P-wave (km/s) = 4.75983 5.88973 5.35467
#
# Compressibility (1/GPa) = 0.04965838
#
# Stress axis : x y z
#
# Youngs Moduli (GPa) = 84.30513 48.37411 40.90265
#
# Poissons Ratio (x) = 0.30385 0.00399
# Poissons Ratio (y) = 0.52954 -0.11113
# Poissons Ratio (z) = 0.00822 -0.13143
#
# Static dielectric constant tensor:
#      x y z
#    x 1.621340 -0.006930 0.000680 
#    y -0.006930 1.688430 0.009450 
#    z 0.000680 0.009450 1.666640 
# 
# From -- ./inp_files/222155.got.cif
#   From: 2010.05.17/outbox.cif.g08.bks.cpg/sg2_112_cif.got.tgz:222155.got - 2010.06.03 11:33:40.
