data_PCOD9084503
_publ_section_title
;
Structure prediction by ZEFSAII (Michael W. Deem and Ramdas Pophale) SiO2 
 PCOD9084503
Probable space group: P -1
;
_chemical_formula_sum "Si O2"
_cell_formula_units_Z 12
_cell_length_a 4.817486
_cell_length_b 19.053348
_cell_length_c 10.614346
_cell_angle_alpha 145.181844
_cell_angle_beta 91.299048
_cell_angle_gamma 82.505200
_cell_volume 545.371057
_symmetry_space_group_name_H-M "P -1"
_symmetry_group_IT_number 2
_symmetry_cell_setting 'triclinic'
loop_
_space_group_symop_operation_xyz
x,y,z
-x,-y,-z
loop_
_atom_site_type_symbol
_atom_site_label
_atom_site_fract_x
_atom_site_fract_y
_atom_site_fract_z
Si Si1 0.245307 0.378176 0.345029
Si Si2 0.201170 0.077734 0.277260
Si Si3 0.635302 0.221080 0.468695
Si Si4 0.027412 0.841227 0.865232
Si Si5 0.416565 0.470279 0.247186
Si Si6 0.155144 0.470642 0.827073
O O1 0.284929 0.793289 0.700048
O O2 0.388477 0.360107 0.181883
O O3 0.653123 0.435920 0.090299
O O4 0.543258 0.569953 0.481159
O O5 0.950663 0.192830 0.487451
O O6 0.496844 0.110381 0.361300
O O7 0.127920 0.943600 0.105776
O O8 0.191195 0.089145 0.140076
O O9 0.398553 0.345790 0.660859
O O10 0.109118 0.264166 0.224686
O O11 0.000000 0.500000 0.500000
O O12 0.109680 0.528602 0.269741
O O13 0.000000 0.500000 0.000000
#
# Coordination Sequence:
#
# PCOD9084503 Si02
#       6
#     2   2   2   2   2   2
#     4  11  21  39  60  88 128 164 186 245 314 376
#     4   9  19  34  54  83 122 153 195 242 298 368
#     4  10  19  35  53  83 117 151 195 250 297 350
#     4   9  20  33  57  85 122 158 194 236 305 375
#     4  11  24  40  55  90 120 159 205 238 310 358
#     4  12  24  41  62  85 120 164 210 253 292 347
#
# _framework density 22.003367999999998
#
# number of rings (size 3 to 8) (size 9 to 14) (size 15 to 20)
#    1.000    0.667    1.667    4.000    0.000    1.333 
#    0.000    0.000    0.000    0.000    0.000    7.000 
#    0.000    0.000    0.000    0.000    0.000    0.000 
#
# Total GULP energy -66847.276187 kJ/mol
# GULP energy per Si atom -5570.606349 kJ/mol
# Density = 2.195329 g / cm^3
# Si number density = 22.003368 Si / 1000 Ang^3
#
#
#
# Elastic Constant Matrix: (Units=GPa)
#
#
# Indices 1 2 3 4 5 6 
#
# 1 135.4785 44.6495 27.8147 -0.2864 -14.1982 25.6214
# 2 44.6495 132.3415 43.9964 7.7389 0.7305 45.9258
# 3 27.8147 43.9964 57.8743 -9.3583 -27.6612 9.1291
# 4 -0.2864 7.7389 -9.3583 29.8909 9.2435 0.9288
# 5 -14.1982 0.7305 -27.6612 9.2435 37.8270 -2.1263
# 6 25.6214 45.9258 9.1291 0.9288 -2.1263 50.2091
#
#
#
# Elastic Compliance Matrix: (Units=1/GPa)
#
#
# Indices 1 2 3 4 5 6 
#
# 1 0.008986 -0.001278 -0.002108 -0.000729 0.001869 -0.002940
# 2 -0.001278 0.020840 -0.021500 -0.006788 -0.015791 -0.015044
# 3 -0.002108 -0.021500 0.051114 0.010265 0.035210 0.012749
# 4 -0.000729 -0.006788 0.010265 0.038891 -0.001920 0.003914
# 5 0.001869 -0.015791 0.035210 -0.001920 0.054189 0.009419
# 6 -0.002940 -0.015044 0.012749 0.003914 0.009419 0.033186
#
#
# Mechanical properties :
#
#
# Convention : Reuss Voigt Hill
#
# Bulk Modulus (GPa) = 32.08554 62.06839 47.07696
# Shear Modulus (GPa) = 18.70094 37.53432 28.11763
#
# Velocity S-wave (km/s) = 2.91849 4.13467 3.57862
# Velocity P-wave (km/s) = 5.09613 7.14589 6.20622
#
# Compressibility (1/GPa) = 0.03116669
#
# Stress axis : x y z
#
# Youngs Moduli (GPa) = 111.28899 47.98506 19.56423
#
# Poissons Ratio (x) = 0.06134 0.04123
# Poissons Ratio (y) = 0.14225 0.42064
# Poissons Ratio (z) = 0.23455 1.03170
#
# Static dielectric constant tensor:
#      x y z
#    x 1.885940 0.013250 -0.009380 
#    y 0.013250 1.888920 0.009360 
#    z -0.009380 0.009360 1.919670 
# 
# From -- ./inp_files/134636.got.cif
#   From: 2010.05.17/outbox.cif.g08.bks.cpg/sg2_68_cif.got.tgz:134636.got - 2010.06.03 11:33:40.
