data_PCOD9084973
_publ_section_title
;
Structure prediction by ZEFSAII (Michael W. Deem and Ramdas Pophale) SiO2 
 PCOD9084973
Probable space group: P -1
;
_chemical_formula_sum "Si O2"
_cell_formula_units_Z 12
_cell_length_a 6.566544
_cell_length_b 11.863605
_cell_length_c 11.926400
_cell_angle_alpha 37.815760
_cell_angle_beta 53.308482
_cell_angle_gamma 47.122575
_cell_volume 413.713389
_symmetry_space_group_name_H-M "P -1"
_symmetry_group_IT_number 2
_symmetry_cell_setting 'triclinic'
loop_
_space_group_symop_operation_xyz
x,y,z
-x,-y,-z
loop_
_atom_site_type_symbol
_atom_site_label
_atom_site_fract_x
_atom_site_fract_y
_atom_site_fract_z
Si Si1 0.386673 0.828887 0.208480
Si Si2 0.312391 0.467480 0.218591
Si Si3 0.514519 0.823028 0.914758
Si Si4 0.367287 0.415463 0.479653
Si Si5 0.985789 0.700924 0.691398
Si Si6 0.786982 0.051134 0.299120
O O1 0.470893 0.866351 0.026955
O O2 0.302549 0.638187 0.371903
O O3 0.606251 0.741003 0.307551
O O4 0.100622 0.011612 0.196345
O O5 0.398216 0.651485 0.063982
O O6 0.211163 0.430255 0.403018
O O7 0.582316 0.273007 0.237029
O O8 0.693112 0.340200 0.386791
O O9 0.072341 0.481621 0.199185
O O10 0.831015 0.746770 0.825172
O O11 0.339612 0.983627 0.749963
O O12 0.825238 0.891337 0.511305
#
# Coordination Sequence:
#
# PCOD9084973 Si02
#       6
#     2   2   2   2   2   2
#     4   9  19  34  54  79 112 145 174 222 276 319
#     4  10  20  35  60  82 106 143 185 224 263 320
#     4  10  19  35  58  82 109 143 181 223 271 319
#     4   9  20  38  56  79 110 146 182 217 270 326
#     4  10  20  35  60  82 106 143 185 224 263 320
#     4  10  19  35  58  82 109 143 181 223 271 319
#
# _framework density 29.005590999999999
#
# number of rings (size 3 to 8) (size 9 to 14) (size 15 to 20)
#    0.000    2.333    0.000    4.500    0.000    5.333 
#    0.000   20.833    0.000   27.000    0.000    1.167 
#    0.000    0.000    0.000    0.000    0.000    0.000 
#
# Total GULP energy -67306.483982 kJ/mol
# GULP energy per Si atom -5608.873665 kJ/mol
# Density = 2.893957 g / cm^3
# Si number density = 29.005591 Si / 1000 Ang^3
#
#
#
# Elastic Constant Matrix: (Units=GPa)
#
#
# Indices 1 2 3 4 5 6 
#
# 1 82.4345 22.6780 31.9503 18.2879 15.7171 23.1515
# 2 22.6780 94.0485 52.8123 39.7320 12.0092 11.4390
# 3 31.9503 52.8123 190.1303 34.7684 9.8209 17.7299
# 4 18.2879 39.7320 34.7684 68.1397 8.6540 17.9029
# 5 15.7171 12.0092 9.8209 8.6540 62.9023 14.1702
# 6 23.1515 11.4390 17.7299 17.9029 14.1702 41.4659
#
#
#
# Elastic Compliance Matrix: (Units=1/GPa)
#
#
# Indices 1 2 3 4 5 6 
#
# 1 0.015460 -0.001756 -0.001304 -0.000453 -0.001729 -0.006803
# 2 -0.001756 0.015806 -0.002785 -0.007551 -0.001459 0.001570
# 3 -0.001304 -0.002785 0.006535 -0.001158 0.000191 -0.000863
# 4 -0.000453 -0.007551 -0.001158 0.021474 0.000251 -0.006526
# 5 -0.001729 -0.001459 0.000191 0.000251 0.017636 -0.004849
# 6 -0.006803 0.001570 -0.000863 -0.006526 -0.004849 0.032326
#
#
# Mechanical properties :
#
#
# Convention : Reuss Voigt Hill
#
# Bulk Modulus (GPa) = 38.29956 64.61050 51.45503
# Shear Modulus (GPa) = 38.57137 51.77977 45.17557
#
# Velocity S-wave (km/s) = 3.65059 4.22970 3.95077
# Velocity P-wave (km/s) = 5.56793 6.79540 6.21206
#
# Compressibility (1/GPa) = 0.02610996
#
# Stress axis : x y z
#
# Youngs Moduli (GPa) = 64.68242 63.26828 153.03001
#
# Poissons Ratio (x) = 0.11111 0.19949
# Poissons Ratio (y) = 0.11360 0.42626
# Poissons Ratio (z) = 0.08432 0.17623
#
# Static dielectric constant tensor:
#      x y z
#    x 2.334490 -0.019270 -0.024310 
#    y -0.019270 2.262630 -0.016540 
#    z -0.024310 -0.016540 2.284420 
# 
# From -- ./inp_files/395181.got.cif
#   From: 2010.05.17/outbox.cif.g08.bks.cpg/sg2_198_cif.got.tgz:395181.got - 2010.06.03 11:33:40.
