data_PCOD9084589
_publ_section_title
;
Structure prediction by ZEFSAII (Michael W. Deem and Ramdas Pophale) SiO2 
 PCOD9084589
Probable space group: P -1
;
_chemical_formula_sum "Si O2"
_cell_formula_units_Z 16
_cell_length_a 11.816767
_cell_length_b 7.073953
_cell_length_c 7.818099
_cell_angle_alpha 88.300204
_cell_angle_beta 109.825834
_cell_angle_gamma 80.903210
_cell_volume 604.611560
_symmetry_space_group_name_H-M "P -1"
_symmetry_group_IT_number 2
_symmetry_cell_setting 'triclinic'
loop_
_space_group_symop_operation_xyz
x,y,z
-x,-y,-z
loop_
_atom_site_type_symbol
_atom_site_label
_atom_site_fract_x
_atom_site_fract_y
_atom_site_fract_z
Si Si1 0.473098 0.784613 0.980574
Si Si2 0.974800 0.032006 0.788772
Si Si3 0.777155 0.133707 0.234783
Si Si4 0.275339 0.304892 0.742741
Si Si5 0.787625 0.620217 0.689190
Si Si6 0.971698 0.543701 0.283747
Si Si7 0.476056 0.205036 0.386966
Si Si8 0.731130 0.237875 0.594293
O O1 0.332820 0.776268 0.952392
O O2 0.485431 0.756177 0.785922
O O3 0.587368 0.669167 0.144392
O O4 0.500000 0.000000 0.000000
O O5 0.828527 0.041117 0.688903
O O6 0.000006 0.243081 0.741402
O O7 0.081528 0.891778 0.745084
O O8 0.000000 0.000000 0.000000
O O9 0.758901 0.240907 0.404412
O O10 0.746500 0.916471 0.246087
O O11 0.247087 0.350257 0.529892
O O12 0.174083 0.432545 0.807900
O O13 0.670359 0.746176 0.708553
O O14 0.773576 0.401726 0.722854
O O15 0.933475 0.607577 0.775582
O O16 0.000000 0.500000 0.500000
O O17 0.584783 0.283093 0.541970
O O18 0.500000 0.000000 0.500000
#
# Coordination Sequence:
#
# PCOD9084589 Si02
#       8
#     2   2   2   2   2   2   2   2
#     4   9  18  33  54  79 104 136 184 230 269 319
#     4  10  20  33  55  87 116 144 190 246 283 318
#     4   9  18  35  55  79 109 150 191 222 274 348
#     4   9  17  34  58  78 104 147 191 226 266 331
#     4  10  19  35  55  79 108 142 185 235 281 331
#     4   8  17  34  56  78 110 154 189 220 278 346
#     4  11  22  36  56  81 107 143 188 231 280 340
#     4  10  21  36  54  79 113 152 185 224 284 347
#
# _framework density 26.463272
#
# number of rings (size 3 to 8) (size 9 to 14) (size 15 to 20)
#    0.000    2.500    0.000    3.000    0.000    4.000 
#    0.000    6.875    0.000    0.000    0.000    0.000 
#    0.000    0.000    0.000    0.000    0.000    0.000 
#
# Total GULP energy -89180.797883 kJ/mol
# GULP energy per Si atom -5573.799868 kJ/mol
# Density = 2.640304 g / cm^3
# Si number density = 26.463272 Si / 1000 Ang^3
#
#
#
# Elastic Constant Matrix: (Units=GPa)
#
#
# Indices 1 2 3 4 5 6 
#
# 1 134.9480 32.6206 17.7920 -15.3922 26.6616 -8.5439
# 2 32.6206 56.4833 0.5785 -13.6404 3.0004 -8.0992
# 3 17.7920 0.5785 70.4020 -12.8860 17.5363 2.9376
# 4 -15.3922 -13.6404 -12.8860 17.7685 -0.7249 8.3858
# 5 26.6616 3.0004 17.5363 -0.7249 44.6701 -7.4933
# 6 -8.5439 -8.0992 2.9376 8.3858 -7.4933 39.4765
#
#
#
# Elastic Compliance Matrix: (Units=1/GPa)
#
#
# Indices 1 2 3 4 5 6 
#
# 1 0.010214 -0.004338 0.000023 0.005779 -0.005892 -0.001027
# 2 -0.004338 0.024607 0.004408 0.018417 -0.000534 -0.000232
# 3 0.000023 0.004408 0.020635 0.021243 -0.009221 -0.006889
# 4 0.005779 0.018417 0.021243 0.099947 -0.014860 -0.020603
# 5 -0.005892 -0.000534 -0.009221 -0.014860 0.030708 0.008287
# 6 -0.001027 -0.000232 -0.006889 -0.020603 0.008287 0.031524
#
#
# Mechanical properties :
#
#
# Convention : Reuss Voigt Hill
#
# Bulk Modulus (GPa) = 17.97243 40.42393 29.19818
# Shear Modulus (GPa) = 21.18674 34.43916 27.81295
#
# Velocity S-wave (km/s) = 2.83257 3.61140 3.24543
# Velocity P-wave (km/s) = 4.18380 5.71824 5.01011
#
# Compressibility (1/GPa) = 0.05564077
#
# Stress axis : x y z
#
# Youngs Moduli (GPa) = 97.90377 40.63863 48.46195
#
# Poissons Ratio (x) = 0.17629 -0.00110
# Poissons Ratio (y) = 0.42470 -0.21360
# Poissons Ratio (z) = -0.00221 -0.17912
#
# Static dielectric constant tensor:
#      x y z
#    x 2.312610 -0.028650 0.096350 
#    y -0.028650 2.165940 0.015360 
#    z 0.096350 0.015360 1.987070 
# 
# From -- ./inp_files/243617.got.cif
#   From: 2010.05.17/outbox.cif.g08.bks.cpg/sg2_122_cif.got.tgz:243617.got - 2010.06.03 11:33:40.
