data_PCOD9084154
_publ_section_title
;
Structure prediction by ZEFSAII (Michael W. Deem and Ramdas Pophale) SiO2 
 PCOD9084154
Probable space group: P -1
;
_chemical_formula_sum "Si O2"
_cell_formula_units_Z 16
_cell_length_a 14.262494
_cell_length_b 14.036480
_cell_length_c 13.113197
_cell_angle_alpha 149.722359
_cell_angle_beta 150.542288
_cell_angle_gamma 39.473568
_cell_volume 648.806884
_symmetry_space_group_name_H-M "P -1"
_symmetry_group_IT_number 2
_symmetry_cell_setting 'triclinic'
loop_
_space_group_symop_operation_xyz
x,y,z
-x,-y,-z
loop_
_atom_site_type_symbol
_atom_site_label
_atom_site_fract_x
_atom_site_fract_y
_atom_site_fract_z
Si Si1 0.015496 0.426427 0.140782
Si Si2 0.884978 0.825879 0.343877
Si Si3 0.495275 0.246183 0.175508
Si Si4 0.796389 0.955472 0.094868
Si Si5 0.749632 0.088552 0.946579
Si Si6 0.649328 0.007155 0.471350
Si Si7 0.055517 0.768250 0.907947
Si Si8 0.595553 0.351327 0.596376
O O1 0.981917 0.399986 0.205731
O O2 0.817543 0.377291 0.854735
O O3 0.031230 0.640774 0.321830
O O4 0.177855 0.267642 0.112343
O O5 0.757323 0.864815 0.361288
O O6 0.013709 0.000033 0.622943
O O7 0.729083 0.791587 0.078853
O O8 0.614761 0.064807 0.075917
O O9 0.567521 0.290310 0.397082
O O10 0.508142 0.437691 0.297767
O O11 0.805057 0.066057 0.096677
O O12 0.521701 0.088524 0.723738
O O13 0.840019 0.255294 0.123562
O O14 0.856248 0.894772 0.822645
O O15 0.801801 0.102586 0.774330
O O16 0.550193 0.183958 0.475215
#
# Coordination Sequence:
#
# PCOD9084154 Si02
#       8
#     2   2   2   2   2   2   2   2
#     4   9  20  39  60  83 123 155 190 248 291 337
#     4  11  21  39  59  85 121 156 195 242 288 346
#     4  10  22  39  63  86 120 155 196 243 292 351
#     4  11  21  40  60  87 117 160 193 242 294 345
#     4  10  19  34  61  85 113 156 193 237 296 343
#     4  11  19  37  62  84 116 157 194 237 299 343
#     4   9  19  37  58  84 119 149 193 245 287 345
#     4   9  20  41  61  89 119 153 196 245 291 350
#
# _framework density 24.660651000000001
#
# number of rings (size 3 to 8) (size 9 to 14) (size 15 to 20)
#    0.000    2.000    5.000    0.375    0.000    3.000 
#    0.000    9.375    2.750    0.000    0.000    0.000 
#    0.000    0.000    0.000    0.000    0.000    0.000 
#
# Total GULP energy -89503.890399 kJ/mol
# GULP energy per Si atom -5593.993150 kJ/mol
# Density = 2.460452 g / cm^3
# Si number density = 24.660651 Si / 1000 Ang^3
#
#
#
# Elastic Constant Matrix: (Units=GPa)
#
#
# Indices 1 2 3 4 5 6 
#
# 1 94.5902 34.4631 1.6838 3.2693 6.2548 -2.0269
# 2 34.4631 149.0125 11.7088 14.4399 -4.4670 -9.9841
# 3 1.6838 11.7088 51.3158 2.3295 -1.3962 -9.7081
# 4 3.2693 14.4399 2.3295 44.0550 1.0170 3.6361
# 5 6.2548 -4.4670 -1.3962 1.0170 30.8708 -14.5530
# 6 -2.0269 -9.9841 -9.7081 3.6361 -14.5530 40.7310
#
#
#
# Elastic Compliance Matrix: (Units=1/GPa)
#
#
# Indices 1 2 3 4 5 6 
#
# 1 0.011845 -0.002963 -0.000095 0.000298 -0.003524 -0.001446
# 2 -0.002963 0.008027 -0.000962 -0.002680 0.003210 0.002977
# 3 -0.000095 -0.000962 0.021065 -0.001398 0.003838 0.006276
# 4 0.000298 -0.002680 -0.001398 0.024063 -0.003339 -0.004316
# 5 -0.003524 0.003210 0.003838 -0.003339 0.041747 0.016740
# 6 -0.001446 0.002977 0.006276 -0.004316 0.016740 0.033072
#
#
# Mechanical properties :
#
#
# Convention : Reuss Voigt Hill
#
# Bulk Modulus (GPa) = 30.39922 43.40331 36.90126
# Shear Modulus (GPa) = 31.48116 39.60222 35.54169
#
# Velocity S-wave (km/s) = 3.57679 4.01170 3.80047
# Velocity P-wave (km/s) = 5.42326 6.25274 5.85271
#
# Compressibility (1/GPa) = 0.03289559
#
# Stress axis : x y z
#
# Youngs Moduli (GPa) = 84.42342 124.57610 47.47200
#
# Poissons Ratio (x) = 0.36916 0.00453
# Poissons Ratio (y) = 0.25018 0.04567
# Poissons Ratio (z) = 0.00805 0.11986
#
# Static dielectric constant tensor:
#      x y z
#    x 2.035860 0.066300 0.033710 
#    y 0.066300 1.933470 -0.017030 
#    z 0.033710 -0.017030 1.972330 
# 
# From -- ./inp_files/534649.got.cif
#   From: 2010.05.17/outbox.cif.g08.bks.cpg/sg2_268_cif.got.tgz:534649.got - 2010.06.03 11:33:40.
