data_PCOD9084103
_publ_section_title
;
Structure prediction by ZEFSAII (Michael W. Deem and Ramdas Pophale) SiO2 
 PCOD9084103
Probable space group: P -1
;
_chemical_formula_sum "Si O2"
_cell_formula_units_Z 16
_cell_length_a 5.515981
_cell_length_b 11.219231
_cell_length_c 18.036928
_cell_angle_alpha 44.044295
_cell_angle_beta 54.996048
_cell_angle_gamma 55.598390
_cell_volume 612.372372
_symmetry_space_group_name_H-M "P -1"
_symmetry_group_IT_number 2
_symmetry_cell_setting 'triclinic'
loop_
_space_group_symop_operation_xyz
x,y,z
-x,-y,-z
loop_
_atom_site_type_symbol
_atom_site_label
_atom_site_fract_x
_atom_site_fract_y
_atom_site_fract_z
Si Si1 0.952753 0.089985 0.585296
Si Si2 0.564756 0.690388 0.115007
Si Si3 0.058352 0.686960 0.794768
Si Si4 0.431415 0.125959 0.574824
Si Si5 0.405693 0.782061 0.818346
Si Si6 0.499247 0.381081 0.624644
Si Si7 0.136623 0.839398 0.992662
Si Si8 0.064558 0.674046 0.307059
O O1 0.763683 0.154303 0.515490
O O2 0.715921 0.185546 0.650218
O O3 0.254970 0.154821 0.515849
O O4 0.033298 0.880083 0.677665
O O5 0.419954 0.721736 0.044442
O O6 0.284922 0.774617 0.182684
O O7 0.674018 0.479197 0.204525
O O8 0.855522 0.760979 0.052580
O O9 0.730203 0.653510 0.845824
O O10 0.151842 0.704215 0.857008
O O11 0.197194 0.230538 0.631710
O O12 0.471189 0.922357 0.685022
O O13 0.273289 0.883476 0.871473
O O14 0.500000 0.500000 0.500000
O O15 0.683054 0.448747 0.627087
O O16 0.142502 0.384763 0.693761
O O17 0.000000 0.000000 0.000000
#
# Coordination Sequence:
#
# PCOD9084103 Si02
#       8
#     2   2   2   2   2   2   2   2
#     4   8  16  30  51  78 105 134 176 223 262 324
#     4  12  25  39  57  80 114 156 192 231 283 349
#     4  10  21  37  57  80 108 154 200 228 273 331
#     4   8  15  29  50  72  98 138 176 219 274 315
#     4  10  20  36  56  78 109 144 193 248 280 320
#     4  10  19  34  60  89 113 139 177 231 287 333
#     4  12  26  40  57  83 113 148 194 248 301 333
#     4  10  20  35  54  80 114 145 181 225 278 340
#
# _framework density 26.127891999999999
#
# number of rings (size 3 to 8) (size 9 to 14) (size 15 to 20)
#    0.000    2.000    0.000    3.750    0.000    8.000 
#    0.000    0.000    0.000    1.500    0.000    0.000 
#    0.000    0.000    0.000    0.000    0.000    0.000 
#
# Total GULP energy -89290.494132 kJ/mol
# GULP energy per Si atom -5580.655883 kJ/mol
# Density = 2.606842 g / cm^3
# Si number density = 26.127892 Si / 1000 Ang^3
#
#
#
# Elastic Constant Matrix: (Units=GPa)
#
#
# Indices 1 2 3 4 5 6 
#
# 1 287.8665 29.1769 31.3722 -8.7694 27.5491 -17.6318
# 2 29.1769 96.1731 22.0046 -5.5809 7.6533 -9.3544
# 3 31.3722 22.0046 43.5433 3.5446 13.7144 -0.1770
# 4 -8.7694 -5.5809 3.5446 32.6891 1.8539 3.1834
# 5 27.5491 7.6533 13.7144 1.8539 29.5462 -11.0472
# 6 -17.6318 -9.3544 -0.1770 3.1834 -11.0472 20.0988
#
#
#
# Elastic Compliance Matrix: (Units=1/GPa)
#
#
# Indices 1 2 3 4 5 6 
#
# 1 0.004110 -0.000285 -0.002292 0.001200 -0.001951 0.002190
# 2 -0.000285 0.012694 -0.007208 0.002059 0.002723 0.006766
# 3 -0.002292 -0.007208 0.033670 -0.003231 -0.016521 -0.013637
# 4 0.001200 0.002059 -0.003231 0.032388 -0.004231 -0.005473
# 5 -0.001951 0.002723 -0.016521 -0.004231 0.054026 0.029776
# 6 0.002190 0.006766 -0.013637 -0.005473 0.029776 0.071937
#
#
# Mechanical properties :
#
#
# Convention : Reuss Voigt Hill
#
# Bulk Modulus (GPa) = 32.35578 65.85447 49.10512
# Shear Modulus (GPa) = 20.94717 39.46876 30.20796
#
# Velocity S-wave (km/s) = 2.83453 3.89086 3.40392
# Velocity P-wave (km/s) = 4.80867 6.74125 5.85524
#
# Compressibility (1/GPa) = 0.03090638
#
# Stress axis : x y z
#
# Youngs Moduli (GPa) = 243.31894 78.77567 29.69985
#
# Poissons Ratio (x) = 0.02242 0.06806
# Poissons Ratio (y) = 0.06925 0.21407
# Poissons Ratio (z) = 0.55757 0.56780
#
# Static dielectric constant tensor:
#      x y z
#    x 2.229270 0.033660 0.018850 
#    y 0.033660 2.086330 -0.016520 
#    z 0.018850 -0.016520 2.035360 
# 
# From -- ./inp_files/142601.got.cif
#   From: 2010.05.17/outbox.cif.g08.bks.cpg/sg2_72_cif.got.tgz:142601.got - 2010.06.03 11:33:40.
