data_PCOD9084786
_publ_section_title
;
Structure prediction by ZEFSAII (Michael W. Deem and Ramdas Pophale) SiO2 
 PCOD9084786
Probable space group: P -1
;
_chemical_formula_sum "Si O2"
_cell_formula_units_Z 14
_cell_length_a 19.164238
_cell_length_b 7.464381
_cell_length_c 9.182174
_cell_angle_alpha 49.315945
_cell_angle_beta 125.960864
_cell_angle_gamma 144.262566
_cell_volume 576.738263
_symmetry_space_group_name_H-M "P -1"
_symmetry_group_IT_number 2
_symmetry_cell_setting 'triclinic'
loop_
_space_group_symop_operation_xyz
x,y,z
-x,-y,-z
loop_
_atom_site_type_symbol
_atom_site_label
_atom_site_fract_x
_atom_site_fract_y
_atom_site_fract_z
Si Si1 0.440398 0.407812 0.715387
Si Si2 0.143647 0.697572 0.237275
Si Si3 0.661973 0.739425 0.634390
Si Si4 0.734929 0.544579 0.484892
Si Si5 0.833956 0.761883 0.166118
Si Si6 0.030119 0.778522 0.488843
Si Si7 0.632447 0.201346 0.986682
O O1 0.580808 0.650468 0.724228
O O2 0.387253 0.232728 0.583986
O O3 0.394944 0.582042 0.599079
O O4 0.382217 0.101136 0.912607
O O5 0.226053 0.639027 0.314667
O O6 0.022063 0.360179 0.337477
O O7 0.208706 0.926410 0.339652
O O8 0.137925 0.912364 0.012585
O O9 0.649836 0.434536 0.762607
O O10 0.767783 0.607257 0.320940
O O11 0.829284 0.900759 0.490446
O O12 0.957885 0.855296 0.284944
O O13 0.743117 0.474442 0.086637
O O14 0.000000 0.500000 0.500000
O O15 0.500000 0.000000 0.000000
#
# Coordination Sequence:
#
# PCOD9084786 Si02
#       7
#     2   2   2   2   2   2   2
#     4  10  19  35  57  80 113 145 184 232 272 320
#     4  10  21  38  56  81 114 143 184 225 275 336
#     4   9  19  35  57  81 106 148 187 226 275 323
#     4  11  23  36  56  85 113 147 184 225 279 331
#     4  10  21  38  58  81 115 149 178 229 281 320
#     4  11  23  39  60  83 108 145 190 230 272 327
#     4   9  18  35  57  80 107 145 187 223 268 325
#
# _framework density 24.274443000000002
#
# number of rings (size 3 to 8) (size 9 to 14) (size 15 to 20)
#    0.000    2.000    0.000    5.143    0.000    4.571 
#    0.000    6.429    0.000    0.000    0.000    0.000 
#    0.000    0.000    0.000    0.000    0.000    0.000 
#
# Total GULP energy -78209.166452 kJ/mol
# GULP energy per Si atom -5586.369032 kJ/mol
# Density = 2.421919 g / cm^3
# Si number density = 24.274443 Si / 1000 Ang^3
#
#
#
# Elastic Constant Matrix: (Units=GPa)
#
#
# Indices 1 2 3 4 5 6 
#
# 1 62.9691 -4.7453 26.1669 -13.7219 31.2638 4.3369
# 2 -4.7453 71.7627 17.9328 -13.3493 1.5253 6.8898
# 3 26.1669 17.9328 116.3371 -20.4798 29.1160 4.5049
# 4 -13.7219 -13.3493 -20.4798 36.4699 -12.9924 0.6273
# 5 31.2638 1.5253 29.1160 -12.9924 34.2466 -0.2899
# 6 4.3369 6.8898 4.5049 0.6273 -0.2899 31.4332
#
#
#
# Elastic Compliance Matrix: (Units=1/GPa)
#
#
# Indices 1 2 3 4 5 6 
#
# 1 0.030615 0.003728 0.000093 0.003432 -0.026937 -0.005371
# 2 0.003728 0.016237 -0.002088 0.006234 -0.000019 -0.003899
# 3 0.000093 -0.002088 0.011644 0.002665 -0.008892 -0.001359
# 4 0.003432 0.006234 0.002665 0.035275 0.007682 -0.002855
# 5 -0.026937 -0.000019 -0.008892 0.007682 0.064312 0.005435
# 6 -0.005371 -0.003899 -0.001359 -0.002855 0.005435 0.033711
#
#
# Mechanical properties :
#
#
# Convention : Reuss Voigt Hill
#
# Bulk Modulus (GPa) = 16.13911 36.64197 26.39054
# Shear Modulus (GPa) = 23.92535 34.54424 29.23480
#
# Velocity S-wave (km/s) = 3.14286 3.77645 3.47413
# Velocity P-wave (km/s) = 4.45344 5.84321 5.19501
#
# Compressibility (1/GPa) = 0.06196128
#
# Stress axis : x y z
#
# Youngs Moduli (GPa) = 32.66379 61.58594 85.88250
#
# Poissons Ratio (x) = -0.22957 -0.00800
# Poissons Ratio (y) = -0.12176 0.17935
# Poissons Ratio (z) = -0.00304 0.12861
#
# Static dielectric constant tensor:
#      x y z
#    x 1.961720 -0.004630 0.022900 
#    y -0.004630 1.918700 -0.043150 
#    z 0.022900 -0.043150 1.949350 
# 
# From -- ./inp_files/253797.got.cif
#   From: 2010.05.17/outbox.cif.g08.bks.cpg/sg2_127_cif.got.tgz:253797.got - 2010.06.03 11:33:40.
