data_PCOD9084604
_publ_section_title
;
Structure prediction by ZEFSAII (Michael W. Deem and Ramdas Pophale) SiO2 
 PCOD9084604
Probable space group: P -1
;
_chemical_formula_sum "Si O2"
_cell_formula_units_Z 16
_cell_length_a 12.769378
_cell_length_b 16.288246
_cell_length_c 7.075543
_cell_angle_alpha 45.820757
_cell_angle_beta 80.151177
_cell_angle_gamma 47.820025
_cell_volume 648.673924
_symmetry_space_group_name_H-M "P -1"
_symmetry_group_IT_number 2
_symmetry_cell_setting 'triclinic'
loop_
_space_group_symop_operation_xyz
x,y,z
-x,-y,-z
loop_
_atom_site_type_symbol
_atom_site_label
_atom_site_fract_x
_atom_site_fract_y
_atom_site_fract_z
Si Si1 0.918060 0.574166 0.615282
Si Si2 0.367680 0.970872 0.528762
Si Si3 0.717256 0.693198 0.998180
Si Si4 0.022551 0.845642 0.259504
Si Si5 0.887057 0.998658 0.436013
Si Si6 0.675059 0.382416 0.730731
Si Si7 0.343932 0.371693 0.473930
Si Si8 0.698866 0.978479 0.077899
O O1 0.816492 0.542004 0.730741
O O2 0.768566 0.793757 0.312591
O O3 0.000000 0.500000 0.500000
O O4 0.082720 0.473693 0.847681
O O5 0.328334 0.134696 0.224919
O O6 0.227683 0.003546 0.431034
O O7 0.338547 0.986031 0.741748
O O8 0.570349 0.776933 0.763059
O O9 0.693282 0.642959 0.277835
O O10 0.194430 0.674442 0.371798
O O11 0.005672 0.838524 0.498923
O O12 0.861824 0.921942 0.089302
O O13 0.000000 0.000000 0.000000
O O14 0.000000 0.000000 0.500000
O O15 0.747550 0.199112 0.063519
O O16 0.500000 0.500000 0.500000
O O17 0.653184 0.493710 0.724886
O O18 0.532411 0.159674 0.725189
#
# Coordination Sequence:
#
# PCOD9084604 Si02
#       8
#     2   2   2   2   2   2   2   2
#     4  10  20  32  52  82 112 144 185 241 294 337
#     4   9  19  36  58  80 118 155 194 230 292 366
#     4   9  18  34  56  81 114 151 194 227 289 356
#     4   9  18  35  58  86 110 156 204 238 289 364
#     4  10  22  38  61  91 124 157 198 255 307 347
#     4  11  21  38  66  85 118 162 206 248 296 367
#     4  10  20  34  55  86 118 145 197 248 294 340
#     4  10  19  35  55  81 115 154 191 239 291 360
#
# _framework density 24.665704999999999
#
# number of rings (size 3 to 8) (size 9 to 14) (size 15 to 20)
#    0.000    2.250    0.000    4.875    1.750    0.500 
#    2.250    0.625    5.500    0.000    0.000    0.000 
#    0.000    0.000    0.000    0.000    0.000    0.000 
#
# Total GULP energy -89394.734977 kJ/mol
# GULP energy per Si atom -5587.170936 kJ/mol
# Density = 2.460956 g / cm^3
# Si number density = 24.665705 Si / 1000 Ang^3
#
#
#
# Elastic Constant Matrix: (Units=GPa)
#
#
# Indices 1 2 3 4 5 6 
#
# 1 161.6263 27.1306 17.3831 -12.1642 15.0083 -7.9079
# 2 27.1306 76.4284 27.4694 -19.5023 16.8184 -10.5680
# 3 17.3831 27.4694 69.7088 -18.3536 8.9875 0.2762
# 4 -12.1642 -19.5023 -18.3536 39.3577 -2.4753 4.6462
# 5 15.0083 16.8184 8.9875 -2.4753 49.3582 -4.3507
# 6 -7.9079 -10.5680 0.2762 4.6462 -4.3507 35.9270
#
#
#
# Elastic Compliance Matrix: (Units=1/GPa)
#
#
# Indices 1 2 3 4 5 6 
#
# 1 0.006740 -0.001543 -0.000693 0.000823 -0.001288 0.000773
# 2 -0.001543 0.018254 -0.004797 0.005612 -0.004259 0.003825
# 3 -0.000693 -0.004797 0.018213 0.006129 -0.001399 -0.002666
# 4 0.000823 0.005612 0.006129 0.031478 -0.001922 -0.002519
# 5 -0.001288 -0.004259 -0.001399 -0.001922 0.022388 0.001434
# 6 0.000773 0.003825 -0.002666 -0.002519 0.001434 0.029649
#
#
# Mechanical properties :
#
#
# Convention : Reuss Voigt Hill
#
# Bulk Modulus (GPa) = 34.31592 50.19221 42.25407
# Shear Modulus (GPa) = 33.22227 40.64726 36.93476
#
# Velocity S-wave (km/s) = 3.67400 4.06387 3.87384
# Velocity P-wave (km/s) = 5.65157 6.51254 6.09727
#
# Compressibility (1/GPa) = 0.02914099
#
# Stress axis : x y z
#
# Youngs Moduli (GPa) = 148.36721 54.78231 54.90578
#
# Poissons Ratio (x) = 0.08454 0.03804
# Poissons Ratio (y) = 0.22897 0.26338
# Poissons Ratio (z) = 0.10280 0.26279
#
# Static dielectric constant tensor:
#      x y z
#    x 2.044430 0.095400 0.014010 
#    y 0.095400 2.150310 0.009650 
#    z 0.014010 0.009650 1.923820 
# 
# From -- ./inp_files/243520.got.cif
#   From: 2010.05.17/outbox.cif.g08.bks.cpg/sg2_122_cif.got.tgz:243520.got - 2010.06.03 11:33:40.
