data_PCOD9084555
_publ_section_title
;
Structure prediction by ZEFSAII (Michael W. Deem and Ramdas Pophale) SiO2 
 PCOD9084555
Probable space group: P -1
;
_chemical_formula_sum "Si O2"
_cell_formula_units_Z 16
_cell_length_a 15.261475
_cell_length_b 8.968267
_cell_length_c 8.808877
_cell_angle_alpha 132.647341
_cell_angle_beta 100.719194
_cell_angle_gamma 60.409053
_cell_volume 750.059380
_symmetry_space_group_name_H-M "P -1"
_symmetry_group_IT_number 2
_symmetry_cell_setting 'triclinic'
loop_
_space_group_symop_operation_xyz
x,y,z
-x,-y,-z
loop_
_atom_site_type_symbol
_atom_site_label
_atom_site_fract_x
_atom_site_fract_y
_atom_site_fract_z
Si Si1 0.895266 0.869078 0.790271
Si Si2 0.594640 0.926520 0.864954
Si Si3 0.598882 0.373819 0.128808
Si Si4 0.771851 0.390411 0.031634
Si Si5 0.484826 0.858553 0.532426
Si Si6 0.723411 0.817409 0.119948
Si Si7 0.138591 0.542755 0.580767
Si Si8 0.205258 0.874143 0.758222
O O1 0.843048 0.710964 0.634068
O O2 0.016060 0.708609 0.685173
O O3 0.844943 0.110036 0.844190
O O4 0.872350 0.962950 0.020360
O O5 0.579974 0.782741 0.628506
O O6 0.691041 0.817721 0.934542
O O7 0.500000 0.000000 0.000000
O O8 0.580292 0.161352 0.943371
O O9 0.658470 0.427474 0.053839
O O10 0.498266 0.614957 0.309949
O O11 0.681995 0.267687 0.221443
O O12 0.774655 0.555163 0.017872
O O13 0.804628 0.467916 0.250774
O O14 0.500000 0.000000 0.500000
O O15 0.379021 0.024004 0.701595
O O16 0.788376 0.950681 0.237671
O O17 0.172818 0.683577 0.575310
#
# Coordination Sequence:
#
# PCOD9084555 Si02
#       8
#     2   2   2   2   2   2   2   2
#     4   9  18  36  60  85 108 146 187 220 275 348
#     4   9  21  37  54  74 109 147 185 236 283 319
#     4   9  19  35  57  78 105 150 197 225 268 329
#     4  10  19  35  54  83 115 142 186 230 278 329
#     4  11  21  38  57  79 110 151 198 233 266 323
#     4  10  21  38  53  85 118 148 187 235 287 327
#     4   9  18  36  62  83 107 146 187 223 273 345
#     4   9  19  34  56  79 115 145 182 227 283 327
#
# _framework density 21.331643
#
# number of rings (size 3 to 8) (size 9 to 14) (size 15 to 20)
#    0.000    2.750    1.250    1.500    0.000   11.000 
#    0.000    7.500    0.000    3.000    0.000    0.000 
#    0.000    0.000    0.000    0.000    0.000    0.000 
#
# Total GULP energy -89277.817036 kJ/mol
# GULP energy per Si atom -5579.863565 kJ/mol
# Density = 2.128309 g / cm^3
# Si number density = 21.331643 Si / 1000 Ang^3
#
#
#
# Elastic Constant Matrix: (Units=GPa)
#
#
# Indices 1 2 3 4 5 6 
#
# 1 75.6544 36.6940 20.2123 9.1294 14.2300 27.6100
# 2 36.6940 107.9792 33.6535 17.3400 3.6436 38.3111
# 3 20.2123 33.6535 69.1840 20.7318 8.8633 5.8884
# 4 9.1294 17.3400 20.7318 30.6826 2.6881 6.6860
# 5 14.2300 3.6436 8.8633 2.6881 36.6086 12.7989
# 6 27.6100 38.3111 5.8884 6.6860 12.7989 35.1798
#
#
#
# Elastic Compliance Matrix: (Units=1/GPa)
#
#
# Indices 1 2 3 4 5 6 
#
# 1 0.019944 -0.000610 -0.004249 0.000427 -0.001919 -0.013659
# 2 -0.000610 0.020061 -0.008316 -0.001307 0.008303 -0.022748
# 3 -0.004249 -0.008316 0.023060 -0.011912 -0.006878 0.013298
# 4 0.000427 -0.001307 -0.011912 0.042319 0.001690 -0.005575
# 5 -0.001919 0.008303 -0.006878 0.001690 0.035656 -0.019679
# 6 -0.013659 -0.022748 0.013298 -0.005575 -0.019679 0.069912
#
#
# Mechanical properties :
#
#
# Convention : Reuss Voigt Hill
#
# Bulk Modulus (GPa) = 27.23794 48.21526 37.72660
# Shear Modulus (GPa) = 20.03680 31.31136 25.67408
#
# Velocity S-wave (km/s) = 3.06812 3.83539 3.47301
# Velocity P-wave (km/s) = 5.03465 6.50118 5.81434
#
# Compressibility (1/GPa) = 0.03671350
#
# Stress axis : x y z
#
# Youngs Moduli (GPa) = 50.14120 49.84801 43.36544
#
# Poissons Ratio (x) = 0.03043 0.18427
# Poissons Ratio (y) = 0.03061 0.36062
# Poissons Ratio (z) = 0.21306 0.41453
#
# Static dielectric constant tensor:
#      x y z
#    x 1.808370 -0.005780 0.014700 
#    y -0.005780 1.787800 -0.004520 
#    z 0.014700 -0.004520 1.745220 
# 
# From -- ./inp_files/328063.got.cif
#   From: 2010.05.17/outbox.cif.g08.bks.cpg/sg2_165_cif.got.tgz:328063.got - 2010.06.03 11:33:40.
