data_PCOD9084065
_publ_section_title
;
Structure prediction by ZEFSAII (Michael W. Deem and Ramdas Pophale) SiO2 
 PCOD9084065
Probable space group: P -1
;
_chemical_formula_sum "Si O2"
_cell_formula_units_Z 16
_cell_length_a 18.392850
_cell_length_b 13.533765
_cell_length_c 22.504429
_cell_angle_alpha 152.845418
_cell_angle_beta 16.757785
_cell_angle_gamma 155.153991
_cell_volume 668.515564
_symmetry_space_group_name_H-M "P -1"
_symmetry_group_IT_number 2
_symmetry_cell_setting 'triclinic'
loop_
_space_group_symop_operation_xyz
x,y,z
-x,-y,-z
loop_
_atom_site_type_symbol
_atom_site_label
_atom_site_fract_x
_atom_site_fract_y
_atom_site_fract_z
Si Si1 0.202151 0.158835 0.876309
Si Si2 0.264874 0.580703 0.453603
Si Si3 0.952897 0.484182 0.285408
Si Si4 0.066184 0.113359 0.295248
Si Si5 0.349153 0.908596 0.149300
Si Si6 0.092942 0.886573 0.038836
Si Si7 0.655058 0.382350 0.112046
Si Si8 0.498406 0.285658 0.427959
O O1 0.041278 0.079215 0.898305
O O2 0.521319 0.206932 0.641287
O O3 0.191709 0.410239 0.034535
O O4 0.000000 0.000000 0.000000
O O5 0.117784 0.619837 0.648307
O O6 0.070710 0.359985 0.447131
O O7 0.468363 0.486916 0.279018
O O8 0.699286 0.380296 0.380498
O O9 0.115040 0.770662 0.306996
O O10 0.071065 0.077971 0.202364
O O11 0.356605 0.103556 0.078572
O O12 0.807316 0.890385 0.405606
O O13 0.449596 0.190549 0.215572
O O14 0.243226 0.767713 0.093847
O O15 0.907519 0.616785 0.063812
O O16 0.379470 0.873262 0.790470
O O17 0.500000 0.500000 0.500000
#
# Coordination Sequence:
#
# PCOD9084065 Si02
#       8
#     2   2   2   2   2   2   2   2
#     4  10  21  44  71  90 111 154 206 257 315 367
#     4  10  22  38  60  89 121 160 203 247 298 361
#     4  11  22  41  62  89 126 157 206 251 295 364
#     4  11  23  37  56  86 128 165 196 247 300 352
#     4  10  19  34  60  84 120 168 208 240 289 356
#     4  10  21  40  58  87 128 157 199 256 304 354
#     4   9  17  35  56  82 120 165 205 245 285 349
#     4  11  23  35  57  91 124 163 204 244 299 350
#
# _framework density 23.933623000000001
#
# number of rings (size 3 to 8) (size 9 to 14) (size 15 to 20)
#    0.000    1.750    5.000    2.250    5.250    4.000 
#    0.000    0.625    0.000    3.750    0.000    0.000 
#    0.000    0.000    0.000    0.000    0.000    0.000 
#
# Total GULP energy -89292.872348 kJ/mol
# GULP energy per Si atom -5580.804522 kJ/mol
# Density = 2.387915 g / cm^3
# Si number density = 23.933623 Si / 1000 Ang^3
#
#
#
# Elastic Constant Matrix: (Units=GPa)
#
#
# Indices 1 2 3 4 5 6 
#
# 1 54.8583 35.9154 35.6444 -2.5950 32.9328 12.5266
# 2 35.9154 79.2348 40.4077 -36.8556 18.8525 -1.8174
# 3 35.6444 40.4077 125.0765 -20.2289 21.9799 14.9765
# 4 -2.5950 -36.8556 -20.2289 47.7215 1.6895 10.0815
# 5 32.9328 18.8525 21.9799 1.6895 36.2665 2.3892
# 6 12.5266 -1.8174 14.9765 10.0815 2.3892 27.9334
#
#
#
# Elastic Compliance Matrix: (Units=1/GPa)
#
#
# Indices 1 2 3 4 5 6 
#
# 1 0.066941 -0.022727 -0.002251 -0.008308 -0.045682 -0.023386
# 2 -0.022727 0.034184 -0.001822 0.023294 0.002573 0.004765
# 3 -0.002251 -0.001822 0.011477 0.004885 -0.003751 -0.006705
# 4 -0.008308 0.023294 0.004885 0.043476 -0.008739 -0.012321
# 5 -0.045682 0.002573 -0.003751 -0.008739 0.069088 0.019909
# 6 -0.023386 0.004765 -0.006705 -0.012321 0.019909 0.052935
#
#
# Mechanical properties :
#
#
# Convention : Reuss Voigt Hill
#
# Bulk Modulus (GPa) = 16.94832 53.67827 35.31330
# Shear Modulus (GPa) = 14.23005 32.19774 23.21390
#
# Velocity S-wave (km/s) = 2.44101 3.67180 3.11775
# Velocity P-wave (km/s) = 3.87833 6.36026 5.26756
#
# Compressibility (1/GPa) = 0.05900289
#
# Stress axis : x y z
#
# Youngs Moduli (GPa) = 14.93845 29.25350 87.12981
#
# Poissons Ratio (x) = 0.66485 0.19609
# Poissons Ratio (y) = 0.33951 0.15877
# Poissons Ratio (z) = 0.03362 0.05331
#
# Static dielectric constant tensor:
#      x y z
#    x 2.010310 -0.030280 0.044430 
#    y -0.030280 2.052850 -0.000670 
#    z 0.044430 -0.000670 1.948050 
# 
# From -- ./inp_files/613803.got.cif
#   From: 2010.05.17/outbox.cif.g08.bks.cpg/sg2_307_cif.got.tgz:613803.got - 2010.06.03 11:33:40.
