data_PCOD9084258
_publ_section_title
;
Structure prediction by ZEFSAII (Michael W. Deem and Ramdas Pophale) SiO2 
 PCOD9084258
Probable space group: P -1
;
_chemical_formula_sum "Si O2"
_cell_formula_units_Z 14
_cell_length_a 17.817310
_cell_length_b 18.846145
_cell_length_c 8.687479
_cell_angle_alpha 142.150746
_cell_angle_beta 157.782267
_cell_angle_gamma 30.985285
_cell_volume 567.750480
_symmetry_space_group_name_H-M "P -1"
_symmetry_group_IT_number 2
_symmetry_cell_setting 'triclinic'
loop_
_space_group_symop_operation_xyz
x,y,z
-x,-y,-z
loop_
_atom_site_type_symbol
_atom_site_label
_atom_site_fract_x
_atom_site_fract_y
_atom_site_fract_z
Si Si1 0.694492 0.910154 0.552770
Si Si2 0.174952 0.670437 0.571529
Si Si3 0.383215 0.650534 0.606302
Si Si4 0.345907 0.370791 0.449349
Si Si5 0.217219 0.061612 0.555117
Si Si6 0.358266 0.227315 0.525821
Si Si7 0.610217 0.183036 0.355296
O O1 0.845264 0.882547 0.640192
O O2 0.793407 0.808621 0.712458
O O3 0.583722 0.070397 0.656893
O O4 0.485392 0.890046 0.061047
O O5 0.226034 0.664585 0.477361
O O6 0.182100 0.535520 0.409485
O O7 0.947010 0.813984 0.432483
O O8 0.398695 0.660747 0.063940
O O9 0.500000 0.500000 0.500000
O O10 0.286208 0.754962 0.456978
O O11 0.575322 0.678247 0.092639
O O12 0.279064 0.300679 0.335648
O O13 0.396583 0.301546 0.257980
O O14 0.217189 0.930215 0.387243
O O15 0.500000 0.000000 0.000000
#
# Coordination Sequence:
#
# PCOD9084258 Si02
#       7
#     2   2   2   2   2   2   2
#     4   9  18  35  58  84 118 158 201 244 290 355
#     4  10  22  37  60  89 125 157 197 249 303 361
#     4  10  19  35  59  89 123 155 198 253 302 355
#     4  10  19  36  60  91 118 156 198 248 308 354
#     4  10  21  39  61  85 121 163 205 242 291 361
#     4   9  18  33  60  86 116 160 199 246 300 351
#     4  10  19  34  62  85 121 157 196 250 299 355
#
# _framework density 24.658719999999999
#
# number of rings (size 3 to 8) (size 9 to 14) (size 15 to 20)
#    0.000    2.286    2.857    0.000    0.000    1.143 
#    0.000    3.571    6.286    0.000    0.000    0.000 
#    0.000    0.000    0.000    0.000    0.000    0.000 
#
# Total GULP energy -78246.287638 kJ/mol
# GULP energy per Si atom -5589.020546 kJ/mol
# Density = 2.460260 g / cm^3
# Si number density = 24.658720 Si / 1000 Ang^3
#
#
#
# Elastic Constant Matrix: (Units=GPa)
#
#
# Indices 1 2 3 4 5 6 
#
# 1 229.4198 85.7849 10.0652 15.8998 9.5084 23.6488
# 2 85.7849 171.9883 26.9395 24.7497 7.6884 7.5196
# 3 10.0652 26.9395 67.3796 6.6873 -4.9682 3.5302
# 4 15.8998 24.7497 6.6873 39.6025 0.4734 -4.5574
# 5 9.5084 7.6884 -4.9682 0.4734 36.8939 12.0396
# 6 23.6488 7.5196 3.5302 -4.5574 12.0396 65.3695
#
#
#
# Elastic Compliance Matrix: (Units=1/GPa)
#
#
# Indices 1 2 3 4 5 6 
#
# 1 0.005575 -0.002629 0.000376 -0.000857 -0.000257 -0.001747
# 2 -0.002629 0.008095 -0.002603 -0.003528 -0.001369 0.000167
# 3 0.000376 -0.002603 0.016274 -0.001469 0.003110 -0.001390
# 4 -0.000857 -0.003528 -0.001469 0.028386 -0.000544 0.002874
# 5 -0.000257 -0.001369 0.003110 -0.000544 0.029650 -0.005416
# 6 -0.001747 0.000167 -0.001390 0.002874 -0.005416 0.017184
#
#
# Mechanical properties :
#
#
# Convention : Reuss Voigt Hill
#
# Bulk Modulus (GPa) = 49.42658 79.37410 64.40034
# Shear Modulus (GPa) = 41.11194 51.43971 46.27582
#
# Velocity S-wave (km/s) = 4.08761 4.57230 4.33673
# Velocity P-wave (km/s) = 6.50891 7.75458 7.15889
#
# Compressibility (1/GPa) = 0.02023203
#
# Stress axis : x y z
#
# Youngs Moduli (GPa) = 179.36005 123.53521 61.44785
#
# Poissons Ratio (x) = 0.32471 -0.02309
# Poissons Ratio (y) = 0.47145 0.15997
# Poissons Ratio (z) = -0.06739 0.32160
#
# Static dielectric constant tensor:
#      x y z
#    x 1.981160 0.054350 -0.013320 
#    y 0.054350 1.892170 -0.035240 
#    z -0.013320 -0.035240 2.085220 
# 
# From -- ./inp_files/336614.got.cif
#   From: 2010.05.17/outbox.cif.g08.bks.cpg/sg2_169_cif.got.tgz:336614.got - 2010.06.03 11:33:40.
