data_PCOD9084924
_publ_section_title
;
Structure prediction by ZEFSAII (Michael W. Deem and Ramdas Pophale) SiO2 
 PCOD9084924
Probable space group: P -1
;
_chemical_formula_sum "Si O2"
_cell_formula_units_Z 14
_cell_length_a 12.256354
_cell_length_b 11.947672
_cell_length_c 9.451066
_cell_angle_alpha 53.944199
_cell_angle_beta 143.447771
_cell_angle_gamma 114.075761
_cell_volume 660.267794
_symmetry_space_group_name_H-M "P -1"
_symmetry_group_IT_number 2
_symmetry_cell_setting 'triclinic'
loop_
_space_group_symop_operation_xyz
x,y,z
-x,-y,-z
loop_
_atom_site_type_symbol
_atom_site_label
_atom_site_fract_x
_atom_site_fract_y
_atom_site_fract_z
Si Si1 0.210924 0.534874 0.288764
Si Si2 0.393307 0.480418 0.230362
Si Si3 0.647422 0.188525 0.038531
Si Si4 0.963158 0.566453 0.259916
Si Si5 0.379118 0.081878 0.638651
Si Si6 0.002503 0.815816 0.741834
Si Si7 0.939130 0.883030 0.924021
O O1 0.305715 0.450118 0.315506
O O2 0.394633 0.586556 0.508363
O O3 0.095449 0.485839 0.335802
O O4 0.071156 0.655942 0.977568
O O5 0.395272 0.647883 0.096865
O O6 0.248710 0.439130 0.998798
O O7 0.868115 0.153482 0.273258
O O8 0.586186 0.082615 0.168404
O O9 0.554008 0.150875 0.820948
O O10 0.993071 0.728596 0.158682
O O11 0.000000 0.500000 0.500000
O O12 0.216170 0.149320 0.527665
O O13 0.276358 0.105360 0.363111
O O14 0.037111 0.894605 0.865264
O O15 0.000000 0.000000 0.000000
#
# Coordination Sequence:
#
# PCOD9084924 Si02
#       7
#     2   2   2   2   2   2   2
#     4   9  20  38  60  90 115 153 195 244 303 346
#     4  10  22  35  65  89 120 148 199 248 296 355
#     4  10  19  35  57  93 112 143 188 247 297 338
#     4  11  24  39  61  87 122 160 197 244 297 350
#     4   9  20  34  58  80 119 145 187 240 285 342
#     4   8  18  33  60  79 114 145 191 235 290 341
#     4   9  21  39  58  77 115 159 194 230 284 353
#
# _framework density 21.203517999999999
#
# number of rings (size 3 to 8) (size 9 to 14) (size 15 to 20)
#    0.857    1.714    0.000    0.857    8.000    2.857 
#    0.000    3.571    0.000    0.000    0.000    0.000 
#    0.000    0.000    0.000    0.000    0.000    0.000 
#
# Total GULP energy -77957.269003 kJ/mol
# GULP energy per Si atom -5568.376357 kJ/mol
# Density = 2.115526 g / cm^3
# Si number density = 21.203518 Si / 1000 Ang^3
#
#
#
# Elastic Constant Matrix: (Units=GPa)
#
#
# Indices 1 2 3 4 5 6 
#
# 1 48.0533 11.3631 31.1109 -0.8188 -4.4079 8.5286
# 2 11.3631 95.3163 26.4660 -6.6473 -10.7109 10.0435
# 3 31.1109 26.4660 108.7428 8.8405 -3.9958 6.5007
# 4 -0.8188 -6.6473 8.8405 36.8788 6.0451 -3.8417
# 5 -4.4079 -10.7109 -3.9958 6.0451 40.1672 3.0433
# 6 8.5286 10.0435 6.5007 -3.8417 3.0433 22.4297
#
#
#
# Elastic Compliance Matrix: (Units=1/GPa)
#
#
# Indices 1 2 3 4 5 6 
#
# 1 0.027301 0.000049 -0.007297 0.001025 0.002772 -0.008488
# 2 0.000049 0.012228 -0.002741 0.001858 0.003077 -0.004799
# 3 -0.007297 -0.002741 0.012271 -0.003662 0.000257 -0.000217
# 4 0.001025 0.001858 -0.003662 0.029692 -0.004646 0.005555
# 5 0.002772 0.003077 0.000257 -0.004646 0.027276 -0.007003
# 6 -0.008488 -0.004799 -0.000217 0.005555 -0.007003 0.051925
#
#
# Mechanical properties :
#
#
# Convention : Reuss Voigt Hill
#
# Bulk Modulus (GPa) = 31.42517 43.33249 37.37883
# Shear Modulus (GPa) = 26.14015 32.10664 29.12339
#
# Velocity S-wave (km/s) = 3.51496 3.89551 3.71012
# Velocity P-wave (km/s) = 5.59698 6.38076 6.00168
#
# Compressibility (1/GPa) = 0.03182163
#
# Stress axis : x y z
#
# Youngs Moduli (GPa) = 36.62870 81.78170 81.49439
#
# Poissons Ratio (x) = -0.00399 0.59464
# Poissons Ratio (y) = -0.00179 0.22338
# Poissons Ratio (z) = 0.26727 0.22417
#
# Static dielectric constant tensor:
#      x y z
#    x 1.779440 0.013880 0.017140 
#    y 0.013880 1.831710 -0.031740 
#    z 0.017140 -0.031740 1.799970 
# 
# From -- ./inp_files/257227.got.cif
#   From: 2010.05.17/outbox.cif.g08.bks.cpg/sg2_129_cif.got.tgz:257227.got - 2010.06.03 11:33:40.
