data_PCOD9084812
_publ_section_title
;
Structure prediction by ZEFSAII (Michael W. Deem and Ramdas Pophale) SiO2 
 PCOD9084812
Probable space group: P -1
;
_chemical_formula_sum "Si O2"
_cell_formula_units_Z 16
_cell_length_a 17.499738
_cell_length_b 9.146706
_cell_length_c 12.043330
_cell_angle_alpha 124.136726
_cell_angle_beta 54.043406
_cell_angle_gamma 79.065249
_cell_volume 816.330303
_symmetry_space_group_name_H-M "P -1"
_symmetry_group_IT_number 2
_symmetry_cell_setting 'triclinic'
loop_
_space_group_symop_operation_xyz
x,y,z
-x,-y,-z
loop_
_atom_site_type_symbol
_atom_site_label
_atom_site_fract_x
_atom_site_fract_y
_atom_site_fract_z
Si Si1 0.526518 0.238553 0.053913
Si Si2 0.138112 0.185517 0.860176
Si Si3 0.685107 0.662277 0.570417
Si Si4 0.008856 0.664200 0.738065
Si Si5 0.738342 0.231100 0.615900
Si Si6 0.823041 0.951880 0.656017
Si Si7 0.978688 0.955540 0.689102
Si Si8 0.828400 0.519980 0.162771
O O1 0.416263 0.343731 0.292683
O O2 0.428085 0.462929 0.134394
O O3 0.609005 0.947566 0.808437
O O4 0.663472 0.161857 0.941813
O O5 0.200567 0.289792 0.824993
O O6 0.219752 0.933611 0.601698
O O7 0.129472 0.142112 0.976570
O O8 0.963235 0.418236 0.073457
O O9 0.854916 0.409479 0.364734
O O10 0.703819 0.655188 0.418790
O O11 0.077814 0.367450 0.549938
O O12 0.962913 0.812640 0.724164
O O13 0.848769 0.236487 0.541089
O O14 0.777552 0.048816 0.608153
O O15 0.912846 0.985933 0.642421
O O16 0.891466 0.251150 0.938775
#
# Coordination Sequence:
#
# PCOD9084812 Si02
#       8
#     2   2   2   2   2   2   2   2
#     4  10  20  35  58  81 107 144 184 223 270 317
#     4   9  18  32  56  87 106 133 181 238 273 300
#     4   9  18  34  57  83 107 138 185 233 262 309
#     4  10  19  35  57  82 112 140 181 228 270 317
#     4  11  21  36  60  84 107 140 185 229 269 319
#     4  11  23  37  53  81 118 145 176 222 271 327
#     4  11  22  35  57  83 110 148 179 217 275 329
#     4   9  18  33  55  80 110 141 178 228 273 313
#
# _framework density 19.599907999999999
#
# number of rings (size 3 to 8) (size 9 to 14) (size 15 to 20)
#    0.000    2.000    1.250    4.875    1.750    1.500 
#    0.000    0.625    0.000    1.500    0.000    0.000 
#    0.000    0.000    0.000    0.000    0.000    0.000 
#
# Total GULP energy -89209.443899 kJ/mol
# GULP energy per Si atom -5575.590244 kJ/mol
# Density = 1.955530 g / cm^3
# Si number density = 19.599908 Si / 1000 Ang^3
#
#
#
# Elastic Constant Matrix: (Units=GPa)
#
#
# Indices 1 2 3 4 5 6 
#
# 1 60.9132 17.9380 23.5677 1.5470 -4.7860 10.4857
# 2 17.9380 85.5686 18.8436 -7.7605 -4.7494 7.6164
# 3 23.5677 18.8436 58.9692 -12.0205 -1.9996 1.0891
# 4 1.5470 -7.7605 -12.0205 24.5940 0.0767 -5.4852
# 5 -4.7860 -4.7494 -1.9996 0.0767 10.8795 -1.1871
# 6 10.4857 7.6164 1.0891 -5.4852 -1.1871 17.0406
#
#
#
# Elastic Compliance Matrix: (Units=1/GPa)
#
#
# Indices 1 2 3 4 5 6 
#
# 1 0.025059 -0.001957 -0.011204 -0.011501 0.006327 -0.017091
# 2 -0.001957 0.013478 -0.002883 0.002137 0.004078 -0.003664
# 3 -0.011204 -0.002883 0.025105 0.014573 -0.000450 0.011238
# 4 -0.011501 0.002137 0.014573 0.054240 0.000645 0.022695
# 5 0.006327 0.004078 -0.000450 0.000645 0.096528 0.001245
# 6 -0.017091 -0.003664 0.011238 0.022695 0.001245 0.077511
#
#
# Mechanical properties :
#
#
# Convention : Reuss Voigt Hill
#
# Bulk Modulus (GPa) = 31.69183 36.23883 33.96533
# Shear Modulus (GPa) = 14.94642 20.17628 17.56135
#
# Velocity S-wave (km/s) = 2.76447 3.21192 2.99656
# Velocity P-wave (km/s) = 5.13753 5.68196 5.41659
#
# Compressibility (1/GPa) = 0.03155387
#
# Stress axis : x y z
#
# Youngs Moduli (GPa) = 39.90554 74.19539 39.83254
#
# Poissons Ratio (x) = 0.14517 0.44629
# Poissons Ratio (y) = 0.07808 0.11485
# Poissons Ratio (z) = 0.44711 0.21393
#
# Static dielectric constant tensor:
#      x y z
#    x 1.658280 0.016490 -0.003070 
#    y 0.016490 1.760200 -0.041620 
#    z -0.003070 -0.041620 1.697500 
# 
# From -- ./inp_files/271174.got.cif
#   From: 2010.05.17/outbox.cif.g08.bks.cpg/sg2_136_cif.got.tgz:271174.got - 2010.06.03 11:33:40.
