data_PCOD9084363
_publ_section_title
;
Structure prediction by ZEFSAII (Michael W. Deem and Ramdas Pophale) SiO2 
 PCOD9084363
Probable space group: P -1
;
_chemical_formula_sum "Si O2"
_cell_formula_units_Z 16
_cell_length_a 14.968455
_cell_length_b 18.533765
_cell_length_c 5.432955
_cell_angle_alpha 89.462179
_cell_angle_beta 85.070446
_cell_angle_gamma 28.106005
_cell_volume 700.314372
_symmetry_space_group_name_H-M "P -1"
_symmetry_group_IT_number 2
_symmetry_cell_setting 'triclinic'
loop_
_space_group_symop_operation_xyz
x,y,z
-x,-y,-z
loop_
_atom_site_type_symbol
_atom_site_label
_atom_site_fract_x
_atom_site_fract_y
_atom_site_fract_z
Si Si1 0.487604 0.759241 0.804183
Si Si2 0.410740 0.447407 0.512630
Si Si3 0.941084 0.895590 0.090104
Si Si4 0.668465 0.356122 0.776130
Si Si5 0.316517 0.142558 0.856227
Si Si6 0.785022 0.894660 0.499463
Si Si7 0.562149 0.789778 0.263093
Si Si8 0.041854 0.675410 0.817323
O O1 0.543551 0.639268 0.715447
O O2 0.538632 0.768625 0.538418
O O3 0.258895 0.921906 0.922348
O O4 0.591946 0.719611 0.017447
O O5 0.594550 0.343550 0.624833
O O6 0.313621 0.587677 0.412644
O O7 0.267848 0.510438 0.737166
O O8 0.876880 0.896111 0.343268
O O9 0.134883 0.799305 0.119952
O O10 0.003367 0.786131 0.898913
O O11 0.500000 0.500000 0.000000
O O12 0.345466 0.062308 0.640867
O O13 0.305439 0.233498 0.771981
O O14 0.103861 0.270493 0.998483
O O15 0.500000 0.000000 0.000000
O O16 0.957757 0.724305 0.563211
O O17 0.647271 0.024202 0.735516
#
# Coordination Sequence:
#
# PCOD9084363 Si02
#       8
#     2   2   2   2   2   2   2   2
#     4  11  26  43  69  93 147 174 216 273 346 401
#     4  11  26  44  65 100 125 180 215 275 344 400
#     4  10  20  39  65  99 124 176 213 277 329 387
#     4  11  23  42  73  92 129 162 232 277 323 407
#     4  11  21  34  63 101 129 169 231 281 314 375
#     4  10  19  34  63  94 130 164 222 273 315 376
#     4  11  22  41  63  98 135 179 216 276 330 389
#     4  11  20  37  64  92 128 169 225 268 321 385
#
# _framework density 22.846882000000001
#
# number of rings (size 3 to 8) (size 9 to 14) (size 15 to 20)
#    0.000    1.250    5.000    1.875    3.500    0.500 
#    0.000    1.875    0.000    0.000    0.000    0.000 
#    0.000    0.000    0.000    0.000    0.000    0.000 
#
# Total GULP energy -89186.415817 kJ/mol
# GULP energy per Si atom -5574.150989 kJ/mol
# Density = 2.279488 g / cm^3
# Si number density = 22.846882 Si / 1000 Ang^3
#
#
#
# Elastic Constant Matrix: (Units=GPa)
#
#
# Indices 1 2 3 4 5 6 
#
# 1 100.8027 43.6869 47.4463 9.0597 12.8961 -21.8315
# 2 43.6869 37.3294 12.4418 9.6996 -1.7035 -9.2658
# 3 47.4463 12.4418 92.3001 14.8209 11.4251 -7.4430
# 4 9.0597 9.6996 14.8209 35.6450 0.7063 -1.4812
# 5 12.8961 -1.7035 11.4251 0.7063 38.6914 0.3737
# 6 -21.8315 -9.2658 -7.4430 -1.4812 0.3737 25.1594
#
#
#
# Elastic Compliance Matrix: (Units=1/GPa)
#
#
# Indices 1 2 3 4 5 6 
#
# 1 0.034034 -0.034632 -0.011521 0.006334 -0.009716 0.013886
# 2 -0.034632 0.067543 0.009129 -0.013757 0.012106 -0.003465
# 3 -0.011521 0.009129 0.016452 -0.006476 -0.000477 -0.002142
# 4 0.006334 -0.013757 -0.006476 0.032928 -0.001410 0.000473
# 5 -0.009716 0.012106 -0.000477 -0.001410 0.029828 -0.004640
# 6 0.013886 -0.003465 -0.002142 0.000473 -0.004640 0.049983
#
#
# Mechanical properties :
#
#
# Convention : Reuss Voigt Hill
#
# Bulk Modulus (GPa) = 22.73750 48.62025 35.67887
# Shear Modulus (GPa) = 15.65057 28.35631 22.00344
#
# Velocity S-wave (km/s) = 2.62013 3.52681 3.10672
# Velocity P-wave (km/s) = 4.37346 6.15724 5.34036
#
# Compressibility (1/GPa) = 0.04398022
#
# Stress axis : x y z
#
# Youngs Moduli (GPa) = 29.38270 14.80540 60.78206
#
# Poissons Ratio (x) = 0.51274 0.70027
# Poissons Ratio (y) = 1.01759 -0.55487
# Poissons Ratio (z) = 0.33852 -0.13516
#
# Static dielectric constant tensor:
#      x y z
#    x 1.876240 0.009860 -0.038920 
#    y 0.009860 1.914310 -0.030380 
#    z -0.038920 -0.030380 1.923590 
# 
# From -- ./inp_files/100669.got.cif
#   From: 2010.05.17/outbox.cif.g08.bks.cpg/sg2_51_cif.got.tgz:100669.got - 2010.06.03 11:33:40.
