data_PCOD9084543
_publ_section_title
;
Structure prediction by ZEFSAII (Michael W. Deem and Ramdas Pophale) SiO2 
 PCOD9084543
Probable space group: P -1
;
_chemical_formula_sum "Si O2"
_cell_formula_units_Z 16
_cell_length_a 10.496646
_cell_length_b 10.323127
_cell_length_c 8.789321
_cell_angle_alpha 69.634684
_cell_angle_beta 113.204511
_cell_angle_gamma 69.234411
_cell_volume 673.925283
_symmetry_space_group_name_H-M "P -1"
_symmetry_group_IT_number 2
_symmetry_cell_setting 'triclinic'
loop_
_space_group_symop_operation_xyz
x,y,z
-x,-y,-z
loop_
_atom_site_type_symbol
_atom_site_label
_atom_site_fract_x
_atom_site_fract_y
_atom_site_fract_z
Si Si1 0.842319 0.083031 0.074929
Si Si2 0.414837 0.878523 0.632061
Si Si3 0.753502 0.664111 0.730543
Si Si4 0.066879 0.116966 0.523792
Si Si5 0.307746 0.765708 0.353727
Si Si6 0.063638 0.677661 0.890805
Si Si7 0.509522 0.639407 0.038870
Si Si8 0.318265 0.453315 0.528643
O O1 0.948356 0.163148 0.110468
O O2 0.908629 0.915197 0.270931
O O3 0.797824 0.087085 0.877296
O O4 0.669637 0.231632 0.015417
O O5 0.571586 0.831684 0.616029
O O6 0.323121 0.816681 0.508014
O O7 0.251499 0.043157 0.565102
O O8 0.515487 0.756539 0.870577
O O9 0.773891 0.613642 0.582278
O O10 0.897965 0.683618 0.847060
O O11 0.783363 0.499657 0.897885
O O12 0.940076 0.291550 0.305694
O O13 0.000000 0.000000 0.500000
O O14 0.243470 0.645891 0.378733
O O15 0.497082 0.653283 0.421375
O O16 0.645779 0.574705 0.263913
O O17 0.500000 0.500000 0.000000
#
# Coordination Sequence:
#
# PCOD9084543 Si02
#       8
#     2   2   2   2   2   2   2   2
#     4   9  17  31  52  74 104 136 170 215 265 305
#     4  10  19  32  54  82 103 134 178 214 261 316
#     4  10  20  33  56  77 103 146 177 211 249 314
#     4   9  20  36  53  77 108 138 169 220 270 306
#     4   9  15  27  50  78 106 128 170 222 260 302
#     4  10  19  34  53  75 107 145 176 206 261 311
#     4  10  16  25  49  80 105 129 167 225 265 299
#     4   9  16  27  46  78 110 131 166 220 265 296
#
# _framework density 23.741502000000001
#
# number of rings (size 3 to 8) (size 9 to 14) (size 15 to 20)
#    0.000    2.500    2.500    0.750    0.000    0.500 
#    0.000    2.500    0.000   24.750    0.000    0.000 
#    0.000    0.000    0.000    0.000    0.000    0.000 
#
# Total GULP energy -89230.912587 kJ/mol
# GULP energy per Si atom -5576.932037 kJ/mol
# Density = 2.368747 g / cm^3
# Si number density = 23.741502 Si / 1000 Ang^3
#
#
#
# Elastic Constant Matrix: (Units=GPa)
#
#
# Indices 1 2 3 4 5 6 
#
# 1 56.4143 24.7532 -7.5051 12.4687 14.8123 -17.0494
# 2 24.7532 50.4828 29.0861 1.0619 -10.5105 -26.6320
# 3 -7.5051 29.0861 161.4572 -0.3459 -31.4578 -11.4580
# 4 12.4687 1.0619 -0.3459 30.3029 4.0830 0.7776
# 5 14.8123 -10.5105 -31.4578 4.0830 29.5566 -2.2834
# 6 -17.0494 -26.6320 -11.4580 0.7776 -2.2834 27.0318
#
#
#
# Elastic Compliance Matrix: (Units=1/GPa)
#
#
# Indices 1 2 3 4 5 6 
#
# 1 0.037199 -0.025498 0.001185 -0.010932 -0.025167 -0.002969
# 2 -0.025498 0.072504 -0.002255 0.000987 0.040489 0.057785
# 3 0.001185 -0.002255 0.008403 -0.001458 0.007965 0.002802
# 4 -0.010932 0.000987 -0.001458 0.037855 -0.001551 -0.007760
# 5 -0.025167 0.040489 0.007965 -0.001551 0.072126 0.033530
# 6 -0.002969 0.057785 0.002802 -0.007760 0.033530 0.096295
#
#
# Mechanical properties :
#
#
# Convention : Reuss Voigt Hill
#
# Bulk Modulus (GPa) = 15.39204 40.11363 27.75283
# Shear Modulus (GPa) = 12.52585 32.17961 22.35273
#
# Velocity S-wave (km/s) = 2.29943 3.68559 3.07172
# Velocity P-wave (km/s) = 3.68064 5.91981 4.92906
#
# Compressibility (1/GPa) = 0.06496865
#
# Stress axis : x y z
#
# Youngs Moduli (GPa) = 26.88273 13.79235 119.01182
#
# Poissons Ratio (x) = 0.35168 -0.14102
# Poissons Ratio (y) = 0.68546 0.26837
# Poissons Ratio (z) = -0.03185 0.03110
#
# Static dielectric constant tensor:
#      x y z
#    x 1.965250 -0.027750 0.000920 
#    y -0.027750 1.900300 -0.033100 
#    z 0.000920 -0.033100 1.966370 
# 
# From -- ./inp_files/257655.got.cif
#   From: 2010.05.17/outbox.cif.g08.bks.cpg/sg2_129_cif.got.tgz:257655.got - 2010.06.03 11:33:40.
