data_PCOD9084146
_publ_section_title
;
Structure prediction by ZEFSAII (Michael W. Deem and Ramdas Pophale) SiO2 
 PCOD9084146
Probable space group: P -1
;
_chemical_formula_sum "Si O2"
_cell_formula_units_Z 12
_cell_length_a 8.054320
_cell_length_b 8.164572
_cell_length_c 14.199873
_cell_angle_alpha 143.539339
_cell_angle_beta 116.462741
_cell_angle_gamma 53.469789
_cell_volume 444.829056
_symmetry_space_group_name_H-M "P -1"
_symmetry_group_IT_number 2
_symmetry_cell_setting 'triclinic'
loop_
_space_group_symop_operation_xyz
x,y,z
-x,-y,-z
loop_
_atom_site_type_symbol
_atom_site_label
_atom_site_fract_x
_atom_site_fract_y
_atom_site_fract_z
Si Si1 0.722246 0.731253 0.370687
Si Si2 0.876046 0.818983 0.778688
Si Si3 0.923818 0.125055 0.643161
Si Si4 0.592913 0.656873 0.501316
Si Si5 0.576320 0.770300 0.807688
Si Si6 0.112232 0.138626 0.878257
O O1 0.643506 0.589982 0.369455
O O2 0.921188 0.453997 0.248657
O O3 0.789970 0.947383 0.550738
O O4 0.569064 0.975882 0.371272
O O5 0.790601 0.651551 0.603396
O O6 0.687854 0.951971 0.866616
O O7 0.965069 0.038124 0.857039
O O8 0.766510 0.484650 0.773318
O O9 0.104502 0.022857 0.716476
O O10 0.000000 0.000000 0.500000
O O11 0.480219 0.432880 0.378849
O O12 0.354473 0.995592 0.899809
O O13 0.000000 0.500000 0.000000
#
# Coordination Sequence:
#
# PCOD9084146 Si02
#       6
#     2   2   2   2   2   2
#     4  10  19  34  61 102 132 162 205 279 341 387
#     4  12  22  39  66  95 133 174 218 273 331 390
#     4  11  23  42  71 106 134 165 220 283 337 393
#     4  10  20  34  61 102 136 160 209 275 345 389
#     4  11  25  39  70 102 131 174 222 274 335 398
#     4  12  29  48  64  93 140 187 225 267 324 397
#
# _framework density 26.976656999999999
#
# number of rings (size 3 to 8) (size 9 to 14) (size 15 to 20)
#    0.000    1.000    5.000    2.000    4.667    1.333 
#    0.000    0.833    0.000    0.000    0.000    0.000 
#    0.000    0.000    0.000    0.000    0.000    0.000 
#
# Total GULP energy -67005.428532 kJ/mol
# GULP energy per Si atom -5583.785711 kJ/mol
# Density = 2.691526 g / cm^3
# Si number density = 26.976657 Si / 1000 Ang^3
#
#
#
# Elastic Constant Matrix: (Units=GPa)
#
#
# Indices 1 2 3 4 5 6 
#
# 1 218.6905 48.7202 48.8086 35.3239 5.7519 0.3694
# 2 48.7202 112.1635 23.5644 13.1325 10.5191 -40.6162
# 3 48.8086 23.5644 72.2425 29.7485 -0.1662 4.6071
# 4 35.3239 13.1325 29.7485 50.4848 4.6241 6.2414
# 5 5.7519 10.5191 -0.1662 4.6241 30.7018 5.8194
# 6 0.3694 -40.6162 4.6071 6.2414 5.8194 41.6273
#
#
#
# Elastic Compliance Matrix: (Units=1/GPa)
#
#
# Indices 1 2 3 4 5 6 
#
# 1 0.005989 -0.002826 -0.002177 -0.001934 0.000573 -0.002360
# 2 -0.002826 0.020718 -0.005490 -0.002004 -0.010586 0.022628
# 3 -0.002177 -0.005490 0.021369 -0.009241 0.005130 -0.007034
# 4 -0.001934 -0.002004 -0.009241 0.027930 -0.002301 -0.004782
# 5 0.000573 -0.010586 0.005130 -0.002301 0.039513 -0.016080
# 6 -0.002360 0.022628 -0.007034 -0.004782 -0.016080 0.049865
#
#
# Mechanical properties :
#
#
# Convention : Reuss Voigt Hill
#
# Bulk Modulus (GPa) = 36.91338 71.69809 54.30574
# Shear Modulus (GPa) = 25.58830 43.36300 34.47565
#
# Velocity S-wave (km/s) = 3.08317 4.01362 3.57876
# Velocity P-wave (km/s) = 5.13690 6.93646 6.10337
#
# Compressibility (1/GPa) = 0.02709045
#
# Stress axis : x y z
#
# Youngs Moduli (GPa) = 166.96327 48.26698 46.79577
#
# Poissons Ratio (x) = 0.13642 0.10185
# Poissons Ratio (y) = 0.47188 0.25693
# Poissons Ratio (z) = 0.36341 0.26500
#
# Static dielectric constant tensor:
#      x y z
#    x 2.292050 0.074320 -0.039580 
#    y 0.074320 2.154250 -0.031260 
#    z -0.039580 -0.031260 2.152390 
# 
# From -- ./inp_files/555732.got.cif
#   From: 2010.05.17/outbox.cif.g08.bks.cpg/sg2_278_cif.got.tgz:555732.got - 2010.06.03 11:33:40.
