data_PCOD9084746
_publ_section_title
;
Structure prediction by ZEFSAII (Michael W. Deem and Ramdas Pophale) SiO2 
 PCOD9084746
Probable space group: P -1
;
_chemical_formula_sum "Si O2"
_cell_formula_units_Z 16
_cell_length_a 14.622351
_cell_length_b 8.898363
_cell_length_c 12.905458
_cell_angle_alpha 56.827637
_cell_angle_beta 38.414385
_cell_angle_gamma 42.943066
_cell_volume 709.424415
_symmetry_space_group_name_H-M "P -1"
_symmetry_group_IT_number 2
_symmetry_cell_setting 'triclinic'
loop_
_space_group_symop_operation_xyz
x,y,z
-x,-y,-z
loop_
_atom_site_type_symbol
_atom_site_label
_atom_site_fract_x
_atom_site_fract_y
_atom_site_fract_z
Si Si1 0.714617 0.863632 0.373014
Si Si2 0.601241 0.306994 0.834540
Si Si3 0.943253 0.941797 0.262776
Si Si4 0.779708 0.954411 0.998342
Si Si5 0.989904 0.427076 0.201157
Si Si6 0.216852 0.422532 0.180904
Si Si7 0.848542 0.144588 0.492042
Si Si8 0.381204 0.282055 0.296447
O O1 0.783566 0.006521 0.299655
O O2 0.849189 0.692547 0.230168
O O3 0.734071 0.711509 0.509456
O O4 0.500000 0.000000 0.500000
O O5 0.714485 0.108378 0.892411
O O6 0.669508 0.242721 0.680856
O O7 0.618424 0.501908 0.781094
O O8 0.395810 0.389391 0.990342
O O9 0.066869 0.026659 0.095721
O O10 0.076986 0.677980 0.237126
O O11 0.871623 0.015327 0.415689
O O12 0.592868 0.074149 0.182588
O O13 0.879422 0.706290 0.961385
O O14 0.873687 0.330610 0.360748
O O15 0.124864 0.360750 0.202848
O O16 0.285831 0.282228 0.277032
O O17 0.000000 0.000000 0.500000
#
# Coordination Sequence:
#
# PCOD9084746 Si02
#       8
#     2   2   2   2   2   2   2   2
#     4  11  26  42  56  76 109 151 201 241 266 313
#     4  11  18  32  55  88 129 139 170 218 281 354
#     4  10  20  36  58  81 116 145 182 225 281 333
#     4  10  19  35  56  90 115 143 173 222 286 344
#     4  10  22  35  57  83 119 143 182 230 281 330
#     4  10  20  32  55  89 116 148 174 216 286 349
#     4  11  19  32  55  90 121 143 174 219 281 345
#     4  11  20  34  59  82 118 146 183 220 282 335
#
# _framework density 22.553494000000001
#
# number of rings (size 3 to 8) (size 9 to 14) (size 15 to 20)
#    0.000    1.500    6.250    0.750    1.750    4.000 
#    0.000    3.750    0.000    0.000    0.000    0.000 
#    0.000    0.000    0.000    0.000    0.000    0.000 
#
# Total GULP energy -89434.154638 kJ/mol
# GULP energy per Si atom -5589.634665 kJ/mol
# Density = 2.250216 g / cm^3
# Si number density = 22.553494 Si / 1000 Ang^3
#
#
#
# Elastic Constant Matrix: (Units=GPa)
#
#
# Indices 1 2 3 4 5 6 
#
# 1 103.1190 36.7542 40.0169 26.3905 -17.1111 21.8328
# 2 36.7542 65.9025 16.7441 22.1185 0.7242 15.5460
# 3 40.0169 16.7441 108.8404 22.1930 9.1571 15.2339
# 4 26.3905 22.1185 22.1930 33.7719 1.3637 4.1236
# 5 -17.1111 0.7242 9.1571 1.3637 41.7501 10.9640
# 6 21.8328 15.5460 15.2339 4.1236 10.9640 31.7808
#
#
#
# Elastic Compliance Matrix: (Units=1/GPa)
#
#
# Indices 1 2 3 4 5 6 
#
# 1 0.019996 -0.004101 -0.004114 -0.009167 0.012886 -0.013014
# 2 -0.004101 0.022812 0.001452 -0.011773 -0.000042 -0.007495
# 3 -0.004114 0.001452 0.012120 -0.005341 -0.003747 -0.001708
# 4 -0.009167 -0.011773 -0.005341 0.046941 -0.006766 0.010860
# 5 0.012886 -0.000042 -0.003747 -0.006766 0.035071 -0.018257
# 6 -0.013014 -0.007495 -0.001708 0.010860 -0.018257 0.049780
#
#
# Mechanical properties :
#
#
# Convention : Reuss Voigt Hill
#
# Bulk Modulus (GPa) = 24.15452 51.65473 37.90462
# Shear Modulus (GPa) = 23.35924 33.75034 28.55479
#
# Velocity S-wave (km/s) = 3.22176 3.87260 3.56208
# Velocity P-wave (km/s) = 4.95709 6.55355 5.81041
#
# Compressibility (1/GPa) = 0.04140011
#
# Stress axis : x y z
#
# Youngs Moduli (GPa) = 50.01124 43.83629 82.50576
#
# Poissons Ratio (x) = 0.17979 0.33944
# Poissons Ratio (y) = 0.20512 -0.11976
# Poissons Ratio (z) = 0.20575 -0.06363
#
# Static dielectric constant tensor:
#      x y z
#    x 1.897700 -0.013720 0.019130 
#    y -0.013720 1.870390 0.010070 
#    z 0.019130 0.010070 1.828400 
# 
# From -- ./inp_files/209107.got.cif
#   From: 2010.05.17/outbox.cif.g08.bks.cpg/sg2_105_cif.got.tgz:209107.got - 2010.06.03 11:33:40.
