data_PCOD9084660
_publ_section_title
;
Structure prediction by ZEFSAII (Michael W. Deem and Ramdas Pophale) SiO2 
 PCOD9084660
Probable space group: P -1
;
_chemical_formula_sum "Si O2"
_cell_formula_units_Z 16
_cell_length_a 8.591966
_cell_length_b 13.881151
_cell_length_c 11.668129
_cell_angle_alpha 80.580875
_cell_angle_beta 88.866253
_cell_angle_gamma 146.770265
_cell_volume 720.030699
_symmetry_space_group_name_H-M "P -1"
_symmetry_group_IT_number 2
_symmetry_cell_setting 'triclinic'
loop_
_space_group_symop_operation_xyz
x,y,z
-x,-y,-z
loop_
_atom_site_type_symbol
_atom_site_label
_atom_site_fract_x
_atom_site_fract_y
_atom_site_fract_z
Si Si1 0.542517 0.805784 0.130254
Si Si2 0.898978 0.108407 0.395959
Si Si3 0.439418 0.535333 0.269744
Si Si4 0.335408 0.836231 0.950175
Si Si5 0.608822 0.109757 0.704193
Si Si6 0.060060 0.197579 0.634224
Si Si7 0.878076 0.910225 0.804629
Si Si8 0.339828 0.486089 0.915903
O O1 0.445156 0.643301 0.187863
O O2 0.394506 0.799447 0.227861
O O3 0.451360 0.796361 0.008975
O O4 0.896314 0.000165 0.114012
O O5 0.118325 0.315703 0.323886
O O6 0.986975 0.070171 0.314073
O O7 0.965064 0.117814 0.523662
O O8 0.564359 0.956017 0.396318
O O9 0.646380 0.569942 0.189635
O O10 0.594325 0.626635 0.373746
O O11 0.420343 0.923745 0.807956
O O12 0.986013 0.659914 0.010939
O O13 0.500000 0.000000 0.000000
O O14 0.925692 0.232743 0.650160
O O15 0.911211 0.042005 0.755498
O O16 0.553603 0.692869 0.861348
O O17 0.500000 0.500000 0.000000
#
# Coordination Sequence:
#
# PCOD9084660 Si02
#       8
#     2   2   2   2   2   2   2   2
#     4   9  19  37  56  80 114 146 176 223 275 327
#     4  10  20  38  57  80 111 144 182 233 275 313
#     4  10  21  36  58  84 109 140 186 227 270 328
#     4  10  19  35  56  78 110 146 175 219 274 321
#     4  10  21  37  54  79 112 147 184 221 269 331
#     4  11  21  37  59  81 107 148 188 226 271 319
#     4   9  21  37  57  83 111 142 186 226 269 327
#     4  11  21  37  58  83 113 145 179 225 274 326
#
# _framework density 22.221276
#
# number of rings (size 3 to 8) (size 9 to 14) (size 15 to 20)
#    0.000    2.000    0.000    5.625    0.000    2.000 
#    0.000    8.750    0.000    0.000    0.000    0.000 
#    0.000    0.000    0.000    0.000    0.000    0.000 
#
# Total GULP energy -89429.292177 kJ/mol
# GULP energy per Si atom -5589.330761 kJ/mol
# Density = 2.217070 g / cm^3
# Si number density = 22.221276 Si / 1000 Ang^3
#
#
#
# Elastic Constant Matrix: (Units=GPa)
#
#
# Indices 1 2 3 4 5 6 
#
# 1 92.8020 36.1020 13.8719 9.1323 5.5546 -8.6550
# 2 36.1020 60.9515 -1.4948 3.9505 6.4746 4.3408
# 3 13.8719 -1.4948 50.7968 19.1339 10.8681 10.3744
# 4 9.1323 3.9505 19.1339 36.4382 4.0593 10.0986
# 5 5.5546 6.4746 10.8681 4.0593 31.8287 3.4335
# 6 -8.6550 4.3408 10.3744 10.0986 3.4335 32.9642
#
#
#
# Elastic Compliance Matrix: (Units=1/GPa)
#
#
# Indices 1 2 3 4 5 6 
#
# 1 0.016709 -0.010541 -0.005806 -0.002354 0.000620 0.008259
# 2 -0.010541 0.023817 0.006244 -0.000750 -0.004266 -0.007195
# 3 -0.005806 0.006244 0.028957 -0.011582 -0.007903 -0.007088
# 4 -0.002354 -0.000750 -0.011582 0.036355 0.000754 -0.008090
# 5 0.000620 -0.004266 -0.007903 0.000754 0.034850 -0.000649
# 6 0.008259 -0.007195 -0.007088 -0.008090 -0.000649 0.038229
#
#
# Mechanical properties :
#
#
# Convention : Reuss Voigt Hill
#
# Bulk Modulus (GPa) = 20.29312 33.50092 26.89702
# Shear Modulus (GPa) = 23.19682 30.65095 26.92389
#
# Velocity S-wave (km/s) = 3.23445 3.71799 3.48462
# Velocity P-wave (km/s) = 4.80635 5.79138 5.32170
#
# Compressibility (1/GPa) = 0.04927779
#
# Stress axis : x y z
#
# Youngs Moduli (GPa) = 59.84893 41.98689 34.53426
#
# Poissons Ratio (x) = 0.44256 0.20050
# Poissons Ratio (y) = 0.63084 -0.21563
# Poissons Ratio (z) = 0.34746 -0.26216
#
# Static dielectric constant tensor:
#      x y z
#    x 1.840450 -0.005790 -0.023140 
#    y -0.005790 1.795660 0.018940 
#    z -0.023140 0.018940 1.880150 
# 
# From -- ./inp_files/180696.got.cif
#   From: 2010.05.17/outbox.cif.g08.bks.cpg/sg2_91_cif.got.tgz:180696.got - 2010.06.03 11:33:40.
