data_PCOD9084086
_publ_section_title
;
Structure prediction by ZEFSAII (Michael W. Deem and Ramdas Pophale) SiO2 
 PCOD9084086
Probable space group: P -1
;
_chemical_formula_sum "Si O2"
_cell_formula_units_Z 16
_cell_length_a 12.237896
_cell_length_b 15.506626
_cell_length_c 7.878699
_cell_angle_alpha 36.085682
_cell_angle_beta 70.734355
_cell_angle_gamma 60.381049
_cell_volume 758.476789
_symmetry_space_group_name_H-M "P -1"
_symmetry_group_IT_number 2
_symmetry_cell_setting 'triclinic'
loop_
_space_group_symop_operation_xyz
x,y,z
-x,-y,-z
loop_
_atom_site_type_symbol
_atom_site_label
_atom_site_fract_x
_atom_site_fract_y
_atom_site_fract_z
Si Si1 0.400208 0.019734 0.871524
Si Si2 0.074472 0.855796 0.325026
Si Si3 0.352378 0.585518 0.634276
Si Si4 0.286288 0.332991 0.232550
Si Si5 0.556961 0.679433 0.286895
Si Si6 0.137190 0.094931 0.079335
Si Si7 0.208294 0.295767 0.957145
Si Si8 0.023592 0.363577 0.444926
O O1 0.381278 0.177381 0.527037
O O2 0.462679 0.856404 0.990401
O O3 0.500000 0.000000 0.000000
O O4 0.265711 0.036809 0.991045
O O5 0.221408 0.732972 0.412712
O O6 0.002694 0.737978 0.533944
O O7 0.085561 0.956638 0.321327
O O8 0.000000 0.000000 0.000000
O O9 0.466747 0.638450 0.527963
O O10 0.398329 0.460377 0.653394
O O11 0.323595 0.482785 0.958243
O O12 0.150729 0.385440 0.307801
O O13 0.268604 0.276200 0.142789
O O14 0.687090 0.693979 0.244798
O O15 0.170005 0.154113 0.144892
O O16 0.042165 0.254021 0.776174
O O17 0.090993 0.466471 0.746956
#
# Coordination Sequence:
#
# PCOD9084086 Si02
#       8
#     2   2   2   2   2   2   2   2
#     4  11  21  39  61  85 121 161 205 250 307 367
#     4  10  19  34  60  87 119 162 201 244 298 363
#     4  10  20  37  59  90 119 158 209 252 292 365
#     4  10  23  38  64  89 117 162 209 256 300 357
#     4  10  20  35  61  85 122 159 202 249 301 364
#     4  10  21  35  59  90 120 159 204 250 300 358
#     4  11  20  36  60  93 120 158 202 257 299 361
#     4  10  20  38  61  86 120 164 205 242 303 366
#
# _framework density 21.094909999999999
#
# number of rings (size 3 to 8) (size 9 to 14) (size 15 to 20)
#    0.000    1.750    5.000    0.750    0.000    2.000 
#    0.000    1.250    0.000    0.000    0.000    0.000 
#    0.000    0.000    0.000    0.000    0.000    0.000 
#
# Total GULP energy -89187.447118 kJ/mol
# GULP energy per Si atom -5574.215445 kJ/mol
# Density = 2.104690 g / cm^3
# Si number density = 21.094910 Si / 1000 Ang^3
#
#
#
# Elastic Constant Matrix: (Units=GPa)
#
#
# Indices 1 2 3 4 5 6 
#
# 1 80.6223 17.0369 42.8008 -9.9849 -1.7077 -8.0089
# 2 17.0369 61.2813 42.5241 -28.6340 11.6758 -7.8202
# 3 42.8008 42.5241 94.1152 -28.8182 12.1501 -27.8788
# 4 -9.9849 -28.6340 -28.8182 29.5126 -2.0970 0.5296
# 5 -1.7077 11.6758 12.1501 -2.0970 35.6267 2.6129
# 6 -8.0089 -7.8202 -27.8788 0.5296 2.6129 25.5457
#
#
#
# Elastic Compliance Matrix: (Units=1/GPa)
#
#
# Indices 1 2 3 4 5 6 
#
# 1 0.018383 -0.002147 -0.014356 -0.009203 0.006750 -0.011060
# 2 -0.002147 0.035874 -0.001575 0.031662 -0.010117 0.008968
# 3 -0.014356 -0.001575 0.042857 0.033563 -0.015945 0.042723
# 4 -0.009203 0.031662 0.033563 0.092057 -0.020042 0.043577
# 5 0.006750 -0.010117 -0.015945 -0.020042 0.037566 -0.021809
# 6 -0.011060 0.008968 0.042723 0.043577 -0.021809 0.086375
#
#
# Mechanical properties :
#
#
# Convention : Reuss Voigt Hill
#
# Bulk Modulus (GPa) = 16.40469 48.97139 32.68804
# Shear Modulus (GPa) = 13.52863 27.04748 20.28805
#
# Velocity S-wave (km/s) = 2.53518 3.58464 3.10458
# Velocity P-wave (km/s) = 4.04512 6.35594 5.32734
#
# Compressibility (1/GPa) = 0.06095816
#
# Stress axis : x y z
#
# Youngs Moduli (GPa) = 54.39863 27.87507 23.33367
#
# Poissons Ratio (x) = 0.05984 0.33497
# Poissons Ratio (y) = 0.11678 0.03676
# Poissons Ratio (z) = 0.78094 0.04391
#
# Static dielectric constant tensor:
#      x y z
#    x 1.810930 0.011610 -0.035790 
#    y 0.011610 1.798210 0.015820 
#    z -0.035790 0.015820 1.772340 
# 
# From -- ./inp_files/204434.got.cif
#   From: 2010.05.17/outbox.cif.g08.bks.cpg/sg2_103_cif.got.tgz:204434.got - 2010.06.03 11:33:40.
