data_PCOD9084871
_publ_section_title
;
Structure prediction by ZEFSAII (Michael W. Deem and Ramdas Pophale) SiO2 
 PCOD9084871
Probable space group: P -1
;
_chemical_formula_sum "Si O2"
_cell_formula_units_Z 16
_cell_length_a 10.563047
_cell_length_b 8.241447
_cell_length_c 20.130341
_cell_angle_alpha 106.762969
_cell_angle_beta 32.126698
_cell_angle_gamma 120.720304
_cell_volume 760.255828
_symmetry_space_group_name_H-M "P -1"
_symmetry_group_IT_number 2
_symmetry_cell_setting 'triclinic'
loop_
_space_group_symop_operation_xyz
x,y,z
-x,-y,-z
loop_
_atom_site_type_symbol
_atom_site_label
_atom_site_fract_x
_atom_site_fract_y
_atom_site_fract_z
Si Si1 0.609314 0.048924 0.731492
Si Si2 0.033586 0.029258 0.341855
Si Si3 0.425346 0.769468 0.582715
Si Si4 0.923455 0.667114 0.545072
Si Si5 0.293497 0.110220 0.656057
Si Si6 0.109485 0.652984 0.834641
Si Si7 0.713517 0.597584 0.205877
Si Si8 0.247931 0.225022 0.931844
O O1 0.508768 0.196593 0.817893
O O2 0.861812 0.169699 0.582269
O O3 0.715956 0.980416 0.738428
O O4 0.363729 0.857699 0.778743
O O5 0.051018 0.226089 0.383899
O O6 0.736620 0.847162 0.480037
O O7 0.974479 0.002419 0.286723
O O8 0.460379 0.731851 0.485147
O O9 0.197758 0.623181 0.718524
O O10 0.382213 0.957015 0.621732
O O11 0.603511 0.570111 0.654614
O O12 0.000000 0.500000 0.500000
O O13 0.234204 0.210972 0.754406
O O14 0.084209 0.477109 0.870380
O O15 0.849447 0.684745 0.956260
O O16 0.722154 0.645602 0.130667
O O17 0.000000 0.000000 0.000000
#
# Coordination Sequence:
#
# PCOD9084871 Si02
#       8
#     2   2   2   2   2   2   2   2
#     4  11  19  37  53  87 119 152 191 233 308 337
#     4  10  19  35  57  86 122 152 181 235 303 347
#     4   9  18  36  58  81 115 156 191 215 300 348
#     4  12  21  32  59  90 122 141 188 259 290 335
#     4   9  20  36  57  85 124 154 188 228 298 362
#     4  11  21  37  62  83 119 154 200 245 274 353
#     4  12  22  37  59  95 113 145 206 240 291 342
#     4  10  23  38  60  82 117 160 195 244 287 339
#
# _framework density 21.045549000000001
#
# number of rings (size 3 to 8) (size 9 to 14) (size 15 to 20)
#    0.750    0.750    3.750    3.750    0.000    0.500 
#    0.000    0.000    0.000    7.500    0.000    0.000 
#    0.000    0.000    0.000    0.000    0.000    0.000 
#
# Total GULP energy -89227.511466 kJ/mol
# GULP energy per Si atom -5576.719467 kJ/mol
# Density = 2.099765 g / cm^3
# Si number density = 21.045549 Si / 1000 Ang^3
#
#
#
# Elastic Constant Matrix: (Units=GPa)
#
#
# Indices 1 2 3 4 5 6 
#
# 1 53.5618 -10.4323 3.5759 -1.0527 -0.1056 -9.7008
# 2 -10.4323 20.6523 0.9730 3.1134 -0.7006 -11.5713
# 3 3.5759 0.9730 43.3607 9.7114 -1.5178 -6.1164
# 4 -1.0527 3.1134 9.7114 22.6723 -2.5775 -1.2672
# 5 -0.1056 -0.7006 -1.5178 -2.5775 13.3105 3.6000
# 6 -9.7008 -11.5713 -6.1164 -1.2672 3.6000 31.6329
#
#
#
# Elastic Compliance Matrix: (Units=1/GPa)
#
#
# Indices 1 2 3 4 5 6 
#
# 1 0.026012 0.022467 -0.000155 -0.001268 -0.003336 0.016494
# 2 0.022467 0.082315 0.003796 -0.010599 -0.007429 0.038155
# 3 -0.000155 0.003796 0.026415 -0.011581 -0.000671 0.006061
# 4 -0.001268 -0.010599 -0.011581 0.051238 0.009531 -0.005537
# 5 -0.003336 -0.007429 -0.000671 0.009531 0.079883 -0.012579
# 6 0.016494 0.038155 0.006061 -0.005537 -0.012579 0.053010
#
#
# Mechanical properties :
#
#
# Convention : Reuss Voigt Hill
#
# Bulk Modulus (GPa) = 5.34884 11.75645 8.55265
# Shear Modulus (GPa) = 15.19864 21.75369 18.47616
#
# Velocity S-wave (km/s) = 2.69025 3.21853 2.96617
# Velocity P-wave (km/s) = 3.49242 4.40570 3.97538
#
# Compressibility (1/GPa) = 0.18695643
#
# Stress axis : x y z
#
# Youngs Moduli (GPa) = 38.44361 12.14849 37.85716
#
# Poissons Ratio (x) = -0.27294 0.00588
# Poissons Ratio (y) = -0.86370 -0.14370
# Poissons Ratio (z) = 0.00598 -0.04611
#
# Static dielectric constant tensor:
#      x y z
#    x 1.763610 -0.007670 -0.000010 
#    y -0.007670 1.778000 -0.013800 
#    z -0.000010 -0.013800 1.798240 
# 
# From -- ./inp_files/426956.got.cif
#   From: 2010.05.17/outbox.cif.g08.bks.cpg/sg2_214_cif.got.tgz:426956.got - 2010.06.03 11:33:40.
