data_PCOD9084728
_publ_section_title
;
Structure prediction by ZEFSAII (Michael W. Deem and Ramdas Pophale) SiO2 
 PCOD9084728
Probable space group: P -1
;
_chemical_formula_sum "Si O2"
_cell_formula_units_Z 16
_cell_length_a 21.463868
_cell_length_b 11.543364
_cell_length_c 8.573569
_cell_angle_alpha 129.603213
_cell_angle_beta 141.259402
_cell_angle_gamma 31.705635
_cell_volume 696.433331
_symmetry_space_group_name_H-M "P -1"
_symmetry_group_IT_number 2
_symmetry_cell_setting 'triclinic'
loop_
_space_group_symop_operation_xyz
x,y,z
-x,-y,-z
loop_
_atom_site_type_symbol
_atom_site_label
_atom_site_fract_x
_atom_site_fract_y
_atom_site_fract_z
Si Si1 0.281324 0.241174 0.159662
Si Si2 0.629326 0.679843 0.874446
Si Si3 0.344880 0.860396 0.846135
Si Si4 0.113870 0.006887 0.778387
Si Si5 0.301897 0.064020 0.621736
Si Si6 0.027778 0.482048 0.356421
Si Si7 0.839316 0.460774 0.558801
Si Si8 0.662024 0.421630 0.000385
O O1 0.260054 0.304801 0.351540
O O2 0.314996 0.353176 0.220128
O O3 0.121396 0.373188 0.899516
O O4 0.382600 0.984917 0.100046
O O5 0.670749 0.794567 0.136787
O O6 0.672607 0.498292 0.921689
O O7 0.455716 0.854595 0.668404
O O8 0.224482 0.923587 0.780158
O O9 0.279415 0.979683 0.652776
O O10 0.490721 0.602443 0.870286
O O11 0.226022 0.841402 0.994358
O O12 0.000000 0.000000 0.500000
O O13 0.986841 0.271119 0.785020
O O14 0.162875 0.219706 0.373456
O O15 0.093081 0.565804 0.496860
O O16 0.000000 0.500000 0.500000
O O17 0.732391 0.444380 0.295459
#
# Coordination Sequence:
#
# PCOD9084728 Si02
#       8
#     2   2   2   2   2   2   2   2
#     4  11  22  33  55  83 121 137 167 234 284 328
#     4   9  17  34  51  78 104 139 181 220 267 317
#     4  10  19  35  56  87 106 137 185 228 274 316
#     4  10  21  36  54  77 110 148 187 225 256 318
#     4   9  17  30  55  77 106 135 181 226 259 322
#     4  12  18  32  53  79 108 146 178 216 268 326
#     4  11  22  36  50  85 115 143 177 221 283 320
#     4  10  20  36  60  76 106 149 190 221 253 326
#
# _framework density 22.9742
#
# number of rings (size 3 to 8) (size 9 to 14) (size 15 to 20)
#    0.000    1.750    5.000    1.500    0.000    1.500 
#    0.000    0.625    0.000    0.000    0.000    9.625 
#    0.000    0.000    0.000    0.000    0.000    0.000 
#
# Total GULP energy -89104.931678 kJ/mol
# GULP energy per Si atom -5569.058230 kJ/mol
# Density = 2.292191 g / cm^3
# Si number density = 22.974200 Si / 1000 Ang^3
#
#
#
# Elastic Constant Matrix: (Units=GPa)
#
#
# Indices 1 2 3 4 5 6 
#
# 1 120.4722 12.8743 1.7793 -9.7718 12.0046 1.0772
# 2 12.8743 82.8108 9.4275 -31.3337 -0.8501 5.7937
# 3 1.7793 9.4275 29.2512 -18.2431 5.3917 -4.8211
# 4 -9.7718 -31.3337 -18.2431 40.1586 -6.3205 -6.3757
# 5 12.0046 -0.8501 5.3917 -6.3205 14.7965 -6.4368
# 6 1.0772 5.7937 -4.8211 -6.3757 -6.4368 22.7756
#
#
#
# Elastic Compliance Matrix: (Units=1/GPa)
#
#
# Indices 1 2 3 4 5 6 
#
# 1 0.009385 -0.001657 0.000985 -0.000451 -0.009390 -0.002594
# 2 -0.001657 0.018643 0.004431 0.018547 0.010673 0.004483
# 3 0.000985 0.004431 0.056126 0.032723 0.001852 0.020390
# 4 -0.000451 0.018547 0.032723 0.063074 0.028621 0.027975
# 5 -0.009390 0.010673 0.001852 0.028621 0.102654 0.035145
# 6 -0.002594 0.004483 0.020390 0.027975 0.035145 0.064969
#
#
# Mechanical properties :
#
#
# Convention : Reuss Voigt Hill
#
# Bulk Modulus (GPa) = 10.90841 31.18848 21.04844
# Shear Modulus (GPa) = 14.79768 29.44301 22.12034
#
# Velocity S-wave (km/s) = 2.54067 3.58378 3.10632
# Velocity P-wave (km/s) = 3.65583 5.54343 4.69546
#
# Compressibility (1/GPa) = 0.09167241
#
# Stress axis : x y z
#
# Youngs Moduli (GPa) = 106.54800 53.64028 17.81706
#
# Poissons Ratio (x) = 0.08888 -0.01755
# Poissons Ratio (y) = 0.17654 -0.07895
# Poissons Ratio (z) = -0.10494 -0.23769
#
# Static dielectric constant tensor:
#      x y z
#    x 1.897320 0.072950 -0.000590 
#    y 0.072950 1.992450 0.013380 
#    z -0.000590 0.013380 1.856140 
# 
# From -- ./inp_files/175182.got.cif
#   From: 2010.05.17/outbox.cif.g08.bks.cpg/sg2_88_cif.got.tgz:175182.got - 2010.06.03 11:33:40.
