data_PCOD9084034
_publ_section_title
;
Structure prediction by ZEFSAII (Michael W. Deem and Ramdas Pophale) SiO2 
 PCOD9084034
Probable space group: P -1
;
_chemical_formula_sum "Si O2"
_cell_formula_units_Z 16
_cell_length_a 12.781529
_cell_length_b 10.402832
_cell_length_c 19.095680
_cell_angle_alpha 46.149142
_cell_angle_beta 150.500107
_cell_angle_gamma 139.118968
_cell_volume 813.529824
_symmetry_space_group_name_H-M "P -1"
_symmetry_group_IT_number 2
_symmetry_cell_setting 'triclinic'
loop_
_space_group_symop_operation_xyz
x,y,z
-x,-y,-z
loop_
_atom_site_type_symbol
_atom_site_label
_atom_site_fract_x
_atom_site_fract_y
_atom_site_fract_z
Si Si1 0.431042 0.112908 0.664589
Si Si2 0.809862 0.606262 0.610393
Si Si3 0.567678 0.167880 0.575191
Si Si4 0.813810 0.946532 0.726043
Si Si5 0.291824 0.156694 0.836659
Si Si6 0.309294 0.888952 0.822405
Si Si7 0.819725 0.462933 0.808972
Si Si8 0.696791 0.513141 0.871234
O O1 0.276511 0.239005 0.529774
O O2 0.421303 0.047550 0.603472
O O3 0.707609 0.252385 0.785887
O O4 0.365858 0.978116 0.744543
O O5 0.701077 0.397968 0.586982
O O6 0.746926 0.586813 0.664138
O O7 0.087532 0.685825 0.751828
O O8 0.393425 0.136551 0.420959
O O9 0.751363 0.083696 0.690219
O O10 0.796076 0.750243 0.830740
O O11 0.052094 0.076319 0.772484
O O12 0.449650 0.382651 0.815410
O O13 0.241276 0.020599 0.788616
O O14 0.473014 0.122998 0.007238
O O15 0.687082 0.441819 0.812475
O O16 0.094530 0.534285 0.956685
#
# Coordination Sequence:
#
# PCOD9084034 Si02
#       8
#     2   2   2   2   2   2   2   2
#     4  11  20  36  63  91 122 162 199 257 322 356
#     4  11  21  38  63  91 126 159 199 262 320 355
#     4  10  24  44  62  88 123 166 209 257 303 375
#     4  11  24  45  64  88 124 169 215 247 307 376
#     4  11  23  40  65  97 127 162 204 259 307 364
#     4  11  22  38  60 101 127 148 210 264 305 370
#     4  10  19  34  59  93 123 155 205 258 307 363
#     4  11  20  37  65  90 125 167 203 254 311 360
#
# _framework density 19.667380999999999
#
# number of rings (size 3 to 8) (size 9 to 14) (size 15 to 20)
#    0.000    1.250    2.500    5.625    3.500    0.000 
#    2.250    7.500    0.000    0.000    0.000    0.000 
#    0.000    0.000    0.000    0.000    0.000    0.000 
#
# Total GULP energy -89107.741706 kJ/mol
# GULP energy per Si atom -5569.233857 kJ/mol
# Density = 1.962262 g / cm^3
# Si number density = 19.667381 Si / 1000 Ang^3
#
#
#
# Elastic Constant Matrix: (Units=GPa)
#
#
# Indices 1 2 3 4 5 6 
#
# 1 92.1958 40.2054 22.9787 2.4882 3.5324 12.7678
# 2 40.2054 74.1330 24.1014 15.2242 5.7982 24.6273
# 3 22.9787 24.1014 56.4301 19.5234 -7.1344 6.4594
# 4 2.4882 15.2242 19.5234 5.2257 4.2147 -17.5270
# 5 3.5324 5.7982 -7.1344 4.2147 35.7607 -2.7292
# 6 12.7678 24.6273 6.4594 -17.5270 -2.7292 23.5050
#
#
#
# Elastic Compliance Matrix: (Units=1/GPa)
#
#
# Indices 1 2 3 4 5 6 
#
# 1 0.014164 -0.004302 -0.002152 -0.003725 -0.001112 -0.005502
# 2 -0.004302 0.015588 -0.012661 0.019027 -0.006650 0.002900
# 3 -0.002152 -0.012661 0.020423 0.007696 0.006603 0.015328
# 4 -0.003725 0.019027 0.007696 -0.028115 -0.001005 -0.041108
# 5 -0.001112 -0.006650 0.006603 -0.001005 0.031246 0.008635
# 6 -0.005502 0.002900 0.015328 -0.041108 0.008635 0.008631
#
#
# Mechanical properties :
#
#
# Convention : Reuss Voigt Hill
#
# Bulk Modulus (GPa) = 83.72836 44.14774 63.93805
# Shear Modulus (GPa) = 48.00742 21.92984 34.96863
#
# Velocity S-wave (km/s) = 4.94597 3.34284 4.22121
# Velocity P-wave (km/s) = 8.67649 6.11517 7.50589
#
# Compressibility (1/GPa) = 0.01194338
#
# Stress axis : x y z
#
# Youngs Moduli (GPa) = 70.60094 64.15093 48.96527
#
# Poissons Ratio (x) = 0.27601 0.10537
# Poissons Ratio (y) = 0.30376 0.61997
# Poissons Ratio (z) = 0.15193 0.81224
#
# Static dielectric constant tensor:
#      x y z
#    x 1.718870 0.067370 0.004150 
#    y 0.067370 1.815960 -0.000950 
#    z 0.004150 -0.000950 1.693360 
# 
# From -- ./inp_files/568691.got.cif
#   From: 2010.05.17/outbox.cif.g08.bks.cpg/sg2_285_cif.got.tgz:568691.got - 2010.06.03 11:33:40.
