data_PCOD9084309
_publ_section_title
;
Structure prediction by ZEFSAII (Michael W. Deem and Ramdas Pophale) SiO2 
 PCOD9084309
Probable space group: P -1
;
_chemical_formula_sum "Si O2"
_cell_formula_units_Z 14
_cell_length_a 7.850001
_cell_length_b 17.132024
_cell_length_c 5.895721
_cell_angle_alpha 78.175584
_cell_angle_beta 118.957716
_cell_angle_gamma 122.220545
_cell_volume 585.406522
_symmetry_space_group_name_H-M "P -1"
_symmetry_group_IT_number 2
_symmetry_cell_setting 'triclinic'
loop_
_space_group_symop_operation_xyz
x,y,z
-x,-y,-z
loop_
_atom_site_type_symbol
_atom_site_label
_atom_site_fract_x
_atom_site_fract_y
_atom_site_fract_z
Si Si1 0.059911 0.677453 0.670656
Si Si2 0.663658 0.991577 0.290715
Si Si3 0.368330 0.404790 0.841609
Si Si4 0.681483 0.191132 0.607650
Si Si5 0.129119 0.244542 0.118463
Si Si6 0.860031 0.867714 0.420265
Si Si7 0.574136 0.313110 0.813595
O O1 0.259884 0.769216 0.627743
O O2 0.202556 0.641368 0.914571
O O3 0.934345 0.708395 0.747145
O O4 0.874072 0.616977 0.399175
O O5 0.514817 0.913664 0.425025
O O6 0.792894 0.944460 0.282241
O O7 0.871448 0.085346 0.469055
O O8 0.500000 0.000000 0.000000
O O9 0.322039 0.327463 0.049437
O O10 0.504314 0.391528 0.729311
O O11 0.500000 0.500000 0.000000
O O12 0.640070 0.265058 0.681546
O O13 0.904478 0.196838 0.852763
O O14 0.171333 0.169851 0.316149
O O15 0.669684 0.777383 0.222501
#
# Coordination Sequence:
#
# PCOD9084309 Si02
#       7
#     2   2   2   2   2   2   2
#     4  10  22  42  63  91 124 167 206 252 315 373
#     4  10  19  34  62  94 129 162 211 261 293 358
#     4  11  25  42  67  96 119 159 212 264 314 375
#     4   9  20  39  65  88 127 172 206 252 308 365
#     4  10  20  41  66  87 129 166 206 255 313 374
#     4  10  20  36  62  92 123 169 210 249 307 364
#     4  10  22  39  66  89 124 168 204 253 320 369
#
# _framework density 23.915006000000002
#
# number of rings (size 3 to 8) (size 9 to 14) (size 15 to 20)
#    0.000    2.000    2.857    0.000    4.000    1.143 
#    0.000    7.857    6.286    0.000    0.000    0.000 
#    0.000    0.000    0.000    0.000    0.000    0.000 
#
# Total GULP energy -78050.502115 kJ/mol
# GULP energy per Si atom -5575.035865 kJ/mol
# Density = 2.386057 g / cm^3
# Si number density = 23.915006 Si / 1000 Ang^3
#
#
#
# Elastic Constant Matrix: (Units=GPa)
#
#
# Indices 1 2 3 4 5 6 
#
# 1 83.1138 28.8061 34.2810 1.0669 14.1245 -13.4987
# 2 28.8061 57.1105 7.5709 20.7042 -8.0247 -17.6127
# 3 34.2810 7.5709 66.7751 10.4739 19.8662 -3.6537
# 4 1.0669 20.7042 10.4739 29.8221 4.2330 -4.8575
# 5 14.1245 -8.0247 19.8662 4.2330 47.8400 -3.8763
# 6 -13.4987 -17.6127 -3.6537 -4.8575 -3.8763 23.6109
#
#
#
# Elastic Compliance Matrix: (Units=1/GPa)
#
#
# Indices 1 2 3 4 5 6 
#
# 1 0.023107 -0.016229 -0.010415 0.015270 -0.006443 0.001576
# 2 -0.016229 0.044771 0.004871 -0.030891 0.014708 0.020932
# 3 -0.010415 0.004871 0.022755 -0.010612 -0.004761 -0.001765
# 4 0.015270 -0.030891 -0.010612 0.058791 -0.010943 -0.005657
# 5 -0.006443 0.014708 -0.004761 -0.010943 0.028951 0.009053
# 6 0.001576 0.020932 -0.001765 -0.005657 0.009053 0.058918
#
#
# Mechanical properties :
#
#
# Convention : Reuss Voigt Hill
#
# Bulk Modulus (GPa) = 21.23782 38.70171 29.96976
# Shear Modulus (GPa) = 16.86140 29.34404 23.10272
#
# Velocity S-wave (km/s) = 2.65817 3.50668 3.11148
# Velocity P-wave (km/s) = 4.28030 5.71085 5.04652
#
# Compressibility (1/GPa) = 0.04708582
#
# Stress axis : x y z
#
# Youngs Moduli (GPa) = 43.27665 22.33591 43.94711
#
# Poissons Ratio (x) = 0.36250 0.45769
# Poissons Ratio (y) = 0.70235 -0.21405
# Poissons Ratio (z) = 0.45071 -0.10879
#
# Static dielectric constant tensor:
#      x y z
#    x 1.997800 -0.013250 -0.015820 
#    y -0.013250 1.920060 -0.015160 
#    z -0.015820 -0.015160 1.927980 
# 
# From -- ./inp_files/35648.got.cif
#   From: 2010.05.17/outbox.cif.g08.bks.cpg/sg2_18_cif.got.tgz:35648.got - 2010.06.03 11:33:40.
