data_PCOD9084727
_publ_section_title
;
Structure prediction by ZEFSAII (Michael W. Deem and Ramdas Pophale) SiO2 
 PCOD9084727
Probable space group: P -1
;
_chemical_formula_sum "Si O2"
_cell_formula_units_Z 14
_cell_length_a 7.225799
_cell_length_b 12.849914
_cell_length_c 9.348355
_cell_angle_alpha 37.411410
_cell_angle_beta 71.185202
_cell_angle_gamma 69.120958
_cell_volume 491.523566
_symmetry_space_group_name_H-M "P -1"
_symmetry_group_IT_number 2
_symmetry_cell_setting 'triclinic'
loop_
_space_group_symop_operation_xyz
x,y,z
-x,-y,-z
loop_
_atom_site_type_symbol
_atom_site_label
_atom_site_fract_x
_atom_site_fract_y
_atom_site_fract_z
Si Si1 0.774515 0.266703 0.230451
Si Si2 0.842285 0.697654 0.032984
Si Si3 0.721450 0.494423 0.515386
Si Si4 0.388571 0.832451 0.013251
Si Si5 0.870236 0.026746 0.858192
Si Si6 0.796665 0.904530 0.469140
Si Si7 0.371160 0.395722 0.288918
O O1 0.608720 0.335314 0.313382
O O2 0.776577 0.060665 0.422411
O O3 0.686210 0.407626 0.973130
O O4 0.003081 0.296980 0.139587
O O5 0.861856 0.530132 0.313095
O O6 0.609058 0.745768 0.007864
O O7 0.877794 0.851018 0.961551
O O8 0.500000 0.500000 0.500000
O O9 0.755890 0.309414 0.784062
O O10 0.717474 0.622420 0.511453
O O11 0.349723 0.901863 0.109047
O O12 0.321373 0.981585 0.754279
O O13 0.977224 0.137303 0.599259
O O14 0.000000 0.000000 0.000000
O O15 0.700100 0.732099 0.671242
#
# Coordination Sequence:
#
# PCOD9084727 Si02
#       7
#     2   2   2   2   2   2   2
#     4  10  23  41  63  92 120 160 207 247 300 369
#     4  10  21  37  58  87 122 161 197 251 306 355
#     4  10  21  36  59  90 123 157 200 248 300 357
#     4  10  19  35  56  86 126 154 197 251 301 358
#     4   9  18  31  52  86 115 151 197 244 300 353
#     4  10  20  38  63  89 118 158 205 252 297 361
#     4  11  22  40  66  87 123 163 201 252 306 352
#
# _framework density 28.482863999999999
#
# number of rings (size 3 to 8) (size 9 to 14) (size 15 to 20)
#    0.000    2.000    1.429    2.571    2.000    1.714 
#    0.000    3.571    0.000    0.000    0.000    0.000 
#    0.000    0.000    0.000    0.000    0.000    0.000 
#
# Total GULP energy -78254.773734 kJ/mol
# GULP energy per Si atom -5589.626695 kJ/mol
# Density = 2.841804 g / cm^3
# Si number density = 28.482864 Si / 1000 Ang^3
#
#
#
# Elastic Constant Matrix: (Units=GPa)
#
#
# Indices 1 2 3 4 5 6 
#
# 1 99.0481 37.9967 22.9095 -1.9713 -10.3416 -16.6792
# 2 37.9967 86.7903 33.4382 -5.5965 -0.0371 1.7782
# 3 22.9095 33.4382 114.2316 -10.2881 -24.7483 16.4899
# 4 -1.9713 -5.5965 -10.2881 47.3224 -7.0264 -2.3152
# 5 -10.3416 -0.0371 -24.7483 -7.0264 39.6890 -0.7739
# 6 -16.6792 1.7782 16.4899 -2.3152 -0.7739 35.6973
#
#
#
# Elastic Compliance Matrix: (Units=1/GPa)
#
#
# Indices 1 2 3 4 5 6 
#
# 1 0.014321 -0.005770 -0.001647 0.000372 0.002917 0.007827
# 2 -0.005770 0.015644 -0.004049 0.000047 -0.004038 -0.001689
# 3 -0.001647 -0.004049 0.013271 0.003261 0.008297 -0.006307
# 4 0.000372 0.000047 0.003261 0.022792 0.006171 0.000277
# 5 0.002917 -0.004038 0.008297 0.006171 0.032195 -0.001170
# 6 0.007827 -0.001689 -0.006307 0.000277 -0.001170 0.034661
#
#
# Mechanical properties :
#
#
# Convention : Reuss Voigt Hill
#
# Bulk Modulus (GPa) = 49.25237 54.30653 51.77945
# Shear Modulus (GPa) = 30.75332 38.25678 34.50505
#
# Velocity S-wave (km/s) = 3.28946 3.66888 3.48434
# Velocity P-wave (km/s) = 5.63533 6.08731 5.86567
#
# Compressibility (1/GPa) = 0.02030359
#
# Stress axis : x y z
#
# Youngs Moduli (GPa) = 69.82927 63.92222 75.34995
#
# Poissons Ratio (x) = 0.36883 0.12413
# Poissons Ratio (y) = 0.40292 0.30508
# Poissons Ratio (z) = 0.11503 0.25881
#
# Static dielectric constant tensor:
#      x y z
#    x 2.340150 -0.028380 0.072340 
#    y -0.028380 2.363400 -0.028390 
#    z 0.072340 -0.028390 2.233520 
# 
# From -- ./inp_files/258309.got.cif
#   From: 2010.05.17/outbox.cif.g08.bks.cpg/sg2_130_cif.got.tgz:258309.got - 2010.06.03 11:33:40.
