data_PCOD9084205
_publ_section_title
;
Structure prediction by ZEFSAII (Michael W. Deem and Ramdas Pophale) SiO2 
 PCOD9084205
Probable space group: P -1
;
_chemical_formula_sum "Si O2"
_cell_formula_units_Z 16
_cell_length_a 7.861948
_cell_length_b 10.850335
_cell_length_c 11.560634
_cell_angle_alpha 47.049152
_cell_angle_beta 76.459513
_cell_angle_gamma 73.362150
_cell_volume 690.528510
_symmetry_space_group_name_H-M "P -1"
_symmetry_group_IT_number 2
_symmetry_cell_setting 'triclinic'
loop_
_space_group_symop_operation_xyz
x,y,z
-x,-y,-z
loop_
_atom_site_type_symbol
_atom_site_label
_atom_site_fract_x
_atom_site_fract_y
_atom_site_fract_z
Si Si1 0.268944 0.447597 0.576675
Si Si2 0.254727 0.364400 0.136774
Si Si3 0.200527 0.150670 0.073624
Si Si4 0.444353 0.706201 0.518717
Si Si5 0.449330 0.087997 0.814200
Si Si6 0.340974 0.701681 0.801025
Si Si7 0.038777 0.585785 0.208647
Si Si8 0.852217 0.093145 0.100772
O O1 0.312404 0.618620 0.516181
O O2 0.357761 0.411907 0.458066
O O3 0.397539 0.288640 0.724479
O O4 0.066524 0.434155 0.644767
O O5 0.197032 0.216784 0.163141
O O6 0.461452 0.319618 0.164403
O O7 0.139325 0.418441 0.235050
O O8 0.249796 0.538290 0.951005
O O9 0.059994 0.031490 0.133446
O O10 0.395830 0.055745 0.067791
O O11 0.121122 0.324708 0.907580
O O12 0.468655 0.885252 0.344627
O O13 0.368915 0.719125 0.650050
O O14 0.262454 0.027714 0.864810
O O15 0.228755 0.854273 0.794339
O O16 0.160130 0.733096 0.085534
#
# Coordination Sequence:
#
# PCOD9084205 Si02
#       8
#     2   2   2   2   2   2   2   2
#     4   9  20  40  61  79 115 164 199 235 283 348
#     4  10  19  34  61  91 117 144 197 248 297 339
#     4  10  20  35  58  93 117 151 190 243 304 334
#     4   9  21  38  62  80 112 168 197 231 288 349
#     4  10  20  41  58  83 126 154 196 232 291 363
#     4  10  19  36  62  87 115 153 194 245 294 343
#     4   9  20  35  59  90 115 150 196 245 286 336
#     4   9  21  35  58  93 118 146 190 248 300 334
#
# _framework density 23.170656999999999
#
# number of rings (size 3 to 8) (size 9 to 14) (size 15 to 20)
#    1.500    1.000    1.250    1.125    1.750    1.500 
#    0.000    3.750    0.000    0.000    0.000    0.000 
#    0.000    0.000    0.000    0.000    0.000    0.000 
#
# Total GULP energy -89104.024426 kJ/mol
# GULP energy per Si atom -5569.001527 kJ/mol
# Density = 2.311792 g / cm^3
# Si number density = 23.170657 Si / 1000 Ang^3
#
#
#
# Elastic Constant Matrix: (Units=GPa)
#
#
# Indices 1 2 3 4 5 6 
#
# 1 69.6851 29.2652 2.7276 -13.5149 -15.9434 -2.5199
# 2 29.2652 74.7562 10.4380 11.8610 -14.3691 -13.7162
# 3 2.7276 10.4380 37.1325 7.8471 -19.2914 -8.0354
# 4 -13.5149 11.8610 7.8471 31.6048 -2.3136 -22.4388
# 5 -15.9434 -14.3691 -19.2914 -2.3136 28.4248 3.2393
# 6 -2.5199 -13.7162 -8.0354 -22.4388 3.2393 28.6032
#
#
#
# Elastic Compliance Matrix: (Units=1/GPa)
#
#
# Indices 1 2 3 4 5 6 
#
# 1 0.028992 -0.010127 0.007299 0.031807 0.016078 0.022880
# 2 -0.010127 0.019653 -0.001156 -0.012666 0.002670 -0.002031
# 3 0.007299 -0.001156 0.046150 0.002531 0.033759 0.011216
# 4 0.031807 -0.012666 0.002531 0.107120 0.012755 0.080029
# 5 0.016078 0.002670 0.033759 0.012755 0.067846 0.014503
# 6 0.022880 -0.002031 0.011216 0.080029 0.014503 0.100293
#
#
# Mechanical properties :
#
#
# Convention : Reuss Voigt Hill
#
# Bulk Modulus (GPa) = 11.51705 29.60394 20.56050
# Shear Modulus (GPa) = 12.28608 27.00275 19.64441
#
# Velocity S-wave (km/s) = 2.30520 3.41748 2.91488
# Velocity P-wave (km/s) = 3.47370 5.32695 4.49683
#
# Compressibility (1/GPa) = 0.08682775
#
# Stress axis : x y z
#
# Youngs Moduli (GPa) = 34.49197 50.88289 21.66825
#
# Poissons Ratio (x) = 0.51530 -0.15816
# Poissons Ratio (y) = 0.34931 0.02505
# Poissons Ratio (z) = -0.25177 0.05883
#
# Static dielectric constant tensor:
#      x y z
#    x 1.907830 0.001900 0.043620 
#    y 0.001900 1.856500 0.062370 
#    z 0.043620 0.062370 2.010780 
# 
# From -- ./inp_files/497637.got.cif
#   From: 2010.05.17/outbox.cif.g08.bks.cpg/sg2_249_cif.got.tgz:497637.got - 2010.06.03 11:33:40.
