data_PCOD9084739
_publ_section_title
;
Structure prediction by ZEFSAII (Michael W. Deem and Ramdas Pophale) SiO2 
 PCOD9084739
Probable space group: P -1
;
_chemical_formula_sum "Si O2"
_cell_formula_units_Z 14
_cell_length_a 5.457560
_cell_length_b 22.306655
_cell_length_c 9.970709
_cell_angle_alpha 143.967825
_cell_angle_beta 124.056272
_cell_angle_gamma 53.970387
_cell_volume 568.294745
_symmetry_space_group_name_H-M "P -1"
_symmetry_group_IT_number 2
_symmetry_cell_setting 'triclinic'
loop_
_space_group_symop_operation_xyz
x,y,z
-x,-y,-z
loop_
_atom_site_type_symbol
_atom_site_label
_atom_site_fract_x
_atom_site_fract_y
_atom_site_fract_z
Si Si1 0.355846 0.618199 0.612972
Si Si2 0.749445 0.829823 0.268552
Si Si3 0.571680 0.167311 0.430424
Si Si4 0.338200 0.004534 0.656078
Si Si5 0.734385 0.664212 0.151076
Si Si6 0.289888 0.301233 0.345455
Si Si7 0.632327 0.456098 0.798520
O O1 0.500000 0.500000 0.500000
O O2 0.929115 0.313853 0.265561
O O3 0.593960 0.675620 0.723657
O O4 0.214784 0.590685 0.379970
O O5 0.669308 0.877732 0.181485
O O6 0.641221 0.729989 0.105545
O O7 0.108819 0.811067 0.382991
O O8 0.578053 0.924132 0.487978
O O9 0.314412 0.246404 0.587380
O O10 0.486689 0.201056 0.311875
O O11 0.599557 0.047005 0.270476
O O12 0.000000 0.000000 0.500000
O O13 0.083672 0.593040 0.106953
O O14 0.548996 0.581353 0.985350
O O15 0.360032 0.401745 0.628731
#
# Coordination Sequence:
#
# PCOD9084739 Si02
#       7
#     2   2   2   2   2   2   2
#     4  10  20  35  49  65  91 123 160 201 234 270
#     4   9  15  26  40  59  87 128 152 186 223 268
#     4  10  16  26  42  63  94 122 153 192 224 279
#     4   8  16  25  39  58  85 122 156 185 225 265
#     4  10  17  29  41  67  97 126 159 184 224 278
#     4  10  19  32  47  68  90 123 157 192 235 269
#     4   9  20  28  45  67  92 130 156 191 224 278
#
# _framework density 24.635104999999999
#
# number of rings (size 3 to 8) (size 9 to 14) (size 15 to 20)
#    0.857    1.714    2.857    0.429    2.000    1.714 
#    0.000    0.000    0.000    0.000    0.000    0.000 
#    0.000    2.286    0.000    2.286    0.000    0.857 
#
# Total GULP energy -77984.403235 kJ/mol
# GULP energy per Si atom -5570.314517 kJ/mol
# Density = 2.457903 g / cm^3
# Si number density = 24.635105 Si / 1000 Ang^3
#
#
#
# Elastic Constant Matrix: (Units=GPa)
#
#
# Indices 1 2 3 4 5 6 
#
# 1 130.5983 62.2605 13.3399 10.2719 -2.6634 14.9523
# 2 62.2605 190.3422 26.1681 40.8426 2.1061 31.2587
# 3 13.3399 26.1681 42.8969 19.5262 8.7056 7.7570
# 4 10.2719 40.8426 19.5262 41.9602 14.6288 6.8928
# 5 -2.6634 2.1061 8.7056 14.6288 19.2616 9.4231
# 6 14.9523 31.2587 7.7570 6.8928 9.4231 41.5358
#
#
#
# Elastic Compliance Matrix: (Units=1/GPa)
#
#
# Indices 1 2 3 4 5 6 
#
# 1 0.009324 -0.002621 -0.001732 0.000327 0.002987 -0.001793
# 2 -0.002621 0.009518 -0.001047 -0.010681 0.010419 -0.006615
# 3 -0.001732 -0.001047 0.030707 -0.010844 -0.005099 -0.001367
# 4 0.000327 -0.010681 -0.010844 0.050496 -0.037123 0.009988
# 5 0.002987 0.010419 -0.005099 -0.037123 0.092881 -0.022875
# 6 -0.001793 -0.006615 -0.001367 0.009988 -0.022875 0.033487
#
#
# Mechanical properties :
#
#
# Convention : Reuss Voigt Hill
#
# Bulk Modulus (GPa) = 25.80713 63.04161 44.42437
# Shear Modulus (GPa) = 19.98970 38.02277 29.00624
#
# Velocity S-wave (km/s) = 2.85165 3.93292 3.43510
# Velocity P-wave (km/s) = 4.61964 6.80217 5.81423
#
# Compressibility (1/GPa) = 0.03874898
#
# Stress axis : x y z
#
# Youngs Moduli (GPa) = 107.25371 105.06616 32.56559
#
# Poissons Ratio (x) = 0.27533 0.05640
# Poissons Ratio (y) = 0.28106 0.03411
# Poissons Ratio (z) = 0.18575 0.11006
#
# Static dielectric constant tensor:
#      x y z
#    x 2.012000 0.022590 0.003560 
#    y 0.022590 2.070100 0.011980 
#    z 0.003560 0.011980 1.966360 
# 
# From -- ./inp_files/370134.got.cif
#   From: 2010.05.17/outbox.cif.g08.bks.cpg/sg2_186_cif.got.tgz:370134.got - 2010.06.03 11:33:40.
