data_PCOD9084011
_publ_section_title
;
Structure prediction by ZEFSAII (Michael W. Deem and Ramdas Pophale) SiO2 
 PCOD9084011
Probable space group: P -1
;
_chemical_formula_sum "Si O2"
_cell_formula_units_Z 14
_cell_length_a 13.096635
_cell_length_b 13.738294
_cell_length_c 13.110413
_cell_angle_alpha 130.239976
_cell_angle_beta 130.217891
_cell_angle_gamma 21.561195
_cell_volume 653.196154
_symmetry_space_group_name_H-M "P -1"
_symmetry_group_IT_number 2
_symmetry_cell_setting 'triclinic'
loop_
_space_group_symop_operation_xyz
x,y,z
-x,-y,-z
loop_
_atom_site_type_symbol
_atom_site_label
_atom_site_fract_x
_atom_site_fract_y
_atom_site_fract_z
Si Si1 0.398280 0.001499 0.213815
Si Si2 0.801674 0.355793 0.540981
Si Si3 0.579074 0.072667 0.055325
Si Si4 0.737542 0.912677 0.599249
Si Si5 0.284964 0.821701 0.374210
Si Si6 0.014155 0.553401 0.356242
Si Si7 0.817888 0.357848 0.782608
O O1 0.289338 0.238753 0.306562
O O2 0.228850 0.087649 0.259607
O O3 0.729813 0.713683 0.258227
O O4 0.345998 0.998789 0.064587
O O5 0.539785 0.614495 0.477818
O O6 0.729839 0.388941 0.632982
O O7 0.989465 0.326661 0.642937
O O8 0.991364 0.092961 0.428231
O O9 0.331176 0.383519 0.115925
O O10 0.850428 0.898771 0.170474
O O11 0.500000 0.000000 0.000000
O O12 0.680684 0.092930 0.626650
O O13 0.500000 0.000000 0.500000
O O14 0.986785 0.637610 0.508465
O O15 0.272231 0.686557 0.235622
#
# Coordination Sequence:
#
# PCOD9084011 Si02
#       7
#     2   2   2   2   2   2   2
#     4  11  21  37  57  86 119 153 197 244 289 339
#     4  11  20  37  61  88 119 152 187 238 301 357
#     4  12  25  42  62  86 116 160 204 242 282 343
#     4   9  20  37  61  90 119 151 191 242 295 350
#     4  11  23  38  60  91 121 152 191 241 300 354
#     4  10  19  34  59  90 116 147 188 245 300 346
#     4  12  24  41  60  87 121 157 197 242 290 347
#
# _framework density 21.433071999999999
#
# number of rings (size 3 to 8) (size 9 to 14) (size 15 to 20)
#    0.000    1.143    0.000    8.571    0.000    3.429 
#    0.000    1.429    0.000    0.000    0.000    0.000 
#    0.000    0.000    0.000    0.000    0.000    0.000 
#
# Total GULP energy -78192.043703 kJ/mol
# GULP energy per Si atom -5585.145979 kJ/mol
# Density = 2.138429 g / cm^3
# Si number density = 21.433072 Si / 1000 Ang^3
#
#
#
# Elastic Constant Matrix: (Units=GPa)
#
#
# Indices 1 2 3 4 5 6 
#
# 1 104.0837 6.9353 37.8174 13.1410 3.0212 21.3702
# 2 6.9353 79.1787 4.1127 11.1610 3.7549 10.8923
# 3 37.8174 4.1127 47.3562 1.6285 -4.7830 15.4867
# 4 13.1410 11.1610 1.6285 33.3359 3.6295 1.4043
# 5 3.0212 3.7549 -4.7830 3.6295 44.8594 1.4443
# 6 21.3702 10.8923 15.4867 1.4043 1.4443 26.0871
#
#
#
# Elastic Compliance Matrix: (Units=1/GPa)
#
#
# Indices 1 2 3 4 5 6 
#
# 1 0.015292 0.000918 -0.010129 -0.005398 -0.001540 -0.006521
# 2 0.000918 0.014134 0.000275 -0.004765 -0.000620 -0.006525
# 3 -0.010129 0.000275 0.033498 0.002290 0.004434 -0.012073
# 4 -0.005398 -0.004765 0.002290 0.033667 -0.001825 0.003341
# 5 -0.001540 -0.000620 0.004434 -0.001825 0.023142 -0.002295
# 6 -0.006521 -0.006525 -0.012073 0.003341 -0.002295 0.053514
#
#
# Mechanical properties :
#
#
# Convention : Reuss Voigt Hill
#
# Bulk Modulus (GPa) = 22.19661 36.48327 29.33994
# Shear Modulus (GPa) = 24.25587 32.97336 28.61461
#
# Velocity S-wave (km/s) = 3.36773 3.92654 3.65782
# Velocity P-wave (km/s) = 5.04984 6.13318 5.61768
#
# Compressibility (1/GPa) = 0.04505193
#
# Stress axis : x y z
#
# Youngs Moduli (GPa) = 65.39483 70.75278 29.85232
#
# Poissons Ratio (x) = -0.06493 0.30236
# Poissons Ratio (y) = -0.06001 -0.00821
# Poissons Ratio (z) = 0.66235 -0.01945
#
# Static dielectric constant tensor:
#      x y z
#    x 1.842670 -0.000090 -0.001790 
#    y -0.000090 1.769880 0.000350 
#    z -0.001790 0.000350 1.790230 
# 
# From -- ./inp_files/82954.got.cif
#   From: 2010.05.17/outbox.cif.g08.bks.cpg/sg2_42_cif.got.tgz:82954.got - 2010.06.03 11:33:40.
