data_PCOD9084256
_publ_section_title
;
Structure prediction by ZEFSAII (Michael W. Deem and Ramdas Pophale) SiO2 
 PCOD9084256
Probable space group: P -1
;
_chemical_formula_sum "Si O2"
_cell_formula_units_Z 16
_cell_length_a 18.550526
_cell_length_b 8.779504
_cell_length_c 11.342445
_cell_angle_alpha 49.034627
_cell_angle_beta 144.203766
_cell_angle_gamma 107.997873
_cell_volume 704.483140
_symmetry_space_group_name_H-M "P -1"
_symmetry_group_IT_number 2
_symmetry_cell_setting 'triclinic'
loop_
_space_group_symop_operation_xyz
x,y,z
-x,-y,-z
loop_
_atom_site_type_symbol
_atom_site_label
_atom_site_fract_x
_atom_site_fract_y
_atom_site_fract_z
Si Si1 0.907814 0.305311 0.595600
Si Si2 0.759672 0.612136 0.625028
Si Si3 0.299929 0.258433 0.776242
Si Si4 0.351424 0.479345 0.247083
Si Si5 0.857842 0.002164 0.349342
Si Si6 0.415622 0.970532 0.293638
Si Si7 0.936471 0.834694 0.803988
Si Si8 0.162824 0.356696 0.890740
O O1 0.769431 0.482106 0.396093
O O2 0.889716 0.423991 0.380927
O O3 0.043210 0.320445 0.812403
O O4 0.929277 0.049598 0.754807
O O5 0.671407 0.745531 0.322947
O O6 0.673190 0.551316 0.633662
O O7 0.825313 0.744466 0.720023
O O8 0.902520 0.382665 0.881911
O O9 0.177859 0.184526 0.659307
O O10 0.418966 0.092094 0.112895
O O11 0.510317 0.301067 0.502636
O O12 0.281236 0.749463 0.985915
O O13 0.257105 0.396951 0.089299
O O14 0.886573 0.941674 0.553658
O O15 0.000000 0.000000 0.500000
O O16 0.500000 0.000000 0.500000
O O17 0.254982 0.124594 0.050661
#
# Coordination Sequence:
#
# PCOD9084256 Si02
#       8
#     2   2   2   2   2   2   2   2
#     4  10  19  34  62  84 119 151 192 243 307 335
#     4  10  23  37  55  87 126 154 192 235 300 362
#     4  10  23  39  57  90 123 152 194 247 288 361
#     4  11  20  37  62  82 117 166 192 241 295 339
#     4  11  20  34  61  91 121 148 193 247 295 344
#     4   9  21  39  60  85 117 153 206 246 284 338
#     4  10  21  36  55  88 123 155 187 238 298 364
#     4   9  19  33  58  93 112 146 199 252 288 343
#
# _framework density 22.711686
#
# number of rings (size 3 to 8) (size 9 to 14) (size 15 to 20)
#    0.000    2.000    2.500    0.750    7.000    1.500 
#    0.000    0.000    0.000    3.000    0.000    0.000 
#    0.000    0.000    0.000    0.000    0.000    0.000 
#
# Total GULP energy -89310.494895 kJ/mol
# GULP energy per Si atom -5581.905931 kJ/mol
# Density = 2.265999 g / cm^3
# Si number density = 22.711686 Si / 1000 Ang^3
#
#
#
# Elastic Constant Matrix: (Units=GPa)
#
#
# Indices 1 2 3 4 5 6 
#
# 1 35.9641 14.8998 19.7790 6.9199 -22.5493 -3.7643
# 2 14.8998 104.2698 39.0428 -1.5670 -9.7784 5.7832
# 3 19.7790 39.0428 105.0096 -7.2984 -12.7149 -8.7480
# 4 6.9199 -1.5670 -7.2984 47.7754 -16.3776 -11.6379
# 5 -22.5493 -9.7784 -12.7149 -16.3776 30.0365 7.3860
# 6 -3.7643 5.7832 -8.7480 -11.6379 7.3860 22.7248
#
#
#
# Elastic Compliance Matrix: (Units=1/GPa)
#
#
# Indices 1 2 3 4 5 6 
#
# 1 0.057652 -0.002072 -0.004642 0.005235 0.044342 -0.003441
# 2 -0.002072 0.012022 -0.004484 -0.000989 0.001420 -0.006097
# 3 -0.004642 -0.004484 0.013201 0.004861 0.001457 0.007470
# 4 0.005235 -0.000989 0.004861 0.030492 0.019255 0.012347
# 5 0.044342 0.001420 0.001457 0.019255 0.080297 -0.008692
# 6 -0.003441 -0.006097 0.007470 0.012347 -0.008692 0.057010
#
#
# Mechanical properties :
#
#
# Convention : Reuss Voigt Hill
#
# Bulk Modulus (GPa) = 16.53507 43.63183 30.08345
# Shear Modulus (GPa) = 17.05141 31.54213 24.29677
#
# Velocity S-wave (km/s) = 2.74300 3.73071 3.27432
# Velocity P-wave (km/s) = 4.16273 6.14902 5.25066
#
# Compressibility (1/GPa) = 0.06047753
#
# Stress axis : x y z
#
# Youngs Moduli (GPa) = 17.34556 83.17974 75.75080
#
# Poissons Ratio (x) = 0.17236 0.35166
# Poissons Ratio (y) = 0.03594 0.33969
# Poissons Ratio (z) = 0.08052 0.37300
#
# Static dielectric constant tensor:
#      x y z
#    x 1.892360 0.012540 0.012240 
#    y 0.012540 1.877670 0.015490 
#    z 0.012240 0.015490 1.919000 
# 
# From -- ./inp_files/185093.got.cif
#   From: 2010.05.17/outbox.cif.g08.bks.cpg/sg2_93_cif.got.tgz:185093.got - 2010.06.03 11:33:40.
