data_PCOD9084260
_publ_section_title
;
Structure prediction by ZEFSAII (Michael W. Deem and Ramdas Pophale) SiO2 
 PCOD9084260
Probable space group: P -1
;
_chemical_formula_sum "Si O2"
_cell_formula_units_Z 16
_cell_length_a 15.091543
_cell_length_b 11.722026
_cell_length_c 8.057768
_cell_angle_alpha 110.532581
_cell_angle_beta 72.993783
_cell_angle_gamma 47.062407
_cell_volume 617.475548
_symmetry_space_group_name_H-M "P -1"
_symmetry_group_IT_number 2
_symmetry_cell_setting 'triclinic'
loop_
_space_group_symop_operation_xyz
x,y,z
-x,-y,-z
loop_
_atom_site_type_symbol
_atom_site_label
_atom_site_fract_x
_atom_site_fract_y
_atom_site_fract_z
Si Si1 0.790661 0.175456 0.712914
Si Si2 0.239629 0.065787 0.307437
Si Si3 0.756690 0.259677 0.137036
Si Si4 0.117456 0.434395 0.763857
Si Si5 0.781420 0.962192 0.081772
Si Si6 0.351754 0.302995 0.143396
Si Si7 0.486873 0.936808 0.698811
Si Si8 0.804331 0.289876 0.454538
O O1 0.688884 0.335383 0.022202
O O2 0.702644 0.322685 0.663124
O O3 0.807977 0.009389 0.623575
O O4 0.000000 0.000000 0.500000
O O5 0.140353 0.302560 0.546029
O O6 0.208120 0.092151 0.142275
O O7 0.465474 0.831299 0.088945
O O8 0.724302 0.168152 0.201889
O O9 0.705458 0.411824 0.389768
O O10 0.985187 0.001925 0.846652
O O11 0.332208 0.227713 0.591153
O O12 0.986825 0.698769 0.915755
O O13 0.000000 0.500000 0.000000
O O14 0.624192 0.054171 0.296222
O O15 0.409559 0.197549 0.244773
O O16 0.182605 0.592314 0.410112
O O17 0.331115 0.217979 0.982035
#
# Coordination Sequence:
#
# PCOD9084260 Si02
#       8
#     2   2   2   2   2   2   2   2
#     4   9  19  35  55  81 120 156 200 254 298 357
#     4   9  20  38  58  84 116 152 205 248 292 374
#     4   9  20  36  57  92 121 157 212 251 300 375
#     4  11  23  36  61  90 120 157 196 247 314 363
#     4  10  20  38  65  84 119 161 197 252 306 357
#     4   9  18  36  63  85 113 159 201 250 304 358
#     4   9  20  39  60  91 120 152 207 252 293 377
#     4  10  19  34  62  86 121 164 205 251 309 363
#
# _framework density 25.911957999999998
#
# number of rings (size 3 to 8) (size 9 to 14) (size 15 to 20)
#    0.000    2.500    0.000    1.875    1.750    4.000 
#    2.250    5.625   11.000    0.000    0.000    0.000 
#    0.000    0.000    0.000    0.000    0.000    0.000 
#
# Total GULP energy -89422.289052 kJ/mol
# GULP energy per Si atom -5588.893066 kJ/mol
# Density = 2.585298 g / cm^3
# Si number density = 25.911958 Si / 1000 Ang^3
#
#
#
# Elastic Constant Matrix: (Units=GPa)
#
#
# Indices 1 2 3 4 5 6 
#
# 1 90.6556 7.8665 38.2057 -8.8696 -22.3469 16.6171
# 2 7.8665 45.8357 31.4446 -7.3152 -5.3259 10.6654
# 3 38.2057 31.4446 74.3818 -11.6636 -6.2176 3.2007
# 4 -8.8696 -7.3152 -11.6636 30.2861 5.4754 -8.8122
# 5 -22.3469 -5.3259 -6.2176 5.4754 40.5745 -2.3827
# 6 16.6171 10.6654 3.2007 -8.8122 -2.3827 37.7356
#
#
#
# Elastic Compliance Matrix: (Units=1/GPa)
#
#
# Indices 1 2 3 4 5 6 
#
# 1 0.019654 0.008471 -0.012713 -0.001675 0.009642 -0.009753
# 2 0.008471 0.036854 -0.018997 -0.000587 0.005949 -0.012297
# 3 -0.012713 -0.018997 0.028123 0.006335 -0.005470 0.009716
# 4 -0.001675 -0.000587 0.006335 0.038292 -0.004667 0.009014
# 5 0.009642 0.005949 -0.005470 -0.004667 0.030256 -0.004643
# 6 -0.009753 -0.012297 0.009716 0.009014 -0.004643 0.035258
#
#
# Mechanical properties :
#
#
# Convention : Reuss Voigt Hill
#
# Bulk Modulus (GPa) = 26.20985 40.65629 33.43307
# Shear Modulus (GPa) = 20.19106 30.60965 25.40036
#
# Velocity S-wave (km/s) = 2.79448 3.44073 3.13430
# Velocity P-wave (km/s) = 4.53311 5.61329 5.10187
#
# Compressibility (1/GPa) = 0.03815359
#
# Stress axis : x y z
#
# Youngs Moduli (GPa) = 50.87969 27.13379 35.55795
#
# Poissons Ratio (x) = -0.22985 0.45206
# Poissons Ratio (y) = -0.43100 0.67549
# Poissons Ratio (z) = 0.64685 0.51545
#
# Static dielectric constant tensor:
#      x y z
#    x 2.107760 -0.020760 -0.012160 
#    y -0.020760 2.156390 0.005990 
#    z -0.012160 0.005990 2.065700 
# 
# From -- ./inp_files/332144.got.cif
#   From: 2010.05.17/outbox.cif.g08.bks.cpg/sg2_167_cif.got.tgz:332144.got - 2010.06.03 11:33:40.
