data_PCOD9084878
_publ_section_title
;
Structure prediction by ZEFSAII (Michael W. Deem and Ramdas Pophale) SiO2 
 PCOD9084878
Probable space group: P -1
;
_chemical_formula_sum "Si O2"
_cell_formula_units_Z 14
_cell_length_a 21.737358
_cell_length_b 9.176578
_cell_length_c 12.994987
_cell_angle_alpha 55.855173
_cell_angle_beta 34.607415
_cell_angle_gamma 32.060549
_cell_volume 697.117107
_symmetry_space_group_name_H-M "P -1"
_symmetry_group_IT_number 2
_symmetry_cell_setting 'triclinic'
loop_
_space_group_symop_operation_xyz
x,y,z
-x,-y,-z
loop_
_atom_site_type_symbol
_atom_site_label
_atom_site_fract_x
_atom_site_fract_y
_atom_site_fract_z
Si Si1 0.093916 0.719032 0.420915
Si Si2 0.661927 0.327754 0.190870
Si Si3 0.957043 0.239906 0.026192
Si Si4 0.467663 0.246224 0.978780
Si Si5 0.836252 0.747919 0.393195
Si Si6 0.451744 0.320099 0.582650
Si Si7 0.854416 0.854296 0.548363
O O1 0.086617 0.543334 0.561561
O O2 0.975451 0.854013 0.424103
O O3 0.313702 0.456567 0.196576
O O4 0.000000 0.000000 0.500000
O O5 0.618107 0.529419 0.086341
O O6 0.523784 0.343293 0.379375
O O7 0.621686 0.465685 0.304028
O O8 0.881233 0.978757 0.022466
O O9 0.736654 0.537291 0.241947
O O10 0.014258 0.331169 0.841933
O O11 0.000000 0.000000 0.000000
O O12 0.672460 0.059029 0.788096
O O13 0.500000 0.000000 0.000000
O O14 0.792002 0.921910 0.488688
O O15 0.643941 0.979963 0.499904
O O16 0.000000 0.500000 0.500000
#
# Coordination Sequence:
#
# PCOD9084878 Si02
#       7
#     2   2   2   2   2   2   2
#     4  11  26  41  57  86 126 162 196 247 305 355
#     4   9  18  28  47  85 120 144 185 238 294 348
#     4   9  19  27  53  86 122 148 180 248 307 338
#     4  12  21  36  62  89 120 159 198 249 297 350
#     4  10  19  35  57  87 115 148 202 243 286 357
#     4   9  16  31  49  81 121 144 180 245 298 335
#     4  10  21  35  58  87 114 150 204 243 284 354
#
# _framework density 20.082709999999999
#
# number of rings (size 3 to 8) (size 9 to 14) (size 15 to 20)
#    0.000    2.000    4.286    0.857    4.000    2.857 
#    0.000    0.000    0.000    3.429    0.000    6.000 
#    0.000    0.000    0.000    0.000    0.000    0.000 
#
# Total GULP energy -77996.057325 kJ/mol
# GULP energy per Si atom -5571.146952 kJ/mol
# Density = 2.003700 g / cm^3
# Si number density = 20.082710 Si / 1000 Ang^3
#
#
#
# Elastic Constant Matrix: (Units=GPa)
#
#
# Indices 1 2 3 4 5 6 
#
# 1 30.7500 34.6903 30.0568 3.7171 -7.5023 -3.7637
# 2 34.6903 103.2354 64.6605 -10.0654 0.7330 -13.5207
# 3 30.0568 64.6605 157.3301 1.6284 -31.2545 -13.7443
# 4 3.7171 -10.0654 1.6284 31.9902 -8.4089 8.0753
# 5 -7.5023 0.7330 -31.2545 -8.4089 25.0553 7.2751
# 6 -3.7637 -13.5207 -13.7443 8.0753 7.2751 26.3021
#
#
#
# Elastic Compliance Matrix: (Units=1/GPa)
#
#
# Indices 1 2 3 4 5 6 
#
# 1 0.063235 -0.023682 0.001231 -0.008219 0.019998 -0.005490
# 2 -0.023682 0.025076 -0.009137 0.003204 -0.020914 0.009528
# 3 0.001231 -0.009137 0.013323 0.002176 0.018997 -0.003481
# 4 -0.008219 0.003204 0.002176 0.042395 0.019246 -0.016731
# 5 0.019998 -0.020914 0.018997 0.019246 0.084585 -0.027267
# 6 -0.005490 0.009528 -0.003481 -0.016731 -0.027267 0.052992
#
#
# Mechanical properties :
#
#
# Convention : Reuss Voigt Hill
#
# Bulk Modulus (GPa) = 26.00288 61.12563 43.56426
# Shear Modulus (GPa) = 13.98202 27.46337 20.72269
#
# Velocity S-wave (km/s) = 2.64146 3.70200 3.21575
# Velocity P-wave (km/s) = 4.72008 6.98399 5.96050
#
# Compressibility (1/GPa) = 0.03845728
#
# Stress axis : x y z
#
# Youngs Moduli (GPa) = 15.81408 39.87837 75.05605
#
# Poissons Ratio (x) = 0.94440 -0.09236
# Poissons Ratio (y) = 0.37451 0.68580
# Poissons Ratio (z) = -0.01946 0.36437
#
# Static dielectric constant tensor:
#      x y z
#    x 1.752870 -0.035270 -0.050790 
#    y -0.035270 1.716430 -0.014920 
#    z -0.050790 -0.014920 1.779650 
# 
# From -- ./inp_files/542649.got.cif
#   From: 2010.05.17/outbox.cif.g08.bks.cpg/sg2_272_cif.got.tgz:542649.got - 2010.06.03 11:33:40.
