data_PCOD9084353
_publ_section_title
;
Structure prediction by ZEFSAII (Michael W. Deem and Ramdas Pophale) SiO2 
 PCOD9084353
Probable space group: P -1
;
_chemical_formula_sum "Si O2"
_cell_formula_units_Z 14
_cell_length_a 8.368200
_cell_length_b 6.418489
_cell_length_c 16.071095
_cell_angle_alpha 66.716040
_cell_angle_beta 68.212011
_cell_angle_gamma 50.641446
_cell_volume 604.174358
_symmetry_space_group_name_H-M "P -1"
_symmetry_group_IT_number 2
_symmetry_cell_setting 'triclinic'
loop_
_space_group_symop_operation_xyz
x,y,z
-x,-y,-z
loop_
_atom_site_type_symbol
_atom_site_label
_atom_site_fract_x
_atom_site_fract_y
_atom_site_fract_z
Si Si1 0.997277 0.890578 0.794673
Si Si2 0.030915 0.603846 0.358177
Si Si3 0.463604 0.115075 0.295586
Si Si4 0.224364 0.447090 0.947148
Si Si5 0.279082 0.505876 0.647651
Si Si6 0.416963 0.118286 0.118369
Si Si7 0.672422 0.046730 0.430180
O O1 0.146632 0.732171 0.870585
O O2 0.129067 0.678744 0.727088
O O3 0.777980 0.914915 0.837870
O O4 0.947195 0.190590 0.738165
O O5 0.865878 0.536572 0.375213
O O6 0.251221 0.318213 0.353965
O O7 0.915399 0.792332 0.431773
O O8 0.444313 0.207814 0.189724
O O9 0.628897 0.101786 0.329539
O O10 0.526515 0.804243 0.321520
O O11 0.373474 0.176426 0.902955
O O12 0.351788 0.350833 0.024166
O O13 0.000000 0.500000 0.000000
O O14 0.353688 0.687785 0.569058
O O15 0.500000 0.000000 0.500000
#
# Coordination Sequence:
#
# PCOD9084353 Si02
#       7
#     2   2   2   2   2   2   2
#     4  10  19  36  62  87 126 164 209 252 305 361
#     4  10  23  38  64  94 119 167 214 249 306 371
#     4  11  22  37  65  94 120 162 209 251 311 369
#     4   9  19  34  60  92 128 168 200 256 308 355
#     4  10  21  40  64  87 125 162 204 256 307 368
#     4  10  19  34  63  92 125 162 210 255 307 360
#     4  10  25  44  63  92 127 160 202 256 315 373
#
# _framework density 23.172121000000001
#
# number of rings (size 3 to 8) (size 9 to 14) (size 15 to 20)
#    0.000    2.000    2.857    0.000    2.000    4.000 
#    0.000    2.143    0.000   12.000    0.000    0.000 
#    0.000    0.000    0.000    0.000    0.000    0.000 
#
# Total GULP energy -78070.426145 kJ/mol
# GULP energy per Si atom -5576.459010 kJ/mol
# Density = 2.311938 g / cm^3
# Si number density = 23.172121 Si / 1000 Ang^3
#
#
#
# Elastic Constant Matrix: (Units=GPa)
#
#
# Indices 1 2 3 4 5 6 
#
# 1 66.7823 37.7709 24.3040 -1.4595 -6.0274 -7.9082
# 2 37.7709 151.2162 28.1942 10.8215 -15.2748 -27.4465
# 3 24.3040 28.1942 83.8316 9.2377 2.9453 -4.9228
# 4 -1.4595 10.8215 9.2377 34.6465 -1.8330 -11.2344
# 5 -6.0274 -15.2748 2.9453 -1.8330 41.3811 3.1012
# 6 -7.9082 -27.4465 -4.9228 -11.2344 3.1012 46.2776
#
#
#
# Elastic Compliance Matrix: (Units=1/GPa)
#
#
# Indices 1 2 3 4 5 6 
#
# 1 0.019222 -0.003767 -0.004706 0.003773 0.001811 0.001345
# 2 -0.003767 0.008925 -0.001643 -0.001063 0.002512 0.004048
# 3 -0.004706 -0.001643 0.014306 -0.003970 -0.002407 -0.001059
# 4 0.003773 -0.001063 -0.003970 0.032913 0.001336 0.007493
# 5 0.001811 0.002512 -0.002407 0.001336 0.025576 0.000154
# 6 0.001345 0.004048 -0.001059 0.007493 0.000154 0.025935
#
#
# Mechanical properties :
#
#
# Convention : Reuss Voigt Hill
#
# Bulk Modulus (GPa) = 45.00387 53.59645 49.30016
# Shear Modulus (GPa) = 32.35913 38.56510 35.46212
#
# Velocity S-wave (km/s) = 3.74099 4.08400 3.91625
# Velocity P-wave (km/s) = 6.17444 6.73933 6.46306
#
# Compressibility (1/GPa) = 0.02222031
#
# Stress axis : x y z
#
# Youngs Moduli (GPa) = 52.02253 112.04607 69.90311
#
# Poissons Ratio (x) = 0.42207 0.32899
# Poissons Ratio (y) = 0.19596 0.11485
# Poissons Ratio (z) = 0.24484 0.18409
#
# Static dielectric constant tensor:
#      x y z
#    x 1.852490 -0.067130 0.023450 
#    y -0.067130 1.959970 -0.054000 
#    z 0.023450 -0.054000 1.999600 
# 
# From -- ./inp_files/48009.got.cif
#   From: 2010.05.17/outbox.cif.g08.bks.cpg/sg2_25_cif.got.tgz:48009.got - 2010.06.03 11:33:40.
