data_PCOD9084664
_publ_section_title
;
Structure prediction by ZEFSAII (Michael W. Deem and Ramdas Pophale) SiO2 
 PCOD9084664
Probable space group: P -1
;
_chemical_formula_sum "Si O2"
_cell_formula_units_Z 16
_cell_length_a 15.169398
_cell_length_b 18.307181
_cell_length_c 13.321949
_cell_angle_alpha 49.469319
_cell_angle_beta 19.107135
_cell_angle_gamma 51.781477
_cell_volume 920.286472
_symmetry_space_group_name_H-M "P -1"
_symmetry_group_IT_number 2
_symmetry_cell_setting 'triclinic'
loop_
_space_group_symop_operation_xyz
x,y,z
-x,-y,-z
loop_
_atom_site_type_symbol
_atom_site_label
_atom_site_fract_x
_atom_site_fract_y
_atom_site_fract_z
Si Si1 0.245332 0.126878 0.671608
Si Si2 0.819902 0.403282 0.176381
Si Si3 0.959591 0.218187 0.078124
Si Si4 0.755697 0.615813 0.083982
Si Si5 0.812349 0.094417 0.008028
Si Si6 0.749690 0.097087 0.840217
Si Si7 0.416802 0.123016 0.806666
Si Si8 0.698108 0.823583 0.892011
O O1 0.560317 0.137485 0.303211
O O2 0.207241 0.021456 0.856671
O O3 0.107883 0.202103 0.827554
O O4 0.087415 0.123821 0.738939
O O5 0.866809 0.326400 0.107147
O O6 0.804805 0.515428 0.062857
O O7 0.544908 0.382159 0.549936
O O8 0.051844 0.388584 0.022565
O O9 0.697244 0.151913 0.428248
O O10 0.174221 0.183218 0.962441
O O11 0.794558 0.712776 0.894098
O O12 0.783528 0.120939 0.899610
O O13 0.042324 0.111419 0.463691
O O14 0.526284 0.160040 0.965880
O O15 0.649831 0.988158 0.035945
O O16 0.427708 0.148327 0.889855
#
# Coordination Sequence:
#
# PCOD9084664 Si02
#       8
#     2   2   2   2   2   2   2   2
#     4  10  21  34  57  74 104 134 179 227 277 307
#     4  10  19  35  56  79 107 136 174 223 271 314
#     4  12  20  35  57  82 108 143 170 222 276 323
#     4  10  20  35  55  78 106 141 178 219 261 310
#     4  10  21  37  51  77 100 141 181 229 259 309
#     4  12  24  36  53  74 111 152 187 210 254 311
#     4  12  23  35  50  80 115 146 183 205 251 326
#     4  12  22  37  52  77 110 153 181 211 251 317
#
# _framework density 17.38589
#
# number of rings (size 3 to 8) (size 9 to 14) (size 15 to 20)
#    0.000    1.000    3.750    4.500    3.500    0.000 
#    0.000    0.000    0.000    0.000    0.000    5.250 
#    0.000    0.000    0.000    0.000    0.000    0.000 
#
# Total GULP energy -89410.941559 kJ/mol
# GULP energy per Si atom -5588.183847 kJ/mol
# Density = 1.734632 g / cm^3
# Si number density = 17.385890 Si / 1000 Ang^3
#
#
#
# Elastic Constant Matrix: (Units=GPa)
#
#
# Indices 1 2 3 4 5 6 
#
# 1 80.7409 20.3719 7.6545 6.4756 -5.1586 -16.1874
# 2 20.3719 73.3605 6.1896 13.6210 15.2371 9.1952
# 3 7.6545 6.1896 50.0825 12.7381 -16.7866 -1.6217
# 4 6.4756 13.6210 12.7381 23.0846 -3.3472 -6.1994
# 5 -5.1586 15.2371 -16.7866 -3.3472 31.0228 7.8815
# 6 -16.1874 9.1952 -1.6217 -6.1994 7.8815 17.1605
#
#
#
# Elastic Compliance Matrix: (Units=1/GPa)
#
#
# Indices 1 2 3 4 5 6 
#
# 1 0.020296 -0.010990 -0.003032 0.010116 0.001141 0.027878
# 2 -0.010990 0.026159 -0.000600 -0.020829 -0.010333 -0.027220
# 3 -0.003032 -0.000600 0.030298 -0.016654 0.017926 -0.013924
# 4 0.010116 -0.020829 -0.016654 0.074287 -0.000862 0.046363
# 5 0.001141 -0.010333 0.017926 -0.000862 0.051029 -0.015441
# 6 0.027878 -0.027220 -0.013924 0.046363 -0.015441 0.121681
#
#
# Mechanical properties :
#
#
# Convention : Reuss Voigt Hill
#
# Bulk Modulus (GPa) = 21.04827 30.29062 25.66945
# Shear Modulus (GPa) = 13.55636 25.58477 19.57056
#
# Velocity S-wave (km/s) = 2.79540 3.84028 3.35872
# Velocity P-wave (km/s) = 4.74888 6.09295 5.46241
#
# Compressibility (1/GPa) = 0.04750985
#
# Stress axis : x y z
#
# Youngs Moduli (GPa) = 49.26968 38.22743 33.00559
#
# Poissons Ratio (x) = 0.42013 0.10006
# Poissons Ratio (y) = 0.54148 0.01981
# Poissons Ratio (z) = 0.14936 0.02294
#
# Static dielectric constant tensor:
#      x y z
#    x 1.585110 0.009130 -0.007520 
#    y 0.009130 1.605620 0.004010 
#    z -0.007520 0.004010 1.582320 
# 
# From -- ./inp_files/76488.got.cif
#   From: 2010.05.17/outbox.cif.g08.bks.cpg/sg2_39_cif.got.tgz:76488.got - 2010.06.03 11:33:40.
