data_PCOD9084383
_publ_section_title
;
Structure prediction by ZEFSAII (Michael W. Deem and Ramdas Pophale) SiO2 
 PCOD9084383
Probable space group: P -1
;
_chemical_formula_sum "Si O2"
_cell_formula_units_Z 12
_cell_length_a 29.598816
_cell_length_b 15.638775
_cell_length_c 9.414833
_cell_angle_alpha 28.884483
_cell_angle_beta 151.176059
_cell_angle_gamma 160.125475
_cell_volume 677.865116
_symmetry_space_group_name_H-M "P -1"
_symmetry_group_IT_number 2
_symmetry_cell_setting 'triclinic'
loop_
_space_group_symop_operation_xyz
x,y,z
-x,-y,-z
loop_
_atom_site_type_symbol
_atom_site_label
_atom_site_fract_x
_atom_site_fract_y
_atom_site_fract_z
Si Si1 0.839053 0.787047 0.825677
Si Si2 0.344830 0.198074 0.522953
Si Si3 0.435220 0.959861 0.228370
Si Si4 0.371164 0.202855 0.258295
Si Si5 0.327111 0.435867 0.570276
Si Si6 0.633341 0.193265 0.195442
O O1 0.760715 0.817953 0.666140
O O2 0.808289 0.783550 0.580786
O O3 0.758171 0.486979 0.056846
O O4 0.000000 0.000000 0.000000
O O5 0.500000 0.500000 0.500000
O O6 0.319355 0.134338 0.377338
O O7 0.348163 0.018093 0.882513
O O8 0.357191 0.677275 0.358670
O O9 0.500000 0.000000 0.500000
O O10 0.569181 0.186569 0.168679
O O11 0.540350 0.430546 0.362307
O O12 0.321881 0.942253 0.447764
O O13 0.324625 0.302359 0.891681
O O14 0.500000 0.000000 0.000000
#
# Coordination Sequence:
#
# PCOD9084383 Si02
#       6
#     2   2   2   2   2   2
#     4  12  25  40  59  89 129 162 192 246 311 360
#     4  12  19  36  60  90 114 154 212 242 289 356
#     4  11  21  32  63  96 116 144 207 262 286 338
#     4  10  19  34  64  88 111 155 203 254 288 345
#     4  10  20  37  57  92 124 147 196 253 304 341
#     4  11  18  39  61  85 121 156 198 246 299 345
#
# _framework density 17.702636999999999
#
# number of rings (size 3 to 8) (size 9 to 14) (size 15 to 20)
#    0.000    1.000    8.333    1.000    4.667    0.000 
#    0.000    5.000    0.000    0.000    0.000    0.000 
#    0.000    0.000    0.000    0.000    0.000    0.000 
#
# Total GULP energy -66860.302973 kJ/mol
# GULP energy per Si atom -5571.691914 kJ/mol
# Density = 1.766235 g / cm^3
# Si number density = 17.702637 Si / 1000 Ang^3
#
#
#
# Elastic Constant Matrix: (Units=GPa)
#
#
# Indices 1 2 3 4 5 6 
#
# 1 77.5282 28.2916 38.0156 15.1091 -2.3338 -5.4218
# 2 28.2916 91.3353 56.8215 13.2369 4.0858 -8.2201
# 3 38.0156 56.8215 139.7122 -8.3955 1.0506 -3.7490
# 4 15.1091 13.2369 -8.3955 27.5879 -4.3405 -3.4773
# 5 -2.3338 4.0858 1.0506 -4.3405 37.3992 0.2085
# 6 -5.4218 -8.2201 -3.7490 -3.4773 0.2085 15.3618
#
#
#
# Elastic Compliance Matrix: (Units=1/GPa)
#
#
# Indices 1 2 3 4 5 6 
#
# 1 0.017955 -0.000490 -0.005280 -0.010906 0.000044 0.002317
# 2 -0.000490 0.017992 -0.007652 -0.010508 -0.003030 0.005250
# 3 -0.005280 -0.007652 0.012307 0.010448 0.001377 -0.000608
# 4 -0.010906 -0.010508 0.010448 0.052016 0.006184 0.004768
# 5 0.000044 -0.003030 0.001377 0.006184 0.027753 -0.000247
# 6 0.002317 0.005250 -0.000608 0.004768 -0.000247 0.069658
#
#
# Mechanical properties :
#
#
# Convention : Reuss Voigt Hill
#
# Bulk Modulus (GPa) = 46.70446 61.64811 54.17629
# Shear Modulus (GPa) = 21.58328 28.43291 25.00809
#
# Velocity S-wave (km/s) = 3.49551 4.01201 3.76264
# Velocity P-wave (km/s) = 6.53693 7.50743 7.03893
#
# Compressibility (1/GPa) = 0.02141123
#
# Stress axis : x y z
#
# Youngs Moduli (GPa) = 55.69453 55.58169 81.25179
#
# Poissons Ratio (x) = 0.02722 0.42900
# Poissons Ratio (y) = 0.02728 0.62172
# Poissons Ratio (z) = 0.29406 0.42530
#
# Static dielectric constant tensor:
#      x y z
#    x 1.667160 -0.034990 -0.007760 
#    y -0.034990 1.596420 -0.031870 
#    z -0.007760 -0.031870 1.833910 
# 
# From -- ./inp_files/145053.got.cif
#   From: 2010.05.17/outbox.cif.g08.bks.cpg/sg2_73_cif.got.tgz:145053.got - 2010.06.03 11:33:40.
