data_PCOD9084384
_publ_section_title
;
Structure prediction by ZEFSAII (Michael W. Deem and Ramdas Pophale) SiO2 
 PCOD9084384
Probable space group: P -1
;
_chemical_formula_sum "Si O2"
_cell_formula_units_Z 16
_cell_length_a 13.810400
_cell_length_b 5.723419
_cell_length_c 14.965830
_cell_angle_alpha 75.322939
_cell_angle_beta 32.929404
_cell_angle_gamma 83.090636
_cell_volume 612.398165
_symmetry_space_group_name_H-M "P -1"
_symmetry_group_IT_number 2
_symmetry_cell_setting 'triclinic'
loop_
_space_group_symop_operation_xyz
x,y,z
-x,-y,-z
loop_
_atom_site_type_symbol
_atom_site_label
_atom_site_fract_x
_atom_site_fract_y
_atom_site_fract_z
Si Si1 0.382184 0.359868 0.834945
Si Si2 0.871889 0.305697 0.058140
Si Si3 0.854648 0.122400 0.905921
Si Si4 0.073798 0.716916 0.522731
Si Si5 0.641392 0.451191 0.473181
Si Si6 0.291863 0.995516 0.636599
Si Si7 0.664040 0.515767 0.940989
Si Si8 0.915937 0.811750 0.449179
O O1 0.317104 0.601077 0.823466
O O2 0.538903 0.322105 0.650862
O O3 0.394857 0.370086 0.931678
O O4 0.220320 0.135006 0.967511
O O5 0.823881 0.062274 0.177852
O O6 0.937271 0.289675 0.907961
O O7 0.000000 0.500000 0.000000
O O8 0.697515 0.248460 0.971878
O O9 0.980065 0.092348 0.729349
O O10 0.866006 0.640526 0.733374
O O11 0.163953 0.473741 0.479056
O O12 0.050114 0.781944 0.431120
O O13 0.175115 0.965443 0.466538
O O14 0.500000 0.500000 0.500000
O O15 0.752645 0.249413 0.366829
O O16 0.718981 0.732291 0.414488
O O17 0.500000 0.000000 0.500000
O O18 0.500000 0.500000 0.000000
#
# Coordination Sequence:
#
# PCOD9084384 Si02
#       8
#     2   2   2   2   2   2   2   2
#     4  11  21  38  64  90 120 170 210 262 318 382
#     4  11  24  39  62  94 128 166 213 268 318 376
#     4  10  21  38  61  90 124 165 210 260 322 379
#     4   9  17  34  57  86 111 157 200 248 305 367
#     4  10  19  34  64  88 118 164 215 249 311 378
#     4  10  19  38  61  89 120 170 207 254 315 378
#     4  10  22  38  59  90 126 159 209 261 314 372
#     4   9  17  33  60  83 112 156 204 244 304 374
#
# _framework density 26.126791000000001
#
# number of rings (size 3 to 8) (size 9 to 14) (size 15 to 20)
#    0.000    2.000    3.750    1.500    1.750    1.000 
#    0.000    1.250    0.000    0.000    0.000    0.000 
#    0.000    0.000    0.000    0.000    0.000    0.000 
#
# Total GULP energy -89385.794898 kJ/mol
# GULP energy per Si atom -5586.612181 kJ/mol
# Density = 2.606733 g / cm^3
# Si number density = 26.126791 Si / 1000 Ang^3
#
#
#
# Elastic Constant Matrix: (Units=GPa)
#
#
# Indices 1 2 3 4 5 6 
#
# 1 140.5964 34.6100 42.6548 12.1436 14.4901 7.0271
# 2 34.6100 182.0285 23.0873 5.0339 16.0074 3.6812
# 3 42.6548 23.0873 115.4890 7.0629 37.3238 15.2635
# 4 12.1436 5.0339 7.0629 43.1965 0.1549 15.2044
# 5 14.4901 16.0074 37.3238 0.1549 40.9042 9.4097
# 6 7.0271 3.6812 15.2635 15.2044 9.4097 42.3655
#
#
#
# Elastic Compliance Matrix: (Units=1/GPa)
#
#
# Indices 1 2 3 4 5 6 
#
# 1 0.008402 -0.001195 -0.002783 -0.001912 -0.000056 0.000412
# 2 -0.001195 0.005906 -0.000172 -0.000423 -0.001798 0.000298
# 3 -0.002783 -0.000172 0.013509 -0.000770 -0.010880 -0.001698
# 4 -0.001912 -0.000423 -0.000770 0.027379 0.003748 -0.010027
# 5 -0.000056 -0.001798 -0.010880 0.003748 0.036309 -0.005324
# 6 0.000412 0.000298 -0.001698 -0.010027 -0.005324 0.028903
#
#
# Mechanical properties :
#
#
# Convention : Reuss Voigt Hill
#
# Bulk Modulus (GPa) = 51.23877 70.97980 61.10928
# Shear Modulus (GPa) = 36.97874 47.81069 42.39472
#
# Velocity S-wave (km/s) = 3.76620 4.28243 4.03259
# Velocity P-wave (km/s) = 6.21020 7.18879 6.71734
#
# Compressibility (1/GPa) = 0.01951647
#
# Stress axis : x y z
#
# Youngs Moduli (GPa) = 119.02583 169.30702 74.02622
#
# Poissons Ratio (x) = 0.20230 0.20605
# Poissons Ratio (y) = 0.14222 0.01272
# Poissons Ratio (z) = 0.33130 0.02908
#
# Static dielectric constant tensor:
#      x y z
#    x 2.020640 0.013390 -0.045340 
#    y 0.013390 2.122290 0.006280 
#    z -0.045340 0.006280 2.035670 
# 
# From -- ./inp_files/525774.got.cif
#   From: 2010.05.17/outbox.cif.g08.bks.cpg/sg2_263_cif.got.tgz:525774.got - 2010.06.03 11:33:40.
