data_PCOD9084969
_publ_section_title
;
Structure prediction by ZEFSAII (Michael W. Deem and Ramdas Pophale) SiO2 
 PCOD9084969
Probable space group: P -1
;
_chemical_formula_sum "Si O2"
_cell_formula_units_Z 16
_cell_length_a 20.812359
_cell_length_b 14.807856
_cell_length_c 13.375060
_cell_angle_alpha 160.387418
_cell_angle_beta 43.121679
_cell_angle_gamma 143.945674
_cell_volume 803.793753
_symmetry_space_group_name_H-M "P -1"
_symmetry_group_IT_number 2
_symmetry_cell_setting 'triclinic'
loop_
_space_group_symop_operation_xyz
x,y,z
-x,-y,-z
loop_
_atom_site_type_symbol
_atom_site_label
_atom_site_fract_x
_atom_site_fract_y
_atom_site_fract_z
Si Si1 0.460399 0.455031 0.613583
Si Si2 0.906702 0.827081 0.218625
Si Si3 0.310231 0.193858 0.191746
Si Si4 0.831876 0.302109 0.312022
Si Si5 0.782824 0.417268 0.207815
Si Si6 0.314055 0.728887 0.052575
Si Si7 0.936421 0.979422 0.950714
Si Si8 0.008905 0.500355 0.858758
O O1 0.500000 0.500000 0.500000
O O2 0.563223 0.539217 0.655700
O O3 0.360956 0.099142 0.378126
O O4 0.415297 0.686948 0.919872
O O5 0.976705 0.917049 0.131403
O O6 0.909529 0.138375 0.578192
O O7 0.788526 0.507393 0.007501
O O8 0.970362 0.746092 0.145307
O O9 0.233332 0.338242 0.452191
O O10 0.277473 0.003413 0.926197
O O11 0.286505 0.929248 0.025858
O O12 0.837224 0.616758 0.667645
O O13 0.912302 0.413508 0.239579
O O14 0.886059 0.199648 0.228785
O O15 0.907014 0.481460 0.133552
O O16 0.733354 0.411298 0.150273
O O17 0.000000 0.000000 0.000000
#
# Coordination Sequence:
#
# PCOD9084969 Si02
#       8
#     2   2   2   2   2   2   2   2
#     4  12  22  37  52  74 100 145 192 228 257 285
#     4  10  21  35  49  75 108 136 170 215 257 318
#     4  11  20  33  53  73 106 137 179 229 254 292
#     4   9  18  32  52  81 103 130 168 210 260 313
#     4  11  19  31  50  73  99 143 180 215 257 296
#     4  12  23  34  50  74 104 141 186 222 258 300
#     4  10  19  35  58  82 106 131 163 208 265 329
#     4   9  18  32  49  69 104 139 168 206 255 313
#
# _framework density 19.905604
#
# number of rings (size 3 to 8) (size 9 to 14) (size 15 to 20)
#    0.000    1.500    2.500    6.000    0.000    1.000 
#    0.000    0.000    0.000    2.250    0.000    5.250 
#    0.000    0.000    0.000    0.000    0.000    0.000 
#
# Total GULP energy -89315.030319 kJ/mol
# GULP energy per Si atom -5582.189395 kJ/mol
# Density = 1.986030 g / cm^3
# Si number density = 19.905604 Si / 1000 Ang^3
#
#
#
# Elastic Constant Matrix: (Units=GPa)
#
#
# Indices 1 2 3 4 5 6 
#
# 1 100.1695 23.3383 11.2376 7.0448 0.2761 -1.2683
# 2 23.3383 34.7361 15.0184 15.3907 1.3882 9.0561
# 3 11.2376 15.0184 91.9794 18.2496 -8.3214 -2.7885
# 4 7.0448 15.3907 18.2496 24.4976 9.5339 0.5406
# 5 0.2761 1.3882 -8.3214 9.5339 33.9465 5.7626
# 6 -1.2683 9.0561 -2.7885 0.5406 5.7626 28.7557
#
#
#
# Elastic Compliance Matrix: (Units=1/GPa)
#
#
# Indices 1 2 3 4 5 6 
#
# 1 0.012372 -0.011043 -0.000620 0.004435 -0.001765 0.004234
# 2 -0.011043 0.057376 -0.000343 -0.036592 0.011362 -0.020179
# 3 -0.000620 -0.000343 0.014230 -0.012978 0.007105 0.000281
# 4 0.004435 -0.036592 -0.012978 0.082525 -0.027341 0.014389
# 5 -0.001765 0.011362 0.007105 -0.027341 0.040212 -0.010512
# 6 0.004234 -0.020179 0.000281 0.014389 -0.010512 0.043181
#
#
# Mechanical properties :
#
#
# Convention : Reuss Voigt Hill
#
# Bulk Modulus (GPa) = 16.67584 36.23041 26.45312
# Shear Modulus (GPa) = 17.01285 29.25935 23.13610
#
# Velocity S-wave (km/s) = 2.92666 3.83809 3.41294
# Velocity P-wave (km/s) = 4.45152 6.15483 5.37113
#
# Compressibility (1/GPa) = 0.05996698
#
# Stress axis : x y z
#
# Youngs Moduli (GPa) = 80.82765 17.42891 70.27436
#
# Poissons Ratio (x) = 0.19246 0.04356
# Poissons Ratio (y) = 0.89256 0.02409
# Poissons Ratio (z) = 0.05010 0.00598
#
# Static dielectric constant tensor:
#      x y z
#    x 1.722670 0.010780 0.025810 
#    y 0.010780 1.745750 0.006350 
#    z 0.025810 0.006350 1.716030 
# 
# From -- ./inp_files/533121.got.cif
#   From: 2010.05.17/outbox.cif.g08.bks.cpg/sg2_267_cif.got.tgz:533121.got - 2010.06.03 11:33:40.
