data_PCOD9084062
_publ_section_title
;
Structure prediction by ZEFSAII (Michael W. Deem and Ramdas Pophale) SiO2 
 PCOD9084062
Probable space group: P -1
;
_chemical_formula_sum "Si O2"
_cell_formula_units_Z 14
_cell_length_a 21.835569
_cell_length_b 5.243664
_cell_length_c 10.429290
_cell_angle_alpha 128.105710
_cell_angle_beta 43.560749
_cell_angle_gamma 124.880925
_cell_volume 630.173916
_symmetry_space_group_name_H-M "P -1"
_symmetry_group_IT_number 2
_symmetry_cell_setting 'triclinic'
loop_
_space_group_symop_operation_xyz
x,y,z
-x,-y,-z
loop_
_atom_site_type_symbol
_atom_site_label
_atom_site_fract_x
_atom_site_fract_y
_atom_site_fract_z
Si Si1 0.437143 0.166326 0.555851
Si Si2 0.848914 0.382541 0.452511
Si Si3 0.790031 0.045170 0.712907
Si Si4 0.378387 0.665582 0.969938
Si Si5 0.043697 0.492117 0.294317
Si Si6 0.059510 0.846611 0.963967
Si Si7 0.442117 0.785712 0.181595
O O1 0.500000 0.500000 0.500000
O O2 0.370646 0.317694 0.798487
O O3 0.500000 0.000000 0.500000
O O4 0.403372 0.890807 0.408575
O O5 0.819733 0.179576 0.564663
O O6 0.849480 0.176932 0.256944
O O7 0.959496 0.534244 0.345753
O O8 0.796940 0.668345 0.594329
O O9 0.864206 0.227855 0.760843
O O10 0.694047 0.137389 0.912133
O O11 0.481499 0.879019 0.860790
O O12 0.371933 0.678713 0.138305
O O13 0.000000 0.500000 0.500000
O O14 0.073415 0.141457 0.135766
O O15 0.000000 0.500000 0.000000
O O16 0.000000 0.000000 0.000000
O O17 0.500000 0.500000 0.000000
#
# Coordination Sequence:
#
# PCOD9084062 Si02
#       7
#     2   2   2   2   2   2   2
#     4  10  20  37  63  90 116 152 201 247 299 372
#     4  10  21  38  59  84 119 160 198 243 298 358
#     4  11  23  38  58  86 123 154 197 253 297 354
#     4  10  23  39  60  94 123 161 206 257 310 364
#     4   9  19  37  60  83 113 160 198 234 298 353
#     4  10  19  34  60  84 109 149 204 244 280 351
#     4  10  20  39  68  86 120 165 206 248 314 377
#
# _framework density 22.216090999999999
#
# number of rings (size 3 to 8) (size 9 to 14) (size 15 to 20)
#    0.000    2.000    1.429    3.000    2.000    3.429 
#    2.571    0.000    0.000    0.000    0.000    0.000 
#    0.000    0.000    0.000    0.000    0.000    0.000 
#
# Total GULP energy -77968.004334 kJ/mol
# GULP energy per Si atom -5569.143167 kJ/mol
# Density = 2.216553 g / cm^3
# Si number density = 22.216091 Si / 1000 Ang^3
#
#
#
# Elastic Constant Matrix: (Units=GPa)
#
#
# Indices 1 2 3 4 5 6 
#
# 1 83.5039 15.7346 57.0928 3.0629 -6.9450 -14.1978
# 2 15.7346 66.9827 40.4098 8.8129 0.1336 -25.2968
# 3 57.0928 40.4098 178.9782 41.3830 10.8354 4.3484
# 4 3.0629 8.8129 41.3830 35.9564 0.7902 -5.8145
# 5 -6.9450 0.1336 10.8354 0.7902 46.2073 5.3298
# 6 -14.1978 -25.2968 4.3484 -5.8145 5.3298 32.9598
#
#
#
# Elastic Compliance Matrix: (Units=1/GPa)
#
#
# Indices 1 2 3 4 5 6 
#
# 1 0.022354 0.007925 -0.012854 0.013974 0.003893 0.019243
# 2 0.007925 0.031099 -0.013033 0.011708 0.000381 0.031005
# 3 -0.012854 -0.013033 0.017860 -0.019557 -0.003348 -0.020805
# 4 0.013974 0.011708 -0.019557 0.050408 0.002788 0.026027
# 5 0.003893 0.000381 -0.003348 0.002788 0.023058 -0.000826
# 6 0.019243 0.031005 -0.020805 0.026027 -0.000826 0.069896
#
#
# Mechanical properties :
#
#
# Convention : Reuss Voigt Hill
#
# Bulk Modulus (GPa) = 28.25787 61.77102 45.01445
# Shear Modulus (GPa) = 19.05520 37.43985 28.24753
#
# Velocity S-wave (km/s) = 2.93186 4.10964 3.56966
# Velocity P-wave (km/s) = 4.92019 7.09816 6.10705
#
# Compressibility (1/GPa) = 0.03538837
#
# Stress axis : x y z
#
# Youngs Moduli (GPa) = 44.73508 32.15586 55.98969
#
# Poissons Ratio (x) = -0.25483 0.71970
# Poissons Ratio (y) = -0.35452 0.72970
# Poissons Ratio (z) = 0.57503 0.41908
#
# Static dielectric constant tensor:
#      x y z
#    x 1.947780 0.120330 0.143000 
#    y 0.120330 1.943380 0.069760 
#    z 0.143000 0.069760 1.971620 
# 
# From -- ./inp_files/44593.got.cif
#   From: 2010.05.17/outbox.cif.g08.bks.cpg/sg2_23_cif.got.tgz:44593.got - 2010.06.03 11:33:40.
