data_PCOD9084344
_publ_section_title
;
Structure prediction by ZEFSAII (Michael W. Deem and Ramdas Pophale) SiO2 
 PCOD9084344
Probable space group: P -1
;
_chemical_formula_sum "Si O2"
_cell_formula_units_Z 14
_cell_length_a 12.848926
_cell_length_b 8.417590
_cell_length_c 7.985729
_cell_angle_alpha 57.597457
_cell_angle_beta 48.855985
_cell_angle_gamma 63.828265
_cell_volume 543.812568
_symmetry_space_group_name_H-M "P -1"
_symmetry_group_IT_number 2
_symmetry_cell_setting 'triclinic'
loop_
_space_group_symop_operation_xyz
x,y,z
-x,-y,-z
loop_
_atom_site_type_symbol
_atom_site_label
_atom_site_fract_x
_atom_site_fract_y
_atom_site_fract_z
Si Si1 0.187772 0.974787 0.690505
Si Si2 0.688658 0.311761 0.496957
Si Si3 0.231989 0.134210 0.096418
Si Si4 0.265795 0.760564 0.068575
Si Si5 0.400930 0.442055 0.877860
Si Si6 0.963360 0.322585 0.412073
Si Si7 0.063859 0.268043 0.873551
O O1 0.291839 0.904443 0.470792
O O2 0.147085 0.192337 0.660381
O O3 0.254120 0.885070 0.842775
O O4 0.047156 0.874310 0.882802
O O5 0.566265 0.389562 0.708482
O O6 0.654705 0.430510 0.296002
O O7 0.836240 0.332722 0.409340
O O8 0.089170 0.156076 0.343234
O O9 0.289972 0.922038 0.090791
O O10 0.335713 0.249705 0.021111
O O11 0.172545 0.247777 0.924546
O O12 0.117736 0.702744 0.316854
O O13 0.357584 0.565858 0.019250
O O14 0.013545 0.524125 0.205344
#
# Coordination Sequence:
#
# PCOD9084344 Si02
#       7
#     2   2   2   2   2   2   2
#     4   9  19  38  58  89 119 150 196 247 289 347
#     4  10  20  39  63  87 116 156 202 244 284 354
#     4  11  21  40  63  88 118 160 195 245 293 352
#     4  10  24  39  57  91 126 152 191 249 301 346
#     4  10  22  42  61  85 123 159 196 241 296 351
#     4  12  21  37  63  91 117 151 200 247 295 346
#     4  10  19  34  63  90 115 150 201 245 288 346
#
# _framework density 25.744166
#
# number of rings (size 3 to 8) (size 9 to 14) (size 15 to 20)
#    0.000    1.714    2.857    2.571    0.000    2.857 
#    5.143    3.571    0.000    0.000    0.000    0.000 
#    0.000    0.000    0.000    0.000    0.000    0.000 
#
# Total GULP energy -78249.951812 kJ/mol
# GULP energy per Si atom -5589.282272 kJ/mol
# Density = 2.568557 g / cm^3
# Si number density = 25.744166 Si / 1000 Ang^3
#
#
#
# Elastic Constant Matrix: (Units=GPa)
#
#
# Indices 1 2 3 4 5 6 
#
# 1 68.7587 45.7050 13.6371 22.3794 3.3159 1.1833
# 2 45.7050 179.6660 78.7257 34.2945 6.2994 16.1686
# 3 13.6371 78.7257 103.0033 50.3805 4.0120 16.8215
# 4 22.3794 34.2945 50.3805 66.2078 -0.1703 16.7519
# 5 3.3159 6.2994 4.0120 -0.1703 29.5693 0.7179
# 6 1.1833 16.1686 16.8215 16.7519 0.7179 32.9792
#
#
#
# Elastic Compliance Matrix: (Units=1/GPa)
#
#
# Indices 1 2 3 4 5 6 
#
# 1 0.020725 -0.006513 0.006254 -0.009431 -0.001939 0.004092
# 2 -0.006513 0.010510 -0.008721 0.004029 -0.000241 -0.002512
# 3 0.006254 -0.008721 0.023019 -0.015128 -0.002055 0.000039
# 4 -0.009431 0.004029 -0.015128 0.030064 0.002650 -0.009249
# 5 -0.001939 -0.000241 -0.002055 0.002650 0.034403 -0.000859
# 6 0.004092 -0.002512 0.000039 -0.009249 -0.000859 0.036104
#
#
# Mechanical properties :
#
#
# Convention : Reuss Voigt Hill
#
# Bulk Modulus (GPa) = 27.55294 69.72928 48.64111
# Shear Modulus (GPa) = 27.04441 39.97526 33.50984
#
# Velocity S-wave (km/s) = 3.24467 3.94482 3.61175
# Velocity P-wave (km/s) = 4.97624 6.92048 6.02727
#
# Compressibility (1/GPa) = 0.03629377
#
# Stress axis : x y z
#
# Youngs Moduli (GPa) = 48.25080 95.15187 43.44233
#
# Poissons Ratio (x) = 0.61968 -0.27168
# Poissons Ratio (y) = 0.31424 0.37887
# Poissons Ratio (z) = -0.30176 0.82984
#
# Static dielectric constant tensor:
#      x y z
#    x 2.048430 0.028750 0.068940 
#    y 0.028750 2.074750 0.018420 
#    z 0.068940 0.018420 2.056040 
# 
# From -- ./inp_files/297745.got.cif
#   From: 2010.05.17/outbox.cif.g08.bks.cpg/sg2_149_cif.got.tgz:297745.got - 2010.06.03 11:33:40.
