data_PCOD9084024
_publ_section_title
;
Structure prediction by ZEFSAII (Michael W. Deem and Ramdas Pophale) SiO2 
 PCOD9084024
Probable space group: P -1
;
_chemical_formula_sum "Si O2"
_cell_formula_units_Z 13
_cell_length_a 10.276888
_cell_length_b 6.904567
_cell_length_c 10.493031
_cell_angle_alpha 82.885075
_cell_angle_beta 118.798400
_cell_angle_gamma 129.699659
_cell_volume 482.990528
_symmetry_space_group_name_H-M "P -1"
_symmetry_group_IT_number 2
_symmetry_cell_setting 'triclinic'
loop_
_space_group_symop_operation_xyz
x,y,z
-x,-y,-z
loop_
_atom_site_type_symbol
_atom_site_label
_atom_site_fract_x
_atom_site_fract_y
_atom_site_fract_z
Si Si1 0.580043 0.532352 0.177214
Si Si2 0.089411 0.535457 0.901601
Si Si3 0.500000 0.000000 0.000000
Si Si4 0.630218 0.984484 0.319619
Si Si5 0.202769 0.272303 0.115748
Si Si6 0.728464 0.397060 0.640317
Si Si7 0.070508 0.282683 0.538997
O O1 0.614043 0.765095 0.252045
O O2 0.386751 0.289296 0.183027
O O3 0.790318 0.606213 0.279452
O O4 0.500000 0.500000 0.000000
O O5 0.892610 0.369591 0.737380
O O6 0.256823 0.831213 0.910687
O O7 0.220038 0.460685 0.002943
O O8 0.000000 0.500000 0.000000
O O9 0.470451 0.959206 0.834008
O O10 0.489748 0.847435 0.389719
O O11 0.862087 0.216434 0.442275
O O12 0.204233 0.372123 0.246915
O O13 0.000000 0.000000 0.000000
O O14 0.771513 0.516694 0.511628
O O15 0.000000 0.000000 0.500000
#
# Coordination Sequence:
#
# PCOD9084024 Si02
#       7
#     2   2   1   2   2   2   2
#     4  10  22  39  54  87 122 154 198 248 315 368
#     4  10  19  34  59  91 122 157 206 257 294 358
#     4  12  16  32  62  90 118 150 210 248 296 356
#     4  10  21  35  62  94 114 157 202 257 300 356
#     4  10  22  36  58  93 124 163 199 247 313 369
#     4  10  20  39  60  90 122 154 211 256 300 358
#     4  10  22  36  60  89 120 158 204 260 307 355
#
# _framework density 26.915642999999999
#
# number of rings (size 3 to 8) (size 9 to 14) (size 15 to 20)
#    0.000    1.846    6.154    0.000    4.308    5.538 
#    0.000    0.000    0.000    4.615    0.000    0.000 
#    0.000    0.000    0.000    0.000    0.000    0.000 
#
# Total GULP energy -72405.014337 kJ/mol
# GULP energy per Si atom -5569.616487 kJ/mol
# Density = 2.685438 g / cm^3
# Si number density = 26.915643 Si / 1000 Ang^3
#
#
#
# Elastic Constant Matrix: (Units=GPa)
#
#
# Indices 1 2 3 4 5 6 
#
# 1 141.4434 39.2689 56.9970 12.6101 12.1871 32.3741
# 2 39.2689 93.3345 46.6652 16.4743 7.2547 47.1092
# 3 56.9970 46.6652 192.6775 13.0174 23.4491 33.0096
# 4 12.6101 16.4743 13.0174 53.3968 17.6142 3.3269
# 5 12.1871 7.2547 23.4491 17.6142 58.5112 10.6146
# 6 32.3741 47.1092 33.0096 3.3269 10.6146 55.5041
#
#
#
# Elastic Compliance Matrix: (Units=1/GPa)
#
#
# Indices 1 2 3 4 5 6 
#
# 1 0.008902 -0.001078 -0.001743 -0.001110 -0.000116 -0.003152
# 2 -0.001078 0.021274 -0.001996 -0.005829 0.003133 -0.016491
# 3 -0.001743 -0.001996 0.006555 0.000107 -0.001898 -0.000831
# 4 -0.001110 -0.005829 0.000107 0.022702 -0.006920 0.005493
# 5 -0.000116 0.003133 -0.001898 -0.006920 0.020471 -0.004963
# 6 -0.003152 -0.016491 -0.000831 0.005493 -0.004963 0.034966
#
#
# Mechanical properties :
#
#
# Convention : Reuss Voigt Hill
#
# Bulk Modulus (GPa) = 36.90383 79.25751 58.08067
# Shear Modulus (GPa) = 37.44279 52.45069 44.94674
#
# Velocity S-wave (km/s) = 3.73381 4.41920 4.09089
# Velocity P-wave (km/s) = 5.68587 7.45317 6.62868
#
# Compressibility (1/GPa) = 0.02709746
#
# Stress axis : x y z
#
# Youngs Moduli (GPa) = 112.33316 47.00510 152.55005
#
# Poissons Ratio (x) = 0.05067 0.26592
# Poissons Ratio (y) = 0.12109 0.30448
# Poissons Ratio (z) = 0.19582 0.09382
#
# Static dielectric constant tensor:
#      x y z
#    x 2.195040 -0.132950 0.064220 
#    y -0.132950 2.278090 -0.016180 
#    z 0.064220 -0.016180 2.101660 
# 
# From -- ./inp_files/414760.got.cif
#   From: 2010.05.17/outbox.cif.g08.bks.cpg/sg2_208_cif.got.tgz:414760.got - 2010.06.03 11:33:40.
