data_PCOD9084995
_publ_section_title
;
Structure prediction by ZEFSAII (Michael W. Deem and Ramdas Pophale) SiO2 
 PCOD9084995
Probable space group: P -1
;
_chemical_formula_sum "Si O2"
_cell_formula_units_Z 14
_cell_length_a 5.151476
_cell_length_b 19.111741
_cell_length_c 26.609323
_cell_angle_alpha 163.298238
_cell_angle_beta 69.836562
_cell_angle_gamma 109.526309
_cell_volume 706.676362
_symmetry_space_group_name_H-M "P -1"
_symmetry_group_IT_number 2
_symmetry_cell_setting 'triclinic'
loop_
_space_group_symop_operation_xyz
x,y,z
-x,-y,-z
loop_
_atom_site_type_symbol
_atom_site_label
_atom_site_fract_x
_atom_site_fract_y
_atom_site_fract_z
Si Si1 0.038288 0.145380 0.546401
Si Si2 0.840181 0.245438 0.174359
Si Si3 0.643918 0.199836 0.520340
Si Si4 0.573995 0.839046 0.776299
Si Si5 0.032303 0.263606 0.446600
Si Si6 0.272909 0.633272 0.848867
Si Si7 0.330107 0.719608 0.612259
O O1 0.334427 0.086177 0.459803
O O2 0.073936 0.436303 0.753571
O O3 0.792339 0.113454 0.501454
O O4 0.000000 0.000000 0.500000
O O5 0.543017 0.183679 0.175472
O O6 0.812641 0.344043 0.188001
O O7 0.971414 0.450682 0.342824
O O8 0.000000 0.000000 0.000000
O O9 0.849097 0.152663 0.427903
O O10 0.565629 0.488822 0.729083
O O11 0.336596 0.841041 0.750265
O O12 0.703629 0.572437 0.577140
O O13 0.719960 0.100986 0.944918
O O14 0.884073 0.205154 0.363945
O O15 0.360801 0.221751 0.390399
#
# Coordination Sequence:
#
# PCOD9084995 Si02
#       7
#     2   2   2   2   2   2   2
#     4  10  21  36  58  87 112 133 172 227 297 347
#     4  11  20  31  56  80 118 150 188 222 277 322
#     4  10  19  35  58  83 110 137 179 225 288 332
#     4  10  21  35  49  79 113 155 186 229 252 320
#     4  11  19  37  52  76 107 149 186 222 258 323
#     4  10  21  34  56  83 115 145 182 225 286 326
#     4  10  23  35  51  73 113 154 198 215 256 300
#
# _framework density 19.811048
#
# number of rings (size 3 to 8) (size 9 to 14) (size 15 to 20)
#    0.857    0.857    1.429    5.143    0.000    6.286 
#    0.000    0.000    0.000    0.000    0.000    6.000 
#    0.000    0.000    0.000    0.000    0.000    0.000 
#
# Total GULP energy -78049.605089 kJ/mol
# GULP energy per Si atom -5574.971792 kJ/mol
# Density = 1.976596 g / cm^3
# Si number density = 19.811048 Si / 1000 Ang^3
#
#
#
# Elastic Constant Matrix: (Units=GPa)
#
#
# Indices 1 2 3 4 5 6 
#
# 1 101.3843 27.6279 10.8911 -5.0232 -7.1717 -13.5349
# 2 27.6279 116.8558 29.3060 8.7613 -5.5291 -11.4031
# 3 10.8911 29.3060 52.4302 -1.7977 12.8716 -7.0054
# 4 -5.0232 8.7613 -1.7977 23.1269 -0.5190 0.2322
# 5 -7.1717 -5.5291 12.8716 -0.5190 21.1501 -5.7597
# 6 -13.5349 -11.4031 -7.0054 0.2322 -5.7597 35.8071
#
#
#
# Elastic Compliance Matrix: (Units=1/GPa)
#
#
# Indices 1 2 3 4 5 6 
#
# 1 0.011765 -0.001704 -0.002325 0.003116 0.006243 0.004434
# 2 -0.001704 0.012117 -0.008242 -0.005445 0.008281 0.002969
# 3 -0.002325 -0.008242 0.029311 0.004437 -0.020992 -0.001174
# 4 0.003116 -0.005445 0.004437 0.046282 -0.002016 -0.000313
# 5 0.006243 0.008281 -0.020992 -0.002016 0.067491 0.011759
# 6 0.004434 0.002969 -0.001174 -0.000313 0.011759 0.032213
#
#
# Mechanical properties :
#
#
# Convention : Reuss Voigt Hill
#
# Bulk Modulus (GPa) = 34.90079 45.14672 40.02375
# Shear Modulus (GPa) = 21.43419 29.53984 25.48702
#
# Velocity S-wave (km/s) = 3.29284 3.86564 3.59068
# Velocity P-wave (km/s) = 5.66676 6.53929 6.11860
#
# Compressibility (1/GPa) = 0.02865265
#
# Stress axis : x y z
#
# Youngs Moduli (GPa) = 84.99433 82.52681 34.11635
#
# Poissons Ratio (x) = 0.14065 0.07931
# Poissons Ratio (y) = 0.14485 0.28118
# Poissons Ratio (z) = 0.19759 0.68017
#
# Static dielectric constant tensor:
#      x y z
#    x 1.834360 0.089470 -0.088010 
#    y 0.089470 1.736820 -0.079030 
#    z -0.088010 -0.079030 1.850880 
# 
# From -- ./inp_files/604907.got.cif
#   From: 2010.05.17/outbox.cif.g08.bks.cpg/sg2_303_cif.got.tgz:604907.got - 2010.06.03 11:33:40.
