data_PCOD9084561
_publ_section_title
;
Structure prediction by ZEFSAII (Michael W. Deem and Ramdas Pophale) SiO2 
 PCOD9084561
Probable space group: P -1
;
_chemical_formula_sum "Si O2"
_cell_formula_units_Z 16
_cell_length_a 12.810241
_cell_length_b 12.896223
_cell_length_c 10.411304
_cell_angle_alpha 59.641070
_cell_angle_beta 106.178624
_cell_angle_gamma 57.631730
_cell_volume 824.024937
_symmetry_space_group_name_H-M "P -1"
_symmetry_group_IT_number 2
_symmetry_cell_setting 'triclinic'
loop_
_space_group_symop_operation_xyz
x,y,z
-x,-y,-z
loop_
_atom_site_type_symbol
_atom_site_label
_atom_site_fract_x
_atom_site_fract_y
_atom_site_fract_z
Si Si1 0.029419 0.932954 0.217200
Si Si2 0.304588 0.659124 0.257386
Si Si3 0.381524 0.760345 0.821134
Si Si4 0.093676 0.468531 0.179929
Si Si5 0.910604 0.787735 0.600705
Si Si6 0.846019 0.904898 0.806166
Si Si7 0.765233 0.343669 0.287215
Si Si8 0.559457 0.678776 0.658035
O O1 0.152702 0.765983 0.249360
O O2 0.115234 0.803497 0.457168
O O3 0.076999 0.032426 0.178904
O O4 0.806980 0.131901 0.984830
O O5 0.500000 0.500000 0.500000
O O6 0.347364 0.518880 0.255725
O O7 0.259496 0.751007 0.753592
O O8 0.487300 0.702789 0.759228
O O9 0.242503 0.993073 0.662437
O O10 0.549627 0.576832 0.090180
O O11 0.114174 0.330890 0.358516
O O12 0.287875 0.353838 0.274291
O O13 0.000000 0.500000 0.000000
O O14 0.958688 0.695917 0.043816
O O15 0.874425 0.851322 0.698175
O O16 0.118107 0.651415 0.733294
O O17 0.622617 0.114106 0.613998
#
# Coordination Sequence:
#
# PCOD9084561 Si02
#       8
#     2   2   2   2   2   2   2   2
#     4  11  22  36  57  85 115 143 189 233 287 340
#     4  11  22  37  58  84 112 146 188 240 293 325
#     4  10  21  32  55  86 116 150 187 219 290 339
#     4  10  21  34  54  80 116 155 190 225 274 334
#     4  10  21  34  52  82 117 154 185 214 278 338
#     4  10  19  35  54  85 111 148 187 228 282 327
#     4  11  21  35  54  83 119 153 176 234 277 350
#     4  11  20  36  58  82 119 145 188 239 277 333
#
# _framework density 19.416889999999999
#
# number of rings (size 3 to 8) (size 9 to 14) (size 15 to 20)
#    0.000    1.500    5.000    1.875    0.000    7.500 
#    0.000    0.000    0.000    0.750    0.000    2.625 
#    0.000    0.000    0.000    0.000    0.000    0.000 
#
# Total GULP energy -89219.733735 kJ/mol
# GULP energy per Si atom -5576.233358 kJ/mol
# Density = 1.937270 g / cm^3
# Si number density = 19.416890 Si / 1000 Ang^3
#
#
#
# Elastic Constant Matrix: (Units=GPa)
#
#
# Indices 1 2 3 4 5 6 
#
# 1 94.9992 10.8663 24.7554 -8.0386 5.0725 3.0247
# 2 10.8663 42.0177 9.3713 -10.4361 3.3143 -4.6283
# 3 24.7554 9.3713 126.9449 -8.5287 9.9132 -5.0556
# 4 -8.0386 -10.4361 -8.5287 24.2770 0.7846 3.3176
# 5 5.0725 3.3143 9.9132 0.7846 28.4817 -8.4493
# 6 3.0247 -4.6283 -5.0556 3.3176 -8.4493 10.1359
#
#
#
# Elastic Compliance Matrix: (Units=1/GPa)
#
#
# Indices 1 2 3 4 5 6 
#
# 1 0.012266 -0.002604 -0.002021 0.003865 -0.004514 -0.010885
# 2 -0.002604 0.028104 -0.000523 0.009614 0.000182 0.010354
# 3 -0.002021 -0.000523 0.008685 0.001880 -0.001917 0.002483
# 4 0.003865 0.009614 0.001880 0.050407 -0.009972 -0.020637
# 5 -0.004514 0.000182 -0.001917 -0.009972 0.050410 0.045760
# 6 -0.010885 0.010354 0.002483 -0.020637 0.045760 0.152774
#
#
# Mechanical properties :
#
#
# Convention : Reuss Voigt Hill
#
# Bulk Modulus (GPa) = 25.80089 39.32754 32.56421
# Shear Modulus (GPa) = 15.34395 27.17682 21.26039
#
# Velocity S-wave (km/s) = 2.81417 3.74525 3.31258
# Velocity P-wave (km/s) = 4.88632 6.24506 5.60700
#
# Compressibility (1/GPa) = 0.03875835
#
# Stress axis : x y z
#
# Youngs Moduli (GPa) = 81.52894 35.58255 115.14051
#
# Poissons Ratio (x) = 0.09266 0.23270
# Poissons Ratio (y) = 0.21232 0.06019
# Poissons Ratio (z) = 0.16477 0.01860
#
# Static dielectric constant tensor:
#      x y z
#    x 1.719040 -0.019290 -0.035260 
#    y -0.019290 1.680720 -0.007340 
#    z -0.035260 -0.007340 1.794820 
# 
# From -- ./inp_files/431092.got.cif
#   From: 2010.05.17/outbox.cif.g08.bks.cpg/sg2_216_cif.got.tgz:431092.got - 2010.06.03 11:33:40.
