data_PCOD9084564
_publ_section_title
;
Structure prediction by ZEFSAII (Michael W. Deem and Ramdas Pophale) SiO2 
 PCOD9084564
Probable space group: P -1
;
_chemical_formula_sum "Si O2"
_cell_formula_units_Z 16
_cell_length_a 25.560368
_cell_length_b 27.596369
_cell_length_c 12.482642
_cell_angle_alpha 154.066702
_cell_angle_beta 152.074428
_cell_angle_gamma 9.839865
_cell_volume 657.676577
_symmetry_space_group_name_H-M "P -1"
_symmetry_group_IT_number 2
_symmetry_cell_setting 'triclinic'
loop_
_space_group_symop_operation_xyz
x,y,z
-x,-y,-z
loop_
_atom_site_type_symbol
_atom_site_label
_atom_site_fract_x
_atom_site_fract_y
_atom_site_fract_z
Si Si1 0.738033 0.523182 0.036272
Si Si2 0.266652 0.947058 0.572881
Si Si3 0.379719 0.584263 0.280351
Si Si4 0.590361 0.634295 0.756413
Si Si5 0.796602 0.487187 0.457350
Si Si6 0.050977 0.900502 0.101503
Si Si7 0.478380 0.900897 0.511065
Si Si8 0.709094 0.850136 0.676346
O O1 0.519342 0.786337 0.250436
O O2 0.091056 0.222898 0.107462
O O3 0.695771 0.431812 0.795687
O O4 0.664577 0.627721 0.989526
O O5 0.374249 0.867422 0.730901
O O6 0.522683 0.758740 0.584086
O O7 0.230246 0.847506 0.290685
O O8 0.926065 0.308441 0.662907
O O9 0.459296 0.635470 0.555678
O O10 0.105756 0.837957 0.203676
O O11 0.692406 0.251020 0.126595
O O12 0.710094 0.632833 0.481924
O O13 0.828440 0.325090 0.176935
O O14 0.137003 0.210024 0.552938
O O15 0.549893 0.958854 0.714868
O O16 0.000000 0.500000 0.500000
O O17 0.500000 0.000000 0.500000
#
# Coordination Sequence:
#
# PCOD9084564 Si02
#       8
#     2   2   2   2   2   2   2   2
#     4  11  21  40  63  84 124 152 190 240 302 353
#     4  10  23  38  56  84 119 160 202 233 281 341
#     4  10  20  34  56  88 120 150 195 232 287 352
#     4  10  23  38  57  87 121 161 195 230 279 359
#     4  12  20  38  61  82 119 153 196 248 291 342
#     4  10  19  35  54  85 117 152 196 242 284 342
#     4  11  23  36  61  92 112 146 196 249 305 335
#     4  10  23  39  59  90 120 147 190 247 299 353
#
# _framework density 24.328067999999998
#
# number of rings (size 3 to 8) (size 9 to 14) (size 15 to 20)
#    0.000    1.500    2.500    3.000    0.000    4.000 
#    0.000    8.750    0.000    4.500    0.000    0.000 
#    0.000    0.000    0.000    0.000    0.000    0.000 
#
# Total GULP energy -89468.886972 kJ/mol
# GULP energy per Si atom -5591.805436 kJ/mol
# Density = 2.427270 g / cm^3
# Si number density = 24.328068 Si / 1000 Ang^3
#
#
#
# Elastic Constant Matrix: (Units=GPa)
#
#
# Indices 1 2 3 4 5 6 
#
# 1 56.0663 4.1236 7.3127 -3.4291 5.8563 -19.6544
# 2 4.1236 117.3225 11.0712 -24.7648 5.6891 0.0334
# 3 7.3127 11.0712 64.6806 -7.3192 11.6594 -18.7826
# 4 -3.4291 -24.7648 -7.3192 19.0805 -3.3807 0.8674
# 5 5.8563 5.6891 11.6594 -3.3807 15.9974 -5.4987
# 6 -19.6544 0.0334 -18.7826 0.8674 -5.4987 42.0999
#
#
#
# Elastic Compliance Matrix: (Units=1/GPa)
#
#
# Indices 1 2 3 4 5 6 
#
# 1 0.021952 -0.000011 0.001806 0.003248 -0.005115 0.010319
# 2 -0.000011 0.011769 -0.000308 0.015006 -0.000988 -0.000590
# 3 0.001806 -0.000308 0.020395 0.005345 -0.011419 0.008341
# 4 0.003248 0.015006 0.005345 0.075552 0.006645 0.003200
# 5 -0.005115 -0.000988 -0.011419 0.006645 0.075219 0.002206
# 6 0.010319 -0.000590 0.008341 0.003200 0.002206 0.032514
#
#
# Mechanical properties :
#
#
# Convention : Reuss Voigt Hill
#
# Bulk Modulus (GPa) = 17.51688 31.45381 24.48535
# Shear Modulus (GPa) = 19.72726 29.80634 24.76680
#
# Velocity S-wave (km/s) = 2.85069 3.50406 3.19413
# Velocity P-wave (km/s) = 4.24867 5.41556 4.86721
#
# Compressibility (1/GPa) = 0.05708780
#
# Stress axis : x y z
#
# Youngs Moduli (GPa) = 45.55475 84.97176 49.03273
#
# Poissons Ratio (x) = 0.00096 -0.08857
# Poissons Ratio (y) = 0.00052 0.01512
# Poissons Ratio (z) = -0.08228 0.02621
#
# Static dielectric constant tensor:
#      x y z
#    x 1.953540 0.011940 0.088320 
#    y 0.011940 1.929800 0.065290 
#    z 0.088320 0.065290 2.082100 
# 
# From -- ./inp_files/369038.got.cif
#   From: 2010.05.17/outbox.cif.g08.bks.cpg/sg2_185_cif.got.tgz:369038.got - 2010.06.03 11:33:40.
