data_PCOD9084090
_publ_section_title
;
Structure prediction by ZEFSAII (Michael W. Deem and Ramdas Pophale) SiO2 
 PCOD9084090
Probable space group: P -1
;
_chemical_formula_sum "Si O2"
_cell_formula_units_Z 16
_cell_length_a 8.279347
_cell_length_b 9.537788
_cell_length_c 12.879199
_cell_angle_alpha 130.407463
_cell_angle_beta 55.412989
_cell_angle_gamma 115.129628
_cell_volume 634.939067
_symmetry_space_group_name_H-M "P -1"
_symmetry_group_IT_number 2
_symmetry_cell_setting 'triclinic'
loop_
_space_group_symop_operation_xyz
x,y,z
-x,-y,-z
loop_
_atom_site_type_symbol
_atom_site_label
_atom_site_fract_x
_atom_site_fract_y
_atom_site_fract_z
Si Si1 0.069484 0.223690 0.193454
Si Si2 0.583118 0.926492 0.778809
Si Si3 0.460517 0.078364 0.693955
Si Si4 0.046298 0.261721 0.463591
Si Si5 0.792973 0.892444 0.379624
Si Si6 0.262309 0.551498 0.205245
Si Si7 0.820666 0.194140 0.063480
Si Si8 0.864656 0.307995 0.885525
O O1 0.017857 0.276927 0.356640
O O2 0.272049 0.344657 0.142118
O O3 0.915037 0.248370 0.167634
O O4 0.111181 0.009861 0.079149
O O5 0.726260 0.771053 0.617625
O O6 0.417546 0.828797 0.865909
O O7 0.447347 0.010102 0.781803
O O8 0.733918 0.105853 0.834964
O O9 0.259461 0.087723 0.712440
O O10 0.578734 0.280948 0.740478
O O11 0.585247 0.919304 0.521350
O O12 0.937608 0.405579 0.639430
O O13 0.927706 0.071285 0.451832
O O14 0.926180 0.726334 0.260231
O O15 0.241857 0.565433 0.095140
O O16 0.890000 0.334662 0.012110
#
# Coordination Sequence:
#
# PCOD9084090 Si02
#       8
#     2   2   2   2   2   2   2   2
#     4  11  23  39  58  86 115 161 187 239 284 344
#     4  10  19  34  60  88 108 147 200 237 275 335
#     4   9  18  31  56  87 115 146 187 244 283 338
#     4  10  19  37  64  87 114 149 191 246 285 339
#     4   9  16  32  57  86 114 146 193 232 286 337
#     4  10  22  39  59  88 121 145 189 240 308 327
#     4  11  23  39  62  81 114 159 204 226 273 351
#     4  10  20  37  60  86 113 153 188 242 282 341
#
# _framework density 25.199269999999999
#
# number of rings (size 3 to 8) (size 9 to 14) (size 15 to 20)
#    0.000    2.000    2.500    2.250    1.750    3.500 
#    0.000    4.375    0.000    0.000    0.000    0.000 
#    0.000    0.000    0.000    0.000    0.000    0.000 
#
# Total GULP energy -89310.574175 kJ/mol
# GULP energy per Si atom -5581.910886 kJ/mol
# Density = 2.514192 g / cm^3
# Si number density = 25.199270 Si / 1000 Ang^3
#
#
#
# Elastic Constant Matrix: (Units=GPa)
#
#
# Indices 1 2 3 4 5 6 
#
# 1 86.0663 14.8708 15.1732 -5.4776 20.6443 -9.0439
# 2 14.8708 89.7747 26.4263 1.3711 8.9356 -6.8918
# 3 15.1732 26.4263 80.1732 -2.7949 2.0148 2.0615
# 4 -5.4776 1.3711 -2.7949 28.2037 5.7657 7.7333
# 5 20.6443 8.9356 2.0148 5.7657 36.1905 -16.1790
# 6 -9.0439 -6.8918 2.0615 7.7333 -16.1790 35.1884
#
#
#
# Elastic Compliance Matrix: (Units=1/GPa)
#
#
# Indices 1 2 3 4 5 6 
#
# 1 0.014588 -0.001121 -0.001919 0.005193 -0.009626 -0.001925
# 2 -0.001121 0.012843 -0.004119 -0.001716 -0.000953 0.002408
# 3 -0.001919 -0.004119 0.014339 0.002026 -0.000208 -0.002681
# 4 0.005193 -0.001716 0.002026 0.044977 -0.017424 -0.017016
# 5 -0.009626 -0.000953 -0.000208 -0.017424 0.046161 0.022405
# 6 -0.001925 0.002408 -0.002681 -0.017016 0.022405 0.042593
#
#
# Mechanical properties :
#
#
# Convention : Reuss Voigt Hill
#
# Bulk Modulus (GPa) = 36.42653 40.99499 38.71076
# Shear Modulus (GPa) = 25.12957 33.21943 29.17450
#
# Velocity S-wave (km/s) = 3.16133 3.63474 3.40627
# Velocity P-wave (km/s) = 5.27372 5.82398 5.55566
#
# Compressibility (1/GPa) = 0.02745252
#
# Stress axis : x y z
#
# Youngs Moduli (GPa) = 68.54930 77.86389 69.74168
#
# Poissons Ratio (x) = 0.08725 0.13384
# Poissons Ratio (y) = 0.07681 0.28726
# Poissons Ratio (z) = 0.13155 0.32071
#
# Static dielectric constant tensor:
#      x y z
#    x 2.019030 -0.010170 0.058830 
#    y -0.010170 2.010170 -0.003160 
#    z 0.058830 -0.003160 2.068020 
# 
# From -- ./inp_files/499378.got.cif
#   From: 2010.05.17/outbox.cif.g08.bks.cpg/sg2_250_cif.got.tgz:499378.got - 2010.06.03 11:33:40.
