data_PCOD9084096
_publ_section_title
;
Structure prediction by ZEFSAII (Michael W. Deem and Ramdas Pophale) SiO2 
 PCOD9084096
Probable space group: P -1
;
_chemical_formula_sum "Si O2"
_cell_formula_units_Z 16
_cell_length_a 9.158716
_cell_length_b 9.107952
_cell_length_c 9.399291
_cell_angle_alpha 76.891459
_cell_angle_beta 100.186007
_cell_angle_gamma 105.457154
_cell_volume 730.330336
_symmetry_space_group_name_H-M "P -1"
_symmetry_group_IT_number 2
_symmetry_cell_setting 'triclinic'
loop_
_space_group_symop_operation_xyz
x,y,z
-x,-y,-z
loop_
_atom_site_type_symbol
_atom_site_label
_atom_site_fract_x
_atom_site_fract_y
_atom_site_fract_z
Si Si1 0.167766 0.489188 0.930736
Si Si2 0.230028 0.943672 0.496776
Si Si3 0.564700 0.512782 0.844677
Si Si4 0.620475 0.978331 0.905632
Si Si5 0.504557 0.817644 0.631035
Si Si6 0.119234 0.767214 0.989386
Si Si7 0.694475 0.727361 0.169508
Si Si8 0.050109 0.008451 0.719461
O O1 0.185849 0.673393 0.897678
O O2 0.242672 0.422006 0.826514
O O3 0.257107 0.463014 0.096944
O O4 0.001261 0.375095 0.930936
O O5 0.362090 0.103433 0.473121
O O6 0.110348 0.950491 0.348707
O O7 0.336074 0.820817 0.546521
O O8 0.118976 0.931902 0.615569
O O9 0.527501 0.653427 0.721930
O O10 0.478401 0.349255 0.795906
O O11 0.500000 0.500000 0.000000
O O12 0.541393 0.930245 0.752258
O O13 0.754003 0.133448 0.907687
O O14 0.500000 0.000000 0.000000
O O15 0.683488 0.832562 0.005729
O O16 0.039365 0.890764 0.874735
O O17 0.816407 0.839410 0.261951
#
# Coordination Sequence:
#
# PCOD9084096 Si02
#       8
#     2   2   2   2   2   2   2   2
#     4  10  20  35  53  98 119 150 178 236 334 348
#     4  10  24  39  60  81 117 169 204 237 282 343
#     4  10  19  34  60  88 118 146 183 244 309 353
#     4  11  21  34  60  95 116 149 190 253 302 351
#     4  11  21  39  61  87 120 155 206 238 290 361
#     4  10  22  34  61  89 124 147 189 254 301 352
#     4  10  21  34  62  89 117 147 193 246 307 352
#     4  10  22  41  60  84 118 159 208 242 284 353
#
# _framework density 21.907895
#
# number of rings (size 3 to 8) (size 9 to 14) (size 15 to 20)
#    0.000    1.750    2.500    3.000    7.000    1.000 
#    0.000    1.250    0.000    0.000    0.000    0.000 
#    0.000    0.000    0.000    0.000    0.000    0.000 
#
# Total GULP energy -89206.858755 kJ/mol
# GULP energy per Si atom -5575.428672 kJ/mol
# Density = 2.185803 g / cm^3
# Si number density = 21.907895 Si / 1000 Ang^3
#
#
#
# Elastic Constant Matrix: (Units=GPa)
#
#
# Indices 1 2 3 4 5 6 
#
# 1 84.1939 12.7253 22.3516 -3.6318 24.4203 7.1830
# 2 12.7253 105.4610 11.1566 -6.7570 20.6014 13.9737
# 3 22.3516 11.1566 52.0161 -17.8048 27.7267 -10.1625
# 4 -3.6318 -6.7570 -17.8048 30.1803 -0.9094 1.1106
# 5 24.4203 20.6014 27.7267 -0.9094 41.6247 0.9779
# 6 7.1830 13.9737 -10.1625 1.1106 0.9779 24.4895
#
#
#
# Elastic Compliance Matrix: (Units=1/GPa)
#
#
# Indices 1 2 3 4 5 6 
#
# 1 0.015397 0.000647 -0.005604 -0.001218 -0.005484 -0.006937
# 2 0.000647 0.011625 0.000031 0.002766 -0.005936 -0.006699
# 3 -0.005604 0.000031 0.053312 0.028942 -0.032164 0.023721
# 4 -0.001218 0.002766 0.028942 0.049765 -0.019064 0.009293
# 5 -0.005484 -0.005936 -0.032164 -0.019064 0.051412 -0.009540
# 6 -0.006937 -0.006699 0.023721 0.009293 -0.009540 0.056494
#
#
# Mechanical properties :
#
#
# Convention : Reuss Voigt Hill
#
# Bulk Modulus (GPa) = 14.18782 37.12645 25.65713
# Shear Modulus (GPa) = 18.42629 32.28807 25.35718
#
# Velocity S-wave (km/s) = 2.90328 3.84319 3.40582
# Velocity P-wave (km/s) = 4.21057 6.05614 5.21564
#
# Compressibility (1/GPa) = 0.07048301
#
# Stress axis : x y z
#
# Youngs Moduli (GPa) = 64.94682 86.01953 18.75745
#
# Poissons Ratio (x) = -0.05569 0.10512
# Poissons Ratio (y) = -0.04204 -0.00058
# Poissons Ratio (z) = 0.36396 -0.00265
#
# Static dielectric constant tensor:
#      x y z
#    x 1.989750 -0.026260 0.011410 
#    y -0.026260 1.808020 0.017220 
#    z 0.011410 0.017220 1.819020 
# 
# From -- ./inp_files/237897.got.cif
#   From: 2010.05.17/outbox.cif.g08.bks.cpg/sg2_119_cif.got.tgz:237897.got - 2010.06.03 11:33:40.
