data_PCOD9084275
_publ_section_title
;
Structure prediction by ZEFSAII (Michael W. Deem and Ramdas Pophale) SiO2 
 PCOD9084275
Probable space group: P -1
;
_chemical_formula_sum "Si O2"
_cell_formula_units_Z 14
_cell_length_a 8.413469
_cell_length_b 11.568420
_cell_length_c 10.697657
_cell_angle_alpha 98.739077
_cell_angle_beta 69.603320
_cell_angle_gamma 137.443140
_cell_volume 650.960861
_symmetry_space_group_name_H-M "P -1"
_symmetry_group_IT_number 2
_symmetry_cell_setting 'triclinic'
loop_
_space_group_symop_operation_xyz
x,y,z
-x,-y,-z
loop_
_atom_site_type_symbol
_atom_site_label
_atom_site_fract_x
_atom_site_fract_y
_atom_site_fract_z
Si Si1 0.831377 0.897581 0.907369
Si Si2 0.872021 0.492918 0.654100
Si Si3 0.481989 0.490367 0.353461
Si Si4 0.858554 0.148904 0.261123
Si Si5 0.036302 0.813373 0.236865
Si Si6 0.007118 0.875546 0.531057
Si Si7 0.429777 0.834494 0.141799
O O1 0.892260 0.793807 0.845077
O O2 0.937080 0.041278 0.797804
O O3 0.562670 0.811776 0.006746
O O4 0.000000 0.000000 0.000000
O O5 0.646513 0.459177 0.657881
O O6 0.754658 0.336406 0.749838
O O7 0.000000 0.500000 0.500000
O O8 0.065472 0.678841 0.703039
O O9 0.500000 0.500000 0.500000
O O10 0.762129 0.623844 0.247389
O O11 0.270990 0.285301 0.362146
O O12 0.806477 0.064456 0.398537
O O13 0.638053 0.004876 0.201048
O O14 0.054412 0.822642 0.385045
O O15 0.257652 0.846187 0.128727
O O16 0.000000 0.000000 0.500000
#
# Coordination Sequence:
#
# PCOD9084275 Si02
#       7
#     2   2   2   2   2   2   2
#     4  10  21  40  68  86 120 170 214 257 307 364
#     4  11  23  40  63  93 127 160 208 262 319 369
#     4   9  19  34  57  86 120 159 198 249 307 369
#     4  10  22  42  62  96 122 165 212 254 318 369
#     4  11  21  40  61  92 125 162 209 254 319 373
#     4  10  19  34  62  90 118 157 203 255 310 362
#     4  11  24  41  63  91 129 171 205 261 306 375
#
# _framework density 21.50667
#
# number of rings (size 3 to 8) (size 9 to 14) (size 15 to 20)
#    0.000    1.714    1.429    4.714    2.000    2.857 
#    2.571    1.429    0.000    7.714    0.000    0.000 
#    0.000    0.000    0.000    0.000    0.000    0.000 
#
# Total GULP energy -78068.308388 kJ/mol
# GULP energy per Si atom -5576.307742 kJ/mol
# Density = 2.145772 g / cm^3
# Si number density = 21.506670 Si / 1000 Ang^3
#
#
#
# Elastic Constant Matrix: (Units=GPa)
#
#
# Indices 1 2 3 4 5 6 
#
# 1 76.6926 25.4475 -2.5605 -6.6927 -15.3150 1.6783
# 2 25.4475 95.2584 31.6799 1.9324 -17.6793 -12.2000
# 3 -2.5605 31.6799 73.6173 -6.2714 -18.3559 2.6740
# 4 -6.6927 1.9324 -6.2714 31.0148 3.9168 -1.7546
# 5 -15.3150 -17.6793 -18.3559 3.9168 42.8750 2.8939
# 6 1.6783 -12.2000 2.6740 -1.7546 2.8939 29.2687
#
#
#
# Elastic Compliance Matrix: (Units=1/GPa)
#
#
# Indices 1 2 3 4 5 6 
#
# 1 0.016629 -0.005625 0.004888 0.003987 0.005623 -0.004062
# 2 -0.005625 0.015584 -0.007155 -0.003376 0.001179 0.007153
# 3 0.004888 -0.007155 0.019125 0.004179 0.006969 -0.005449
# 4 0.003987 -0.003376 0.004179 0.034336 -0.001327 0.000172
# 5 0.005623 0.001179 0.006969 -0.001327 0.029155 -0.003430
# 6 -0.004062 0.007153 -0.005449 0.000172 -0.003430 0.038228
#
#
# Mechanical properties :
#
#
# Convention : Reuss Voigt Hill
#
# Bulk Modulus (GPa) = 28.12771 39.41135 33.76953
# Shear Modulus (GPa) = 27.67161 33.36511 30.51836
#
# Velocity S-wave (km/s) = 3.59089 3.94303 3.77107
# Velocity P-wave (km/s) = 5.50451 6.25260 5.89044
#
# Compressibility (1/GPa) = 0.03555213
#
# Stress axis : x y z
#
# Youngs Moduli (GPa) = 60.13748 64.17038 52.28844
#
# Poissons Ratio (x) = 0.36099 -0.25561
# Poissons Ratio (y) = 0.33830 0.37414
# Poissons Ratio (z) = -0.29398 0.45916
#
# Static dielectric constant tensor:
#      x y z
#    x 1.638490 0.222580 -0.009320 
#    y 0.222580 1.577630 0.057450 
#    z -0.009320 0.057450 1.901750 
# 
# From -- ./inp_files/211691.got.cif
#   From: 2010.05.17/outbox.cif.g08.bks.cpg/sg2_106_cif.got.tgz:211691.got - 2010.06.03 11:33:40.
