data_PCOD9084234
_publ_section_title
;
Structure prediction by ZEFSAII (Michael W. Deem and Ramdas Pophale) SiO2 
 PCOD9084234
Probable space group: P -1
;
_chemical_formula_sum "Si O2"
_cell_formula_units_Z 15
_cell_length_a 21.586522
_cell_length_b 5.130378
_cell_length_c 14.741477
_cell_angle_alpha 103.824569
_cell_angle_beta 159.694836
_cell_angle_gamma 73.656863
_cell_volume 542.116211
_symmetry_space_group_name_H-M "P -1"
_symmetry_group_IT_number 2
_symmetry_cell_setting 'triclinic'
loop_
_space_group_symop_operation_xyz
x,y,z
-x,-y,-z
loop_
_atom_site_type_symbol
_atom_site_label
_atom_site_fract_x
_atom_site_fract_y
_atom_site_fract_z
Si Si1 0.596041 0.447511 0.277857
Si Si2 0.000000 0.500000 0.500000
Si Si3 0.970253 0.566886 0.258469
Si Si4 0.156830 0.237975 0.256402
Si Si5 0.223600 0.531635 0.191960
Si Si6 0.510556 0.218582 0.319194
Si Si7 0.801696 0.966085 0.416298
Si Si8 0.712857 0.099719 0.114844
O O1 0.782535 0.512650 0.582516
O O2 0.485544 0.412274 0.214693
O O3 0.639530 0.175711 0.255945
O O4 0.462733 0.696044 0.069797
O O5 0.085697 0.472022 0.719089
O O6 0.868577 0.273235 0.329098
O O7 0.044187 0.844364 0.363168
O O8 0.135758 0.304090 0.462342
O O9 0.817793 0.539320 0.973026
O O10 0.196629 0.303019 0.211162
O O11 0.305527 0.990414 0.470583
O O12 0.950320 0.239557 0.999919
O O13 0.413410 0.629730 0.480167
O O14 0.356533 0.033733 0.081928
O O15 0.775130 0.886516 0.266887
#
# Coordination Sequence:
#
# PCOD9084234 Si02
#       8
#     2   1   2   2   2   2   2   2
#     4  10  20  37  61 102 136 169 210 270 340 405
#     4  10  26  52  66  90 124 180 236 278 322 386
#     4  11  25  43  71  98 132 181 226 275 321 397
#     4   9  18  33  57  95 138 173 202 258 330 408
#     4  10  19  34  61  95 133 171 215 261 330 398
#     4  10  21  34  61  93 134 171 212 266 334 397
#     4  11  24  41  67 101 138 172 221 272 341 399
#     4  10  24  42  64  91 130 178 224 276 329 391
#
# _framework density 27.669346000000001
#
# number of rings (size 3 to 8) (size 9 to 14) (size 15 to 20)
#    0.000    1.867    1.333    1.600    7.467    2.667 
#    0.000    0.667    0.000    7.200    0.000    0.000 
#    0.000    0.000    0.000    0.000    0.000    0.000 
#
# Total GULP energy -83757.691003 kJ/mol
# GULP energy per Si atom -5583.846067 kJ/mol
# Density = 2.760637 g / cm^3
# Si number density = 27.669346 Si / 1000 Ang^3
#
#
#
# Elastic Constant Matrix: (Units=GPa)
#
#
# Indices 1 2 3 4 5 6 
#
# 1 117.3269 20.7357 69.8157 16.5279 -40.8548 -5.0003
# 2 20.7357 82.3345 43.3477 4.9157 -15.5702 10.2272
# 3 69.8157 43.3477 191.7428 37.5264 -26.4693 6.9375
# 4 16.5279 4.9157 37.5264 60.0157 -11.5416 -1.3843
# 5 -40.8548 -15.5702 -26.4693 -11.5416 66.8787 -1.1413
# 6 -5.0003 10.2272 6.9375 -1.3843 -1.1413 40.1858
#
#
#
# Elastic Compliance Matrix: (Units=1/GPa)
#
#
# Indices 1 2 3 4 5 6 
#
# 1 0.013337 -0.000349 -0.004002 0.000180 0.006558 0.002632
# 2 -0.000349 0.014519 -0.002963 0.001097 0.002130 -0.003129
# 3 -0.004002 -0.002963 0.008054 -0.003842 -0.000632 -0.001285
# 4 0.000180 0.001097 -0.003842 0.019376 0.002208 0.001137
# 5 0.006558 0.002130 -0.000632 0.002208 0.019603 0.001016
# 6 0.002632 -0.003129 -0.001285 0.001137 0.001016 0.026298
#
#
# Mechanical properties :
#
#
# Convention : Reuss Voigt Hill
#
# Bulk Modulus (GPa) = 46.98964 73.24472 60.11718
# Shear Modulus (GPa) = 40.68069 50.58305 45.63187
#
# Velocity S-wave (km/s) = 3.83854 4.28030 4.06542
# Velocity P-wave (km/s) = 6.05518 7.13840 6.61899
#
# Compressibility (1/GPa) = 0.02128129
#
# Stress axis : x y z
#
# Youngs Moduli (GPa) = 74.98040 68.87365 124.16917
#
# Poissons Ratio (x) = 0.02405 0.49697
# Poissons Ratio (y) = 0.02618 0.36787
# Poissons Ratio (z) = 0.30010 0.20405
#
# Static dielectric constant tensor:
#      x y z
#    x 2.041270 0.013550 -0.035910 
#    y 0.013550 2.087470 0.073030 
#    z -0.035910 0.073030 2.112730 
# 
# From -- ./inp_files/542055.got.cif
#   From: 2010.05.17/outbox.cif.g08.bks.cpg/sg2_272_cif.got.tgz:542055.got - 2010.06.03 11:33:40.
