data_PCOD9084703
_publ_section_title
;
Structure prediction by ZEFSAII (Michael W. Deem and Ramdas Pophale) SiO2 
 PCOD9084703
Probable space group: P -1
;
_chemical_formula_sum "Si O2"
_cell_formula_units_Z 12
_cell_length_a 18.491449
_cell_length_b 8.947234
_cell_length_c 8.950970
_cell_angle_alpha 92.266520
_cell_angle_beta 125.684903
_cell_angle_gamma 132.284917
_cell_volume 618.516245
_symmetry_space_group_name_H-M "P -1"
_symmetry_group_IT_number 2
_symmetry_cell_setting 'triclinic'
loop_
_space_group_symop_operation_xyz
x,y,z
-x,-y,-z
loop_
_atom_site_type_symbol
_atom_site_label
_atom_site_fract_x
_atom_site_fract_y
_atom_site_fract_z
Si Si1 0.842505 0.357065 0.222396
Si Si2 0.689839 0.845603 0.929690
Si Si3 0.971333 0.611928 0.057532
Si Si4 0.054244 0.214619 0.467011
Si Si5 0.171478 0.325495 0.283165
Si Si6 0.332967 0.260233 0.446260
O O1 0.897262 0.475181 0.125192
O O2 0.000000 0.500000 0.500000
O O3 0.826851 0.490810 0.295384
O O4 0.696272 0.019268 0.017968
O O5 0.519393 0.506326 0.755299
O O6 0.678455 0.831761 0.734335
O O7 0.871502 0.028141 0.192965
O O8 0.842100 0.532277 0.804388
O O9 0.162086 0.961348 0.314707
O O10 0.000000 0.500000 0.000000
O O11 0.149185 0.303718 0.432949
O O12 0.000000 0.000000 0.500000
O O13 0.318250 0.419673 0.417406
O O14 0.000000 0.000000 0.000000
#
# Coordination Sequence:
#
# PCOD9084703 Si02
#       6
#     2   2   2   2   2   2
#     4  10  21  36  55  84 115 150 187 228 286 345
#     4  10  20  38  56  86 115 149 186 241 287 324
#     4  11  18  35  60  86 110 150 198 230 273 342
#     4  11  20  36  59  84 115 152 188 233 285 344
#     4  10  19  35  56  84 108 149 198 226 272 345
#     4  10  20  36  60  84 115 144 193 243 278 326
#
# _framework density 19.40127
#
# number of rings (size 3 to 8) (size 9 to 14) (size 15 to 20)
#    0.000    1.667    5.000    3.000    0.000    0.000 
#    0.000   10.833    0.000    0.000    0.000    0.000 
#    0.000    0.000    0.000    0.000    0.000    0.000 
#
# Total GULP energy -66862.074142 kJ/mol
# GULP energy per Si atom -5571.839512 kJ/mol
# Density = 1.935711 g / cm^3
# Si number density = 19.401270 Si / 1000 Ang^3
#
#
#
# Elastic Constant Matrix: (Units=GPa)
#
#
# Indices 1 2 3 4 5 6 
#
# 1 91.0722 8.9471 22.4354 -5.0434 -35.7184 -14.8551
# 2 8.9471 63.6093 15.2615 -9.1249 -17.7109 -7.1764
# 3 22.4354 15.2615 79.7031 16.8973 -20.5357 -3.4345
# 4 -5.0434 -9.1249 16.8973 30.6767 5.5176 -6.1611
# 5 -35.7184 -17.7109 -20.5357 5.5176 40.1661 3.4461
# 6 -14.8551 -7.1764 -3.4345 -6.1611 3.4461 30.0395
#
#
#
# Elastic Compliance Matrix: (Units=1/GPa)
#
#
# Indices 1 2 3 4 5 6 
#
# 1 0.019426 0.004220 -0.002724 0.004923 0.016256 0.009448
# 2 0.004220 0.020830 -0.004613 0.009374 0.008650 0.007466
# 3 -0.002724 -0.004613 0.019067 -0.014525 0.007641 -0.004125
# 4 0.004923 0.009374 -0.014525 0.048144 -0.006700 0.013657
# 5 0.016256 0.008650 0.007641 -0.006700 0.047638 0.004140
# 6 0.009448 0.007466 -0.004125 0.013657 0.004140 0.041600
#
#
# Mechanical properties :
#
#
# Convention : Reuss Voigt Hill
#
# Bulk Modulus (GPa) = 18.83695 36.40807 27.62251
# Shear Modulus (GPa) = 22.66162 32.69251 27.67706
#
# Velocity S-wave (km/s) = 3.42138 4.10941 3.78108
# Velocity P-wave (km/s) = 5.03369 6.42829 5.77325
#
# Compressibility (1/GPa) = 0.05308716
#
# Stress axis : x y z
#
# Youngs Moduli (GPa) = 51.47685 48.00811 52.44640
#
# Poissons Ratio (x) = -0.20257 0.14289
# Poissons Ratio (y) = -0.21721 0.24194
# Poissons Ratio (z) = 0.14025 0.22147
#
# Static dielectric constant tensor:
#      x y z
#    x 1.729680 -0.049060 0.018850 
#    y -0.049060 1.693610 0.009700 
#    z 0.018850 0.009700 1.700560 
# 
# From -- ./inp_files/145359.got.cif
#   From: 2010.05.17/outbox.cif.g08.bks.cpg/sg2_73_cif.got.tgz:145359.got - 2010.06.03 11:33:40.
