data_PCOD9084453
_publ_section_title
;
Structure prediction by ZEFSAII (Michael W. Deem and Ramdas Pophale) SiO2 
 PCOD9084453
Probable space group: P -1
;
_chemical_formula_sum "Si O2"
_cell_formula_units_Z 16
_cell_length_a 22.401618
_cell_length_b 15.806735
_cell_length_c 10.911044
_cell_angle_alpha 146.337241
_cell_angle_beta 145.478060
_cell_angle_gamma 19.702312
_cell_volume 704.993400
_symmetry_space_group_name_H-M "P -1"
_symmetry_group_IT_number 2
_symmetry_cell_setting 'triclinic'
loop_
_space_group_symop_operation_xyz
x,y,z
-x,-y,-z
loop_
_atom_site_type_symbol
_atom_site_label
_atom_site_fract_x
_atom_site_fract_y
_atom_site_fract_z
Si Si1 0.177544 0.958000 0.649585
Si Si2 0.224559 0.479009 0.808355
Si Si3 0.262598 0.021565 0.630631
Si Si4 0.594111 0.910937 0.846290
Si Si5 0.565863 0.470311 0.714525
Si Si6 0.022246 0.563598 0.759337
Si Si7 0.173346 0.603386 0.259589
Si Si8 0.712986 0.760712 0.597923
O O1 0.379655 0.761588 0.804307
O O2 0.185968 0.766161 0.449716
O O3 0.158724 0.039659 0.577573
O O4 0.001803 0.220461 0.739634
O O5 0.050489 0.597948 0.713362
O O6 0.217561 0.470653 0.638877
O O7 0.391179 0.177151 0.776951
O O8 0.280840 0.582380 0.070724
O O9 0.140066 0.280747 0.661610
O O10 0.364178 0.777421 0.424134
O O11 0.375650 0.998386 0.886751
O O12 0.652088 0.683005 0.730895
O O13 0.723424 0.768072 0.771330
O O14 0.500000 0.500000 0.500000
O O15 0.822634 0.765285 0.718669
O O16 0.122149 0.581146 0.022294
O O17 0.500000 0.000000 0.500000
#
# Coordination Sequence:
#
# PCOD9084453 Si02
#       8
#     2   2   2   2   2   2   2   2
#     4  10  19  35  50  89 123 160 179 231 305 357
#     4  11  22  38  60  87 120 158 198 236 290 352
#     4  10  20  34  62  88 122 147 189 246 302 343
#     4  10  20  38  60  90 117 154 197 242 290 344
#     4  10  19  35  57  83 121 153 190 232 299 348
#     4  11  22  36  61  93 115 147 201 252 287 338
#     4  10  22  32  61  89 124 146 197 247 295 344
#     4  10  23  40  60  82 119 160 197 238 289 353
#
# _framework density 22.695246000000001
#
# number of rings (size 3 to 8) (size 9 to 14) (size 15 to 20)
#    0.000    1.750    2.500    3.375    3.500    3.000 
#    0.000    0.625    0.000    5.250    0.000    0.000 
#    0.000    0.000    0.000    0.000    0.000    0.000 
#
# Total GULP energy -89150.754038 kJ/mol
# GULP energy per Si atom -5571.922127 kJ/mol
# Density = 2.264359 g / cm^3
# Si number density = 22.695246 Si / 1000 Ang^3
#
#
#
# Elastic Constant Matrix: (Units=GPa)
#
#
# Indices 1 2 3 4 5 6 
#
# 1 90.0781 13.7032 37.6022 -0.9020 5.3653 -25.6251
# 2 13.7032 50.4305 18.8089 2.6464 5.6971 -5.9288
# 3 37.6022 18.8089 91.3981 -4.0683 4.5179 2.1369
# 4 -0.9020 2.6464 -4.0683 35.9647 0.3142 5.7936
# 5 5.3653 5.6971 4.5179 0.3142 33.9272 -3.8409
# 6 -25.6251 -5.9288 2.1369 5.7936 -3.8409 28.3856
#
#
#
# Elastic Compliance Matrix: (Units=1/GPa)
#
#
# Indices 1 2 3 4 5 6 
#
# 1 0.020553 0.000381 -0.009185 -0.003796 0.000223 0.020130
# 2 0.000381 0.022710 -0.004979 -0.003130 -0.002530 0.005759
# 3 -0.009185 -0.004979 0.016244 0.003837 -0.001212 -0.011502
# 4 -0.003796 -0.003130 0.003837 0.030094 -0.000867 -0.010629
# 5 0.000223 -0.002530 -0.001212 -0.000867 0.030494 0.004067
# 6 0.020130 0.005759 -0.011502 -0.010629 0.004067 0.058190
#
#
# Mechanical properties :
#
#
# Convention : Reuss Voigt Hill
#
# Bulk Modulus (GPa) = 31.30721 41.34837 36.32779
# Shear Modulus (GPa) = 23.09491 30.44166 26.76828
#
# Velocity S-wave (km/s) = 3.19346 3.66638 3.43806
# Velocity P-wave (km/s) = 5.23662 6.01512 5.63932
#
# Compressibility (1/GPa) = 0.03194152
#
# Stress axis : x y z
#
# Youngs Moduli (GPa) = 48.65527 44.03370 61.56052
#
# Poissons Ratio (x) = -0.01680 0.56542
# Poissons Ratio (y) = -0.01856 0.30653
# Poissons Ratio (z) = 0.44689 0.21926
#
# Static dielectric constant tensor:
#      x y z
#    x 1.930910 -0.081500 -0.044650 
#    y -0.081500 1.920440 0.015520 
#    z -0.044650 0.015520 1.919240 
# 
# From -- ./inp_files/467604.got.cif
#   From: 2010.05.17/outbox.cif.g08.bks.cpg/sg2_234_cif.got.tgz:467604.got - 2010.06.03 11:33:40.
