data_PCOD9084261
_publ_section_title
;
Structure prediction by ZEFSAII (Michael W. Deem and Ramdas Pophale) SiO2 
 PCOD9084261
Probable space group: P -1
;
_chemical_formula_sum "Si O2"
_cell_formula_units_Z 14
_cell_length_a 14.753506
_cell_length_b 9.363951
_cell_length_c 8.569475
_cell_angle_alpha 66.105012
_cell_angle_beta 98.726696
_cell_angle_gamma 141.217737
_cell_volume 649.573271
_symmetry_space_group_name_H-M "P -1"
_symmetry_group_IT_number 2
_symmetry_cell_setting 'triclinic'
loop_
_space_group_symop_operation_xyz
x,y,z
-x,-y,-z
loop_
_atom_site_type_symbol
_atom_site_label
_atom_site_fract_x
_atom_site_fract_y
_atom_site_fract_z
Si Si1 0.491682 0.671270 0.385455
Si Si2 0.753797 0.227758 0.123880
Si Si3 0.852230 0.905246 0.969251
Si Si4 0.809818 0.771130 0.359575
Si Si5 0.699838 0.475880 0.876309
Si Si6 0.027099 0.248863 0.413677
Si Si7 0.930257 0.344450 0.819667
O O1 0.500000 0.500000 0.500000
O O2 0.348794 0.527109 0.515954
O O3 0.433223 0.633884 0.213572
O O4 0.647810 0.972112 0.309807
O O5 0.908178 0.481059 0.139906
O O6 0.663760 0.262868 0.042641
O O7 0.814329 0.228648 0.981097
O O8 0.792988 0.832822 0.163955
O O9 0.749943 0.668514 0.931458
O O10 0.874480 0.112311 0.825892
O O11 0.000000 0.000000 0.000000
O O12 0.933596 0.801348 0.402729
O O13 0.871193 0.979945 0.411606
O O14 0.843606 0.627056 0.734795
O O15 0.042615 0.454451 0.349283
#
# Coordination Sequence:
#
# PCOD9084261 Si02
#       7
#     2   2   2   2   2   2   2
#     4  11  22  37  58  86 115 150 193 238 279 335
#     4  10  19  37  59  85 110 151 197 234 272 339
#     4  12  20  37  59  88 118 148 186 239 291 337
#     4  10  20  35  58  83 118 151 187 234 288 333
#     4  10  21  37  61  84 113 152 192 232 285 338
#     4   9  18  36  59  84 111 150 197 235 270 333
#     4  10  19  34  62  87 110 147 198 237 275 335
#
# _framework density 21.552610000000001
#
# number of rings (size 3 to 8) (size 9 to 14) (size 15 to 20)
#    0.000    1.714    2.857    3.857    0.000    0.000 
#    0.000    5.714    0.000    0.000    0.000    0.000 
#    0.000    0.000    0.000    0.000    0.000    0.000 
#
# Total GULP energy -78130.245787 kJ/mol
# GULP energy per Si atom -5580.731842 kJ/mol
# Density = 2.150356 g / cm^3
# Si number density = 21.552610 Si / 1000 Ang^3
#
#
#
# Elastic Constant Matrix: (Units=GPa)
#
#
# Indices 1 2 3 4 5 6 
#
# 1 70.4345 38.6569 29.0128 -4.4337 32.0949 -18.5031
# 2 38.6569 73.6073 21.9504 -17.0369 2.0638 -20.1296
# 3 29.0128 21.9504 59.8468 -20.4339 28.0060 -15.8552
# 4 -4.4337 -17.0369 -20.4339 39.0923 0.5155 6.1317
# 5 32.0949 2.0638 28.0060 0.5155 38.4191 -15.0193
# 6 -18.5031 -20.1296 -15.8552 6.1317 -15.0193 36.2280
#
#
#
# Elastic Compliance Matrix: (Units=1/GPa)
#
#
# Indices 1 2 3 4 5 6 
#
# 1 0.042030 -0.024570 0.005022 -0.001818 -0.039852 -0.006202
# 2 -0.024570 0.033302 -0.009965 0.003916 0.031402 0.013949
# 3 0.005022 -0.009965 0.038580 0.017256 -0.033079 -0.002722
# 4 -0.001818 0.003916 0.017256 0.036698 -0.012831 -0.002731
# 5 -0.039852 0.031402 -0.033079 -0.012831 0.090667 0.022377
# 6 -0.006202 0.013949 -0.002722 -0.002731 0.022377 0.040734
#
#
# Mechanical properties :
#
#
# Convention : Reuss Voigt Hill
#
# Bulk Modulus (GPa) = 18.22006 42.56985 30.39496
# Shear Modulus (GPa) = 13.91469 30.36579 22.14024
#
# Velocity S-wave (km/s) = 2.54365 3.75762 3.20857
# Velocity P-wave (km/s) = 4.13509 6.21456 5.27825
#
# Compressibility (1/GPa) = 0.05488456
#
# Stress axis : x y z
#
# Youngs Moduli (GPa) = 23.79269 30.02864 25.92000
#
# Poissons Ratio (x) = 0.73781 -0.13017
# Poissons Ratio (y) = 0.58459 0.25830
# Poissons Ratio (z) = -0.11949 0.29924
#
# Static dielectric constant tensor:
#      x y z
#    x 1.856620 0.023640 -0.025520 
#    y 0.023640 1.755270 -0.018340 
#    z -0.025520 -0.018340 1.856270 
# 
# From -- ./inp_files/294909.got.cif
#   From: 2010.05.17/outbox.cif.g08.bks.cpg/sg2_148_cif.got.tgz:294909.got - 2010.06.03 11:33:40.
