data_PCOD9084008
_publ_section_title
;
Structure prediction by ZEFSAII (Michael W. Deem and Ramdas Pophale) SiO2 
 PCOD9084008
Probable space group: P -1
;
_chemical_formula_sum "Si O2"
_cell_formula_units_Z 16
_cell_length_a 5.421069
_cell_length_b 8.039484
_cell_length_c 19.269112
_cell_angle_alpha 109.139296
_cell_angle_beta 116.117528
_cell_angle_gamma 57.008661
_cell_volume 628.111733
_symmetry_space_group_name_H-M "P -1"
_symmetry_group_IT_number 2
_symmetry_cell_setting 'triclinic'
loop_
_space_group_symop_operation_xyz
x,y,z
-x,-y,-z
loop_
_atom_site_type_symbol
_atom_site_label
_atom_site_fract_x
_atom_site_fract_y
_atom_site_fract_z
Si Si1 0.281355 0.569258 0.220498
Si Si2 0.927973 0.532197 0.295340
Si Si3 0.691952 0.097910 0.225709
Si Si4 0.097726 0.287242 0.945595
Si Si5 0.196511 0.217220 0.563796
Si Si6 0.093072 0.133480 0.179002
Si Si7 0.713827 0.265641 0.010349
Si Si8 0.939335 0.984159 0.598519
O O1 0.554500 0.629507 0.254880
O O2 0.466098 0.328384 0.209628
O O3 0.091391 0.622722 0.276510
O O4 0.053526 0.641471 0.138143
O O5 0.962404 0.573697 0.385775
O O6 0.061765 0.304503 0.254700
O O7 0.456944 0.008103 0.192304
O O8 0.932346 0.020900 0.182323
O O9 0.874914 0.083653 0.316361
O O10 0.469779 0.180726 0.974058
O O11 0.945347 0.186538 0.962903
O O12 0.000000 0.500000 0.000000
O O13 0.569029 0.130502 0.586665
O O14 0.114997 0.078147 0.586326
O O15 0.056214 0.197677 0.470566
O O16 0.898738 0.240023 0.101081
O O17 0.500000 0.500000 0.000000
#
# Coordination Sequence:
#
# PCOD9084008 Si02
#       8
#     2   2   2   2   2   2   2   2
#     4  10  19  30  47  76 108 129 155 197 245 299
#     4  10  18  32  49  70 102 131 154 199 251 289
#     4  10  18  32  49  70 102 131 154 199 251 289
#     4  10  16  25  41  65 102 133 158 188 227 286
#     4  10  21  37  55  73  94 125 168 210 241 280
#     4  10  19  30  47  76 108 129 155 197 245 299
#     4  10  16  25  41  65 102 133 158 188 227 286
#     4  10  21  37  55  73  94 125 168 210 241 280
#
# _framework density 25.473175000000001
#
# number of rings (size 3 to 8) (size 9 to 14) (size 15 to 20)
#    0.000    2.000    0.000    9.000    0.000    0.000 
#    0.000    5.000    0.000    0.000    0.000    0.000 
#    0.000  244.000    0.000    0.000    0.000    0.000 
#
# Total GULP energy -89570.008453 kJ/mol
# GULP energy per Si atom -5598.125528 kJ/mol
# Density = 2.541520 g / cm^3
# Si number density = 25.473175 Si / 1000 Ang^3
#
#
#
# Elastic Constant Matrix: (Units=GPa)
#
#
# Indices 1 2 3 4 5 6 
#
# 1 252.8536 1.2837 34.4823 -12.6135 -2.1595 4.3477
# 2 1.2837 85.7343 23.0286 3.0460 -3.8007 -7.7069
# 3 34.4823 23.0286 82.8286 -14.0430 -16.4013 -6.0607
# 4 -12.6135 3.0460 -14.0430 33.7943 -10.8098 -9.3003
# 5 -2.1595 -3.8007 -16.4013 -10.8098 44.8421 3.0236
# 6 4.3477 -7.7069 -6.0607 -9.3003 3.0236 27.3386
#
#
#
# Elastic Compliance Matrix: (Units=1/GPa)
#
#
# Indices 1 2 3 4 5 6 
#
# 1 0.004247 0.000347 -0.001910 0.000437 -0.000304 -0.000819
# 2 0.000347 0.013035 -0.004345 -0.002739 -0.001254 0.001863
# 3 -0.001910 -0.004345 0.018211 0.011688 0.008604 0.006141
# 4 0.000437 -0.002739 0.011688 0.043298 0.013491 0.014987
# 5 -0.000304 -0.001254 0.008604 0.013491 0.028373 0.003054
# 6 -0.000819 0.001863 0.006141 0.014987 0.003054 0.043356
#
#
# Mechanical properties :
#
#
# Convention : Reuss Voigt Hill
#
# Bulk Modulus (GPa) = 42.23604 59.88953 51.06278
# Shear Modulus (GPa) = 29.37231 45.36979 37.37105
#
# Velocity S-wave (km/s) = 3.39937 4.22486 3.83440
# Velocity P-wave (km/s) = 5.65899 6.88194 6.30021
#
# Compressibility (1/GPa) = 0.02367646
#
# Stress axis : x y z
#
# Youngs Moduli (GPa) = 235.46417 76.71651 54.91122
#
# Poissons Ratio (x) = -0.02662 0.10491
# Poissons Ratio (y) = -0.08170 0.23858
# Poissons Ratio (z) = 0.44985 0.33332
#
# Static dielectric constant tensor:
#      x y z
#    x 2.132110 0.030840 0.006630 
#    y 0.030840 2.028130 0.090600 
#    z 0.006630 0.090600 1.950860 
# 
# From -- ./inp_files/44982.got.cif
#   From: 2010.05.17/outbox.cif.g08.bks.cpg/sg2_23_cif.got.tgz:44982.got - 2010.06.03 11:33:40.
