data_PCOD9084928
_publ_section_title
;
Structure prediction by ZEFSAII (Michael W. Deem and Ramdas Pophale) SiO2 
 PCOD9084928
Probable space group: P -1
;
_chemical_formula_sum "Si O2"
_cell_formula_units_Z 16
_cell_length_a 16.005523
_cell_length_b 12.705055
_cell_length_c 8.627664
_cell_angle_alpha 129.615113
_cell_angle_beta 70.528395
_cell_angle_gamma 140.324582
_cell_volume 817.468730
_symmetry_space_group_name_H-M "P -1"
_symmetry_group_IT_number 2
_symmetry_cell_setting 'triclinic'
loop_
_space_group_symop_operation_xyz
x,y,z
-x,-y,-z
loop_
_atom_site_type_symbol
_atom_site_label
_atom_site_fract_x
_atom_site_fract_y
_atom_site_fract_z
Si Si1 0.665971 0.431599 0.218444
Si Si2 0.837077 0.422859 0.915484
Si Si3 0.355525 0.263521 0.930410
Si Si4 0.633657 0.988289 0.107159
Si Si5 0.641394 0.228860 0.561514
Si Si6 0.159225 0.838855 0.133300
Si Si7 0.609945 0.464911 0.623095
Si Si8 0.695705 0.772576 0.406173
O O1 0.669277 0.476127 0.438040
O O2 0.677578 0.590316 0.272276
O O3 0.780019 0.462518 0.114904
O O4 0.518184 0.188912 0.041333
O O5 0.754771 0.350291 0.739459
O O6 0.811282 0.240898 0.828222
O O7 0.999973 0.636316 0.995891
O O8 0.371988 0.134848 0.872725
O O9 0.266205 0.155212 0.728533
O O10 0.500000 0.500000 0.000000
O O11 0.312123 0.313490 0.142375
O O12 0.673954 0.176631 0.341462
O O13 0.742332 0.075463 0.991487
O O14 0.615001 0.351712 0.640235
O O15 0.500000 0.000000 0.500000
O O16 0.196415 0.029510 0.360567
O O17 0.452601 0.329914 0.564044
#
# Coordination Sequence:
#
# PCOD9084928 Si02
#       8
#     2   2   2   2   2   2   2   2
#     4  12  22  38  65  96 124 155 213 261 301 357
#     4  11  26  45  61  89 128 168 204 257 306 372
#     4  10  19  35  57  95 126 156 195 257 311 352
#     4  12  22  37  65  96 121 163 206 258 302 366
#     4  12  23  37  62  93 126 158 206 259 314 355
#     4  11  25  44  64  87 127 170 208 244 314 373
#     4  11  21  35  59  95 125 154 200 264 305 353
#     4  11  21  38  65  93 126 164 200 253 314 368
#
# _framework density 19.572613
#
# number of rings (size 3 to 8) (size 9 to 14) (size 15 to 20)
#    0.000    0.750    5.000    5.625    0.000    2.000 
#    0.000    1.250    0.000    3.000    0.000    0.000 
#    0.000    0.000    0.000    0.000    0.000    0.000 
#
# Total GULP energy -89450.326174 kJ/mol
# GULP energy per Si atom -5590.645386 kJ/mol
# Density = 1.952806 g / cm^3
# Si number density = 19.572613 Si / 1000 Ang^3
#
#
#
# Elastic Constant Matrix: (Units=GPa)
#
#
# Indices 1 2 3 4 5 6 
#
# 1 58.2661 3.8679 -8.6009 11.0280 -6.7923 -5.5215
# 2 3.8679 46.4022 -6.6496 -1.5163 5.6181 5.7958
# 3 -8.6009 -6.6496 82.5131 -12.9888 -8.2268 5.1637
# 4 11.0280 -1.5163 -12.9888 26.7820 -6.5378 -2.3387
# 5 -6.7923 5.6181 -8.2268 -6.5378 28.5369 -1.4993
# 6 -5.5215 5.7958 5.1637 -2.3387 -1.4993 16.0917
#
#
#
# Elastic Compliance Matrix: (Units=1/GPa)
#
#
# Indices 1 2 3 4 5 6 
#
# 1 0.019893 -0.003196 0.000839 -0.006221 0.004561 0.007228
# 2 -0.003196 0.024110 0.001993 0.001454 -0.005161 -0.010690
# 3 0.000839 0.001993 0.014360 0.007791 0.005554 -0.003388
# 4 -0.006221 0.001454 0.007791 0.046763 0.011334 0.002694
# 5 0.004561 -0.005161 0.005554 0.011334 0.041719 0.007176
# 6 0.007228 -0.010690 -0.003388 0.002694 0.007176 0.070622
#
#
# Mechanical properties :
#
#
# Convention : Reuss Voigt Hill
#
# Bulk Modulus (GPa) = 17.35062 18.26845 17.80953
# Shear Modulus (GPa) = 21.06097 27.51971 24.29034
#
# Velocity S-wave (km/s) = 3.28387 3.75378 3.52666
# Velocity P-wave (km/s) = 4.82311 5.30488 5.06972
#
# Compressibility (1/GPa) = 0.05763483
#
# Stress axis : x y z
#
# Youngs Moduli (GPa) = 50.26962 41.47588 69.63955
#
# Poissons Ratio (x) = 0.13257 -0.05843
# Poissons Ratio (y) = 0.16067 -0.13881
# Poissons Ratio (z) = -0.04218 -0.08267
#
# Static dielectric constant tensor:
#      x y z
#    x 1.686320 -0.009210 0.000540 
#    y -0.009210 1.675870 -0.025630 
#    z 0.000540 -0.025630 1.717460 
# 
# From -- ./inp_files/184338.got.cif
#   From: 2010.05.17/outbox.cif.g08.bks.cpg/sg2_93_cif.got.tgz:184338.got - 2010.06.03 11:33:40.
