data_PCOD9084931
_publ_section_title
;
Structure prediction by ZEFSAII (Michael W. Deem and Ramdas Pophale) SiO2 
 PCOD9084931
Probable space group: P -1
;
_chemical_formula_sum "Si O2"
_cell_formula_units_Z 16
_cell_length_a 11.807674
_cell_length_b 11.077310
_cell_length_c 8.376617
_cell_angle_alpha 123.109935
_cell_angle_beta 134.482425
_cell_angle_gamma 79.260094
_cell_volume 618.402273
_symmetry_space_group_name_H-M "P -1"
_symmetry_group_IT_number 2
_symmetry_cell_setting 'triclinic'
loop_
_space_group_symop_operation_xyz
x,y,z
-x,-y,-z
loop_
_atom_site_type_symbol
_atom_site_label
_atom_site_fract_x
_atom_site_fract_y
_atom_site_fract_z
Si Si1 0.132828 0.367680 0.410551
Si Si2 0.453572 0.162609 0.716152
Si Si3 0.553776 0.327747 0.595772
Si Si4 0.800806 0.307787 0.219698
Si Si5 0.608894 0.682038 0.905629
Si Si6 0.071011 0.663899 0.101101
Si Si7 0.104647 0.059733 0.305766
Si Si8 0.993562 0.185924 0.574297
O O1 0.244151 0.538181 0.686330
O O2 0.174483 0.243164 0.467570
O O3 0.939907 0.348844 0.250764
O O4 0.093321 0.333078 0.162230
O O5 0.473081 0.240475 0.615405
O O6 0.278573 0.023798 0.445339
O O7 0.642934 0.159120 0.923367
O O8 0.439710 0.244680 0.930761
O O9 0.547739 0.499393 0.728187
O O10 0.463901 0.270613 0.295397
O O11 0.746343 0.332060 0.777533
O O12 0.908494 0.286597 0.459075
O O13 0.810506 0.736890 0.140634
O O14 0.100952 0.809273 0.351892
O O15 0.000000 0.500000 0.000000
O O16 0.995963 0.052472 0.354610
O O17 0.000000 0.000000 0.000000
#
# Coordination Sequence:
#
# PCOD9084931 Si02
#       8
#     2   2   2   2   2   2   2   2
#     4  10  21  33  60  87 127 161 197 245 306 379
#     4  11  23  36  63  87 124 159 208 262 307 370
#     4  11  22  34  54  91 133 158 199 239 313 384
#     4  10  19  35  57  97 119 154 196 248 316 378
#     4  10  22  34  52  89 132 168 187 241 310 381
#     4  12  20  34  57  93 132 161 192 246 322 384
#     4  10  25  45  61  83 117 169 220 254 302 362
#     4  10  21  38  61  87 123 163 197 247 309 370
#
# _framework density 25.873127
#
# number of rings (size 3 to 8) (size 9 to 14) (size 15 to 20)
#    0.000    1.500    3.750    1.125    8.750    0.000 
#    0.000    3.125    0.000    0.750    0.000    0.000 
#    0.000    0.000    0.000    0.000    0.000    0.000 
#
# Total GULP energy -89242.382944 kJ/mol
# GULP energy per Si atom -5577.648934 kJ/mol
# Density = 2.581424 g / cm^3
# Si number density = 25.873127 Si / 1000 Ang^3
#
#
#
# Elastic Constant Matrix: (Units=GPa)
#
#
# Indices 1 2 3 4 5 6 
#
# 1 151.9903 3.3003 32.1585 9.9680 -1.1568 10.2303
# 2 3.3003 78.8842 -6.2245 -4.3814 -7.7841 10.9685
# 3 32.1585 -6.2245 99.4021 -25.0086 -1.6780 14.1716
# 4 9.9680 -4.3814 -25.0086 29.5156 -4.4279 -11.6761
# 5 -1.1568 -7.7841 -1.6780 -4.4279 57.2424 -0.0541
# 6 10.2303 10.9685 14.1716 -11.6761 -0.0541 27.7682
#
#
#
# Elastic Compliance Matrix: (Units=1/GPa)
#
#
# Indices 1 2 3 4 5 6 
#
# 1 0.008291 -0.000630 -0.004207 -0.008182 -0.000678 -0.004100
# 2 -0.000630 0.014031 0.002562 0.002609 0.002167 -0.005516
# 3 -0.004207 0.002562 0.015488 0.014742 0.001857 -0.001164
# 4 -0.008182 0.002609 0.014742 0.057697 0.005102 0.018730
# 5 -0.000678 0.002167 0.001857 0.005102 0.018200 0.000627
# 6 -0.004100 -0.005516 -0.001164 0.018730 0.000627 0.048173
#
#
# Mechanical properties :
#
#
# Convention : Reuss Voigt Hill
#
# Bulk Modulus (GPa) = 30.06671 43.19392 36.63031
# Shear Modulus (GPa) = 28.16645 42.97474 35.57060
#
# Velocity S-wave (km/s) = 3.30303 4.07993 3.71186
# Velocity P-wave (km/s) = 5.11788 6.23901 5.70605
#
# Compressibility (1/GPa) = 0.03325938
#
# Stress axis : x y z
#
# Youngs Moduli (GPa) = 120.61923 71.27025 64.56680
#
# Poissons Ratio (x) = 0.04490 0.27163
# Poissons Ratio (y) = 0.07600 -0.16542
# Poissons Ratio (z) = 0.50744 -0.18259
#
# Static dielectric constant tensor:
#      x y z
#    x 2.132710 0.001510 -0.106330 
#    y 0.001510 2.199390 -0.081550 
#    z -0.106330 -0.081550 2.284260 
# 
# From -- ./inp_files/187639.got.cif
#   From: 2010.05.17/outbox.cif.g08.bks.cpg/sg2_94_cif.got.tgz:187639.got - 2010.06.03 11:33:40.
