data_PCOD9084636
_publ_section_title
;
Structure prediction by ZEFSAII (Michael W. Deem and Ramdas Pophale) SiO2 
 PCOD9084636
Probable space group: P -1
;
_chemical_formula_sum "Si O2"
_cell_formula_units_Z 16
_cell_length_a 12.199296
_cell_length_b 12.273788
_cell_length_c 8.337624
_cell_angle_alpha 115.739899
_cell_angle_beta 95.862711
_cell_angle_gamma 47.863270
_cell_volume 799.734822
_symmetry_space_group_name_H-M "P -1"
_symmetry_group_IT_number 2
_symmetry_cell_setting 'triclinic'
loop_
_space_group_symop_operation_xyz
x,y,z
-x,-y,-z
loop_
_atom_site_type_symbol
_atom_site_label
_atom_site_fract_x
_atom_site_fract_y
_atom_site_fract_z
Si Si1 0.416981 0.111010 0.769419
Si Si2 0.317527 0.642115 0.036524
Si Si3 0.123490 0.402681 0.098353
Si Si4 0.778673 0.412661 0.344655
Si Si5 0.887821 0.784983 0.772692
Si Si6 0.695259 0.757379 0.516093
Si Si7 0.619481 0.162260 0.962831
Si Si8 0.301347 0.509524 0.268204
O O1 0.335913 0.181833 0.631827
O O2 0.532479 0.910844 0.677442
O O3 0.284363 0.220961 0.949035
O O4 0.523833 0.147789 0.821945
O O5 0.277476 0.603380 0.840758
O O6 0.288806 0.804730 0.098817
O O7 0.500000 0.500000 0.000000
O O8 0.258148 0.625924 0.181498
O O9 0.058355 0.358995 0.187900
O O10 0.181270 0.488241 0.226936
O O11 0.000000 0.500000 0.000000
O O12 0.738877 0.585781 0.436842
O O13 0.711300 0.423178 0.513625
O O14 0.962523 0.255953 0.279306
O O15 0.818166 0.756983 0.602854
O O16 0.750650 0.976090 0.939224
O O17 0.479407 0.327193 0.152029
#
# Coordination Sequence:
#
# PCOD9084636 Si02
#       8
#     2   2   2   2   2   2   2   2
#     4   9  20  34  59  86 116 162 191 242 303 355
#     4  10  22  43  64  84 120 159 207 254 294 349
#     4  11  21  35  57  87 125 158 195 239 308 366
#     4  12  23  37  62  93 118 157 203 250 301 355
#     4  11  23  36  60  89 124 155 189 251 307 356
#     4  10  19  35  55  87 124 148 194 246 298 358
#     4   9  21  41  61  84 118 160 203 244 296 354
#     4  10  22  38  64  90 116 160 203 244 297 361
#
# _framework density 20.006630999999999
#
# number of rings (size 3 to 8) (size 9 to 14) (size 15 to 20)
#    0.000    1.750    1.250    4.125    3.500    4.000 
#    0.000    0.625    2.750    0.000    0.000    0.000 
#    0.000    0.000    0.000    0.000    0.000    0.000 
#
# Total GULP energy -89193.000379 kJ/mol
# GULP energy per Si atom -5574.562524 kJ/mol
# Density = 1.996110 g / cm^3
# Si number density = 20.006631 Si / 1000 Ang^3
#
#
#
# Elastic Constant Matrix: (Units=GPa)
#
#
# Indices 1 2 3 4 5 6 
#
# 1 54.0273 40.2738 35.2657 -6.1068 -2.3133 8.6813
# 2 40.2738 87.5593 36.1654 -16.6092 2.6278 1.4749
# 3 35.2657 36.1654 76.5209 -21.9405 -5.9590 -1.9945
# 4 -6.1068 -16.6092 -21.9405 29.5943 0.0852 4.0644
# 5 -2.3133 2.6278 -5.9590 0.0852 18.5322 -6.3702
# 6 8.6813 1.4749 -1.9945 4.0644 -6.3702 29.8317
#
#
#
# Elastic Compliance Matrix: (Units=1/GPa)
#
#
# Indices 1 2 3 4 5 6 
#
# 1 0.038290 -0.013103 -0.014321 -0.008608 -0.001577 -0.010616
# 2 -0.013103 0.019536 -0.001518 0.007040 -0.004654 0.000793
# 3 -0.014321 -0.001518 0.025234 0.014077 0.008478 0.005822
# 4 -0.008608 0.007040 0.014077 0.046813 0.001199 -0.003024
# 5 -0.001577 -0.004654 0.008478 0.001199 0.062076 0.014348
# 6 -0.010616 0.000793 0.005822 -0.003024 0.014348 0.040437
#
#
# Mechanical properties :
#
#
# Convention : Reuss Voigt Hill
#
# Bulk Modulus (GPa) = 39.72027 49.05748 44.38888
# Shear Modulus (GPa) = 16.74127 22.68515 19.71321
#
# Velocity S-wave (km/s) = 2.89586 3.37097 3.14241
# Velocity P-wave (km/s) = 5.57477 6.30278 5.94992
#
# Compressibility (1/GPa) = 0.02517606
#
# Stress axis : x y z
#
# Youngs Moduli (GPa) = 26.11627 51.18630 39.62918
#
# Poissons Ratio (x) = 0.67072 0.56754
# Poissons Ratio (y) = 0.34221 0.06014
# Poissons Ratio (z) = 0.37402 0.07768
#
# Static dielectric constant tensor:
#      x y z
#    x 1.716370 0.019180 -0.026800 
#    y 0.019180 1.756430 -0.019140 
#    z -0.026800 -0.019140 1.781920 
# 
# From -- ./inp_files/263086.got.cif
#   From: 2010.05.17/outbox.cif.g08.bks.cpg/sg2_132_cif.got.tgz:263086.got - 2010.06.03 11:33:40.
