data_PCOD9084789
_publ_section_title
;
Structure prediction by ZEFSAII (Michael W. Deem and Ramdas Pophale) SiO2 
 PCOD9084789
Probable space group: P -1
;
_chemical_formula_sum "Si O2"
_cell_formula_units_Z 16
_cell_length_a 14.666363
_cell_length_b 11.780913
_cell_length_c 9.110099
_cell_angle_alpha 143.191869
_cell_angle_beta 83.096282
_cell_angle_gamma 114.741510
_cell_volume 786.894728
_symmetry_space_group_name_H-M "P -1"
_symmetry_group_IT_number 2
_symmetry_cell_setting 'triclinic'
loop_
_space_group_symop_operation_xyz
x,y,z
-x,-y,-z
loop_
_atom_site_type_symbol
_atom_site_label
_atom_site_fract_x
_atom_site_fract_y
_atom_site_fract_z
Si Si1 0.868810 0.018359 0.447514
Si Si2 0.280780 0.623701 0.957945
Si Si3 0.200111 0.755327 0.520416
Si Si4 0.518499 0.710169 0.619108
Si Si5 0.632440 0.672028 0.268204
Si Si6 0.672005 0.222713 0.223756
Si Si7 0.925612 0.660587 0.101459
Si Si8 0.397490 0.018213 0.553795
O O1 0.840995 0.088825 0.372000
O O2 0.953746 0.236887 0.752570
O O3 0.759389 0.861970 0.400523
O O4 0.921132 0.871266 0.262479
O O5 0.356476 0.538212 0.917925
O O6 0.294414 0.658354 0.818404
O O7 0.159312 0.451185 0.862267
O O8 0.321805 0.861696 0.272069
O O9 0.221010 0.719609 0.645786
O O10 0.324845 0.888777 0.573686
O O11 0.123421 0.524007 0.208117
O O12 0.500000 0.500000 0.500000
O O13 0.576007 0.704486 0.453421
O O14 0.405222 0.700469 0.609802
O O15 0.597815 0.952135 0.932713
O O16 0.578803 0.732101 0.206142
O O17 0.500000 0.000000 0.500000
#
# Coordination Sequence:
#
# PCOD9084789 Si02
#       8
#     2   2   2   2   2   2   2   2
#     4   9  19  37  62  82 109 141 188 232 275 330
#     4  10  20  36  57  80 109 146 185 222 274 336
#     4  10  21  34  55  85 111 143 181 233 277 322
#     4  11  22  36  56  78 110 156 186 216 270 332
#     4  10  19  35  57  81 102 146 190 221 272 324
#     4  11  23  37  55  82 118 147 184 227 273 333
#     4   9  19  38  62  83 107 144 186 230 280 325
#     4  10  20  34  53  77 111 140 184 233 270 320
#
# _framework density 20.333089000000001
#
# number of rings (size 3 to 8) (size 9 to 14) (size 15 to 20)
#    0.000    2.000    2.500    1.125    1.750    1.500 
#    0.000    3.125    0.000    2.250    0.000    0.000 
#    0.000    0.000    0.000    0.000    0.000    0.000 
#
# Total GULP energy -89172.017643 kJ/mol
# GULP energy per Si atom -5573.251103 kJ/mol
# Density = 2.028681 g / cm^3
# Si number density = 20.333089 Si / 1000 Ang^3
#
#
#
# Elastic Constant Matrix: (Units=GPa)
#
#
# Indices 1 2 3 4 5 6 
#
# 1 70.8847 23.6005 6.2028 0.0261 6.5200 -29.6579
# 2 23.6005 86.8628 23.6115 9.0746 8.0807 -29.7740
# 3 6.2028 23.6115 39.4042 11.8630 -4.4377 -19.7918
# 4 0.0261 9.0746 11.8630 28.8798 -5.9244 -7.5287
# 5 6.5200 8.0807 -4.4377 -5.9244 31.4093 -2.5390
# 6 -29.6579 -29.7740 -19.7918 -7.5287 -2.5390 31.6307
#
#
#
# Elastic Compliance Matrix: (Units=1/GPa)
#
#
# Indices 1 2 3 4 5 6 
#
# 1 0.027194 0.001013 0.011033 0.003868 -0.000852 0.034207
# 2 0.001013 0.017820 -0.003473 -0.001164 -0.004298 0.014928
# 3 0.011033 -0.003473 0.046130 -0.007491 0.006511 0.034680
# 4 0.003868 -0.001164 -0.007491 0.041664 0.006969 0.008320
# 5 -0.000852 -0.004298 0.006511 0.006969 0.035658 0.003750
# 6 0.034207 0.014928 0.034680 0.008320 0.003750 0.101721
#
#
# Mechanical properties :
#
#
# Convention : Reuss Voigt Hill
#
# Bulk Modulus (GPa) = 9.23452 33.77571 21.50512
# Shear Modulus (GPa) = 17.29289 27.96640 22.62964
#
# Velocity S-wave (km/s) = 2.91946 3.71268 3.33970
# Velocity P-wave (km/s) = 3.98947 5.91827 5.04687
#
# Compressibility (1/GPa) = 0.10828931
#
# Stress axis : x y z
#
# Youngs Moduli (GPa) = 36.77318 56.11785 21.67810
#
# Poissons Ratio (x) = -0.05683 -0.23918
# Poissons Ratio (y) = -0.03724 0.07528
# Poissons Ratio (z) = -0.40573 0.19489
#
# Static dielectric constant tensor:
#      x y z
#    x 1.931600 0.241930 0.064390 
#    y 0.241930 2.209400 0.107040 
#    z 0.064390 0.107040 1.742110 
# 
# From -- ./inp_files/273266.got.cif
#   From: 2010.05.17/outbox.cif.g08.bks.cpg/sg2_137_cif.got.tgz:273266.got - 2010.06.03 11:33:40.
