data_PCOD9084224
_publ_section_title
;
Structure prediction by ZEFSAII (Michael W. Deem and Ramdas Pophale) SiO2 
 PCOD9084224
Probable space group: P -1
;
_chemical_formula_sum "Si O2"
_cell_formula_units_Z 14
_cell_length_a 7.056301
_cell_length_b 16.702910
_cell_length_c 7.395359
_cell_angle_alpha 115.223816
_cell_angle_beta 100.655138
_cell_angle_gamma 121.776256
_cell_volume 567.496604
_symmetry_space_group_name_H-M "P -1"
_symmetry_group_IT_number 2
_symmetry_cell_setting 'triclinic'
loop_
_space_group_symop_operation_xyz
x,y,z
-x,-y,-z
loop_
_atom_site_type_symbol
_atom_site_label
_atom_site_fract_x
_atom_site_fract_y
_atom_site_fract_z
Si Si1 0.349329 0.857851 0.846965
Si Si2 0.649494 0.300017 0.691921
Si Si3 0.102067 0.647552 0.848200
Si Si4 0.140667 0.043185 0.846858
Si Si5 0.327892 0.031995 0.476067
Si Si6 0.361900 0.607297 0.574210
Si Si7 0.836264 0.769466 0.579133
O O1 0.089577 0.787153 0.607818
O O2 0.969680 0.907428 0.758624
O O3 0.600561 0.870395 0.901461
O O4 0.500000 0.000000 0.000000
O O5 0.511055 0.161684 0.538479
O O6 0.750814 0.362780 0.576150
O O7 0.397024 0.288241 0.664978
O O8 0.864702 0.360669 0.942913
O O9 0.291646 0.633678 0.772041
O O10 0.812402 0.534737 0.616523
O O11 0.208102 0.776118 0.926012
O O12 0.244577 0.043006 0.668131
O O13 0.938077 0.057728 0.776518
O O14 0.500000 0.000000 0.500000
O O15 0.662899 0.690197 0.647515
#
# Coordination Sequence:
#
# PCOD9084224 Si02
#       7
#     2   2   2   2   2   2   2
#     4  10  20  37  60  90 124 167 203 260 325 375
#     4   9  19  39  60  91 125 164 211 265 315 382
#     4  11  20  39  67  86 125 171 213 267 324 379
#     4   9  18  37  56  90 132 168 208 260 323 376
#     4  10  19  34  61  93 128 170 212 258 322 387
#     4   9  22  39  63  91 120 168 222 262 319 384
#     4   8  19  38  57  86 128 160 210 263 317 373
#
# _framework density 24.669751999999999
#
# number of rings (size 3 to 8) (size 9 to 14) (size 15 to 20)
#    0.857    1.714    1.429    0.429    0.000    2.857 
#    2.571    1.429    3.143    1.714    0.000    0.000 
#    0.000    0.000    0.000    0.000    0.000    0.000 
#
# Total GULP energy -78024.201593 kJ/mol
# GULP energy per Si atom -5573.157257 kJ/mol
# Density = 2.461360 g / cm^3
# Si number density = 24.669752 Si / 1000 Ang^3
#
#
#
# Elastic Constant Matrix: (Units=GPa)
#
#
# Indices 1 2 3 4 5 6 
#
# 1 118.8796 27.1415 25.7979 -7.7947 35.2752 -8.1048
# 2 27.1415 106.8390 2.8776 5.9218 -2.7888 4.2959
# 3 25.7979 2.8776 66.9006 -4.2943 10.3436 -12.5422
# 4 -7.7947 5.9218 -4.2943 42.1612 7.4089 11.6630
# 5 35.2752 -2.7888 10.3436 7.4089 39.3585 -12.8989
# 6 -8.1048 4.2959 -12.5422 11.6630 -12.8989 42.5590
#
#
#
# Elastic Compliance Matrix: (Units=1/GPa)
#
#
# Indices 1 2 3 4 5 6 
#
# 1 0.014911 -0.004305 -0.003545 0.006924 -0.015468 -0.004356
# 2 -0.004305 0.010748 0.000279 -0.003449 0.005450 0.000774
# 3 -0.003545 0.000279 0.017092 -0.000224 0.000209 0.004458
# 4 0.006924 -0.003449 -0.000224 0.031642 -0.016282 -0.012005
# 5 -0.015468 0.005450 0.000209 -0.016282 0.047747 0.015499
# 6 -0.004356 0.000774 0.004458 -0.012005 0.015499 0.031890
#
#
# Mechanical properties :
#
#
# Convention : Reuss Voigt Hill
#
# Bulk Modulus (GPa) = 36.22084 44.91701 40.56892
# Shear Modulus (GPa) = 28.03070 40.60256 34.31663
#
# Velocity S-wave (km/s) = 3.37447 4.06130 3.73371
# Velocity P-wave (km/s) = 5.46780 6.34343 5.92182
#
# Compressibility (1/GPa) = 0.02760842
#
# Stress axis : x y z
#
# Youngs Moduli (GPa) = 67.06470 93.03840 58.50720
#
# Poissons Ratio (x) = 0.40052 0.20743
# Poissons Ratio (y) = 0.28870 -0.01632
# Poissons Ratio (z) = 0.23777 -0.02595
#
# Static dielectric constant tensor:
#      x y z
#    x 2.060020 -0.008270 -0.114210 
#    y -0.008270 1.968740 0.002090 
#    z -0.114210 0.002090 2.087030 
# 
# From -- ./inp_files/134538.got.cif
#   From: 2010.05.17/outbox.cif.g08.bks.cpg/sg2_68_cif.got.tgz:134538.got - 2010.06.03 11:33:40.
