data_PCOD9084522
_publ_section_title
;
Structure prediction by ZEFSAII (Michael W. Deem and Ramdas Pophale) SiO2 
 PCOD9084522
Probable space group: P -1
;
_chemical_formula_sum "Si O2"
_cell_formula_units_Z 16
_cell_length_a 10.124360
_cell_length_b 20.498276
_cell_length_c 7.639140
_cell_angle_alpha 45.147454
_cell_angle_beta 46.125361
_cell_angle_gamma 39.371658
_cell_volume 673.305561
_symmetry_space_group_name_H-M "P -1"
_symmetry_group_IT_number 2
_symmetry_cell_setting 'triclinic'
loop_
_space_group_symop_operation_xyz
x,y,z
-x,-y,-z
loop_
_atom_site_type_symbol
_atom_site_label
_atom_site_fract_x
_atom_site_fract_y
_atom_site_fract_z
Si Si1 0.904732 0.465432 0.940482
Si Si2 0.669102 0.366145 0.231356
Si Si3 0.726429 0.207737 0.765409
Si Si4 0.575598 0.697821 0.663947
Si Si5 0.857037 0.107297 0.177941
Si Si6 0.161560 0.066829 0.279800
Si Si7 0.337078 0.439494 0.682309
Si Si8 0.534182 0.854259 0.114064
O O1 0.831864 0.405677 0.990666
O O2 0.796539 0.468212 0.222766
O O3 0.789784 0.593799 0.750077
O O4 0.159709 0.414732 0.825481
O O5 0.785904 0.252862 0.454775
O O6 0.566114 0.349017 0.188716
O O7 0.454828 0.453609 0.382441
O O8 0.542875 0.328474 0.788771
O O9 0.593249 0.157130 0.908590
O O10 0.900198 0.131425 0.897966
O O11 0.406502 0.806655 0.723886
O O12 0.623997 0.747956 0.356982
O O13 0.978180 0.130121 0.177295
O O14 0.911781 0.986681 0.405128
O O15 0.351238 0.959448 0.197714
O O16 0.274870 0.126224 0.137320
#
# Coordination Sequence:
#
# PCOD9084522 Si02
#       8
#     2   2   2   2   2   2   2   2
#     4  11  19  36  55  77 111 148 183 220 268 315
#     4   9  20  36  52  78 112 146 178 228 265 311
#     4   9  19  37  54  78 111 145 176 229 266 327
#     4  10  19  35  54  76 108 144 179 225 263 323
#     4  10  19  36  57  79 108 138 184 218 278 328
#     4   9  20  36  56  80 104 140 175 229 275 330
#     4   9  21  35  52  79 110 145 178 230 263 317
#     4   9  19  38  54  76 112 137 179 226 277 318
#
# _framework density 23.763356999999999
#
# number of rings (size 3 to 8) (size 9 to 14) (size 15 to 20)
#    0.750    1.750    1.250    0.750    0.000    2.500 
#    6.750    0.000    0.000    0.000    0.000    0.000 
#    0.000    0.000    0.000    0.000    0.000    0.000 
#
# Total GULP energy -89284.029176 kJ/mol
# GULP energy per Si atom -5580.251823 kJ/mol
# Density = 2.370927 g / cm^3
# Si number density = 23.763357 Si / 1000 Ang^3
#
#
#
# Elastic Constant Matrix: (Units=GPa)
#
#
# Indices 1 2 3 4 5 6 
#
# 1 77.6827 -5.3380 40.0227 -6.6185 -9.3585 -1.6545
# 2 -5.3380 56.8504 8.4980 0.5526 6.6650 -7.6611
# 3 40.0227 8.4980 64.0008 -15.3221 8.4346 -11.1125
# 4 -6.6185 0.5526 -15.3221 29.0959 -5.7668 5.5440
# 5 -9.3585 6.6650 8.4346 -5.7668 50.3073 -3.4784
# 6 -1.6545 -7.6611 -11.1125 5.5440 -3.4784 25.8824
#
#
#
# Elastic Compliance Matrix: (Units=1/GPa)
#
#
# Indices 1 2 3 4 5 6 
#
# 1 0.021694 0.003281 -0.015727 -0.001634 0.005825 -0.003262
# 2 0.003281 0.019343 -0.004398 -0.003049 -0.001251 0.004532
# 3 -0.015727 -0.004398 0.030560 0.009947 -0.005780 0.007906
# 4 -0.001634 -0.003049 0.009947 0.040813 0.002758 -0.005108
# 5 0.005825 -0.001251 -0.005780 0.002758 0.022408 -0.000059
# 6 -0.003262 0.004532 0.007906 -0.005108 -0.000059 0.044250
#
#
# Mechanical properties :
#
#
# Convention : Reuss Voigt Hill
#
# Bulk Modulus (GPa) = 26.37987 31.65550 29.01769
# Shear Modulus (GPa) = 22.18353 31.41385 26.79869
#
# Velocity S-wave (km/s) = 3.05867 3.63980 3.36181
# Velocity P-wave (km/s) = 4.85789 5.56904 5.22558
#
# Compressibility (1/GPa) = 0.03790769
#
# Stress axis : x y z
#
# Youngs Moduli (GPa) = 46.09518 51.69947 32.72291
#
# Poissons Ratio (x) = -0.16964 0.51464
# Poissons Ratio (y) = -0.15125 0.14393
# Poissons Ratio (z) = 0.72495 0.22740
#
# Static dielectric constant tensor:
#      x y z
#    x 1.875200 0.047050 0.028750 
#    y 0.047050 2.022530 0.014510 
#    z 0.028750 0.014510 1.916870 
# 
# From -- ./inp_files/225216.got.cif
#   From: 2010.05.17/outbox.cif.g08.bks.cpg/sg2_113_cif.got.tgz:225216.got - 2010.06.03 11:33:40.
