data_PCOD9084025
_publ_section_title
;
Structure prediction by ZEFSAII (Michael W. Deem and Ramdas Pophale) SiO2 
 PCOD9084025
Probable space group: P -1
;
_chemical_formula_sum "Si O2"
_cell_formula_units_Z 16
_cell_length_a 9.617829
_cell_length_b 10.322120
_cell_length_c 18.708339
_cell_angle_alpha 31.363982
_cell_angle_beta 66.494597
_cell_angle_gamma 81.337637
_cell_volume 813.237179
_symmetry_space_group_name_H-M "P -1"
_symmetry_group_IT_number 2
_symmetry_cell_setting 'triclinic'
loop_
_space_group_symop_operation_xyz
x,y,z
-x,-y,-z
loop_
_atom_site_type_symbol
_atom_site_label
_atom_site_fract_x
_atom_site_fract_y
_atom_site_fract_z
Si Si1 0.710545 0.623332 0.732213
Si Si2 0.374016 0.004379 0.940427
Si Si3 0.841003 0.091340 0.107658
Si Si4 0.394278 0.932703 0.481337
Si Si5 0.402703 0.271110 0.569190
Si Si6 0.087801 0.804929 0.191502
Si Si7 0.011331 0.585118 0.744310
Si Si8 0.734309 0.478720 0.637172
O O1 0.746993 0.644533 0.629659
O O2 0.883101 0.727079 0.690949
O O3 0.603019 0.796252 0.685575
O O4 0.629670 0.300406 0.917369
O O5 0.271941 0.036511 0.878570
O O6 0.555817 0.228736 0.796264
O O7 0.266723 0.012512 0.027625
O O8 0.709954 0.010876 0.236339
O O9 0.965867 0.948012 0.164002
O O10 0.948257 0.396885 0.915944
O O11 0.466362 0.770145 0.491098
O O12 0.203199 0.766403 0.619120
O O13 0.500000 0.000000 0.500000
O O14 0.500000 0.500000 0.500000
O O15 0.280084 0.363585 0.503952
O O16 0.125715 0.639735 0.325780
O O17 0.020282 0.609045 0.228231
#
# Coordination Sequence:
#
# PCOD9084025 Si02
#       8
#     2   2   2   2   2   2   2   2
#     4   9  19  37  59  91 116 151 208 251 284 348
#     4   9  17  33  60  90 119 153 197 252 290 349
#     4  10  20  35  55  86 123 160 192 239 303 359
#     4  12  24  39  65  88 116 160 208 248 291 356
#     4  12  24  38  61  91 130 153 195 250 302 353
#     4   9  18  31  58  87 116 154 202 241 289 354
#     4   9  20  37  61  85 117 159 202 243 294 356
#     4  10  19  34  59  91 123 151 199 252 294 339
#
# _framework density 19.674455999999999
#
# number of rings (size 3 to 8) (size 9 to 14) (size 15 to 20)
#    0.000    2.500    2.500    4.125    1.750    1.500 
#    0.000    3.125    0.000    0.000    0.000    0.000 
#    0.000    0.000    0.000    0.000    0.000    0.000 
#
# Total GULP energy -89199.393884 kJ/mol
# GULP energy per Si atom -5574.962118 kJ/mol
# Density = 1.962968 g / cm^3
# Si number density = 19.674456 Si / 1000 Ang^3
#
#
#
# Elastic Constant Matrix: (Units=GPa)
#
#
# Indices 1 2 3 4 5 6 
#
# 1 131.8557 35.9104 45.7443 -2.9300 19.7659 -10.1238
# 2 35.9104 56.5201 24.8741 -3.8552 8.7971 -5.3291
# 3 45.7443 24.8741 95.4639 9.2486 2.9917 -4.2339
# 4 -2.9300 -3.8552 9.2486 16.4397 1.8371 7.6116
# 5 19.7659 8.7971 2.9917 1.8371 39.1397 -3.5044
# 6 -10.1238 -5.3291 -4.2339 7.6116 -3.5044 18.7134
#
#
#
# Elastic Compliance Matrix: (Units=1/GPa)
#
#
# Indices 1 2 3 4 5 6 
#
# 1 0.011042 -0.004063 -0.004320 0.003111 -0.004321 0.001764
# 2 -0.004063 0.023428 -0.004866 0.008126 -0.003272 -0.000545
# 3 -0.004320 -0.004866 0.015289 -0.013601 0.003272 0.005881
# 4 0.003111 0.008126 -0.013601 0.089291 -0.009884 -0.037250
# 5 -0.004321 -0.003272 0.003272 -0.009884 0.029306 0.006979
# 6 0.001764 -0.000545 0.005881 -0.037250 0.006979 0.072026
#
#
# Mechanical properties :
#
#
# Convention : Reuss Voigt Hill
#
# Bulk Modulus (GPa) = 42.99225 55.21082 49.10153
# Shear Modulus (GPa) = 18.20607 26.67929 22.44268
#
# Velocity S-wave (km/s) = 3.04528 3.68644 3.38109
# Velocity P-wave (km/s) = 5.85357 6.80021 6.34457
#
# Compressibility (1/GPa) = 0.02326001
#
# Stress axis : x y z
#
# Youngs Moduli (GPa) = 90.56616 42.68381 65.40573
#
# Poissons Ratio (x) = 0.17343 0.28255
# Poissons Ratio (y) = 0.36798 0.31829
# Poissons Ratio (z) = 0.39125 0.20771
#
# Static dielectric constant tensor:
#      x y z
#    x 1.715120 -0.004470 0.012180 
#    y -0.004470 1.683780 -0.016310 
#    z 0.012180 -0.016310 1.752290 
# 
# From -- ./inp_files/588554.got.cif
#   From: 2010.05.17/outbox.cif.g08.bks.cpg/sg2_295_cif.got.tgz:588554.got - 2010.06.03 11:33:40.
