data_PCOD9084984
_publ_section_title
;
Structure prediction by ZEFSAII (Michael W. Deem and Ramdas Pophale) SiO2 
 PCOD9084984
Probable space group: P -1
;
_chemical_formula_sum "Si O2"
_cell_formula_units_Z 14
_cell_length_a 5.268090
_cell_length_b 16.798585
_cell_length_c 10.239118
_cell_angle_alpha 123.190955
_cell_angle_beta 61.152843
_cell_angle_gamma 99.734055
_cell_volume 658.588022
_symmetry_space_group_name_H-M "P -1"
_symmetry_group_IT_number 2
_symmetry_cell_setting 'triclinic'
loop_
_space_group_symop_operation_xyz
x,y,z
-x,-y,-z
loop_
_atom_site_type_symbol
_atom_site_label
_atom_site_fract_x
_atom_site_fract_y
_atom_site_fract_z
Si Si1 0.386388 0.528310 0.198661
Si Si2 0.058130 0.786902 0.359411
Si Si3 0.081253 0.408942 0.804710
Si Si4 0.680742 0.559711 0.607265
Si Si5 0.294357 0.222778 0.288705
Si Si6 0.486214 0.102252 0.528353
Si Si7 0.842909 0.104835 0.171051
O O1 0.567624 0.610834 0.284416
O O2 0.500000 0.500000 0.000000
O O3 0.000000 0.500000 0.000000
O O4 0.444684 0.447339 0.220221
O O5 0.072024 0.682013 0.199806
O O6 0.878824 0.775488 0.528428
O O7 0.846397 0.859085 0.388619
O O8 0.357988 0.825557 0.354480
O O9 0.952373 0.438344 0.720505
O O10 0.500000 0.500000 0.500000
O O11 0.668661 0.669884 0.667534
O O12 0.000000 0.500000 0.500000
O O13 0.601011 0.155560 0.176379
O O14 0.090295 0.173640 0.195674
O O15 0.671129 0.095472 0.341843
O O16 0.500000 0.000000 0.500000
O O17 0.000000 0.000000 0.000000
#
# Coordination Sequence:
#
# PCOD9084984 Si02
#       7
#     2   2   2   2   2   2   2
#     4  10  21  37  55  79 119 158 188 233 291 337
#     4  10  19  35  58  82 113 150 189 236 289 346
#     4  10  20  36  57  82 116 159 195 228 285 353
#     4  12  23  37  61  90 119 155 203 247 281 346
#     4  10  21  36  59  86 112 152 198 238 292 351
#     4  10  21  37  59  85 110 144 190 239 293 350
#     4  10  21  40  61  82 114 150 189 245 302 349
#
# _framework density 21.257598000000002
#
# number of rings (size 3 to 8) (size 9 to 14) (size 15 to 20)
#    0.000    1.714    0.000    5.143    0.000    2.286 
#    0.000    8.571    0.000    0.000    0.000    0.000 
#    0.000    0.000    0.000    0.000    0.000    0.000 
#
# Total GULP energy -78132.285196 kJ/mol
# GULP energy per Si atom -5580.877514 kJ/mol
# Density = 2.120921 g / cm^3
# Si number density = 21.257598 Si / 1000 Ang^3
#
#
#
# Elastic Constant Matrix: (Units=GPa)
#
#
# Indices 1 2 3 4 5 6 
#
# 1 150.3920 23.3043 8.9995 -2.2820 9.4600 -1.6920
# 2 23.3043 116.9441 7.7766 13.7149 8.9026 -14.0868
# 3 8.9995 7.7766 58.7729 12.7312 -3.3408 -1.3685
# 4 -2.2820 13.7149 12.7312 26.9240 -1.4920 3.3352
# 5 9.4600 8.9026 -3.3408 -1.4920 25.8357 7.2332
# 6 -1.6920 -14.0868 -1.3685 3.3352 7.2332 39.0006
#
#
#
# Elastic Compliance Matrix: (Units=1/GPa)
#
#
# Indices 1 2 3 4 5 6 
#
# 1 0.007115 -0.001369 -0.001436 0.001855 -0.002217 0.000016
# 2 -0.001369 0.010589 0.000046 -0.006457 -0.004982 0.005243
# 3 -0.001436 0.000046 0.019396 -0.009322 0.002192 0.001026
# 4 0.001855 -0.006457 -0.009322 0.046205 0.005102 -0.007477
# 5 -0.002217 -0.004982 0.002192 0.005102 0.044769 -0.010558
# 6 0.000016 0.005243 0.001026 -0.007477 -0.010558 0.030169
#
#
# Mechanical properties :
#
#
# Convention : Reuss Voigt Hill
#
# Bulk Modulus (GPa) = 31.66248 45.14110 38.40179
# Shear Modulus (GPa) = 28.68817 37.42064 33.05440
#
# Velocity S-wave (km/s) = 3.67761 4.20019 3.94756
# Velocity P-wave (km/s) = 5.74108 6.69355 6.23553
#
# Compressibility (1/GPa) = 0.03158313
#
# Stress axis : x y z
#
# Youngs Moduli (GPa) = 140.54586 94.43717 51.55639
#
# Poissons Ratio (x) = 0.12930 0.07402
# Poissons Ratio (y) = 0.19244 -0.00238
# Poissons Ratio (z) = 0.20178 -0.00437
#
# Static dielectric constant tensor:
#      x y z
#    x 1.896320 0.067990 -0.105710 
#    y 0.067990 1.802260 -0.082010 
#    z -0.105710 -0.082010 1.895130 
# 
# From -- ./inp_files/84352.got.cif
#   From: 2010.05.17/outbox.cif.g08.bks.cpg/sg2_43_cif.got.tgz:84352.got - 2010.06.03 11:33:40.
