data_PCOD9084621
_publ_section_title
;
Structure prediction by ZEFSAII (Michael W. Deem and Ramdas Pophale) SiO2 
 PCOD9084621
Probable space group: P -1
;
_chemical_formula_sum "Si O2"
_cell_formula_units_Z 16
_cell_length_a 14.995347
_cell_length_b 13.498112
_cell_length_c 9.240976
_cell_angle_alpha 132.610318
_cell_angle_beta 140.411643
_cell_angle_gamma 59.666681
_cell_volume 876.711517
_symmetry_space_group_name_H-M "P -1"
_symmetry_group_IT_number 2
_symmetry_cell_setting 'triclinic'
loop_
_space_group_symop_operation_xyz
x,y,z
-x,-y,-z
loop_
_atom_site_type_symbol
_atom_site_label
_atom_site_fract_x
_atom_site_fract_y
_atom_site_fract_z
Si Si1 0.252183 0.169080 0.812123
Si Si2 0.566097 0.237153 0.179160
Si Si3 0.120512 0.435159 0.391589
Si Si4 0.083648 0.202353 0.895711
Si Si5 0.184265 0.932573 0.690166
Si Si6 0.432379 0.503154 0.761599
Si Si7 0.860850 0.608137 0.285090
Si Si8 0.605667 0.421251 0.658260
O O1 0.204466 0.248542 0.976916
O O2 0.167009 0.240912 0.651355
O O3 0.210999 0.017271 0.657990
O O4 0.414806 0.182555 0.989312
O O5 0.671408 0.129282 0.144243
O O6 0.543532 0.354066 0.148930
O O7 0.642074 0.298590 0.479394
O O8 0.267642 0.478735 0.547655
O O9 0.143854 0.404469 0.559927
O O10 0.006894 0.550285 0.357349
O O11 0.068401 0.303849 0.107338
O O12 0.939870 0.176563 0.601534
O O13 0.130057 0.050904 0.843352
O O14 0.511426 0.394312 0.655293
O O15 0.500000 0.500000 0.000000
O O16 0.737532 0.513088 0.965538
O O17 0.500000 0.500000 0.500000
#
# Coordination Sequence:
#
# PCOD9084621 Si02
#       8
#     2   2   2   2   2   2   2   2
#     4  10  19  37  57  79 115 143 187 236 266 320
#     4  11  20  33  60  83 112 145 187 224 276 333
#     4  11  23  36  57  84 116 152 176 230 285 342
#     4   9  21  38  57  78 115 140 192 233 272 319
#     4   9  21  37  57  82 106 149 194 234 263 320
#     4  11  21  36  56  83 119 146 176 230 288 332
#     4  11  22  37  55  85 118 144 187 223 288 338
#     4  10  19  35  55  84 115 142 181 226 280 327
#
# _framework density 18.250017
#
# number of rings (size 3 to 8) (size 9 to 14) (size 15 to 20)
#    0.750    1.000    3.750    1.875    3.500    0.500 
#    0.000    0.625    2.750    1.500    0.000    0.000 
#    0.000    0.000    0.000    0.000    0.000    0.000 
#
# Total GULP energy -89083.132545 kJ/mol
# GULP energy per Si atom -5567.695784 kJ/mol
# Density = 1.820848 g / cm^3
# Si number density = 18.250017 Si / 1000 Ang^3
#
#
#
# Elastic Constant Matrix: (Units=GPa)
#
#
# Indices 1 2 3 4 5 6 
#
# 1 69.4083 9.6582 20.6005 -1.3877 7.1479 -2.1135
# 2 9.6582 55.3970 9.7072 -13.4247 5.9217 -5.6819
# 3 20.6005 9.7072 53.4882 -6.7081 4.6944 4.5505
# 4 -1.3877 -13.4247 -6.7081 20.3037 -0.1387 1.8857
# 5 7.1479 5.9217 4.6944 -0.1387 30.7642 -0.9594
# 6 -2.1135 -5.6819 4.5505 1.8857 -0.9594 22.7668
#
#
#
# Elastic Compliance Matrix: (Units=1/GPa)
#
#
# Indices 1 2 3 4 5 6 
#
# 1 0.016871 -0.001887 -0.006457 -0.002476 -0.002505 0.002485
# 2 -0.001887 0.022926 -0.001762 0.013997 -0.003499 0.004592
# 3 -0.006457 -0.001762 0.023020 0.006568 -0.001839 -0.006262
# 4 -0.002476 0.013997 0.006568 0.060786 -0.002947 -0.003208
# 5 -0.002505 -0.003499 -0.001839 -0.002947 0.034058 0.000941
# 6 0.002485 0.004592 -0.006262 -0.003208 0.000941 0.046857
#
#
# Mechanical properties :
#
#
# Convention : Reuss Voigt Hill
#
# Bulk Modulus (GPa) = 23.47166 28.69172 26.08169
# Shear Modulus (GPa) = 20.92640 23.98878 22.45759
#
# Velocity S-wave (km/s) = 3.38990 3.62947 3.51173
# Velocity P-wave (km/s) = 5.31140 5.77232 5.54665
#
# Compressibility (1/GPa) = 0.04260457
#
# Stress axis : x y z
#
# Youngs Moduli (GPa) = 59.27412 43.61783 43.43987
#
# Poissons Ratio (x) = 0.08232 0.28050
# Poissons Ratio (y) = 0.11186 0.07654
# Poissons Ratio (z) = 0.38275 0.07685
#
# Static dielectric constant tensor:
#      x y z
#    x 1.664360 -0.022230 0.002910 
#    y -0.022230 1.655510 0.023670 
#    z 0.002910 0.023670 1.633990 
# 
# From -- ./inp_files/312020.got.cif
#   From: 2010.05.17/outbox.cif.g08.bks.cpg/sg2_157_cif.got.tgz:312020.got - 2010.06.03 11:33:40.
