data_PCOD9084296
_publ_section_title
;
Structure prediction by ZEFSAII (Michael W. Deem and Ramdas Pophale) SiO2 
 PCOD9084296
Probable space group: P -1
;
_chemical_formula_sum "Si O2"
_cell_formula_units_Z 13
_cell_length_a 6.615203
_cell_length_b 12.194247
_cell_length_c 8.269196
_cell_angle_alpha 54.056442
_cell_angle_beta 101.343569
_cell_angle_gamma 120.044566
_cell_volume 462.964188
_symmetry_space_group_name_H-M "P -1"
_symmetry_group_IT_number 2
_symmetry_cell_setting 'triclinic'
loop_
_space_group_symop_operation_xyz
x,y,z
-x,-y,-z
loop_
_atom_site_type_symbol
_atom_site_label
_atom_site_fract_x
_atom_site_fract_y
_atom_site_fract_z
Si Si1 0.369926 0.678616 0.642445
Si Si2 0.495602 0.583996 0.169487
Si Si3 0.259429 0.007439 0.471605
Si Si4 0.211216 0.637906 0.326120
Si Si5 0.744457 0.944711 0.911905
Si Si6 0.000000 0.500000 0.000000
Si Si7 0.205663 0.883407 0.908579
O O1 0.399372 0.529121 0.740662
O O2 0.619351 0.808468 0.638391
O O3 0.343851 0.746387 0.405405
O O4 0.139775 0.629131 0.760663
O O5 0.383469 0.583869 0.324334
O O6 0.265046 0.528869 0.067712
O O7 0.685442 0.766970 0.028314
O O8 0.144524 0.961776 0.316837
O O9 0.500000 0.000000 0.500000
O O10 0.133147 0.913645 0.694647
O O11 0.000000 0.500000 0.500000
O O12 0.116467 0.708038 0.109754
O O13 0.479009 0.924781 0.899631
O O14 0.160398 0.974459 0.968882
#
# Coordination Sequence:
#
# PCOD9084296 Si02
#       7
#     2   2   2   2   2   1   2
#     4  12  24  40  68  98 131 175 226 273 329 398
#     4  11  23  42  66  98 132 174 224 276 328 395
#     4  10  19  34  62  93 121 176 223 258 329 402
#     4  11  22  41  65  99 129 173 221 277 332 390
#     4   9  17  34  59  91 122 168 224 258 322 397
#     4  12  24  40  62 100 138 166 214 284 332 390
#     4   9  19  35  59  95 124 169 230 259 323 410
#
# _framework density 28.079927999999999
#
# number of rings (size 3 to 8) (size 9 to 14) (size 15 to 20)
#    0.000    1.538    3.077    4.615    0.000    0.000 
#    0.000    0.000    0.000    6.462    0.000    0.000 
#    0.000    0.000    0.000    0.000    0.000    0.000 
#
# Total GULP energy -72509.307337 kJ/mol
# GULP energy per Si atom -5577.639026 kJ/mol
# Density = 2.801602 g / cm^3
# Si number density = 28.079928 Si / 1000 Ang^3
#
#
#
# Elastic Constant Matrix: (Units=GPa)
#
#
# Indices 1 2 3 4 5 6 
#
# 1 108.9448 46.3556 55.4333 -4.6199 -0.5655 -8.8751
# 2 46.3556 107.3689 66.1351 -16.1891 8.3550 -13.1124
# 3 55.4333 66.1351 216.1451 10.7231 -33.2935 -7.1933
# 4 -4.6199 -16.1891 10.7231 53.7029 -9.1095 10.7336
# 5 -0.5655 8.3550 -33.2935 -9.1095 39.5580 8.3010
# 6 -8.8751 -13.1124 -7.1933 10.7336 8.3010 64.2348
#
#
#
# Elastic Compliance Matrix: (Units=1/GPa)
#
#
# Indices 1 2 3 4 5 6 
#
# 1 0.011840 -0.003705 -0.002017 -0.000004 -0.000909 0.000772
# 2 -0.003705 0.015348 -0.004943 0.003610 -0.007124 0.002385
# 3 -0.002017 -0.004943 0.007855 -0.001753 0.007448 -0.001078
# 4 -0.000004 0.003610 -0.001753 0.021328 0.003400 -0.003463
# 5 -0.000909 -0.007124 0.007448 0.003400 0.035049 -0.005843
# 6 0.000772 0.002385 -0.001078 -0.003463 -0.005843 0.017374
#
#
# Mechanical properties :
#
#
# Convention : Reuss Voigt Hill
#
# Bulk Modulus (GPa) = 72.92607 85.36742 79.14675
# Shear Modulus (GPa) = 37.12128 49.13479 43.12804
#
# Velocity S-wave (km/s) = 3.63986 4.18762 3.92331
# Velocity P-wave (km/s) = 6.60999 7.33820 6.98359
#
# Compressibility (1/GPa) = 0.01371252
#
# Stress axis : x y z
#
# Youngs Moduli (GPa) = 84.46215 65.15581 127.31446
#
# Poissons Ratio (x) = 0.24140 0.25677
# Poissons Ratio (y) = 0.31293 0.62930
# Poissons Ratio (z) = 0.17035 0.32206
#
# Static dielectric constant tensor:
#      x y z
#    x 2.269650 0.074220 0.099980 
#    y 0.074220 2.629030 0.146070 
#    z 0.099980 0.146070 2.356770 
# 
# From -- ./inp_files/133883.got.cif
#   From: 2010.05.17/outbox.cif.g08.bks.cpg/sg2_67_cif.got.tgz:133883.got - 2010.06.03 11:33:40.
