data_PCOD9084862
_publ_section_title
;
Structure prediction by ZEFSAII (Michael W. Deem and Ramdas Pophale) SiO2 
 PCOD9084862
Probable space group: P -1
;
_chemical_formula_sum "Si O2"
_cell_formula_units_Z 16
_cell_length_a 11.029447
_cell_length_b 11.300027
_cell_length_c 9.516952
_cell_angle_alpha 67.173882
_cell_angle_beta 63.090457
_cell_angle_gamma 52.557340
_cell_volume 829.047185
_symmetry_space_group_name_H-M "P -1"
_symmetry_group_IT_number 2
_symmetry_cell_setting 'triclinic'
loop_
_space_group_symop_operation_xyz
x,y,z
-x,-y,-z
loop_
_atom_site_type_symbol
_atom_site_label
_atom_site_fract_x
_atom_site_fract_y
_atom_site_fract_z
Si Si1 0.327192 0.037933 0.123228
Si Si2 0.226460 0.373894 0.031284
Si Si3 0.898771 0.888020 0.021238
Si Si4 0.319202 0.266172 0.466910
Si Si5 0.476837 0.360808 0.107199
Si Si6 0.885318 0.601980 0.222212
Si Si7 0.193977 0.877025 0.807913
Si Si8 0.657787 0.026087 0.539125
O O1 0.338376 0.966406 0.299824
O O2 0.229394 0.218472 0.110588
O O3 0.234246 0.002568 0.071571
O O4 0.500000 0.000000 0.000000
O O5 0.196015 0.424508 0.859871
O O6 0.392044 0.344096 0.021112
O O7 0.074593 0.491375 0.150087
O O8 0.853009 0.768123 0.140432
O O9 0.895104 0.967906 0.129941
O O10 0.073386 0.817910 0.894524
O O11 0.364360 0.356579 0.291960
O O12 0.188343 0.383938 0.591925
O O13 0.477444 0.145467 0.527193
O O14 0.287422 0.145770 0.457856
O O15 0.649198 0.229474 0.133447
O O16 0.500000 0.500000 0.000000
O O17 0.239020 0.916675 0.618532
#
# Coordination Sequence:
#
# PCOD9084862 Si02
#       8
#     2   2   2   2   2   2   2   2
#     4  11  21  35  59  86 113 146 193 236 277 329
#     4  10  21  35  57  84 113 149 188 231 280 340
#     4  10  20  35  57  84 114 153 181 232 284 334
#     4  10  20  35  59  84 112 147 189 236 278 329
#     4  11  22  38  56  81 114 152 189 232 283 339
#     4  10  20  37  57  84 115 148 188 232 285 331
#     4  10  21  36  57  83 116 148 189 228 285 339
#     4  10  19  35  57  86 112 146 190 237 275 331
#
# _framework density 19.299263
#
# number of rings (size 3 to 8) (size 9 to 14) (size 15 to 20)
#    0.000    1.750    2.500    3.000    1.750    1.000 
#    0.000    0.625    0.000    6.000    0.000    0.000 
#    0.000    0.000    0.000    0.000    0.000    0.000 
#
# Total GULP energy -89127.798070 kJ/mol
# GULP energy per Si atom -5570.487379 kJ/mol
# Density = 1.925534 g / cm^3
# Si number density = 19.299263 Si / 1000 Ang^3
#
#
#
# Elastic Constant Matrix: (Units=GPa)
#
#
# Indices 1 2 3 4 5 6 
#
# 1 75.9739 -22.2993 30.9564 3.0938 -0.3785 -8.5948
# 2 -22.2993 29.7039 18.0980 5.4851 -2.2599 0.1732
# 3 30.9564 18.0980 109.7386 3.0873 -7.4394 -1.9114
# 4 3.0938 5.4851 3.0873 28.7059 -2.1797 -4.7630
# 5 -0.3785 -2.2599 -7.4394 -2.1797 26.1436 -2.4670
# 6 -8.5948 0.1732 -1.9114 -4.7630 -2.4670 24.1469
#
#
#
# Elastic Compliance Matrix: (Units=1/GPa)
#
#
# Indices 1 2 3 4 5 6 
#
# 1 0.028174 0.029892 -0.012599 -0.006169 -0.000394 0.007559
# 2 0.029892 0.070520 -0.019550 -0.013577 0.000395 0.005949
# 3 -0.012599 -0.019550 0.015947 0.003226 0.002730 -0.002167
# 4 -0.006169 -0.013577 0.003226 0.039045 0.003497 0.006216
# 5 -0.000394 0.000395 0.002730 0.003497 0.039803 0.004829
# 6 0.007559 0.005949 -0.002167 0.006216 0.004829 0.045609
#
#
# Mechanical properties :
#
#
# Convention : Reuss Voigt Hill
#
# Bulk Modulus (GPa) = 9.08032 29.88075 19.48054
# Shear Modulus (GPa) = 17.83659 28.37672 23.10665
#
# Velocity S-wave (km/s) = 3.04338 3.83868 3.46393
# Velocity P-wave (km/s) = 4.13095 5.92990 5.11021
#
# Compressibility (1/GPa) = 0.11012826
#
# Stress axis : x y z
#
# Youngs Moduli (GPa) = 35.49341 14.18028 62.70589
#
# Poissons Ratio (x) = -0.42388 0.79004
# Poissons Ratio (y) = -1.06098 1.22592
# Poissons Ratio (z) = 0.44718 0.27723
#
# Static dielectric constant tensor:
#      x y z
#    x 1.760400 -0.001000 0.018000 
#    y -0.001000 1.708300 0.015590 
#    z 0.018000 0.015590 1.678910 
# 
# From -- ./inp_files/256693.got.cif
#   From: 2010.05.17/outbox.cif.g08.bks.cpg/sg2_129_cif.got.tgz:256693.got - 2010.06.03 11:33:40.
