data_PCOD9084981
_publ_section_title
;
Structure prediction by ZEFSAII (Michael W. Deem and Ramdas Pophale) SiO2 
 PCOD9084981
Probable space group: P -1
;
_chemical_formula_sum "Si O2"
_cell_formula_units_Z 16
_cell_length_a 14.970097
_cell_length_b 14.053300
_cell_length_c 5.137061
_cell_angle_alpha 92.407561
_cell_angle_beta 102.850610
_cell_angle_gamma 41.087021
_cell_volume 679.031829
_symmetry_space_group_name_H-M "P -1"
_symmetry_group_IT_number 2
_symmetry_cell_setting 'triclinic'
loop_
_space_group_symop_operation_xyz
x,y,z
-x,-y,-z
loop_
_atom_site_type_symbol
_atom_site_label
_atom_site_fract_x
_atom_site_fract_y
_atom_site_fract_z
Si Si1 0.316141 0.979093 0.829235
Si Si2 0.490574 0.894712 0.432616
Si Si3 0.965278 0.963318 0.724062
Si Si4 0.241427 0.648695 0.901839
Si Si5 0.898188 0.687530 0.215965
Si Si6 0.687347 0.192920 0.846405
Si Si7 0.187540 0.368492 0.344612
Si Si8 0.408644 0.474976 0.474230
O O1 0.428051 0.930359 0.109215
O O2 0.292983 0.891623 0.907769
O O3 0.383956 0.940857 0.588210
O O4 0.171741 0.153853 0.789550
O O5 0.650250 0.728442 0.546619
O O6 0.500000 0.000000 0.500000
O O7 0.070743 0.789577 0.792468
O O8 0.800826 0.076347 0.684571
O O9 0.000000 0.000000 0.500000
O O10 0.000000 0.000000 0.000000
O O11 0.300054 0.578697 0.649308
O O12 0.287053 0.720435 0.020534
O O13 0.321868 0.523348 0.159963
O O14 0.848320 0.668318 0.434015
O O15 0.068755 0.545640 0.288345
O O16 0.837649 0.677641 0.928637
O O17 0.530543 0.308840 0.638651
O O18 0.500000 0.500000 0.500000
#
# Coordination Sequence:
#
# PCOD9084981 Si02
#       8
#     2   2   2   2   2   2   2   2
#     4  12  24  37  59  87 123 150 189 248 308 329
#     4  12  22  39  60  87 115 157 197 240 283 360
#     4  10  20  36  59  84 112 150 198 235 281 344
#     4  10  20  37  61  83 111 157 201 233 277 349
#     4  10  19  36  57  86 106 147 185 237 289 335
#     4  10  23  38  57  90 120 150 193 250 294 345
#     4  10  20  35  61  80 109 142 199 235 267 349
#     4  10  19  35  58  82 112 152 196 232 278 349
#
# _framework density 23.562957000000001
#
# number of rings (size 3 to 8) (size 9 to 14) (size 15 to 20)
#    0.000    1.500    2.500    4.875    0.000    6.000 
#    0.000    2.500    0.000    0.000    0.000    0.000 
#    0.000    0.000    0.000    0.000    0.000    0.000 
#
# Total GULP energy -89562.412441 kJ/mol
# GULP energy per Si atom -5597.650778 kJ/mol
# Density = 2.350933 g / cm^3
# Si number density = 23.562957 Si / 1000 Ang^3
#
#
#
# Elastic Constant Matrix: (Units=GPa)
#
#
# Indices 1 2 3 4 5 6 
#
# 1 62.2032 26.2797 11.6482 0.8968 -4.8631 -6.6932
# 2 26.2797 145.8305 15.3511 -22.1238 -6.5002 -29.8853
# 3 11.6482 15.3511 116.8340 11.1056 -12.7819 -2.7345
# 4 0.8968 -22.1238 11.1056 47.2338 -5.8896 -8.1853
# 5 -4.8631 -6.5002 -12.7819 -5.8896 34.8951 -2.9103
# 6 -6.6932 -29.8853 -2.7345 -8.1853 -2.9103 30.0491
#
#
#
# Elastic Compliance Matrix: (Units=1/GPa)
#
#
# Indices 1 2 3 4 5 6 
#
# 1 0.017775 -0.003112 -0.001083 -0.001280 0.001330 0.000545
# 2 -0.003112 0.011906 -0.001340 0.008836 0.003937 0.013814
# 3 -0.001083 -0.001340 0.009341 -0.002708 0.002462 -0.001223
# 4 -0.001280 0.008836 -0.002708 0.029787 0.006924 0.017040
# 5 0.001330 0.003937 0.002462 0.006924 0.032436 0.009463
# 6 0.000545 0.013814 -0.001223 0.017040 0.009463 0.052586
#
#
# Mechanical properties :
#
#
# Convention : Reuss Voigt Hill
#
# Bulk Modulus (GPa) = 35.77615 47.93619 41.85617
# Shear Modulus (GPa) = 28.69935 40.54149 34.62042
#
# Velocity S-wave (km/s) = 3.49375 4.15246 3.83727
# Velocity P-wave (km/s) = 5.61171 6.58625 6.11841
#
# Compressibility (1/GPa) = 0.02795158
#
# Stress axis : x y z
#
# Youngs Moduli (GPa) = 56.25802 83.99114 107.05070
#
# Poissons Ratio (x) = 0.26141 0.11596
# Poissons Ratio (y) = 0.17509 0.14344
# Poissons Ratio (z) = 0.06094 0.11254
#
# Static dielectric constant tensor:
#      x y z
#    x 1.920410 0.005990 0.058070 
#    y 0.005990 1.917300 -0.062670 
#    z 0.058070 -0.062670 1.863230 
# 
# From -- ./inp_files/97933.got.cif
#   From: 2010.05.17/outbox.cif.g08.bks.cpg/sg2_49_cif.got.tgz:97933.got - 2010.06.03 11:33:40.
