data_PCOD9084845
_publ_section_title
;
Structure prediction by ZEFSAII (Michael W. Deem and Ramdas Pophale) SiO2 
 PCOD9084845
Probable space group: P -1
;
_chemical_formula_sum "Si O2"
_cell_formula_units_Z 16
_cell_length_a 16.511228
_cell_length_b 22.303425
_cell_length_c 7.856834
_cell_angle_alpha 49.314132
_cell_angle_beta 48.178141
_cell_angle_gamma 21.514041
_cell_volume 785.444488
_symmetry_space_group_name_H-M "P -1"
_symmetry_group_IT_number 2
_symmetry_cell_setting 'triclinic'
loop_
_space_group_symop_operation_xyz
x,y,z
-x,-y,-z
loop_
_atom_site_type_symbol
_atom_site_label
_atom_site_fract_x
_atom_site_fract_y
_atom_site_fract_z
Si Si1 0.111037 0.617108 0.485155
Si Si2 0.804046 0.134003 0.719791
Si Si3 0.349867 0.302404 0.595453
Si Si4 0.486528 0.548429 0.617720
Si Si5 0.170489 0.011328 0.323886
Si Si6 0.885823 0.323384 0.983048
Si Si7 0.986147 0.435776 0.011967
Si Si8 0.606702 0.649107 0.904500
O O1 0.247635 0.451871 0.530689
O O2 0.275063 0.578226 0.407725
O O3 0.010610 0.720031 0.264557
O O4 0.970818 0.670009 0.740876
O O5 0.649753 0.283763 0.530451
O O6 0.848246 0.024188 0.763549
O O7 0.643095 0.223093 0.940993
O O8 0.024857 0.047846 0.587761
O O9 0.576996 0.141833 0.679731
O O10 0.173112 0.342957 0.785391
O O11 0.401222 0.284132 0.359731
O O12 0.500000 0.500000 0.500000
O O13 0.336562 0.590675 0.874108
O O14 0.051402 0.170744 0.159022
O O15 0.779949 0.469191 0.942863
O O16 0.732989 0.598461 0.989802
O O17 0.000000 0.500000 0.000000
#
# Coordination Sequence:
#
# PCOD9084845 Si02
#       8
#     2   2   2   2   2   2   2   2
#     4  10  19  35  57  84 112 150 200 234 278 340
#     4  10  19  35  58  80 118 157 185 232 279 348
#     4  10  21  36  59  83 113 154 191 238 288 338
#     4  11  17  32  56  84 114 148 184 234 282 327
#     4  10  21  38  55  82 122 156 183 225 299 342
#     4  10  22  34  58  88 116 149 187 237 287 342
#     4  10  19  36  62  85 109 148 196 245 281 324
#     4  11  20  38  60  89 112 142 202 241 276 341
#
# _framework density 20.370629999999998
#
# number of rings (size 3 to 8) (size 9 to 14) (size 15 to 20)
#    0.000    1.750    3.750    1.500    0.000    0.500 
#    0.000    5.000    0.000    0.000    0.000    0.000 
#    0.000    0.000    0.000    0.000    0.000    0.000 
#
# Total GULP energy -89186.979852 kJ/mol
# GULP energy per Si atom -5574.186241 kJ/mol
# Density = 2.032427 g / cm^3
# Si number density = 20.370630 Si / 1000 Ang^3
#
#
#
# Elastic Constant Matrix: (Units=GPa)
#
#
# Indices 1 2 3 4 5 6 
#
# 1 30.5117 -6.9113 14.2053 0.7135 0.6310 -0.9828
# 2 -6.9113 50.6134 22.2535 2.7682 -2.0126 -2.0450
# 3 14.2053 22.2535 130.6925 10.1321 5.3159 -8.9666
# 4 0.7135 2.7682 10.1321 17.2986 2.2060 -5.3257
# 5 0.6310 -2.0126 5.3159 2.2060 19.5348 7.8403
# 6 -0.9828 -2.0450 -8.9666 -5.3257 7.8403 20.2968
#
#
#
# Elastic Compliance Matrix: (Units=1/GPa)
#
#
# Indices 1 2 3 4 5 6 
#
# 1 0.036910 0.007414 -0.005348 0.000230 0.001075 -0.000183
# 2 0.007414 0.023141 -0.004872 -0.002266 0.004437 -0.001770
# 3 -0.005348 -0.004872 0.009774 -0.002731 -0.004527 0.004600
# 4 0.000230 -0.002266 -0.002731 0.068971 -0.016543 0.023064
# 5 0.001075 0.004437 -0.004527 -0.016543 0.067526 -0.031926
# 6 -0.000183 -0.001770 0.004600 0.023064 -0.031926 0.069498
#
#
# Mechanical properties :
#
#
# Convention : Reuss Voigt Hill
#
# Bulk Modulus (GPa) = 15.57330 30.10139 22.83734
# Shear Modulus (GPa) = 16.51045 23.57739 20.04392
#
# Velocity S-wave (km/s) = 2.85002 3.40578 3.14022
# Velocity P-wave (km/s) = 4.30020 5.50225 4.93794
#
# Compressibility (1/GPa) = 0.06421248
#
# Stress axis : x y z
#
# Youngs Moduli (GPa) = 27.09271 43.21293 102.31240
#
# Poissons Ratio (x) = -0.32040 0.54722
# Poissons Ratio (y) = -0.20088 0.49852
# Poissons Ratio (z) = 0.14490 0.21055
#
# Static dielectric constant tensor:
#      x y z
#    x 1.807330 0.027400 0.007870 
#    y 0.027400 1.754770 0.065590 
#    z 0.007870 0.065590 1.783950 
# 
# From -- ./inp_files/272173.got.cif
#   From: 2010.05.17/outbox.cif.g08.bks.cpg/sg2_137_cif.got.tgz:272173.got - 2010.06.03 11:33:40.
