data_PCOD9084721
_publ_section_title
;
Structure prediction by ZEFSAII (Michael W. Deem and Ramdas Pophale) SiO2 
 PCOD9084721
Probable space group: P -1
;
_chemical_formula_sum "Si O2"
_cell_formula_units_Z 16
_cell_length_a 10.431534
_cell_length_b 9.049009
_cell_length_c 23.924135
_cell_angle_alpha 54.163264
_cell_angle_beta 116.972245
_cell_angle_gamma 150.033545
_cell_volume 906.406583
_symmetry_space_group_name_H-M "P -1"
_symmetry_group_IT_number 2
_symmetry_cell_setting 'triclinic'
loop_
_space_group_symop_operation_xyz
x,y,z
-x,-y,-z
loop_
_atom_site_type_symbol
_atom_site_label
_atom_site_fract_x
_atom_site_fract_y
_atom_site_fract_z
Si Si1 0.765096 0.393670 0.468773
Si Si2 0.340583 0.829446 0.330281
Si Si3 0.583047 0.863231 0.827733
Si Si4 0.158094 0.457098 0.673454
Si Si5 0.261851 0.386660 0.475466
Si Si6 0.490854 0.705206 0.967749
Si Si7 0.962937 0.259138 0.022517
Si Si8 0.918362 0.851035 0.168283
O O1 0.806129 0.538859 0.385802
O O2 0.754123 0.516636 0.491659
O O3 0.000000 0.500000 0.500000
O O4 0.500000 0.000000 0.500000
O O5 0.304011 0.580594 0.392391
O O6 0.091319 0.677435 0.336785
O O7 0.374725 0.919489 0.252359
O O8 0.591723 0.170726 0.336691
O O9 0.552876 0.871571 0.885057
O O10 0.325387 0.489647 0.837855
O O11 0.825324 0.983900 0.838658
O O12 0.121078 0.244255 0.753630
O O13 0.500000 0.500000 0.500000
O O14 0.000000 0.000000 0.500000
O O15 0.500000 0.500000 0.000000
O O16 0.210491 0.462601 0.989351
O O17 0.707294 0.975614 0.996732
O O18 0.940450 0.085505 0.105653
O O19 0.000000 0.500000 0.000000
#
# Coordination Sequence:
#
# PCOD9084721 Si02
#       8
#     2   2   2   2   2   2   2   2
#     4  12  21  38  62  86 111 148 206 237 272 342
#     4  10  20  37  57  86 117 147 191 238 296 334
#     4  10  20  34  61  87 109 147 200 249 272 332
#     4  10  19  35  60  85 109 148 199 247 273 333
#     4  12  24  38  58  87 123 152 181 238 302 347
#     4  12  21  38  63  87 115 152 210 238 276 343
#     4  12  24  38  57  89 126 156 186 241 304 348
#     4  10  19  35  56  86 116 147 191 240 296 332
#
# _framework density 17.652123
#
# number of rings (size 3 to 8) (size 9 to 14) (size 15 to 20)
#    0.000    1.000    5.000    3.000    0.000    0.000 
#    0.000    2.500    0.000    0.000    0.000    0.000 
#    0.000    0.000    0.000    0.000    0.000    0.000 
#
# Total GULP energy -89397.120930 kJ/mol
# GULP energy per Si atom -5587.320058 kJ/mol
# Density = 1.761195 g / cm^3
# Si number density = 17.652123 Si / 1000 Ang^3
#
#
#
# Elastic Constant Matrix: (Units=GPa)
#
#
# Indices 1 2 3 4 5 6 
#
# 1 74.3411 26.6179 38.1184 -5.6856 8.2974 -1.0688
# 2 26.6179 109.1077 18.9445 1.0038 10.8099 12.4203
# 3 38.1184 18.9445 169.5013 -3.3130 11.3040 -9.0745
# 4 -5.6856 1.0038 -3.3130 41.6364 6.2164 0.8065
# 5 8.2974 10.8099 11.3040 6.2164 33.9675 -1.4652
# 6 -1.0688 12.4203 -9.0745 0.8065 -1.4652 34.1869
#
#
#
# Elastic Compliance Matrix: (Units=1/GPa)
#
#
# Indices 1 2 3 4 5 6 
#
# 1 0.016747 -0.003416 -0.003137 0.002460 -0.002377 0.000772
# 2 -0.003416 0.010831 -0.000506 -0.000301 -0.002574 -0.004279
# 3 -0.003137 -0.000506 0.006854 0.000292 -0.001328 0.001841
# 4 0.002460 -0.000301 0.000292 0.025176 -0.005234 -0.000555
# 5 -0.002377 -0.002574 -0.001328 -0.005234 0.032326 0.002017
# 6 0.000772 -0.004279 0.001841 -0.000555 0.002017 0.031418
#
#
# Mechanical properties :
#
#
# Convention : Reuss Voigt Hill
#
# Bulk Modulus (GPa) = 49.22113 57.81243 53.51678
# Shear Modulus (GPa) = 34.66388 39.90945 37.28666
#
# Velocity S-wave (km/s) = 4.43620 4.76004 4.60097
# Velocity P-wave (km/s) = 7.36100 7.93931 7.65562
#
# Compressibility (1/GPa) = 0.02031648
#
# Stress axis : x y z
#
# Youngs Moduli (GPa) = 59.71066 92.32449 145.89226
#
# Poissons Ratio (x) = 0.31540 0.45759
# Poissons Ratio (y) = 0.20398 0.07377
# Poissons Ratio (z) = 0.18728 0.04669
#
# Static dielectric constant tensor:
#      x y z
#    x 1.546110 0.004940 -0.003190 
#    y 0.004940 1.556530 0.007680 
#    z -0.003190 0.007680 1.636420 
# 
# From -- ./inp_files/226403.got.cif
#   From: 2010.05.17/outbox.cif.g08.bks.cpg/sg2_114_cif.got.tgz:226403.got - 2010.06.03 11:33:40.
