data_PCOD9084811
_publ_section_title
;
Structure prediction by ZEFSAII (Michael W. Deem and Ramdas Pophale) SiO2 
 PCOD9084811
Probable space group: P -1
;
_chemical_formula_sum "Si O2"
_cell_formula_units_Z 12
_cell_length_a 6.216421
_cell_length_b 13.175502
_cell_length_c 7.743685
_cell_angle_alpha 73.719943
_cell_angle_beta 105.515347
_cell_angle_gamma 120.355212
_cell_volume 519.251626
_symmetry_space_group_name_H-M "P -1"
_symmetry_group_IT_number 2
_symmetry_cell_setting 'triclinic'
loop_
_space_group_symop_operation_xyz
x,y,z
-x,-y,-z
loop_
_atom_site_type_symbol
_atom_site_label
_atom_site_fract_x
_atom_site_fract_y
_atom_site_fract_z
Si Si1 0.744301 0.669552 0.371220
Si Si2 0.256834 0.724240 0.628902
Si Si3 0.992462 0.236514 0.113421
Si Si4 0.229774 0.073888 0.386385
Si Si5 0.055058 0.900220 0.151138
Si Si6 0.476953 0.425840 0.256532
O O1 0.811302 0.797781 0.245209
O O2 0.595669 0.565221 0.253551
O O3 0.600482 0.634004 0.539344
O O4 0.013776 0.677781 0.477131
O O5 0.494219 0.833002 0.538312
O O6 0.326892 0.619371 0.741172
O O7 0.197046 0.772261 0.771991
O O8 0.136992 0.160720 0.232080
O O9 0.223552 0.370955 0.113121
O O10 0.873984 0.175867 0.934428
O O11 0.000000 0.000000 0.500000
O O12 0.244386 0.979035 0.303247
O O13 0.000000 0.000000 0.000000
#
# Coordination Sequence:
#
# PCOD9084811 Si02
#       6
#     2   2   2   2   2   2
#     4  10  20  36  60  84 108 145 187 230 276 321
#     4  10  19  35  57  82 111 141 184 233 274 323
#     4   9  20  35  53  79 112 147 178 222 280 330
#     4  10  20  36  57  80 107 145 190 230 268 319
#     4  10  21  37  54  80 116 149 183 222 273 333
#     4   9  19  37  60  84 108 140 188 235 274 320
#
# _framework density 23.110182999999999
#
# number of rings (size 3 to 8) (size 9 to 14) (size 15 to 20)
#    0.000    2.333    0.000    3.500    0.000    4.000 
#    0.000   10.833    0.000    0.000    0.000    0.000 
#    0.000    0.000    0.000    0.000    0.000    0.000 
#
# Total GULP energy -66938.351487 kJ/mol
# GULP energy per Si atom -5578.195957 kJ/mol
# Density = 2.305758 g / cm^3
# Si number density = 23.110183 Si / 1000 Ang^3
#
#
#
# Elastic Constant Matrix: (Units=GPa)
#
#
# Indices 1 2 3 4 5 6 
#
# 1 62.1008 13.6603 -2.6229 6.6086 -10.3224 -1.0296
# 2 13.6603 157.2443 16.4173 20.6459 -8.2632 3.1255
# 3 -2.6229 16.4173 47.9100 -6.8828 -14.6854 -0.0878
# 4 6.6086 20.6459 -6.8828 36.5253 -9.8390 0.6801
# 5 -10.3224 -8.2632 -14.6854 -9.8390 19.1890 -2.5800
# 6 -1.0296 3.1255 -0.0878 0.6801 -2.5800 28.5320
#
#
#
# Elastic Compliance Matrix: (Units=1/GPa)
#
#
# Indices 1 2 3 4 5 6 
#
# 1 0.019516 -0.002144 0.007889 0.003965 0.017980 0.002495
# 2 -0.002144 0.007680 -0.005303 -0.006367 -0.005339 -0.001266
# 3 0.007889 -0.005303 0.039304 0.020519 0.043152 0.004399
# 4 0.003965 -0.006367 0.020519 0.044380 0.038294 0.003309
# 5 0.017980 -0.005339 0.043152 0.038294 0.113587 0.010725
# 6 0.002495 -0.001266 0.004399 0.003309 0.010725 0.036182
#
#
# Mechanical properties :
#
#
# Convention : Reuss Voigt Hill
#
# Bulk Modulus (GPa) = 14.84050 35.79607 25.31828
# Shear Modulus (GPa) = 17.71621 32.83596 25.27608
#
# Velocity S-wave (km/s) = 2.77175 3.77350 3.31073
# Velocity P-wave (km/s) = 4.08400 5.87441 5.05904
#
# Compressibility (1/GPa) = 0.06738318
#
# Stress axis : x y z
#
# Youngs Moduli (GPa) = 51.24033 130.20778 25.44260
#
# Poissons Ratio (x) = 0.27920 -0.20071
# Poissons Ratio (y) = 0.10987 0.13492
# Poissons Ratio (z) = -0.40422 0.69047
#
# Static dielectric constant tensor:
#      x y z
#    x 1.839510 0.034750 -0.024530 
#    y 0.034750 1.965070 0.007990 
#    z -0.024530 0.007990 1.957250 
# 
# From -- ./inp_files/133130.got.cif
#   From: 2010.05.17/outbox.cif.g08.bks.cpg/sg2_67_cif.got.tgz:133130.got - 2010.06.03 11:33:40.
