data_PCOD9084095
_publ_section_title
;
Structure prediction by ZEFSAII (Michael W. Deem and Ramdas Pophale) SiO2 
 PCOD9084095
Probable space group: P -1
;
_chemical_formula_sum "Si O2"
_cell_formula_units_Z 12
_cell_length_a 14.530581
_cell_length_b 11.153375
_cell_length_c 6.764056
_cell_angle_alpha 109.975480
_cell_angle_beta 87.480348
_cell_angle_gamma 151.027765
_cell_volume 413.480978
_symmetry_space_group_name_H-M "P -1"
_symmetry_group_IT_number 2
_symmetry_cell_setting 'triclinic'
loop_
_space_group_symop_operation_xyz
x,y,z
-x,-y,-z
loop_
_atom_site_type_symbol
_atom_site_label
_atom_site_fract_x
_atom_site_fract_y
_atom_site_fract_z
Si Si1 0.766759 0.824780 0.614172
Si Si2 0.851426 0.208621 0.730772
Si Si3 0.545437 0.232361 0.976791
Si Si4 0.107447 0.821617 0.745344
Si Si5 0.392016 0.764396 0.598769
Si Si6 0.171989 0.179576 0.849650
O O1 0.500000 0.500000 0.500000
O O2 0.798549 0.825740 0.384094
O O3 0.875306 0.102549 0.775851
O O4 0.914725 0.905212 0.757050
O O5 0.908622 0.255071 0.521408
O O6 0.587181 0.918366 0.589632
O O7 0.000000 0.500000 0.000000
O O8 0.291439 0.961155 0.902017
O O9 0.513526 0.054687 0.783527
O O10 0.670558 0.369538 0.251770
O O11 0.663358 0.489181 0.975600
O O12 0.842353 0.504735 0.645455
O O13 0.217066 0.102631 0.907191
#
# Coordination Sequence:
#
# PCOD9084095 Si02
#       6
#     2   2   2   2   2   2
#     4  10  19  34  60  88 117 157 199 242 297 355
#     4  11  22  38  62  90 121 160 201 245 300 357
#     4  11  22  41  65  89 122 161 200 248 302 355
#     4  11  24  41  63  91 122 159 202 248 300 357
#     4  11  23  41  63  88 123 161 200 248 300 355
#     4  10  20  37  59  87 121 155 198 248 296 353
#
# _framework density 29.021891
#
# number of rings (size 3 to 8) (size 9 to 14) (size 15 to 20)
#    0.000    1.333    0.000    9.000    0.000    0.667 
#    0.000    5.000    0.000    9.000    0.000    0.000 
#    0.000    0.000    0.000    0.000    0.000    0.000 
#
# Total GULP energy -67443.922907 kJ/mol
# GULP energy per Si atom -5620.326909 kJ/mol
# Density = 2.895584 g / cm^3
# Si number density = 29.021891 Si / 1000 Ang^3
#
#
#
# Elastic Constant Matrix: (Units=GPa)
#
#
# Indices 1 2 3 4 5 6 
#
# 1 196.8422 50.7392 56.4186 13.3493 0.6473 16.6257
# 2 50.7392 118.4075 37.5319 22.9212 1.5745 16.8077
# 3 56.4186 37.5319 147.2766 14.7698 -1.2721 4.2150
# 4 13.3493 22.9212 14.7698 43.8143 -1.6185 0.1946
# 5 0.6473 1.5745 -1.2721 -1.6185 72.9246 21.2196
# 6 16.6257 16.8077 4.2150 0.1946 21.2196 73.4676
#
#
#
# Elastic Compliance Matrix: (Units=1/GPa)
#
#
# Indices 1 2 3 4 5 6 
#
# 1 0.006189 -0.001891 -0.001834 -0.000266 0.000217 -0.000925
# 2 -0.001891 0.010920 -0.001537 -0.004600 0.000246 -0.002041
# 3 -0.001834 -0.001537 0.008010 -0.001336 0.000076 0.000289
# 4 -0.000266 -0.004600 -0.001336 0.025770 0.000354 0.001019
# 5 0.000217 0.000246 0.000076 0.000354 0.015008 -0.004445
# 6 -0.000925 -0.002041 0.000289 0.001019 -0.004445 0.015552
#
#
# Mechanical properties :
#
#
# Convention : Reuss Voigt Hill
#
# Bulk Modulus (GPa) = 68.51023 83.54505 76.02764
# Shear Modulus (GPa) = 51.63290 59.23042 55.43166
#
# Velocity S-wave (km/s) = 4.22252 4.52252 4.37509
# Velocity P-wave (km/s) = 6.88698 7.49135 7.19551
#
# Compressibility (1/GPa) = 0.01459636
#
# Stress axis : x y z
#
# Youngs Moduli (GPa) = 161.58648 91.57804 124.83709
#
# Poissons Ratio (x) = 0.17315 0.22894
# Poissons Ratio (y) = 0.30552 0.19182
# Poissons Ratio (z) = 0.29633 0.14072
#
# Static dielectric constant tensor:
#      x y z
#    x 2.108950 -0.036380 -0.028470 
#    y -0.036380 2.312470 -0.072750 
#    z -0.028470 -0.072750 2.235660 
# 
# From -- ./inp_files/305566.got.cif
#   From: 2010.05.17/outbox.cif.g08.bks.cpg/sg2_153_cif.got.tgz:305566.got - 2010.06.03 11:33:40.
