data_PCOD9084963
_publ_section_title
;
Structure prediction by ZEFSAII (Michael W. Deem and Ramdas Pophale) SiO2 
 PCOD9084963
Probable space group: P -1
;
_chemical_formula_sum "Si O2"
_cell_formula_units_Z 16
_cell_length_a 7.814576
_cell_length_b 13.418000
_cell_length_c 8.190954
_cell_angle_alpha 75.459525
_cell_angle_beta 117.473389
_cell_angle_gamma 96.425200
_cell_volume 737.597051
_symmetry_space_group_name_H-M "P -1"
_symmetry_group_IT_number 2
_symmetry_cell_setting 'triclinic'
loop_
_space_group_symop_operation_xyz
x,y,z
-x,-y,-z
loop_
_atom_site_type_symbol
_atom_site_label
_atom_site_fract_x
_atom_site_fract_y
_atom_site_fract_z
Si Si1 0.902143 0.909458 0.385974
Si Si2 0.213580 0.647198 0.275446
Si Si3 0.082668 0.840343 0.983924
Si Si4 0.570496 0.173604 0.107274
Si Si5 0.928248 0.559410 0.605594
Si Si6 0.375009 0.262692 0.680434
Si Si7 0.803366 0.280143 0.396109
Si Si8 0.248384 0.034199 0.069241
O O1 0.717821 0.841387 0.396540
O O2 0.841190 0.947169 0.161173
O O3 0.062599 0.820045 0.482015
O O4 0.000000 0.000000 0.500000
O O5 0.066369 0.725227 0.090278
O O6 0.160205 0.527690 0.280736
O O7 0.421913 0.688698 0.299257
O O8 0.212180 0.669909 0.456504
O O9 0.220906 0.835555 0.886844
O O10 0.875889 0.897256 0.886218
O O11 0.212687 0.913536 0.129537
O O12 0.417969 0.227915 0.898745
O O13 0.470467 0.065983 0.149473
O O14 0.605025 0.241393 0.252007
O O15 0.773787 0.644653 0.446916
O O16 0.000000 0.500000 0.500000
O O17 0.101877 0.632082 0.713583
#
# Coordination Sequence:
#
# PCOD9084963 Si02
#       8
#     2   2   2   2   2   2   2   2
#     4  10  19  35  58  81 115 150 188 231 278 334
#     4  10  19  37  59  82 111 145 194 236 273 335
#     4  10  20  36  58  82 108 156 191 227 277 343
#     4  10  21  37  58  80 121 144 188 232 285 337
#     4   9  19  36  63  78 110 149 184 231 285 338
#     4   9  20  37  59  84 109 149 189 224 287 339
#     4  10  20  37  54  87 111 145 187 234 285 327
#     4  10  20  37  58  79 115 156 190 221 291 336
#
# _framework density 21.692060000000001
#
# number of rings (size 3 to 8) (size 9 to 14) (size 15 to 20)
#    0.000    2.250    1.250    1.500    1.750    2.000 
#    9.000    6.250    0.000    0.000    0.000    0.000 
#    0.000    0.000    0.000    0.000    0.000    0.000 
#
# Total GULP energy -89104.525441 kJ/mol
# GULP energy per Si atom -5569.032840 kJ/mol
# Density = 2.164269 g / cm^3
# Si number density = 21.692060 Si / 1000 Ang^3
#
#
#
# Elastic Constant Matrix: (Units=GPa)
#
#
# Indices 1 2 3 4 5 6 
#
# 1 41.8819 14.1312 -8.1467 -3.2468 -4.8621 15.0523
# 2 14.1312 127.4652 14.4729 -14.3633 5.7482 22.5433
# 3 -8.1467 14.4729 23.6606 0.2673 7.2090 8.6877
# 4 -3.2468 -14.3633 0.2673 31.3267 4.0822 3.9339
# 5 -4.8621 5.7482 7.2090 4.0822 15.1327 -0.5681
# 6 15.0523 22.5433 8.6877 3.9339 -0.5681 36.3100
#
#
#
# Elastic Compliance Matrix: (Units=1/GPa)
#
#
# Indices 1 2 3 4 5 6 
#
# 1 0.035874 -0.002504 0.020463 0.004643 0.000775 -0.018704
# 2 -0.002504 0.010335 -0.003972 0.005753 -0.004583 -0.005123
# 3 0.020463 -0.003972 0.068576 0.006205 -0.027142 -0.023522
# 4 0.004643 0.005753 0.006205 0.038291 -0.014405 -0.011355
# 5 0.000775 -0.004583 -0.027142 -0.014405 0.085335 0.011914
# 6 -0.018704 -0.005123 -0.023522 -0.011355 0.011914 0.045519
#
#
# Mechanical properties :
#
#
# Convention : Reuss Voigt Hill
#
# Bulk Modulus (GPa) = 7.00486 25.99140 16.49813
# Shear Modulus (GPa) = 16.47216 28.05723 22.26470
#
# Velocity S-wave (km/s) = 2.75865 3.60034 3.20722
# Velocity P-wave (km/s) = 3.65829 5.41214 4.61921
#
# Compressibility (1/GPa) = 0.14275796
#
# Stress axis : x y z
#
# Youngs Moduli (GPa) = 27.87544 96.75936 14.58244
#
# Poissons Ratio (x) = 0.24232 -0.29840
# Poissons Ratio (y) = 0.06981 0.05792
# Poissons Ratio (z) = -0.57041 0.38430
#
# Static dielectric constant tensor:
#      x y z
#    x 1.902640 0.063920 -0.046220 
#    y 0.063920 1.892910 -0.059880 
#    z -0.046220 -0.059880 1.820960 
# 
# From -- ./inp_files/178194.got.cif
#   From: 2010.05.17/outbox.cif.g08.bks.cpg/sg2_90_cif.got.tgz:178194.got - 2010.06.03 11:33:40.
