data_PCOD9084509
_publ_section_title
;
Structure prediction by ZEFSAII (Michael W. Deem and Ramdas Pophale) SiO2 
 PCOD9084509
Probable space group: P -1
;
_chemical_formula_sum "Si O2"
_cell_formula_units_Z 14
_cell_length_a 15.339606
_cell_length_b 21.431636
_cell_length_c 8.109387
_cell_angle_alpha 148.021605
_cell_angle_beta 32.360140
_cell_angle_gamma 157.423265
_cell_volume 516.703833
_symmetry_space_group_name_H-M "P -1"
_symmetry_group_IT_number 2
_symmetry_cell_setting 'triclinic'
loop_
_space_group_symop_operation_xyz
x,y,z
-x,-y,-z
loop_
_atom_site_type_symbol
_atom_site_label
_atom_site_fract_x
_atom_site_fract_y
_atom_site_fract_z
Si Si1 0.918228 0.388377 0.662256
Si Si2 0.081705 0.711257 0.211582
Si Si3 0.650129 0.603553 0.333851
Si Si4 0.456825 0.608559 0.248097
Si Si5 0.200455 0.845781 0.979224
Si Si6 0.036055 0.109006 0.042120
Si Si7 0.738535 0.902006 0.754535
O O1 0.208460 0.527967 0.527345
O O2 0.820405 0.287749 0.767113
O O3 0.825338 0.270092 0.382494
O O4 0.903117 0.520920 0.990235
O O5 0.946289 0.754660 0.594886
O O6 0.254291 0.833037 0.052847
O O7 0.500000 0.500000 0.500000
O O8 0.593991 0.702760 0.560699
O O9 0.610509 0.459565 0.982021
O O10 0.934668 0.756838 0.236924
O O11 0.500000 0.500000 0.000000
O O12 0.721817 0.799434 0.235877
O O13 0.333710 0.025305 0.080325
O O14 0.804957 0.987582 0.021585
O O15 0.000000 0.000000 0.000000
O O16 0.000000 0.000000 0.500000
#
# Coordination Sequence:
#
# PCOD9084509 Si02
#       7
#     2   2   2   2   2   2   2
#     4  10  22  38  59  90 127 156 208 256 301 369
#     4  11  21  37  61  91 119 165 207 248 308 367
#     4  10  20  33  56  89 121 153 199 252 303 359
#     4  11  20  37  59  88 121 154 198 257 302 351
#     4  10  19  36  57  85 119 161 202 246 303 367
#     4  12  22  37  63  94 120 160 206 249 308 368
#     4  10  19  35  53  86 126 154 195 253 303 361
#
# _framework density 27.094826999999999
#
# number of rings (size 3 to 8) (size 9 to 14) (size 15 to 20)
#    0.000    1.429    2.857    5.571    0.000    0.000 
#    0.000    0.714    0.000    0.000    0.000   13.000 
#    0.000    0.000    0.000    0.000    0.000    0.000 
#
# Total GULP energy -78136.645997 kJ/mol
# GULP energy per Si atom -5581.189000 kJ/mol
# Density = 2.703316 g / cm^3
# Si number density = 27.094827 Si / 1000 Ang^3
#
#
#
# Elastic Constant Matrix: (Units=GPa)
#
#
# Indices 1 2 3 4 5 6 
#
# 1 135.7516 40.4387 38.1635 -0.2593 14.7590 -32.0305
# 2 40.4387 145.4797 53.8796 -11.2633 -1.0159 -30.3023
# 3 38.1635 53.8796 164.3014 24.0240 18.8415 -11.9146
# 4 -0.2593 -11.2633 24.0240 47.2596 -9.5630 1.6528
# 5 14.7590 -1.0159 18.8415 -9.5630 45.0285 -0.3949
# 6 -32.0305 -30.3023 -11.9146 1.6528 -0.3949 56.7360
#
#
#
# Elastic Compliance Matrix: (Units=1/GPa)
#
#
# Indices 1 2 3 4 5 6 
#
# 1 0.009388 -0.001377 -0.001034 -0.000456 -0.002734 0.004342
# 2 -0.001377 0.009745 -0.003681 0.004719 0.003245 0.003540
# 3 -0.001034 -0.003681 0.008996 -0.006425 -0.004877 -0.000508
# 4 -0.000456 0.004719 -0.006425 0.027312 0.008746 0.000179
# 5 -0.002734 0.003245 -0.004877 0.008746 0.027068 -0.000901
# 6 0.004342 0.003540 -0.000508 0.000179 -0.000901 0.021849
#
#
# Mechanical properties :
#
#
# Convention : Reuss Voigt Hill
#
# Bulk Modulus (GPa) = 62.71664 78.94404 70.83034
# Shear Modulus (GPa) = 41.03161 50.67490 45.85325
#
# Velocity S-wave (km/s) = 3.89571 4.32936 4.11825
# Velocity P-wave (km/s) = 6.59036 7.36143 6.98654
#
# Compressibility (1/GPa) = 0.01594473
#
# Stress axis : x y z
#
# Youngs Moduli (GPa) = 106.51841 102.61401 111.16262
#
# Poissons Ratio (x) = 0.14126 0.11495
# Poissons Ratio (y) = 0.14663 0.40924
# Poissons Ratio (z) = 0.11015 0.37777
#
# Static dielectric constant tensor:
#      x y z
#    x 4.526990 -0.049620 1.763960 
#    y -0.049620 2.242440 -0.319990 
#    z 1.763960 -0.319990 4.582610 
# 
# From -- ./inp_files/179970.got.cif
#   From: 2010.05.17/outbox.cif.g08.bks.cpg/sg2_90_cif.got.tgz:179970.got - 2010.06.03 11:33:40.
