data_PCOD9084382
_publ_section_title
;
Structure prediction by ZEFSAII (Michael W. Deem and Ramdas Pophale) SiO2 
 PCOD9084382
Probable space group: P -1
;
_chemical_formula_sum "Si O2"
_cell_formula_units_Z 16
_cell_length_a 11.661253
_cell_length_b 11.109935
_cell_length_c 12.911639
_cell_angle_alpha 34.166809
_cell_angle_beta 71.949893
_cell_angle_gamma 53.685951
_cell_volume 694.414842
_symmetry_space_group_name_H-M "P -1"
_symmetry_group_IT_number 2
_symmetry_cell_setting 'triclinic'
loop_
_space_group_symop_operation_xyz
x,y,z
-x,-y,-z
loop_
_atom_site_type_symbol
_atom_site_label
_atom_site_fract_x
_atom_site_fract_y
_atom_site_fract_z
Si Si1 0.915690 0.371401 0.090018
Si Si2 0.822728 0.719955 0.241894
Si Si3 0.823303 0.255360 0.600368
Si Si4 0.396465 0.849493 0.837754
Si Si5 0.371894 0.352696 0.900620
Si Si6 0.105920 0.681261 0.232223
Si Si7 0.678905 0.550427 0.851222
Si Si8 0.389201 0.851870 0.182860
O O1 0.805900 0.424178 0.178219
O O2 0.800644 0.524705 0.914003
O O3 0.041099 0.051054 0.257489
O O4 0.000000 0.500000 0.000000
O O5 0.810462 0.489085 0.374610
O O6 0.997304 0.598528 0.299709
O O7 0.727121 0.866663 0.270478
O O8 0.740630 0.952851 0.009337
O O9 0.861539 0.304805 0.668351
O O10 0.673739 0.273014 0.644388
O O11 0.500895 0.814373 0.737982
O O12 0.528745 0.667812 0.017154
O O13 0.318033 0.708631 0.939787
O O14 0.453640 0.363020 0.771085
O O15 0.403817 0.059748 0.092135
O O16 0.256998 0.499409 0.247071
O O17 0.000000 0.000000 0.000000
#
# Coordination Sequence:
#
# PCOD9084382 Si02
#       8
#     2   2   2   2   2   2   2   2
#     4  11  20  35  59  91 119 157 201 240 296 358
#     4  11  22  37  59  91 122 153 198 244 297 355
#     4  12  23  37  61  89 121 158 195 246 300 351
#     4   9  18  36  57  92 117 147 204 243 290 355
#     4   9  19  34  62  82 114 160 197 241 291 346
#     4  12  19  36  60  89 118 156 197 240 293 355
#     4  10  19  34  64  87 115 159 195 242 297 343
#     4  10  19  39  59  82 116 156 199 239 292 354
#
# _framework density 23.040980000000001
#
# number of rings (size 3 to 8) (size 9 to 14) (size 15 to 20)
#    0.000    1.500    5.000    1.125    0.000    0.000 
#    0.000    8.125    0.000    0.000    0.000    0.000 
#    0.000    0.000    0.000    0.000    0.000    0.000 
#
# Total GULP energy -89462.392096 kJ/mol
# GULP energy per Si atom -5591.399506 kJ/mol
# Density = 2.298854 g / cm^3
# Si number density = 23.040980 Si / 1000 Ang^3
#
#
#
# Elastic Constant Matrix: (Units=GPa)
#
#
# Indices 1 2 3 4 5 6 
#
# 1 122.1931 39.8454 23.8285 5.4166 -23.0171 -6.2670
# 2 39.8454 178.9986 32.5748 0.2266 -14.2210 -23.9493
# 3 23.8285 32.5748 69.8272 -0.7342 -20.5494 -7.9450
# 4 5.4166 0.2266 -0.7342 18.8702 4.2387 -8.1126
# 5 -23.0171 -14.2210 -20.5494 4.2387 31.0699 7.3885
# 6 -6.2670 -23.9493 -7.9450 -8.1126 7.3885 47.4703
#
#
#
# Elastic Compliance Matrix: (Units=1/GPa)
#
#
# Indices 1 2 3 4 5 6 
#
# 1 0.010518 -0.001831 -0.000750 -0.005511 0.007636 -0.001791
# 2 -0.001831 0.006796 -0.002415 0.001946 -0.000882 0.003253
# 3 -0.000750 -0.002415 0.018942 -0.001579 0.011118 -0.000147
# 4 -0.005511 0.001946 -0.001579 0.063887 -0.016144 0.013421
# 5 0.007636 -0.000882 0.011118 -0.016144 0.048883 -0.007943
# 6 -0.001791 0.003253 -0.000147 0.013421 -0.007943 0.025976
#
#
# Mechanical properties :
#
#
# Convention : Reuss Voigt Hill
#
# Bulk Modulus (GPa) = 38.07272 62.61293 50.34283
# Shear Modulus (GPa) = 25.80677 37.80008 31.80342
#
# Velocity S-wave (km/s) = 3.35033 4.05478 3.71927
# Velocity P-wave (km/s) = 5.61481 7.01108 6.35143
#
# Compressibility (1/GPa) = 0.02626553
#
# Stress axis : x y z
#
# Youngs Moduli (GPa) = 95.07752 147.13847 52.79317
#
# Poissons Ratio (x) = 0.26939 0.03958
# Poissons Ratio (y) = 0.17407 0.12748
# Poissons Ratio (z) = 0.07128 0.35529
#
# Static dielectric constant tensor:
#      x y z
#    x 1.872570 -0.007540 0.034140 
#    y -0.007540 1.885370 0.029210 
#    z 0.034140 0.029210 1.871830 
# 
# From -- ./inp_files/389367.got.cif
#   From: 2010.05.17/outbox.cif.g08.bks.cpg/sg2_195_cif.got.tgz:389367.got - 2010.06.03 11:33:40.
