data_PCOD9084523
_publ_section_title
;
Structure prediction by ZEFSAII (Michael W. Deem and Ramdas Pophale) SiO2 
 PCOD9084523
Probable space group: P -1
;
_chemical_formula_sum "Si O2"
_cell_formula_units_Z 14
_cell_length_a 9.068999
_cell_length_b 5.218173
_cell_length_c 17.765745
_cell_angle_alpha 113.362063
_cell_angle_beta 61.581222
_cell_angle_gamma 128.871016
_cell_volume 569.775392
_symmetry_space_group_name_H-M "P -1"
_symmetry_group_IT_number 2
_symmetry_cell_setting 'triclinic'
loop_
_space_group_symop_operation_xyz
x,y,z
-x,-y,-z
loop_
_atom_site_type_symbol
_atom_site_label
_atom_site_fract_x
_atom_site_fract_y
_atom_site_fract_z
Si Si1 0.515050 0.705453 0.132292
Si Si2 0.844551 0.399015 0.869293
Si Si3 0.507155 0.840769 0.557217
Si Si4 0.315455 0.737789 0.959934
Si Si5 0.227290 0.252788 0.266963
Si Si6 0.892424 0.305575 0.295339
Si Si7 0.855259 0.028430 0.594285
O O1 0.322158 0.513327 0.099256
O O2 0.651109 0.559100 0.093677
O O3 0.384951 0.601950 0.228744
O O4 0.651087 0.063508 0.101829
O O5 0.040173 0.642969 0.801647
O O6 0.754098 0.032986 0.811335
O O7 0.865363 0.379595 0.950904
O O8 0.500000 0.500000 0.500000
O O9 0.331349 0.812534 0.647106
O O10 0.709008 0.060286 0.579572
O O11 0.500000 0.000000 0.500000
O O12 0.500000 0.000000 0.000000
O O13 0.260363 0.258398 0.348594
O O14 0.998893 0.138067 0.290093
O O15 0.012801 0.659417 0.348748
O O16 0.000000 0.000000 0.500000
#
# Coordination Sequence:
#
# PCOD9084523 Si02
#       7
#     2   2   2   2   2   2   2
#     4  10  17  28  47  81 124 155 200 253 296 354
#     4   9  18  30  51  82 125 159 198 252 300 356
#     4  12  27  45  67  92 122 161 209 258 313 372
#     4  10  16  25  47  79 120 159 197 248 300 352
#     4  10  20  34  56  88 124 161 205 255 305 365
#     4  10  23  39  62  93 128 162 208 257 308 370
#     4  11  23  42  66  90 124 162 209 256 315 367
#
# _framework density 24.571085
#
# number of rings (size 3 to 8) (size 9 to 14) (size 15 to 20)
#    0.000    1.714    4.286    2.571    6.000    1.143 
#    0.000    0.000    0.000    0.000    0.000    2.000 
#    0.000   22.286    0.000    0.571    0.000    0.000 
#
# Total GULP energy -78182.417898 kJ/mol
# GULP energy per Si atom -5584.458421 kJ/mol
# Density = 2.451516 g / cm^3
# Si number density = 24.571085 Si / 1000 Ang^3
#
#
#
# Elastic Constant Matrix: (Units=GPa)
#
#
# Indices 1 2 3 4 5 6 
#
# 1 118.7101 49.5957 83.4988 -24.6607 6.3664 -19.6918
# 2 49.5957 59.8901 29.2444 -11.7170 4.9799 -34.4460
# 3 83.4988 29.2444 164.9853 -35.8029 -2.7685 -14.1154
# 4 -24.6607 -11.7170 -35.8029 40.9553 -5.7980 4.0864
# 5 6.3664 4.9799 -2.7685 -5.7980 51.9907 -3.2222
# 6 -19.6918 -34.4460 -14.1154 4.0864 -3.2222 45.5685
#
#
#
# Elastic Compliance Matrix: (Units=1/GPa)
#
#
# Indices 1 2 3 4 5 6 
#
# 1 0.019426 -0.015464 -0.007348 0.001213 -0.001512 -0.005787
# 2 -0.015464 0.044601 0.002999 0.003291 -0.000138 0.027656
# 3 -0.007348 0.002999 0.010733 0.005893 0.001967 0.002027
# 4 0.001213 0.003291 0.005893 0.031511 0.003504 0.002259
# 5 -0.001512 -0.000138 0.001967 0.003504 0.019987 0.000951
# 6 -0.005787 0.027656 0.002027 0.002259 0.000951 0.040842
#
#
# Mechanical properties :
#
#
# Convention : Reuss Voigt Hill
#
# Bulk Modulus (GPa) = 28.46268 74.25149 51.35708
# Shear Modulus (GPa) = 22.88981 39.78600 31.33791
#
# Velocity S-wave (km/s) = 3.05548 4.02832 3.57515
# Velocity P-wave (km/s) = 4.90479 7.20563 6.16352
#
# Compressibility (1/GPa) = 0.03513372
#
# Stress axis : x y z
#
# Youngs Moduli (GPa) = 51.47741 22.42126 93.16650
#
# Poissons Ratio (x) = 0.34673 0.68455
# Poissons Ratio (y) = 0.79606 -0.27937
# Poissons Ratio (z) = 0.37823 -0.06723
#
# Static dielectric constant tensor:
#      x y z
#    x 1.990500 0.014600 -0.031620 
#    y 0.014600 2.098150 -0.057960 
#    z -0.031620 -0.057960 2.015410 
# 
# From -- ./inp_files/552778.got.cif
#   From: 2010.05.17/outbox.cif.g08.bks.cpg/sg2_277_cif.got.tgz:552778.got - 2010.06.03 11:33:40.
