data_PCOD9084465
_publ_section_title
;
Structure prediction by ZEFSAII (Michael W. Deem and Ramdas Pophale) SiO2 
 PCOD9084465
Probable space group: P -1
;
_chemical_formula_sum "Si O2"
_cell_formula_units_Z 16
_cell_length_a 11.819557
_cell_length_b 14.921356
_cell_length_c 15.224996
_cell_angle_alpha 38.844207
_cell_angle_beta 141.408028
_cell_angle_gamma 150.475116
_cell_volume 781.652465
_symmetry_space_group_name_H-M "P -1"
_symmetry_group_IT_number 2
_symmetry_cell_setting 'triclinic'
loop_
_space_group_symop_operation_xyz
x,y,z
-x,-y,-z
loop_
_atom_site_type_symbol
_atom_site_label
_atom_site_fract_x
_atom_site_fract_y
_atom_site_fract_z
Si Si1 0.541762 0.629230 0.561961
Si Si2 0.870111 0.032439 0.543122
Si Si3 0.426102 0.004198 0.299940
Si Si4 0.194728 0.447976 0.333304
Si Si5 0.818126 0.914138 0.782179
Si Si6 0.439582 0.496659 0.786793
Si Si7 0.242144 0.579214 0.901924
Si Si8 0.048623 0.264939 0.875941
O O1 0.762612 0.850309 0.555682
O O2 0.377542 0.598439 0.405449
O O3 0.652792 0.538763 0.663505
O O4 0.384499 0.520767 0.637286
O O5 0.970954 0.026334 0.701370
O O6 0.630198 0.996881 0.451363
O O7 0.051399 0.236218 0.449956
O O8 0.286057 0.001064 0.298719
O O9 0.565123 0.204459 0.181254
O O10 0.219472 0.833359 0.241742
O O11 0.994435 0.460502 0.178037
O O12 0.590674 0.700295 0.772480
O O13 0.950076 0.884130 0.956918
O O14 0.217175 0.341571 0.833543
O O15 0.622601 0.458337 0.922737
O O16 0.161586 0.440641 0.875765
#
# Coordination Sequence:
#
# PCOD9084465 Si02
#       8
#     2   2   2   2   2   2   2   2
#     4  10  22  40  56  80 101 142 186 218 269 311
#     4  10  22  36  55  80 109 139 176 224 264 314
#     4  11  20  32  53  81 111 144 175 207 261 324
#     4  10  22  39  60  75 106 139 181 230 262 310
#     4  10  19  35  51  79 113 144 173 206 264 323
#     4  10  20  36  56  77 114 142 173 219 261 316
#     4  10  20  37  54  82 109 140 175 219 268 310
#     4  11  20  34  55  79 116 143 167 217 261 320
#
# _framework density 20.469453999999999
#
# number of rings (size 3 to 8) (size 9 to 14) (size 15 to 20)
#    0.000    1.750    2.500    2.625    1.750    0.500 
#    0.000    1.875    0.000    0.000    0.000   17.500 
#    0.000    0.000    0.000    0.000    0.000    0.000 
#
# Total GULP energy -89370.620919 kJ/mol
# GULP energy per Si atom -5585.663807 kJ/mol
# Density = 2.042287 g / cm^3
# Si number density = 20.469454 Si / 1000 Ang^3
#
#
#
# Elastic Constant Matrix: (Units=GPa)
#
#
# Indices 1 2 3 4 5 6 
#
# 1 31.3170 -0.0605 -0.4947 -10.1725 6.4117 -2.3115
# 2 -0.0605 32.8336 -6.7046 -7.1765 -4.8364 9.4873
# 3 -0.4947 -6.7046 23.9680 -16.7172 -3.9316 10.8030
# 4 -10.1725 -7.1765 -16.7172 9.0314 1.4040 13.2365
# 5 6.4117 -4.8364 -3.9316 1.4040 27.3676 0.9492
# 6 -2.3115 9.4873 10.8030 13.2365 0.9492 10.9950
#
#
#
# Elastic Compliance Matrix: (Units=1/GPa)
#
#
# Indices 1 2 3 4 5 6 
#
# 1 0.036719 -0.006221 -0.006391 0.004538 -0.011369 0.014884
# 2 -0.006221 0.023162 -0.008810 -0.017621 0.004906 0.008153
# 3 -0.006391 -0.008810 0.012682 -0.023941 0.002213 0.022429
# 4 0.004538 -0.017621 -0.023941 0.000493 -0.009025 0.039867
# 5 -0.011369 0.004906 0.002213 -0.009025 0.040902 -0.001464
# 6 0.014884 0.008153 0.022429 0.039867 -0.001464 0.017140
#
#
# Mechanical properties :
#
#
# Convention : Reuss Voigt Hill
#
# Bulk Modulus (GPa) = 33.64881 8.17769 20.91325
# Shear Modulus (GPa) = 27.19665 15.83737 21.51701
#
# Velocity S-wave (km/s) = 3.64901 2.78458 3.24570
# Velocity P-wave (km/s) = 5.85047 3.78711 4.92799
#
# Compressibility (1/GPa) = 0.02971873
#
# Stress axis : x y z
#
# Youngs Moduli (GPa) = 27.23392 43.17510 78.85445
#
# Poissons Ratio (x) = 0.26859 0.50394
# Poissons Ratio (y) = 0.16942 0.69470
# Poissons Ratio (z) = 0.17405 0.38037
#
# Static dielectric constant tensor:
#      x y z
#    x 1.707480 -0.013490 -0.005720 
#    y -0.013490 1.722740 -0.006020 
#    z -0.005720 -0.006020 1.738020 
# 
# From -- ./inp_files/199403.got.cif
#   From: 2010.05.17/outbox.cif.g08.bks.cpg/sg2_100_cif.got.tgz:199403.got - 2010.06.03 11:33:40.
