data_PCOD9084732
_publ_section_title
;
Structure prediction by ZEFSAII (Michael W. Deem and Ramdas Pophale) SiO2 
 PCOD9084732
Probable space group: P -1
;
_chemical_formula_sum "Si O2"
_cell_formula_units_Z 16
_cell_length_a 13.289609
_cell_length_b 12.117397
_cell_length_c 15.898425
_cell_angle_alpha 25.425758
_cell_angle_beta 46.027474
_cell_angle_gamma 52.500745
_cell_volume 789.676485
_symmetry_space_group_name_H-M "P -1"
_symmetry_group_IT_number 2
_symmetry_cell_setting 'triclinic'
loop_
_space_group_symop_operation_xyz
x,y,z
-x,-y,-z
loop_
_atom_site_type_symbol
_atom_site_label
_atom_site_fract_x
_atom_site_fract_y
_atom_site_fract_z
Si Si1 0.837027 0.395712 0.076521
Si Si2 0.875941 0.991428 0.672042
Si Si3 0.588992 0.763797 0.748231
Si Si4 0.171034 0.343629 0.449293
Si Si5 0.803250 0.106743 0.467546
Si Si6 0.685731 0.026338 0.276606
Si Si7 0.912772 0.923351 0.877898
Si Si8 0.137396 0.918274 0.027061
O O1 0.787705 0.294511 0.267273
O O2 0.755075 0.236093 0.159103
O O3 0.833610 0.700994 0.865418
O O4 0.999607 0.325517 0.021310
O O5 0.046518 0.015511 0.554853
O O6 0.820852 0.184313 0.501734
O O7 0.829658 0.997683 0.791636
O O8 0.718714 0.707547 0.652630
O O9 0.666929 0.911030 0.677739
O O10 0.479335 0.948567 0.643546
O O11 0.500000 0.500000 0.000000
O O12 0.258006 0.251232 0.542385
O O13 0.124053 0.628373 0.269873
O O14 0.037182 0.146412 0.658943
O O15 0.740855 0.081540 0.112704
O O16 0.841145 0.910702 0.019060
O O17 0.000000 0.000000 0.000000
#
# Coordination Sequence:
#
# PCOD9084732 Si02
#       8
#     2   2   2   2   2   2   2   2
#     4  10  19  35  56  87 116 148 193 244 302 348
#     4  10  20  36  57  85 119 155 192 251 301 337
#     4  12  21  37  59  89 126 159 196 248 297 362
#     4  11  22  38  56  87 122 156 193 242 307 352
#     4  10  20  33  52  84 117 147 194 238 294 349
#     4  11  23  37  60  90 126 156 192 245 304 358
#     4  10  20  37  55  85 121 150 195 240 296 359
#     4  12  23  38  58  86 121 162 197 242 294 367
#
# _framework density 20.261462000000002
#
# number of rings (size 3 to 8) (size 9 to 14) (size 15 to 20)
#    0.000    1.250    7.500    3.000    0.000    0.000 
#    2.250    0.000    0.000    0.750    0.000    4.375 
#    0.000    0.000    0.000    0.000    0.000    0.000 
#
# Total GULP energy -89182.379001 kJ/mol
# GULP energy per Si atom -5573.898688 kJ/mol
# Density = 2.021535 g / cm^3
# Si number density = 20.261462 Si / 1000 Ang^3
#
#
#
# Elastic Constant Matrix: (Units=GPa)
#
#
# Indices 1 2 3 4 5 6 
#
# 1 116.1851 36.8027 38.2482 7.8799 11.9233 17.7060
# 2 36.8027 73.2038 15.3086 8.9172 15.3024 6.0135
# 3 38.2482 15.3086 68.9358 -7.2636 14.7800 -4.9648
# 4 7.8799 8.9172 -7.2636 27.3146 0.9224 14.8423
# 5 11.9233 15.3024 14.7800 0.9224 35.8867 10.4620
# 6 17.7060 6.0135 -4.9648 14.8423 10.4620 27.1435
#
#
#
# Elastic Compliance Matrix: (Units=1/GPa)
#
#
# Indices 1 2 3 4 5 6 
#
# 1 0.014546 -0.005756 -0.008515 0.002240 0.004818 -0.012852
# 2 -0.005756 0.018507 0.000501 -0.007864 -0.008069 0.007157
# 3 -0.008515 0.000501 0.022425 0.001787 -0.010324 0.012547
# 4 0.002240 -0.007864 0.001787 0.057675 0.010599 -0.035014
# 5 0.004818 -0.008069 -0.010324 0.010599 0.040918 -0.024810
# 6 -0.012852 0.007157 0.012547 -0.035014 -0.024810 0.074643
#
#
# Mechanical properties :
#
#
# Convention : Reuss Voigt Hill
#
# Bulk Modulus (GPa) = 35.79506 48.78264 42.28885
# Shear Modulus (GPa) = 18.82781 29.26664 24.04723
#
# Velocity S-wave (km/s) = 3.05166 3.80471 3.44880
# Velocity P-wave (km/s) = 5.48833 6.59014 6.06431
#
# Compressibility (1/GPa) = 0.02793682
#
# Stress axis : x y z
#
# Youngs Moduli (GPa) = 68.74923 54.03500 44.59372
#
# Poissons Ratio (x) = 0.31104 0.37970
# Poissons Ratio (y) = 0.39574 -0.02234
# Poissons Ratio (z) = 0.58538 -0.02707
#
# Static dielectric constant tensor:
#      x y z
#    x 1.768800 0.047380 0.053210 
#    y 0.047380 1.774300 -0.016620 
#    z 0.053210 -0.016620 1.798760 
# 
# From -- ./inp_files/424950.got.cif
#   From: 2010.05.17/outbox.cif.g08.bks.cpg/sg2_213_cif.got.tgz:424950.got - 2010.06.03 11:33:40.
