data_PCOD9084113
_publ_section_title
;
Structure prediction by ZEFSAII (Michael W. Deem and Ramdas Pophale) SiO2 
 PCOD9084113
Probable space group: P -1
;
_chemical_formula_sum "Si O2"
_cell_formula_units_Z 16
_cell_length_a 7.557301
_cell_length_b 12.175759
_cell_length_c 10.444259
_cell_angle_alpha 59.845014
_cell_angle_beta 120.626838
_cell_angle_gamma 131.013185
_cell_volume 602.746022
_symmetry_space_group_name_H-M "P -1"
_symmetry_group_IT_number 2
_symmetry_cell_setting 'triclinic'
loop_
_space_group_symop_operation_xyz
x,y,z
-x,-y,-z
loop_
_atom_site_type_symbol
_atom_site_label
_atom_site_fract_x
_atom_site_fract_y
_atom_site_fract_z
Si Si1 0.628388 0.432804 0.487292
Si Si2 0.757683 0.491868 0.962914
Si Si3 0.750252 0.033839 0.131929
Si Si4 0.110360 0.896482 0.118233
Si Si5 0.310592 0.279714 0.763366
Si Si6 0.491857 0.104684 0.329135
Si Si7 0.866686 0.439406 0.297114
Si Si8 0.203960 0.220306 0.311188
O O1 0.615730 0.582674 0.386273
O O2 0.755808 0.437506 0.394486
O O3 0.372258 0.273934 0.468352
O O4 0.839216 0.463616 0.646617
O O5 0.766516 0.495990 0.116243
O O6 0.519478 0.339806 0.912807
O O7 0.742515 0.623199 0.816318
O O8 0.000000 0.500000 0.000000
O O9 0.726880 0.873674 0.212869
O O10 0.911464 0.112847 0.270550
O O11 0.500000 0.000000 0.000000
O O12 0.906630 0.153563 0.004127
O O13 0.943580 0.768079 0.232996
O O14 0.375143 0.005469 0.216051
O O15 0.000000 0.000000 0.000000
O O16 0.748523 0.263337 0.321063
O O17 0.302882 0.146154 0.293387
O O18 0.500000 0.000000 0.500000
#
# Coordination Sequence:
#
# PCOD9084113 Si02
#       8
#     2   2   2   2   2   2   2   2
#     4   9  21  37  60  92 122 158 204 266 316 371
#     4  11  24  40  64  90 129 171 213 262 316 378
#     4  11  22  36  61  91 128 161 210 264 313 376
#     4  10  19  34  60  90 116 159 209 258 314 360
#     4  10  20  37  62  86 121 162 211 261 316 371
#     4  11  21  37  64  97 127 160 207 270 318 370
#     4  10  21  37  63  93 127 161 213 259 317 374
#     4  10  22  39  59  93 125 162 212 262 311 374
#
# _framework density 26.545179000000001
#
# number of rings (size 3 to 8) (size 9 to 14) (size 15 to 20)
#    0.000    1.750    2.500    3.000    3.500    2.500 
#    0.000    2.500    2.750    3.000    0.000    0.000 
#    0.000    0.000    0.000    0.000    0.000    0.000 
#
# Total GULP energy -89487.478370 kJ/mol
# GULP energy per Si atom -5592.967398 kJ/mol
# Density = 2.648476 g / cm^3
# Si number density = 26.545179 Si / 1000 Ang^3
#
#
#
# Elastic Constant Matrix: (Units=GPa)
#
#
# Indices 1 2 3 4 5 6 
#
# 1 48.8383 11.4805 2.7094 13.7915 16.8456 0.7099
# 2 11.4805 183.6336 48.6831 39.1127 15.0486 12.6855
# 3 2.7094 48.6831 112.6049 16.6771 9.0737 2.0032
# 4 13.7915 39.1127 16.6771 68.9573 4.7521 9.7798
# 5 16.8456 15.0486 9.0737 4.7521 33.4835 10.4985
# 6 0.7099 12.6855 2.0032 9.7798 10.4985 37.7284
#
#
#
# Elastic Compliance Matrix: (Units=1/GPa)
#
#
# Indices 1 2 3 4 5 6 
#
# 1 0.026902 -0.000008 0.001243 -0.005362 -0.014641 0.004894
# 2 -0.000008 0.006948 -0.002386 -0.003112 -0.001743 -0.000918
# 3 0.001243 -0.002386 0.010270 -0.001388 -0.002547 0.001302
# 4 -0.005362 -0.003112 -0.001388 0.018069 0.003280 -0.004376
# 5 -0.014641 -0.001743 -0.002547 0.003280 0.041845 -0.011497
# 6 0.004894 -0.000918 0.001302 -0.004376 -0.011497 0.030986
#
#
# Mechanical properties :
#
#
# Convention : Reuss Voigt Hill
#
# Bulk Modulus (GPa) = 23.91321 52.31367 38.11344
# Shear Modulus (GPa) = 33.05569 46.84743 39.95156
#
# Velocity S-wave (km/s) = 3.53265 4.20553 3.88369
# Velocity P-wave (km/s) = 5.06632 6.58272 5.87366
#
# Compressibility (1/GPa) = 0.04181789
#
# Stress axis : x y z
#
# Youngs Moduli (GPa) = 37.17237 143.93352 97.37199
#
# Poissons Ratio (x) = 0.00109 -0.12101
# Poissons Ratio (y) = 0.00028 0.23232
# Poissons Ratio (z) = -0.04620 0.34341
#
# Static dielectric constant tensor:
#      x y z
#    x 2.328910 0.082410 -0.054830 
#    y 0.082410 2.076900 0.019590 
#    z -0.054830 0.019590 1.998060 
# 
# From -- ./inp_files/398670.got.cif
#   From: 2010.05.17/outbox.cif.g08.bks.cpg/sg2_200_cif.got.tgz:398670.got - 2010.06.03 11:33:40.
