data_PCOD9084891
_publ_section_title
;
Structure prediction by ZEFSAII (Michael W. Deem and Ramdas Pophale) SiO2 
 PCOD9084891
Probable space group: P -1
;
_chemical_formula_sum "Si O2"
_cell_formula_units_Z 14
_cell_length_a 23.272402
_cell_length_b 6.115023
_cell_length_c 10.167867
_cell_angle_alpha 141.815143
_cell_angle_beta 140.039983
_cell_angle_gamma 54.247438
_cell_volume 573.915953
_symmetry_space_group_name_H-M "P -1"
_symmetry_group_IT_number 2
_symmetry_cell_setting 'triclinic'
loop_
_space_group_symop_operation_xyz
x,y,z
-x,-y,-z
loop_
_atom_site_type_symbol
_atom_site_label
_atom_site_fract_x
_atom_site_fract_y
_atom_site_fract_z
Si Si1 0.711547 0.719105 0.987511
Si Si2 0.081166 0.323013 0.919296
Si Si3 0.454955 0.499864 0.276849
Si Si4 0.619950 0.729563 0.546523
Si Si5 0.901378 0.922561 0.459052
Si Si6 0.097230 0.096572 0.276311
Si Si7 0.220741 0.082685 0.247997
O O1 0.634495 0.745345 0.975363
O O2 0.671529 0.761353 0.791718
O O3 0.747358 0.317840 0.866095
O O4 0.796344 0.979711 0.285925
O O5 0.080252 0.273542 0.737950
O O6 0.122835 0.716060 0.197394
O O7 0.978838 0.233756 0.739388
O O8 0.146607 0.085895 0.004262
O O9 0.500000 0.500000 0.500000
O O10 0.534826 0.455846 0.291416
O O11 0.419931 0.889503 0.372599
O O12 0.692492 0.684584 0.538402
O O13 0.911566 0.699225 0.506007
O O14 0.169694 0.208384 0.348346
O O15 0.000000 0.000000 0.000000
#
# Coordination Sequence:
#
# PCOD9084891 Si02
#       7
#     2   2   2   2   2   2   2
#     4  10  19  35  57  88 116 153 201 239 295 347
#     4  11  24  42  55  84 118 157 204 245 291 346
#     4   8  16  29  55  86 119 149 191 242 290 352
#     4   9  16  32  54  87 118 152 192 241 293 350
#     4  11  23  39  61  82 120 157 198 251 289 342
#     4  12  25  40  57  84 118 159 204 244 293 349
#     4  11  20  37  59  80 123 154 196 245 288 353
#
# _framework density 24.393815
#
# number of rings (size 3 to 8) (size 9 to 14) (size 15 to 20)
#    0.000    1.714    4.286    0.429    0.000    3.429 
#    0.000    0.000    0.000    0.857    0.000   41.000 
#    0.000    0.000    0.000    0.000    0.000    0.000 
#
# Total GULP energy -78156.554623 kJ/mol
# GULP energy per Si atom -5582.611045 kJ/mol
# Density = 2.433829 g / cm^3
# Si number density = 24.393815 Si / 1000 Ang^3
#
#
#
# Elastic Constant Matrix: (Units=GPa)
#
#
# Indices 1 2 3 4 5 6 
#
# 1 258.4465 27.2921 57.6958 -0.4933 39.6436 56.0539
# 2 27.2921 120.7739 34.5296 -30.2484 1.5258 4.4051
# 3 57.6958 34.5296 68.0882 -16.7982 19.4761 8.0737
# 4 -0.4933 -30.2484 -16.7982 44.5963 14.2040 4.9910
# 5 39.6436 1.5258 19.4761 14.2040 56.8939 1.9197
# 6 56.0539 4.4051 8.0737 4.9910 1.9197 33.9038
#
#
#
# Elastic Compliance Matrix: (Units=1/GPa)
#
#
# Indices 1 2 3 4 5 6 
#
# 1 0.008059 0.000160 -0.003855 0.001488 -0.004253 -0.012404
# 2 0.000160 0.010999 -0.003712 0.006478 -0.000695 -0.001724
# 3 -0.003855 -0.003712 0.024272 0.009041 -0.007786 0.000186
# 4 0.001488 0.006478 0.009041 0.035435 -0.012817 -0.009946
# 5 -0.004253 -0.000695 -0.007786 -0.012817 0.026107 0.009384
# 6 -0.012404 -0.001724 0.000186 -0.009946 0.009384 0.051116
#
#
# Mechanical properties :
#
#
# Convention : Reuss Voigt Hill
#
# Bulk Modulus (GPa) = 35.06914 76.26041 55.66477
# Shear Modulus (GPa) = 27.73037 48.93154 38.33095
#
# Velocity S-wave (km/s) = 3.37527 4.48359 3.96831
# Velocity P-wave (km/s) = 5.44035 7.62453 6.62310
#
# Compressibility (1/GPa) = 0.02851510
#
# Stress axis : x y z
#
# Youngs Moduli (GPa) = 124.09164 90.91510 41.19977
#
# Poissons Ratio (x) = -0.01456 0.15883
# Poissons Ratio (y) = -0.01987 0.15294
# Poissons Ratio (z) = 0.47840 0.33750
#
# Static dielectric constant tensor:
#      x y z
#    x 2.019840 -0.004320 0.004940 
#    y -0.004320 1.951880 0.011230 
#    z 0.004940 0.011230 1.917320 
# 
# From -- ./inp_files/81317.got.cif
#   From: 2010.05.17/outbox.cif.g08.bks.cpg/sg2_41_cif.got.tgz:81317.got - 2010.06.03 11:33:40.
