data_PCOD9084777
_publ_section_title
;
Structure prediction by ZEFSAII (Michael W. Deem and Ramdas Pophale) SiO2 
 PCOD9084777
Probable space group: P -1
;
_chemical_formula_sum "Si O2"
_cell_formula_units_Z 14
_cell_length_a 10.057154
_cell_length_b 13.848768
_cell_length_c 6.980642
_cell_angle_alpha 131.266612
_cell_angle_beta 45.894799
_cell_angle_gamma 128.653694
_cell_volume 499.457210
_symmetry_space_group_name_H-M "P -1"
_symmetry_group_IT_number 2
_symmetry_cell_setting 'triclinic'
loop_
_space_group_symop_operation_xyz
x,y,z
-x,-y,-z
loop_
_atom_site_type_symbol
_atom_site_label
_atom_site_fract_x
_atom_site_fract_y
_atom_site_fract_z
Si Si1 0.322443 0.603471 0.626832
Si Si2 0.200284 0.976629 0.965299
Si Si3 0.150031 0.260493 0.941994
Si Si4 0.377433 0.522153 0.890059
Si Si5 0.049923 0.616649 0.371814
Si Si6 0.442213 0.115122 0.413644
Si Si7 0.911560 0.115315 0.486857
O O1 0.384888 0.586542 0.759093
O O2 0.422944 0.502017 0.282584
O O3 0.415364 0.759108 0.681569
O O4 0.094134 0.527635 0.734751
O O5 0.413639 0.964533 0.759716
O O6 0.153583 0.938672 0.737562
O O7 0.035736 0.860398 0.091406
O O8 0.130936 0.104874 0.260620
O O9 0.061061 0.331657 0.284741
O O10 0.242252 0.366690 0.824972
O O11 0.319537 0.199093 0.762527
O O12 0.253179 0.603857 0.231857
O O13 0.089208 0.731472 0.319527
O O14 0.257833 0.991844 0.361208
#
# Coordination Sequence:
#
# PCOD9084777 Si02
#       7
#     2   2   2   2   2   2   2
#     4  10  23  38  58  82 108 150 190 216 272 338
#     4   9  17  33  54  78 114 150 177 219 278 330
#     4   9  20  34  56  88 111 138 186 230 272 323
#     4  10  21  39  57  78 115 149 180 226 273 329
#     4  11  21  35  57  87 112 137 182 237 276 314
#     4  10  19  35  57  79 111 150 183 220 272 331
#     4   9  20  33  51  83 114 142 182 224 273 328
#
# _framework density 28.030429000000002
#
# number of rings (size 3 to 8) (size 9 to 14) (size 15 to 20)
#    0.000    2.286    0.000    3.000    0.000    6.857 
#    0.000    0.714    0.000   18.000    0.000    0.000 
#    0.000    0.000    0.000    0.000    0.000    0.000 
#
# Total GULP energy -78217.600983 kJ/mol
# GULP energy per Si atom -5586.971499 kJ/mol
# Density = 2.796663 g / cm^3
# Si number density = 28.030429 Si / 1000 Ang^3
#
#
#
# Elastic Constant Matrix: (Units=GPa)
#
#
# Indices 1 2 3 4 5 6 
#
# 1 112.5375 31.6716 65.7996 6.4598 -55.3791 3.0620
# 2 31.6716 171.8221 25.0032 -6.8568 -0.7760 -11.0384
# 3 65.7996 25.0032 168.4040 16.8654 -55.9289 1.3662
# 4 6.4598 -6.8568 16.8654 41.6136 -6.7279 -7.6702
# 5 -55.3791 -0.7760 -55.9289 -6.7279 61.5463 5.1425
# 6 3.0620 -11.0384 1.3662 -7.6702 5.1425 32.1398
#
#
#
# Elastic Compliance Matrix: (Units=1/GPa)
#
#
# Indices 1 2 3 4 5 6 
#
# 1 0.018798 -0.003646 -0.001280 -0.001497 0.016036 -0.005912
# 2 -0.003646 0.007030 -0.001395 0.002310 -0.004549 0.004100
# 3 -0.001280 -0.001395 0.009387 -0.003157 0.007239 -0.002668
# 4 -0.001497 0.002310 -0.003157 0.027062 -0.001883 0.007830
# 5 0.016036 -0.004549 0.007239 -0.001883 0.037819 -0.009898
# 6 -0.005912 0.004100 -0.002668 0.007830 -0.009898 0.036651
#
#
# Mechanical properties :
#
#
# Convention : Reuss Voigt Hill
#
# Bulk Modulus (GPa) = 44.29848 77.52360 60.91104
# Shear Modulus (GPa) = 31.86464 49.07923 40.47193
#
# Velocity S-wave (km/s) = 3.37529 4.18895 3.80393
# Velocity P-wave (km/s) = 5.57029 7.14936 6.40864
#
# Compressibility (1/GPa) = 0.02257414
#
# Stress axis : x y z
#
# Youngs Moduli (GPa) = 53.19617 142.24730 106.52724
#
# Poissons Ratio (x) = 0.51862 0.13637
# Poissons Ratio (y) = 0.19395 0.14858
# Poissons Ratio (z) = 0.06810 0.19840
#
# Static dielectric constant tensor:
#      x y z
#    x 2.218900 -0.065050 0.078850 
#    y -0.065050 2.192000 -0.058330 
#    z 0.078850 -0.058330 2.328040 
# 
# From -- ./inp_files/274231.got.cif
#   From: 2010.05.17/outbox.cif.g08.bks.cpg/sg2_138_cif.got.tgz:274231.got - 2010.06.03 11:33:40.
