data_PCOD9084927
_publ_section_title
;
Structure prediction by ZEFSAII (Michael W. Deem and Ramdas Pophale) SiO2 
 PCOD9084927
Probable space group: P -1
;
_chemical_formula_sum "Si O2"
_cell_formula_units_Z 16
_cell_length_a 14.974176
_cell_length_b 11.783966
_cell_length_c 20.973672
_cell_angle_alpha 150.264505
_cell_angle_beta 151.984758
_cell_angle_gamma 48.819739
_cell_volume 763.687047
_symmetry_space_group_name_H-M "P -1"
_symmetry_group_IT_number 2
_symmetry_cell_setting 'triclinic'
loop_
_space_group_symop_operation_xyz
x,y,z
-x,-y,-z
loop_
_atom_site_type_symbol
_atom_site_label
_atom_site_fract_x
_atom_site_fract_y
_atom_site_fract_z
Si Si1 0.174627 0.933666 0.607142
Si Si2 0.851483 0.846783 0.735071
Si Si3 0.635839 0.294769 0.488191
Si Si4 0.799614 0.188921 0.973238
Si Si5 0.872682 0.117106 0.185455
Si Si6 0.565438 0.553488 0.674829
Si Si7 0.068261 0.324758 0.543060
Si Si8 0.537081 0.495140 0.945630
O O1 0.229053 0.799936 0.516726
O O2 0.069523 0.771705 0.525841
O O3 0.000000 0.000000 0.500000
O O4 0.374274 0.215005 0.884289
O O5 0.601341 0.641219 0.475626
O O6 0.940329 0.897696 0.745027
O O7 0.862924 0.086457 0.899579
O O8 0.008834 0.760058 0.831405
O O9 0.712513 0.451084 0.679619
O O10 0.590864 0.464112 0.490295
O O11 0.412874 0.044713 0.243602
O O12 0.715446 0.395001 0.003490
O O13 0.866185 0.374722 0.282294
O O14 0.925187 0.159676 0.313585
O O15 0.673069 0.842937 0.909408
O O16 0.294570 0.314224 0.680785
O O17 0.500000 0.500000 0.000000
#
# Coordination Sequence:
#
# PCOD9084927 Si02
#       8
#     2   2   2   2   2   2   2   2
#     4  12  24  38  64  94 128 165 207 264 317 374
#     4  10  21  37  63  95 126 164 209 263 321 366
#     4  10  19  35  57  94 130 151 208 265 311 364
#     4  10  20  37  62  96 130 161 208 266 319 367
#     4  11  23  44  65  88 133 169 213 262 314 389
#     4  10  21  34  62  93 122 162 204 266 316 370
#     4  11  26  44  63  93 126 176 212 257 324 380
#     4  12  22  40  64  93 129 163 213 265 313 377
#
# _framework density 20.950990000000001
#
# number of rings (size 3 to 8) (size 9 to 14) (size 15 to 20)
#    0.000    1.250    3.750    2.250    3.500    1.000 
#    0.000    3.750    0.000    9.000    0.000    0.000 
#    0.000    0.000    0.000    0.000    0.000    0.000 
#
# Total GULP energy -89224.549954 kJ/mol
# GULP energy per Si atom -5576.534372 kJ/mol
# Density = 2.090330 g / cm^3
# Si number density = 20.950990 Si / 1000 Ang^3
#
#
#
# Elastic Constant Matrix: (Units=GPa)
#
#
# Indices 1 2 3 4 5 6 
#
# 1 122.0643 40.9050 40.4276 -2.3417 -7.0422 -19.5427
# 2 40.9050 71.7594 20.0619 5.9239 -9.1981 -21.6653
# 3 40.4276 20.0619 96.3730 13.0967 -2.5475 2.5165
# 4 -2.3417 5.9239 13.0967 20.6030 -3.4205 -0.0311
# 5 -7.0422 -9.1981 -2.5475 -3.4205 34.3564 6.4832
# 6 -19.5427 -21.6653 2.5165 -0.0311 6.4832 38.2977
#
#
#
# Elastic Compliance Matrix: (Units=1/GPa)
#
#
# Indices 1 2 3 4 5 6 
#
# 1 0.012242 -0.004862 -0.005032 0.006117 0.000744 0.003706
# 2 -0.004862 0.020573 -0.001740 -0.004982 0.002208 0.008894
# 3 -0.005032 -0.001740 0.014199 -0.009192 -0.000529 -0.004403
# 4 0.006117 -0.004982 -0.009192 0.057325 0.004923 0.000120
# 5 0.000744 0.002208 -0.000529 0.004923 0.030976 -0.003576
# 6 0.003706 0.008894 -0.004403 0.000120 -0.003576 0.033928
#
#
# Mechanical properties :
#
#
# Convention : Reuss Voigt Hill
#
# Bulk Modulus (GPa) = 42.11076 54.77617 48.44347
# Shear Modulus (GPa) = 24.94685 31.23824 28.09254
#
# Velocity S-wave (km/s) = 3.45443 3.86556 3.66576
# Velocity P-wave (km/s) = 6.00450 6.79154 6.41011
#
# Compressibility (1/GPa) = 0.02374690
#
# Stress axis : x y z
#
# Youngs Moduli (GPa) = 81.68721 48.60765 70.42567
#
# Poissons Ratio (x) = 0.23634 0.35435
# Poissons Ratio (y) = 0.39719 0.12253
# Poissons Ratio (z) = 0.41101 0.08457
#
# Static dielectric constant tensor:
#      x y z
#    x 2.372940 -0.701520 -0.016550 
#    y -0.701520 2.530380 0.075540 
#    z -0.016550 0.075540 1.867430 
# 
# From -- ./inp_files/598044.got.cif
#   From: 2010.05.17/outbox.cif.g08.bks.cpg/sg2_300_cif.got.tgz:598044.got - 2010.06.03 11:33:40.
