data_PCOD9084520
_publ_section_title
;
Structure prediction by ZEFSAII (Michael W. Deem and Ramdas Pophale) SiO2 
 PCOD9084520
Probable space group: P -1
;
_chemical_formula_sum "Si O2"
_cell_formula_units_Z 16
_cell_length_a 14.641707
_cell_length_b 14.432126
_cell_length_c 10.758937
_cell_angle_alpha 45.135747
_cell_angle_beta 153.872106
_cell_angle_gamma 129.243461
_cell_volume 709.619720
_symmetry_space_group_name_H-M "P -1"
_symmetry_group_IT_number 2
_symmetry_cell_setting 'triclinic'
loop_
_space_group_symop_operation_xyz
x,y,z
-x,-y,-z
loop_
_atom_site_type_symbol
_atom_site_label
_atom_site_fract_x
_atom_site_fract_y
_atom_site_fract_z
Si Si1 0.388448 0.819414 0.007078
Si Si2 0.464022 0.125040 0.250238
Si Si3 0.274144 0.690205 0.751250
Si Si4 0.670228 0.741687 0.803478
Si Si5 0.439602 0.958959 0.163284
Si Si6 0.353403 0.504880 0.608121
Si Si7 0.967350 0.555308 0.238501
Si Si8 0.300262 0.412137 0.368923
O O1 0.248898 0.738633 0.817228
O O2 0.434577 0.948566 0.862587
O O3 0.309127 0.863578 0.003872
O O4 0.600480 0.733927 0.364044
O O5 0.677997 0.188757 0.397227
O O6 0.349686 0.226052 0.105964
O O7 0.500000 0.000000 0.500000
O O8 0.341787 0.061832 0.043742
O O9 0.118901 0.568517 0.673212
O O10 0.497382 0.618935 0.078255
O O11 0.596352 0.867118 0.517569
O O12 0.506734 0.628834 0.671045
O O13 0.894055 0.687831 0.090411
O O14 0.233774 0.468870 0.368259
O O15 0.204702 0.533936 0.514129
O O16 0.853809 0.569670 0.951205
O O17 0.500000 0.500000 0.500000
#
# Coordination Sequence:
#
# PCOD9084520 Si02
#       8
#     2   2   2   2   2   2   2   2
#     4   9  15  27  54  80 102 135 172 214 265 312
#     4   9  19  35  58  79  99 147 184 216 265 312
#     4   9  19  35  54  82 113 132 175 222 263 317
#     4  10  19  35  54  76 108 136 184 217 258 314
#     4   9  16  29  54  79  98 138 180 213 262 311
#     4  10  21  32  53  82 110 142 171 214 271 318
#     4  11  20  32  54  81 110 142 172 214 271 320
#     4  11  16  32  52  82 113 139 168 216 268 321
#
# _framework density 22.547288999999999
#
# number of rings (size 3 to 8) (size 9 to 14) (size 15 to 20)
#    0.000    2.250    5.000    0.375    0.000    2.000 
#    0.000    2.500    0.000   26.250    0.000    0.000 
#    0.000    0.000    0.000    0.000    0.000    0.000 
#
# Total GULP energy -89137.974946 kJ/mol
# GULP energy per Si atom -5571.123434 kJ/mol
# Density = 2.249597 g / cm^3
# Si number density = 22.547289 Si / 1000 Ang^3
#
#
#
# Elastic Constant Matrix: (Units=GPa)
#
#
# Indices 1 2 3 4 5 6 
#
# 1 134.5311 39.6793 18.4934 -7.8732 3.1337 -33.4813
# 2 39.6793 85.5948 24.0204 -19.8206 -4.3729 -23.7392
# 3 18.4934 24.0204 40.8982 -9.5939 -16.5801 7.7908
# 4 -7.8732 -19.8206 -9.5939 23.9556 6.7441 -5.6123
# 5 3.1337 -4.3729 -16.5801 6.7441 33.1217 -8.9879
# 6 -33.4813 -23.7392 7.7908 -5.6123 -8.9879 57.7596
#
#
#
# Elastic Compliance Matrix: (Units=1/GPa)
#
#
# Indices 1 2 3 4 5 6 
#
# 1 0.010256 -0.001021 -0.005779 0.002440 -0.002839 0.006100
# 2 -0.001021 0.022597 -0.012410 0.017064 -0.003490 0.011484
# 3 -0.005779 -0.012410 0.043225 -0.002647 0.017896 -0.011753
# 4 0.002440 0.017064 -0.002647 0.061031 -0.008078 0.013458
# 5 -0.002839 -0.003490 0.017896 -0.008078 0.040614 0.000041
# 6 0.006100 0.011484 -0.011753 0.013458 0.000041 0.028469
#
#
# Mechanical properties :
#
#
# Convention : Reuss Voigt Hill
#
# Bulk Modulus (GPa) = 26.55365 47.26780 36.91072
# Shear Modulus (GPa) = 19.44292 34.88946 27.16619
#
# Velocity S-wave (km/s) = 2.93971 3.93796 3.47487
# Velocity P-wave (km/s) = 4.82959 6.45647 5.70136
#
# Compressibility (1/GPa) = 0.03765961
#
# Stress axis : x y z
#
# Youngs Moduli (GPa) = 97.50625 44.25361 23.13469
#
# Poissons Ratio (x) = 0.04518 0.13368
# Poissons Ratio (y) = 0.09954 0.28710
# Poissons Ratio (z) = 0.56344 0.54918
#
# Static dielectric constant tensor:
#      x y z
#    x 1.925790 -0.105660 -0.039980 
#    y -0.105660 1.941700 -0.004200 
#    z -0.039980 -0.004200 1.857430 
# 
# From -- ./inp_files/454366.got.cif
#   From: 2010.05.17/outbox.cif.g08.bks.cpg/sg2_228_cif.got.tgz:454366.got - 2010.06.03 11:33:40.
