data_PCOD9084893
_publ_section_title
;
Structure prediction by ZEFSAII (Michael W. Deem and Ramdas Pophale) SiO2 
 PCOD9084893
Probable space group: P -1
;
_chemical_formula_sum "Si O2"
_cell_formula_units_Z 15
_cell_length_a 11.737625
_cell_length_b 14.083042
_cell_length_c 14.731482
_cell_angle_alpha 38.039167
_cell_angle_beta 151.278487
_cell_angle_gamma 149.622444
_cell_volume 586.929779
_symmetry_space_group_name_H-M "P -1"
_symmetry_group_IT_number 2
_symmetry_cell_setting 'triclinic'
loop_
_space_group_symop_operation_xyz
x,y,z
-x,-y,-z
loop_
_atom_site_type_symbol
_atom_site_label
_atom_site_fract_x
_atom_site_fract_y
_atom_site_fract_z
Si Si1 0.265074 0.203012 0.965973
Si Si2 0.057845 0.265400 0.390305
Si Si3 0.231525 0.838569 0.262095
Si Si4 0.391545 0.721370 0.281645
Si Si5 0.500000 0.500000 0.000000
Si Si6 0.256976 0.721574 0.000032
Si Si7 0.340884 0.624730 0.620956
Si Si8 0.803782 0.723411 0.327867
O O1 0.578817 0.395198 0.050176
O O2 0.265242 0.032705 0.129072
O O3 0.103035 0.165014 0.786580
O O4 0.121568 0.291192 0.861917
O O5 0.220643 0.492961 0.333804
O O6 0.278758 0.216277 0.546892
O O7 0.986953 0.209308 0.489378
O O8 0.814396 0.194855 0.196602
O O9 0.315322 0.783987 0.271231
O O10 0.400699 0.813852 0.477683
O O11 0.300859 0.795505 0.077489
O O12 0.499643 0.359343 0.188440
O O13 0.543472 0.733653 0.169823
O O14 0.000000 0.500000 0.000000
O O15 0.341090 0.493959 0.640595
O O16 0.000000 0.500000 0.500000
#
# Coordination Sequence:
#
# PCOD9084893 Si02
#       8
#     2   2   2   2   1   2   2   2
#     4  10  24  40  61  93 123 165 204 250 309 369
#     4   9  17  33  57  86 114 152 201 247 295 351
#     4  11  21  41  63  88 131 163 199 252 313 360
#     4   9  18  32  56  86 114 154 197 248 294 355
#     4  10  22  40  60  88 118 156 214 242 296 364
#     4   9  19  32  54  90 118 147 203 255 291 348
#     4  11  21  37  62  92 122 163 203 251 304 363
#     4  10  19  35  57  88 117 155 203 245 297 362
#
# _framework density 25.556718
#
# number of rings (size 3 to 8) (size 9 to 14) (size 15 to 20)
#    0.000    2.133    4.000    0.800    0.000    6.933 
#    0.000    2.667    0.000    1.600    0.000    0.000 
#    0.000    0.000    0.000    0.000    0.000    0.000 
#
# Total GULP energy -83620.353875 kJ/mol
# GULP energy per Si atom -5574.690258 kJ/mol
# Density = 2.549855 g / cm^3
# Si number density = 25.556718 Si / 1000 Ang^3
#
#
#
# Elastic Constant Matrix: (Units=GPa)
#
#
# Indices 1 2 3 4 5 6 
#
# 1 139.3819 22.4581 82.4578 -3.9932 -25.7811 -24.6234
# 2 22.4581 84.6930 43.9494 -20.9905 -10.5158 -6.3009
# 3 82.4578 43.9494 222.8121 -21.0697 -58.5415 -14.8177
# 4 -3.9932 -20.9905 -21.0697 44.4754 -1.1497 0.1758
# 5 -25.7811 -10.5158 -58.5415 -1.1497 58.2180 -3.5499
# 6 -24.6234 -6.3009 -14.8177 0.1758 -3.5499 18.0814
#
#
#
# Elastic Compliance Matrix: (Units=1/GPa)
#
#
# Indices 1 2 3 4 5 6 
#
# 1 0.011984 -0.000411 -0.002403 -0.000219 0.003723 0.014941
# 2 -0.000411 0.014680 -0.001636 0.006133 0.001152 0.003381
# 3 -0.002403 -0.001636 0.008145 0.003039 0.007147 0.004206
# 4 -0.000219 0.006133 0.003039 0.026906 0.004904 0.005030
# 5 0.003723 0.001152 0.007147 0.004904 0.027332 0.016647
# 6 0.014941 0.003381 0.004206 0.005030 0.016647 0.083497
#
#
# Mechanical properties :
#
#
# Convention : Reuss Voigt Hill
#
# Bulk Modulus (GPa) = 38.59741 82.73529 60.66635
# Shear Modulus (GPa) = 26.30467 44.02307 35.16387
#
# Velocity S-wave (km/s) = 3.21170 4.15488 3.71336
# Velocity P-wave (km/s) = 5.37483 7.44720 6.49421
#
# Compressibility (1/GPa) = 0.02590847
#
# Stress axis : x y z
#
# Youngs Moduli (GPa) = 83.44326 68.12042 122.77616
#
# Poissons Ratio (x) = 0.02803 0.29501
# Poissons Ratio (y) = 0.03434 0.20086
# Poissons Ratio (z) = 0.20050 0.11144
#
# Static dielectric constant tensor:
#      x y z
#    x 2.205650 0.049760 -0.073760 
#    y 0.049760 2.149960 0.035530 
#    z -0.073760 0.035530 2.012730 
# 
# From -- ./inp_files/521512.got.cif
#   From: 2010.05.17/outbox.cif.g08.bks.cpg/sg2_261_cif.got.tgz:521512.got - 2010.06.03 11:33:40.
