data_PCOD9084431
_publ_section_title
;
Structure prediction by ZEFSAII (Michael W. Deem and Ramdas Pophale) SiO2 
 PCOD9084431
Probable space group: P -1
;
_chemical_formula_sum "Si O2"
_cell_formula_units_Z 14
_cell_length_a 14.746081
_cell_length_b 17.980063
_cell_length_c 8.143291
_cell_angle_alpha 45.150945
_cell_angle_beta 134.694986
_cell_angle_gamma 159.525852
_cell_volume 527.445514
_symmetry_space_group_name_H-M "P -1"
_symmetry_group_IT_number 2
_symmetry_cell_setting 'triclinic'
loop_
_space_group_symop_operation_xyz
x,y,z
-x,-y,-z
loop_
_atom_site_type_symbol
_atom_site_label
_atom_site_fract_x
_atom_site_fract_y
_atom_site_fract_z
Si Si1 0.083370 0.944291 0.745698
Si Si2 0.599278 0.159308 0.658029
Si Si3 0.979377 0.808014 0.500916
Si Si4 0.235705 0.958649 0.250101
Si Si5 0.502636 0.537621 0.184187
Si Si6 0.679013 0.458458 0.320938
Si Si7 0.091956 0.675522 0.919856
O O1 0.178559 0.967947 0.656385
O O2 0.798394 0.687303 0.805033
O O3 0.242309 0.030053 0.979048
O O4 0.000000 0.000000 0.500000
O O5 0.638818 0.307889 0.537951
O O6 0.513393 0.113375 0.429591
O O7 0.357114 0.911929 0.800601
O O8 0.849387 0.287620 0.867902
O O9 0.727344 0.701558 0.350279
O O10 0.115608 0.924621 0.317284
O O11 0.891888 0.624198 0.698232
O O12 0.993359 0.702012 0.313637
O O13 0.580276 0.484524 0.270787
O O14 0.498140 0.637196 0.912676
O O15 0.000000 0.500000 0.000000
#
# Coordination Sequence:
#
# PCOD9084431 Si02
#       7
#     2   2   2   2   2   2   2
#     4  11  24  36  57  94 128 156 206 249 298 377
#     4  10  19  34  66  87 119 164 202 253 314 352
#     4  10  21  40  62  85 123 166 198 247 316 351
#     4   9  21  39  58  90 124 158 205 248 299 364
#     4   9  19  36  57  86 126 160 195 250 304 364
#     4   9  18  35  61  91 119 161 205 242 304 372
#     4  10  21  38  61  95 121 156 214 258 297 364
#
# _framework density 26.543028
#
# number of rings (size 3 to 8) (size 9 to 14) (size 15 to 20)
#    0.000    2.286    0.000    3.857    6.000    0.571 
#    0.000    0.714    0.000   13.714    0.000    0.000 
#    0.000    0.000    0.000    0.000    0.000    0.000 
#
# Total GULP energy -77981.868869 kJ/mol
# GULP energy per Si atom -5570.133491 kJ/mol
# Density = 2.648261 g / cm^3
# Si number density = 26.543028 Si / 1000 Ang^3
#
#
#
# Elastic Constant Matrix: (Units=GPa)
#
#
# Indices 1 2 3 4 5 6 
#
# 1 50.3640 18.3926 42.8953 -3.5189 -5.6411 -24.6632
# 2 18.3926 100.1911 68.6704 4.9437 1.1626 -21.3800
# 3 42.8953 68.6704 215.7429 44.8245 -19.8486 -22.5975
# 4 -3.5189 4.9437 44.8245 73.2378 -20.2460 6.2900
# 5 -5.6411 1.1626 -19.8486 -20.2460 38.5743 7.2599
# 6 -24.6632 -21.3800 -22.5975 6.2900 7.2599 30.3535
#
#
#
# Elastic Compliance Matrix: (Units=1/GPa)
#
#
# Indices 1 2 3 4 5 6 
#
# 1 0.037850 0.003309 -0.006305 0.002523 -0.001811 0.028301
# 2 0.003309 0.014941 -0.004653 -0.000178 -0.004498 0.010862
# 3 -0.006305 -0.004653 0.008265 -0.004516 0.001411 -0.001649
# 4 0.002523 -0.000178 -0.004516 0.020019 0.010062 -0.007993
# 5 -0.001811 -0.004498 0.001411 0.010062 0.034420 -0.013907
# 6 0.028301 0.010862 -0.001649 -0.007993 -0.013907 0.067346
#
#
# Mechanical properties :
#
#
# Convention : Reuss Voigt Hill
#
# Bulk Modulus (GPa) = 21.85410 69.57942 45.71676
# Shear Modulus (GPa) = 23.43108 44.18909 33.81009
#
# Velocity S-wave (km/s) = 2.97435 4.08463 3.57288
# Velocity P-wave (km/s) = 4.47739 6.96537 5.85506
#
# Compressibility (1/GPa) = 0.04575800
#
# Stress axis : x y z
#
# Youngs Moduli (GPa) = 26.42038 66.92852 120.99061
#
# Poissons Ratio (x) = -0.22147 0.76288
# Poissons Ratio (y) = -0.08743 0.56295
# Poissons Ratio (z) = 0.16659 0.31141
#
# Static dielectric constant tensor:
#      x y z
#    x 2.687480 -0.203060 -0.091780 
#    y -0.203060 2.208510 0.043120 
#    z -0.091780 0.043120 2.101120 
# 
# From -- ./inp_files/338084.got.cif
#   From: 2010.05.17/outbox.cif.g08.bks.cpg/sg2_170_cif.got.tgz:338084.got - 2010.06.03 11:33:40.
