data_PCOD9084295
_publ_section_title
;
Structure prediction by ZEFSAII (Michael W. Deem and Ramdas Pophale) SiO2 
 PCOD9084295
Probable space group: P -1
;
_chemical_formula_sum "Si O2"
_cell_formula_units_Z 16
_cell_length_a 19.220049
_cell_length_b 8.146937
_cell_length_c 9.239565
_cell_angle_alpha 129.382810
_cell_angle_beta 144.552147
_cell_angle_gamma 67.594544
_cell_volume 618.094795
_symmetry_space_group_name_H-M "P -1"
_symmetry_group_IT_number 2
_symmetry_cell_setting 'triclinic'
loop_
_space_group_symop_operation_xyz
x,y,z
-x,-y,-z
loop_
_atom_site_type_symbol
_atom_site_label
_atom_site_fract_x
_atom_site_fract_y
_atom_site_fract_z
Si Si1 0.114064 0.432855 0.735043
Si Si2 0.613775 0.206285 0.635108
Si Si3 0.950655 0.321879 0.992035
Si Si4 0.848394 0.819790 0.602584
Si Si5 0.605819 0.868798 0.172336
Si Si6 0.610751 0.462841 0.265799
Si Si7 0.658354 0.867182 0.754687
Si Si8 0.234614 0.854182 0.663610
O O1 0.110920 0.216404 0.513598
O O2 0.000000 0.500000 0.500000
O O3 0.259600 0.586659 0.049775
O O4 0.082026 0.475616 0.870460
O O5 0.477917 0.239254 0.457121
O O6 0.599194 0.046457 0.381961
O O7 0.640244 0.060630 0.730482
O O8 0.891958 0.278821 0.709223
O O9 0.882604 0.086202 0.832413
O O10 0.089573 0.311544 0.255295
O O11 0.699779 0.735630 0.312736
O O12 0.674989 0.991393 0.217280
O O13 0.469795 0.695434 0.830665
O O14 0.687392 0.686338 0.600050
O O15 0.690872 0.315069 0.253209
O O16 0.500000 0.500000 0.000000
O O17 0.766906 0.981851 0.116468
#
# Coordination Sequence:
#
# PCOD9084295 Si02
#       8
#     2   2   2   2   2   2   2   2
#     4  10  19  34  62  93 120 158 212 260 298 360
#     4  11  20  41  60  90 128 163 206 257 310 371
#     4   9  19  36  57  89 126 152 197 266 301 351
#     4   9  18  33  59  91 115 158 201 250 311 357
#     4  11  21  39  66  91 123 163 207 269 302 356
#     4  12  23  40  62  88 121 169 208 241 317 382
#     4  11  24  38  61  88 129 171 201 245 320 387
#     4  11  23  39  60  95 129 156 204 270 307 356
#
# _framework density 25.885998000000001
#
# number of rings (size 3 to 8) (size 9 to 14) (size 15 to 20)
#    0.000    1.500    5.000    1.875    0.000    2.500 
#    0.000    0.000    0.000    7.500    0.000    0.000 
#    0.000    0.000    0.000    0.000    0.000    0.000 
#
# Total GULP energy -89424.335603 kJ/mol
# GULP energy per Si atom -5589.020975 kJ/mol
# Density = 2.582708 g / cm^3
# Si number density = 25.885998 Si / 1000 Ang^3
#
#
#
# Elastic Constant Matrix: (Units=GPa)
#
#
# Indices 1 2 3 4 5 6 
#
# 1 57.9273 10.9749 18.6172 4.5272 -9.1374 -4.3612
# 2 10.9749 71.8155 38.9043 -14.3649 -9.0718 -17.9487
# 3 18.6172 38.9043 150.9852 -1.3635 -34.1739 -7.6797
# 4 4.5272 -14.3649 -1.3635 41.9750 -11.1316 -5.7771
# 5 -9.1374 -9.0718 -34.1739 -11.1316 55.7322 6.7547
# 6 -4.3612 -17.9487 -7.6797 -5.7771 6.7547 34.7733
#
#
#
# Elastic Compliance Matrix: (Units=1/GPa)
#
#
# Indices 1 2 3 4 5 6 
#
# 1 0.018573 -0.002389 -0.001401 -0.002510 0.001281 0.000121
# 2 -0.002389 0.021392 -0.004363 0.009209 0.000905 0.011133
# 3 -0.001401 -0.004363 0.008912 0.000003 0.004692 -0.001370
# 4 -0.002510 0.009209 0.000003 0.029993 0.006081 0.008241
# 5 0.001281 0.000905 0.004692 0.006081 0.022600 -0.001716
# 6 0.000121 0.011133 -0.001370 0.008241 -0.001716 0.035919
#
#
# Mechanical properties :
#
#
# Convention : Reuss Voigt Hill
#
# Bulk Modulus (GPa) = 30.70269 46.41342 38.55806
# Shear Modulus (GPa) = 30.38517 40.64487 35.51502
#
# Velocity S-wave (km/s) = 3.42980 3.96681 3.70804
# Velocity P-wave (km/s) = 5.25083 6.24096 5.76718
#
# Compressibility (1/GPa) = 0.03257044
#
# Stress axis : x y z
#
# Youngs Moduli (GPa) = 53.84057 46.74609 112.20289
#
# Poissons Ratio (x) = 0.11170 0.15720
# Poissons Ratio (y) = 0.12865 0.48957
# Poissons Ratio (z) = 0.07543 0.20396
#
# Static dielectric constant tensor:
#      x y z
#    x 2.079760 0.059580 0.047550 
#    y 0.059580 2.086900 -0.031100 
#    z 0.047550 -0.031100 2.095010 
# 
# From -- ./inp_files/343894.got.cif
#   From: 2010.05.17/outbox.cif.g08.bks.cpg/sg2_172_cif.got.tgz:343894.got - 2010.06.03 11:33:40.
