data_PCOD9084735
_publ_section_title
;
Structure prediction by ZEFSAII (Michael W. Deem and Ramdas Pophale) SiO2 
 PCOD9084735
Probable space group: P -1
;
_chemical_formula_sum "Si O2"
_cell_formula_units_Z 16
_cell_length_a 11.140559
_cell_length_b 18.981684
_cell_length_c 9.915713
_cell_angle_alpha 60.192463
_cell_angle_beta 99.772886
_cell_angle_gamma 47.978782
_cell_volume 846.618648
_symmetry_space_group_name_H-M "P -1"
_symmetry_group_IT_number 2
_symmetry_cell_setting 'triclinic'
loop_
_space_group_symop_operation_xyz
x,y,z
-x,-y,-z
loop_
_atom_site_type_symbol
_atom_site_label
_atom_site_fract_x
_atom_site_fract_y
_atom_site_fract_z
Si Si1 0.991053 0.502431 0.333336
Si Si2 0.581116 0.873197 0.815416
Si Si3 0.408603 0.848748 0.285604
Si Si4 0.696538 0.363693 0.868020
Si Si5 0.726487 0.967083 0.667710
Si Si6 0.233251 0.533607 0.635921
Si Si7 0.448377 0.650480 0.390297
Si Si8 0.289026 0.058125 0.854689
O O1 0.843113 0.505080 0.271601
O O2 0.000000 0.500000 0.500000
O O3 0.280222 0.329640 0.497796
O O4 0.829097 0.672659 0.084206
O O5 0.658540 0.922341 0.772396
O O6 0.445842 0.928598 0.597479
O O7 0.382799 0.978262 0.800279
O O8 0.334688 0.800118 0.281944
O O9 0.330523 0.926083 0.343536
O O10 0.298157 0.976015 0.033012
O O11 0.678548 0.535106 0.437116
O O12 0.562408 0.526870 0.646291
O O13 0.733617 0.296867 0.791970
O O14 0.968980 0.213012 0.133108
O O15 0.484796 0.432280 0.836212
O O16 0.987091 0.736515 0.394700
O O17 0.500000 0.000000 0.000000
#
# Coordination Sequence:
#
# PCOD9084735 Si02
#       8
#     2   2   2   2   2   2   2   2
#     4  12  19  35  61  88 116 147 199 248 296 328
#     4  11  24  40  61  88 121 157 190 253 294 354
#     4  12  22  33  64  93 113 155 196 252 286 346
#     4   9  20  39  57  81 124 162 187 240 298 350
#     4  11  24  41  58  86 127 157 194 234 309 352
#     4  10  19  35  56  88 115 150 193 247 287 345
#     4   9  19  34  58  87 117 152 196 242 286 341
#     4  12  20  35  63  93 117 146 204 247 295 338
#
# _framework density 18.898710000000001
#
# number of rings (size 3 to 8) (size 9 to 14) (size 15 to 20)
#    0.750    0.500    5.000    1.500    0.000    1.000 
#    0.000    2.500    0.000    0.000    0.000    0.000 
#    0.000    0.000    0.000    0.000    0.000    0.000 
#
# Total GULP energy -89319.190764 kJ/mol
# GULP energy per Si atom -5582.449423 kJ/mol
# Density = 1.885570 g / cm^3
# Si number density = 18.898710 Si / 1000 Ang^3
#
#
#
# Elastic Constant Matrix: (Units=GPa)
#
#
# Indices 1 2 3 4 5 6 
#
# 1 48.3184 3.5493 9.9753 -0.0809 0.0728 13.9473
# 2 3.5493 65.5904 22.4225 -11.6086 -7.0350 11.4451
# 3 9.9753 22.4225 82.3436 -7.2981 1.2205 7.9140
# 4 -0.0809 -11.6086 -7.2981 17.1237 -4.2046 -3.9030
# 5 0.0728 -7.0350 1.2205 -4.2046 29.8024 -15.2144
# 6 13.9473 11.4451 7.9140 -3.9030 -15.2144 29.6951
#
#
#
# Elastic Compliance Matrix: (Units=1/GPa)
#
#
# Indices 1 2 3 4 5 6 
#
# 1 0.026310 -0.000004 -0.001951 -0.007334 -0.010230 -0.018041
# 2 -0.000004 0.019858 -0.004180 0.012601 0.005613 -0.002006
# 3 -0.001951 -0.004180 0.013938 0.002036 -0.002350 -0.002124
# 4 -0.007334 0.012601 0.002036 0.078658 0.024763 0.021071
# 5 -0.010230 0.005613 -0.002350 0.024763 0.056638 0.035542
# 6 -0.018041 -0.002006 -0.002124 0.021071 0.035542 0.064468
#
#
# Mechanical properties :
#
#
# Convention : Reuss Voigt Hill
#
# Bulk Modulus (GPa) = 20.90491 29.79408 25.34950
# Shear Modulus (GPa) = 17.35601 26.01126 21.68363
#
# Velocity S-wave (km/s) = 3.03375 3.71395 3.39095
# Velocity P-wave (km/s) = 4.83292 5.84727 5.36412
#
# Compressibility (1/GPa) = 0.04783564
#
# Stress axis : x y z
#
# Youngs Moduli (GPa) = 38.00862 50.35837 71.74492
#
# Poissons Ratio (x) = 0.00021 0.13994
# Poissons Ratio (y) = 0.00016 0.29992
# Poissons Ratio (z) = 0.07414 0.21052
#
# Static dielectric constant tensor:
#      x y z
#    x 1.690890 0.014580 0.018450 
#    y 0.014580 1.660410 -0.002110 
#    z 0.018450 -0.002110 1.622470 
# 
# From -- ./inp_files/279232.got.cif
#   From: 2010.05.17/outbox.cif.g08.bks.cpg/sg2_140_cif.got.tgz:279232.got - 2010.06.03 11:33:40.
