data_PCOD9084071
_publ_section_title
;
Structure prediction by ZEFSAII (Michael W. Deem and Ramdas Pophale) SiO2 
 PCOD9084071
Probable space group: P -1
;
_chemical_formula_sum "Si O2"
_cell_formula_units_Z 15
_cell_length_a 15.329688
_cell_length_b 8.976775
_cell_length_c 9.428571
_cell_angle_alpha 116.996824
_cell_angle_beta 134.752473
_cell_angle_gamma 91.720009
_cell_volume 684.314251
_symmetry_space_group_name_H-M "P -1"
_symmetry_group_IT_number 2
_symmetry_cell_setting 'triclinic'
loop_
_space_group_symop_operation_xyz
x,y,z
-x,-y,-z
loop_
_atom_site_type_symbol
_atom_site_label
_atom_site_fract_x
_atom_site_fract_y
_atom_site_fract_z
Si Si1 0.598457 0.427141 0.509015
Si Si2 0.258862 0.674966 0.803604
Si Si3 0.808384 0.743770 0.452514
Si Si4 0.879250 0.090524 0.228581
Si Si5 0.659780 0.845408 0.112084
Si Si6 0.269102 0.185982 0.322453
Si Si7 0.500000 0.000000 0.000000
Si Si8 0.572784 0.235951 0.683742
O O1 0.500000 0.500000 0.500000
O O2 0.725773 0.628048 0.667085
O O3 0.630241 0.330084 0.634114
O O4 0.497518 0.259290 0.200416
O O5 0.217925 0.461928 0.609412
O O6 0.133667 0.722179 0.675506
O O7 0.397703 0.854890 0.956833
O O8 0.303754 0.671973 0.016032
O O9 0.679186 0.714671 0.189781
O O10 0.816058 0.867883 0.651446
O O11 0.957181 0.851911 0.579213
O O12 0.784966 0.929202 0.173228
O O13 0.795323 0.989564 0.941584
O O14 0.650135 0.018667 0.246440
O O15 0.438807 0.262232 0.578761
O O16 0.500000 0.000000 0.500000
#
# Coordination Sequence:
#
# PCOD9084071 Si02
#       8
#     2   2   2   2   2   2   1   2
#     4  10  19  34  60  86 116 146 198 257 304 352
#     4  11  23  40  64  92 123 161 207 251 316 361
#     4  12  25  38  63  92 125 161 215 247 292 373
#     4  11  23  43  60  84 129 175 200 242 302 377
#     4  11  21  41  62  92 120 161 203 251 315 359
#     4  11  22  39  61  91 123 158 201 261 311 352
#     4  10  22  38  60  92 126 142 188 276 314 344
#     4  11  19  36  63  93 115 153 201 258 309 369
#
# _framework density 21.919754999999999
#
# number of rings (size 3 to 8) (size 9 to 14) (size 15 to 20)
#    0.000    1.067    4.000    5.200    0.000    1.600 
#    0.000    0.000    0.000    0.800    0.000    0.000 
#    0.000    0.000    0.000    0.000    0.000    0.000 
#
# Total GULP energy -83553.308484 kJ/mol
# GULP energy per Si atom -5570.220566 kJ/mol
# Density = 2.186986 g / cm^3
# Si number density = 21.919755 Si / 1000 Ang^3
#
#
#
# Elastic Constant Matrix: (Units=GPa)
#
#
# Indices 1 2 3 4 5 6 
#
# 1 104.6540 29.0700 4.0402 -12.2274 1.4624 13.2379
# 2 29.0700 98.1939 -1.5792 -9.5004 -7.7241 1.9525
# 3 4.0402 -1.5792 21.9833 -8.7344 -0.6309 0.4143
# 4 -12.2274 -9.5004 -8.7344 26.0698 0.6891 1.5197
# 5 1.4624 -7.7241 -0.6309 0.6891 22.1489 0.0824
# 6 13.2379 1.9525 0.4143 1.5197 0.0824 16.6500
#
#
#
# Elastic Compliance Matrix: (Units=1/GPa)
#
#
# Indices 1 2 3 4 5 6 
#
# 1 0.012314 -0.003114 -0.000305 0.005168 -0.002032 -0.009879
# 2 -0.003114 0.011838 0.003008 0.003710 0.004302 0.000653
# 3 -0.000305 0.003008 0.053421 0.018983 0.002012 -0.003182
# 4 0.005168 0.003710 0.018983 0.049048 0.000003 -0.009493
# 5 -0.002032 0.004302 0.002012 0.000003 0.046837 0.000829
# 6 -0.009879 0.000653 -0.003182 -0.009493 0.000829 0.068780
#
#
# Mechanical properties :
#
#
# Convention : Reuss Voigt Hill
#
# Bulk Modulus (GPa) = 13.02917 31.98812 22.50864
# Shear Modulus (GPa) = 18.61189 25.86043 22.23616
#
# Velocity S-wave (km/s) = 2.91708 3.43851 3.18847
# Velocity P-wave (km/s) = 4.15966 5.51267 4.88325
#
# Compressibility (1/GPa) = 0.07675087
#
# Stress axis : x y z
#
# Youngs Moduli (GPa) = 81.20929 84.47045 18.71909
#
# Poissons Ratio (x) = 0.26302 0.00572
# Poissons Ratio (y) = 0.25286 -0.05630
# Poissons Ratio (z) = 0.02481 -0.25407
#
# Static dielectric constant tensor:
#      x y z
#    x 1.683900 0.104860 0.081220 
#    y 0.104860 1.750600 -0.048370 
#    z 0.081220 -0.048370 1.762960 
# 
# From -- ./inp_files/185059.got.cif
#   From: 2010.05.17/outbox.cif.g08.bks.cpg/sg2_93_cif.got.tgz:185059.got - 2010.06.03 11:33:40.
