data_PCOD9084709
_publ_section_title
;
Structure prediction by ZEFSAII (Michael W. Deem and Ramdas Pophale) SiO2 
 PCOD9084709
Probable space group: P -1
;
_chemical_formula_sum "Si O2"
_cell_formula_units_Z 16
_cell_length_a 25.942252
_cell_length_b 8.133296
_cell_length_c 9.540770
_cell_angle_alpha 96.616308
_cell_angle_beta 28.527421
_cell_angle_gamma 105.220198
_cell_volume 898.099454
_symmetry_space_group_name_H-M "P -1"
_symmetry_group_IT_number 2
_symmetry_cell_setting 'triclinic'
loop_
_space_group_symop_operation_xyz
x,y,z
-x,-y,-z
loop_
_atom_site_type_symbol
_atom_site_label
_atom_site_fract_x
_atom_site_fract_y
_atom_site_fract_z
Si Si1 0.616698 0.186908 0.469677
Si Si2 0.399345 0.852981 0.968472
Si Si3 0.883537 0.756561 0.142341
Si Si4 0.274346 0.983024 0.052950
Si Si5 0.084998 0.862366 0.893184
Si Si6 0.507489 0.687548 0.449394
Si Si7 0.981875 0.027744 0.384337
Si Si8 0.253472 0.650005 0.544221
O O1 0.565166 0.311906 0.515980
O O2 0.694748 0.280408 0.421053
O O3 0.503785 0.028909 0.776706
O O4 0.684750 0.108316 0.186179
O O5 0.453473 0.770203 0.709188
O O6 0.350275 0.725497 0.202127
O O7 0.298095 0.897103 0.132264
O O8 0.798233 0.561702 0.352636
O O9 0.845712 0.928095 0.281682
O O10 0.996631 0.788721 0.970657
O O11 0.928061 0.793268 0.879151
O O12 0.145483 0.974130 0.340058
O O13 0.363122 0.181618 0.866449
O O14 0.159073 0.741287 0.740675
O O15 0.009498 0.880297 0.209869
O O16 0.500000 0.500000 0.500000
O O17 0.000000 0.000000 0.500000
#
# Coordination Sequence:
#
# PCOD9084709 Si02
#       8
#     2   2   2   2   2   2   2   2
#     4   9  20  37  55  85 112 143 186 236 284 331
#     4   9  20  36  58  82 107 152 192 215 284 351
#     4   9  22  38  53  82 116 143 199 222 269 344
#     4   9  18  36  59  72 114 154 178 228 284 331
#     4   9  21  39  56  80 120 147 185 229 282 325
#     4   9  19  38  56  83 112 142 190 233 271 340
#     4  10  19  35  56  85 111 144 189 230 280 329
#     4  12  20  37  62  81 117 150 183 236 286 320
#
# _framework density 17.8154
#
# number of rings (size 3 to 8) (size 9 to 14) (size 15 to 20)
#    0.750    1.750    0.000    3.750    0.000    2.000 
#    4.500    5.625    0.000    0.000    0.000    0.000 
#    0.000    0.000    0.000    0.000    0.000    0.000 
#
# Total GULP energy -89120.129104 kJ/mol
# GULP energy per Si atom -5570.008069 kJ/mol
# Density = 1.777485 g / cm^3
# Si number density = 17.815400 Si / 1000 Ang^3
#
#
#
# Elastic Constant Matrix: (Units=GPa)
#
#
# Indices 1 2 3 4 5 6 
#
# 1 74.1840 40.4321 9.6434 -20.8556 18.2729 5.6420
# 2 40.4321 81.7892 11.7314 -25.6285 4.1293 -8.7842
# 3 9.6434 11.7314 52.8977 -9.4129 12.3152 -6.4430
# 4 -20.8556 -25.6285 -9.4129 17.3280 -9.1126 2.8520
# 5 18.2729 4.1293 12.3152 -9.1126 28.6249 -0.1959
# 6 5.6420 -8.7842 -6.4430 2.8520 -0.1959 23.9249
#
#
#
# Elastic Compliance Matrix: (Units=1/GPa)
#
#
# Indices 1 2 3 4 5 6 
#
# 1 0.025897 -0.009140 0.001111 0.014129 -0.011268 -0.010940
# 2 -0.009140 0.028534 -0.000266 0.036859 0.013624 0.008278
# 3 0.001111 -0.000266 0.022617 0.008417 -0.007690 0.004665
# 4 0.014129 0.036859 0.008417 0.150374 0.029878 -0.005213
# 5 -0.011268 0.013624 -0.007690 0.029878 0.052999 0.002461
# 6 -0.010940 0.008278 0.004665 -0.005213 0.002461 0.049314
#
#
# Mechanical properties :
#
#
# Convention : Reuss Voigt Hill
#
# Bulk Modulus (GPa) = 16.54074 36.94274 26.74174
# Shear Modulus (GPa) = 13.64332 23.77981 18.71157
#
# Velocity S-wave (km/s) = 2.77034 3.65744 3.24435
# Velocity P-wave (km/s) = 4.42015 6.21428 5.39235
#
# Compressibility (1/GPa) = 0.06045680
#
# Stress axis : x y z
#
# Youngs Moduli (GPa) = 38.61468 35.04562 44.21403
#
# Poissons Ratio (x) = 0.32033 -0.04912
# Poissons Ratio (y) = 0.35295 0.01178
# Poissons Ratio (z) = -0.04290 0.00934
#
# Static dielectric constant tensor:
#      x y z
#    x 1.595030 -0.010400 0.012190 
#    y -0.010400 1.685290 0.033550 
#    z 0.012190 0.033550 1.624650 
# 
# From -- ./inp_files/352221.got.cif
#   From: 2010.05.17/outbox.cif.g08.bks.cpg/sg2_177_cif.got.tgz:352221.got - 2010.06.03 11:33:40.
