data_PCOD9084229
_publ_section_title
;
Structure prediction by ZEFSAII (Michael W. Deem and Ramdas Pophale) SiO2 
 PCOD9084229
Probable space group: P -1
;
_chemical_formula_sum "Si O2"
_cell_formula_units_Z 12
_cell_length_a 5.728643
_cell_length_b 8.885003
_cell_length_c 11.994486
_cell_angle_alpha 103.717994
_cell_angle_beta 89.363922
_cell_angle_gamma 93.396652
_cell_volume 592.047924
_symmetry_space_group_name_H-M "P -1"
_symmetry_group_IT_number 2
_symmetry_cell_setting 'triclinic'
loop_
_space_group_symop_operation_xyz
x,y,z
-x,-y,-z
loop_
_atom_site_type_symbol
_atom_site_label
_atom_site_fract_x
_atom_site_fract_y
_atom_site_fract_z
Si Si1 0.694623 0.117416 0.573450
Si Si2 0.595906 0.811398 0.224506
Si Si3 0.706222 0.099305 0.958414
Si Si4 0.060718 0.903403 0.651228
Si Si5 0.242183 0.412747 0.987283
Si Si6 0.947424 0.792947 0.857666
O O1 0.547444 0.231179 0.669618
O O2 0.848060 0.173687 0.476411
O O3 0.500000 0.000000 0.500000
O O4 0.858407 0.015016 0.632269
O O5 0.764865 0.696718 0.142548
O O6 0.397347 0.824511 0.134788
O O7 0.735982 0.976984 0.276926
O O8 0.882848 0.972761 0.896403
O O9 0.818956 0.211808 0.070708
O O10 0.500000 0.000000 0.000000
O O11 0.982481 0.777464 0.723305
O O12 0.500000 0.500000 0.000000
O O13 0.230064 0.313498 0.085757
O O14 0.000000 0.500000 0.000000
#
# Coordination Sequence:
#
# PCOD9084229 Si02
#       6
#     2   2   2   2   2   2
#     4   9  20  34  55  95 122 150 185 247 329 377
#     4  11  20  36  62  85 130 155 197 252 308 373
#     4  11  18  31  58  95 116 153 188 250 336 365
#     4  10  19  34  61  95 119 150 193 249 328 370
#     4  12  28  42  58  88 126 175 216 246 292 357
#     4  11  21  34  58  88 125 155 201 254 306 376
#
# _framework density 20.268628
#
# number of rings (size 3 to 8) (size 9 to 14) (size 15 to 20)
#    0.000    1.333    5.000    2.000    2.333    0.000 
#    0.000    0.000    0.000    2.000    0.000    0.000 
#    0.000    0.000    0.000    0.000    0.000    0.000 
#
# Total GULP energy -66834.488516 kJ/mol
# GULP energy per Si atom -5569.540710 kJ/mol
# Density = 2.022250 g / cm^3
# Si number density = 20.268628 Si / 1000 Ang^3
#
#
#
# Elastic Constant Matrix: (Units=GPa)
#
#
# Indices 1 2 3 4 5 6 
#
# 1 92.3703 24.1320 43.8574 -9.1820 -2.2533 -1.7616
# 2 24.1320 51.5451 43.1788 -13.3614 -12.1738 5.6880
# 3 43.8574 43.1788 174.9621 -25.6980 -34.3230 -3.2101
# 4 -9.1820 -13.3614 -25.6980 26.2122 -0.4925 -12.8856
# 5 -2.2533 -12.1738 -34.3230 -0.4925 50.3161 0.7703
# 6 -1.7616 5.6880 -3.2101 -12.8856 0.7703 39.1961
#
#
#
# Elastic Compliance Matrix: (Units=1/GPa)
#
#
# Indices 1 2 3 4 5 6 
#
# 1 0.013254 -0.004659 -0.002553 0.000318 -0.002291 0.001212
# 2 -0.004659 0.028039 -0.003814 0.007993 0.004083 -0.002043
# 3 -0.002553 -0.003814 0.009779 0.008838 0.005658 0.004034
# 4 0.000318 0.007993 0.008838 0.060674 0.008274 0.019362
# 5 -0.002291 0.004083 0.005658 0.008274 0.024670 0.002003
# 6 0.001212 -0.002043 0.004034 0.019362 0.002003 0.032520
#
#
# Mechanical properties :
#
#
# Convention : Reuss Voigt Hill
#
# Bulk Modulus (GPa) = 34.46008 60.13490 47.29749
# Shear Modulus (GPa) = 24.91766 36.99215 30.95490
#
# Velocity S-wave (km/s) = 3.51004 4.27675 3.91222
# Velocity P-wave (km/s) = 5.78496 7.35668 6.61765
#
# Compressibility (1/GPa) = 0.02901909
#
# Stress axis : x y z
#
# Youngs Moduli (GPa) = 75.44790 35.66509 102.26099
#
# Poissons Ratio (x) = 0.16616 0.26108
# Poissons Ratio (y) = 0.35151 0.39005
# Poissons Ratio (z) = 0.19262 0.13604
#
# Static dielectric constant tensor:
#      x y z
#    x 1.786290 -0.014180 -0.050560 
#    y -0.014180 1.771240 -0.002270 
#    z -0.050560 -0.002270 1.804830 
# 
# From -- ./inp_files/360827.got.cif
#   From: 2010.05.17/outbox.cif.g08.bks.cpg/sg2_181_cif.got.tgz:360827.got - 2010.06.03 11:33:40.
