data_PCOD9084248
_publ_section_title
;
Structure prediction by ZEFSAII (Michael W. Deem and Ramdas Pophale) SiO2 
 PCOD9084248
Probable space group: P -1
;
_chemical_formula_sum "Si O2"
_cell_formula_units_Z 14
_cell_length_a 10.756545
_cell_length_b 8.833137
_cell_length_c 21.436800
_cell_angle_alpha 30.572140
_cell_angle_beta 137.961378
_cell_angle_gamma 114.077682
_cell_volume 508.873425
_symmetry_space_group_name_H-M "P -1"
_symmetry_group_IT_number 2
_symmetry_cell_setting 'triclinic'
loop_
_space_group_symop_operation_xyz
x,y,z
-x,-y,-z
loop_
_atom_site_type_symbol
_atom_site_label
_atom_site_fract_x
_atom_site_fract_y
_atom_site_fract_z
Si Si1 0.763156 0.439948 0.415375
Si Si2 0.012740 0.615546 0.368378
Si Si3 0.527621 0.543915 0.160826
Si Si4 0.170076 0.541017 0.084714
Si Si5 0.896812 0.456663 0.802731
Si Si6 0.717224 0.497079 0.596480
Si Si7 0.653339 0.602412 0.054857
O O1 0.888242 0.226565 0.604869
O O2 0.641418 0.410431 0.320763
O O3 0.996030 0.344411 0.501260
O O4 0.539782 0.908237 0.185814
O O5 0.223383 0.335729 0.494712
O O6 0.720127 0.966893 0.112801
O O7 0.694649 0.447155 0.197474
O O8 0.374969 0.403279 0.157822
O O9 0.984603 0.026430 0.855552
O O10 0.000000 0.500000 0.000000
O O11 0.223024 0.376685 0.233022
O O12 0.100763 0.499477 0.848331
O O13 0.704217 0.648067 0.605884
O O14 0.000000 0.000000 0.000000
O O15 0.500000 0.500000 0.500000
O O16 0.500000 0.500000 0.000000
#
# Coordination Sequence:
#
# PCOD9084248 Si02
#       7
#     2   2   2   2   2   2   2
#     4  10  19  34  62  80 108 151 196 237 286 351
#     4   9  19  33  55  86 107 139 199 240 279 338
#     4  10  20  38  61  81 114 155 198 240 289 354
#     4  10  21  38  59  84 118 155 197 242 302 361
#     4  10  21  37  60  89 113 155 204 239 288 368
#     4  10  21  35  59  83 118 151 198 250 289 345
#     4  11  21  35  61  89 118 152 190 246 306 346
#
# _framework density 27.511752999999999
#
# number of rings (size 3 to 8) (size 9 to 14) (size 15 to 20)
#    0.000    2.000    0.000    6.000    6.000    0.000 
#    0.000    0.714    9.429   16.286    0.000    0.000 
#    0.000    0.000    0.000    0.000    0.000    0.000 
#
# Total GULP energy -78087.555345 kJ/mol
# GULP energy per Si atom -5577.682525 kJ/mol
# Density = 2.744913 g / cm^3
# Si number density = 27.511753 Si / 1000 Ang^3
#
#
#
# Elastic Constant Matrix: (Units=GPa)
#
#
# Indices 1 2 3 4 5 6 
#
# 1 193.5521 40.7080 24.1360 8.6212 12.8867 -18.7645
# 2 40.7080 119.3137 25.3746 24.5910 -9.0869 -7.2645
# 3 24.1360 25.3746 103.7380 10.5585 -1.5336 -12.9828
# 4 8.6212 24.5910 10.5585 53.2986 -6.9366 -0.6489
# 5 12.8867 -9.0869 -1.5336 -6.9366 30.6244 5.6033
# 6 -18.7645 -7.2645 -12.9828 -0.6489 5.6033 55.9826
#
#
#
# Elastic Compliance Matrix: (Units=1/GPa)
#
#
# Indices 1 2 3 4 5 6 
#
# 1 0.006134 -0.002025 -0.000698 -0.000372 -0.003666 0.001994
# 2 -0.002025 0.010427 -0.001659 -0.003762 0.003021 -0.000056
# 3 -0.000698 -0.001659 0.010582 -0.001235 -0.000318 0.002022
# 4 -0.000372 -0.003762 -0.001235 0.021310 0.003998 -0.001052
# 5 -0.003666 0.003021 -0.000318 0.003998 0.036815 -0.004549
# 6 0.001994 -0.000056 0.002022 -0.001052 -0.004549 0.019436
#
#
# Mechanical properties :
#
#
# Convention : Reuss Voigt Hill
#
# Bulk Modulus (GPa) = 54.41403 66.33790 60.37597
# Shear Modulus (GPa) = 41.80805 49.74013 45.77409
#
# Velocity S-wave (km/s) = 3.90249 4.25662 4.08340
# Velocity P-wave (km/s) = 6.33461 6.95150 6.65021
#
# Compressibility (1/GPa) = 0.01837761
#
# Stress axis : x y z
#
# Youngs Moduli (GPa) = 163.03741 95.90414 94.50038
#
# Poissons Ratio (x) = 0.19423 0.06601
# Poissons Ratio (y) = 0.33019 0.15676
# Poissons Ratio (z) = 0.11388 0.15908
#
# Static dielectric constant tensor:
#      x y z
#    x 2.502650 0.111040 -0.153380 
#    y 0.111040 2.316470 0.134330 
#    z -0.153380 0.134330 1.673850 
# 
# From -- ./inp_files/235242.got.cif
#   From: 2010.05.17/outbox.cif.g08.bks.cpg/sg2_118_cif.got.tgz:235242.got - 2010.06.03 11:33:40.
