data_PCOD9084898
_publ_section_title
;
Structure prediction by ZEFSAII (Michael W. Deem and Ramdas Pophale) SiO2 
 PCOD9084898
Probable space group: P -1
;
_chemical_formula_sum "Si O2"
_cell_formula_units_Z 14
_cell_length_a 16.859642
_cell_length_b 14.263606
_cell_length_c 9.788842
_cell_angle_alpha 45.687105
_cell_angle_beta 42.032352
_cell_angle_gamma 19.232502
_cell_volume 519.140960
_symmetry_space_group_name_H-M "P -1"
_symmetry_group_IT_number 2
_symmetry_cell_setting 'triclinic'
loop_
_space_group_symop_operation_xyz
x,y,z
-x,-y,-z
loop_
_atom_site_type_symbol
_atom_site_label
_atom_site_fract_x
_atom_site_fract_y
_atom_site_fract_z
Si Si1 0.762272 0.830957 0.960983
Si Si2 0.886077 0.286707 0.311165
Si Si3 0.721146 0.754905 0.359513
Si Si4 0.679110 0.525164 0.779776
Si Si5 0.872245 0.838642 0.235964
Si Si6 0.359155 0.929686 0.401722
Si Si7 0.004328 0.957736 0.309406
O O1 0.853145 0.886489 0.832146
O O2 0.703688 0.902939 0.804375
O O3 0.611332 0.915847 0.192999
O O4 0.000000 0.500000 0.000000
O O5 0.654332 0.610967 0.310996
O O6 0.864423 0.208848 0.545158
O O7 0.885413 0.214597 0.239993
O O8 0.776793 0.546797 0.527182
O O9 0.500000 0.000000 0.500000
O O10 0.925930 0.659363 0.254336
O O11 0.368536 0.846797 0.850060
O O12 0.784365 0.285470 0.827252
O O13 0.851367 0.377575 0.845499
O O14 0.733124 0.950294 0.448545
O O15 0.220526 0.925561 0.552358
#
# Coordination Sequence:
#
# PCOD9084898 Si02
#       7
#     2   2   2   2   2   2   2
#     4  11  24  40  58  91 131 159 208 268 321 371
#     4  10  19  35  57  88 122 159 206 260 321 363
#     4  10  22  41  62  87 127 168 211 253 322 390
#     4  10  19  37  58  91 116 160 211 260 304 372
#     4  10  20  36  63  88 124 160 213 251 316 382
#     4  10  20  36  61  92 122 160 207 264 317 372
#     4   9  18  33  59  87 121 158 208 260 308 381
#
# _framework density 26.967627
#
# number of rings (size 3 to 8) (size 9 to 14) (size 15 to 20)
#    0.000    2.000    1.429    3.429    2.000    0.571 
#   10.286    0.000    0.000    6.857    0.000    0.000 
#    0.000    0.000    0.000    0.000    0.000    0.000 
#
# Total GULP energy -78105.591013 kJ/mol
# GULP energy per Si atom -5578.970787 kJ/mol
# Density = 2.690625 g / cm^3
# Si number density = 26.967627 Si / 1000 Ang^3
#
#
#
# Elastic Constant Matrix: (Units=GPa)
#
#
# Indices 1 2 3 4 5 6 
#
# 1 165.6413 35.0679 31.7769 -13.1720 19.8930 13.0652
# 2 35.0679 91.9867 18.2643 -5.6000 15.9821 -11.6918
# 3 31.7769 18.2643 92.7433 -3.0958 27.0966 -4.8456
# 4 -13.1720 -5.6000 -3.0958 30.0192 -3.6581 4.7856
# 5 19.8930 15.9821 27.0966 -3.6581 46.2710 -5.0100
# 6 13.0652 -11.6918 -4.8456 4.7856 -5.0100 48.3302
#
#
#
# Elastic Compliance Matrix: (Units=1/GPa)
#
#
# Indices 1 2 3 4 5 6 
#
# 1 0.007582 -0.002521 -0.001737 0.003020 -0.001489 -0.003287
# 2 -0.002521 0.012876 -0.000742 0.000365 -0.002530 0.003424
# 3 -0.001737 -0.000742 0.013567 -0.000497 -0.006874 0.000987
# 4 0.003020 0.000365 -0.000497 0.035466 0.001219 -0.004163
# 5 -0.001489 -0.002530 -0.006874 0.001219 0.027445 0.001826
# 6 -0.003287 0.003424 0.000987 -0.004163 0.001826 0.023108
#
#
# Mechanical properties :
#
#
# Convention : Reuss Voigt Hill
#
# Bulk Modulus (GPa) = 41.62232 57.84326 49.73279
# Shear Modulus (GPa) = 36.21738 42.60825 39.41282
#
# Velocity S-wave (km/s) = 3.66867 3.97921 3.82709
# Velocity P-wave (km/s) = 5.78041 6.52747 6.16526
#
# Compressibility (1/GPa) = 0.02402557
#
# Stress axis : x y z
#
# Youngs Moduli (GPa) = 131.88405 77.66138 73.70661
#
# Poissons Ratio (x) = 0.19578 0.12806
# Poissons Ratio (y) = 0.33247 0.05468
# Poissons Ratio (z) = 0.22915 0.05762
#
# Static dielectric constant tensor:
#      x y z
#    x 1.541080 0.098910 -0.715300 
#    y 0.098910 2.177720 0.092260 
#    z -0.715300 0.092260 1.586590 
# 
# From -- ./inp_files/100863.got.cif
#   From: 2010.05.17/outbox.cif.g08.bks.cpg/sg2_51_cif.got.tgz:100863.got - 2010.06.03 11:33:40.
