data_PCOD9084785
_publ_section_title
;
Structure prediction by ZEFSAII (Michael W. Deem and Ramdas Pophale) SiO2 
 PCOD9084785
Probable space group: P -1
;
_chemical_formula_sum "Si O2"
_cell_formula_units_Z 12
_cell_length_a 14.013843
_cell_length_b 5.035553
_cell_length_c 9.588335
_cell_angle_alpha 121.865704
_cell_angle_beta 121.360439
_cell_angle_gamma 84.182784
_cell_volume 476.467313
_symmetry_space_group_name_H-M "P -1"
_symmetry_group_IT_number 2
_symmetry_cell_setting 'triclinic'
loop_
_space_group_symop_operation_xyz
x,y,z
-x,-y,-z
loop_
_atom_site_type_symbol
_atom_site_label
_atom_site_fract_x
_atom_site_fract_y
_atom_site_fract_z
Si Si1 0.878358 0.068977 0.534796
Si Si2 0.381838 0.501767 0.328261
Si Si3 0.497657 0.363183 0.114968
Si Si4 0.875703 0.894977 0.195853
Si Si5 0.952535 0.284299 0.114651
Si Si6 0.306137 0.156233 0.437278
O O1 0.933258 0.451379 0.675247
O O2 0.991776 0.938230 0.611376
O O3 0.814393 0.924270 0.304041
O O4 0.804224 0.977692 0.590277
O O5 0.500000 0.500000 0.500000
O O6 0.393505 0.379842 0.146730
O O7 0.291609 0.289818 0.309164
O O8 0.632985 0.140218 0.601033
O O9 0.611340 0.558641 0.334756
O O10 0.500000 0.500000 0.000000
O O11 0.500000 0.000000 0.000000
O O12 0.135822 0.880811 0.878108
O O13 0.885453 0.534320 0.058786
O O14 0.000000 0.000000 0.000000
#
# Coordination Sequence:
#
# PCOD9084785 Si02
#       6
#     2   2   2   2   2   2
#     4   9  22  35  61  83 111 152 199 228 276 333
#     4  10  21  39  60  85 112 154 189 231 293 351
#     4  11  21  39  61  83 116 149 183 236 300 337
#     4   9  20  36  58  79 117 152 192 226 283 338
#     4  10  19  35  57  80 111 150 188 231 288 329
#     4  11  22  37  63  85 115 152 201 234 273 358
#
# _framework density 25.185361
#
# number of rings (size 3 to 8) (size 9 to 14) (size 15 to 20)
#    1.000    1.000    0.000    6.000    2.333    0.000 
#    0.000    5.000    0.000    0.000    0.000    0.000 
#    0.000    0.000    0.000    0.000    0.000    0.000 
#
# Total GULP energy -67021.354421 kJ/mol
# GULP energy per Si atom -5585.112868 kJ/mol
# Density = 2.512804 g / cm^3
# Si number density = 25.185361 Si / 1000 Ang^3
#
#
#
# Elastic Constant Matrix: (Units=GPa)
#
#
# Indices 1 2 3 4 5 6 
#
# 1 59.0840 30.3128 36.0224 -0.1812 -32.6774 22.8992
# 2 30.3128 208.0486 66.3273 13.7021 -27.9415 27.6250
# 3 36.0224 66.3273 155.1911 12.1076 -18.3625 15.7390
# 4 -0.1812 13.7021 12.1076 47.4072 -1.8725 -23.5356
# 5 -32.6774 -27.9415 -18.3625 -1.8725 44.1009 -10.0244
# 6 22.8992 27.6250 15.7390 -23.5356 -10.0244 38.3944
#
#
#
# Elastic Compliance Matrix: (Units=1/GPa)
#
#
# Indices 1 2 3 4 5 6 
#
# 1 0.041561 0.002760 -0.004495 -0.011120 0.024434 -0.025368
# 2 0.002760 0.006957 -0.001925 -0.005495 0.003529 -0.008309
# 3 -0.004495 -0.001925 0.008432 -0.002223 -0.001387 -0.001115
# 4 -0.011120 -0.005495 -0.002223 0.040892 -0.002763 0.035842
# 5 0.024434 0.003529 -0.001387 -0.002763 0.040584 -0.007641
# 6 -0.025368 -0.008309 -0.001115 0.035842 -0.007641 0.067587
#
#
# Mechanical properties :
#
#
# Convention : Reuss Voigt Hill
#
# Bulk Modulus (GPa) = 20.14919 76.40541 48.27730
# Shear Modulus (GPa) = 21.75066 45.29126 33.52096
#
# Velocity S-wave (km/s) = 2.94193 4.24526 3.65220
# Velocity P-wave (km/s) = 4.42241 7.37785 6.08237
#
# Compressibility (1/GPa) = 0.04962978
#
# Stress axis : x y z
#
# Youngs Moduli (GPa) = 24.06094 143.73126 118.59258
#
# Poissons Ratio (x) = -0.39669 0.53310
# Poissons Ratio (y) = -0.06641 0.22831
# Poissons Ratio (z) = 0.10816 0.27671
#
# Static dielectric constant tensor:
#      x y z
#    x 2.147640 0.022540 0.010270 
#    y 0.022540 1.944010 -0.080880 
#    z 0.010270 -0.080880 2.117390 
# 
# From -- ./inp_files/287492.got.cif
#   From: 2010.05.17/outbox.cif.g08.bks.cpg/sg2_144_cif.got.tgz:287492.got - 2010.06.03 11:33:40.
