data_PCOD9084030
_publ_section_title
;
Structure prediction by ZEFSAII (Michael W. Deem and Ramdas Pophale) SiO2 
 PCOD9084030
Probable space group: P -1
;
_chemical_formula_sum "Si O2"
_cell_formula_units_Z 16
_cell_length_a 10.884504
_cell_length_b 8.922423
_cell_length_c 11.144750
_cell_angle_alpha 140.711093
_cell_angle_beta 108.454512
_cell_angle_gamma 80.074547
_cell_volume 645.352949
_symmetry_space_group_name_H-M "P -1"
_symmetry_group_IT_number 2
_symmetry_cell_setting 'triclinic'
loop_
_space_group_symop_operation_xyz
x,y,z
-x,-y,-z
loop_
_atom_site_type_symbol
_atom_site_label
_atom_site_fract_x
_atom_site_fract_y
_atom_site_fract_z
Si Si1 0.505205 0.383463 0.800616
Si Si2 0.120162 0.709787 0.912461
Si Si3 0.530970 0.777075 0.650297
Si Si4 0.237627 0.448950 0.479390
Si Si5 0.383568 0.777157 0.905928
Si Si6 0.003791 0.113063 0.262580
Si Si7 0.672903 0.084597 0.527025
Si Si8 0.907077 0.284869 0.578478
O O1 0.492737 0.600451 0.842577
O O2 0.629233 0.252462 0.723118
O O3 0.379226 0.186330 0.625627
O O4 0.500000 0.500000 0.000000
O O5 0.273504 0.709769 0.934570
O O6 0.074679 0.827404 0.845217
O O7 0.041764 0.448473 0.750552
O O8 0.073298 0.882330 0.107739
O O9 0.500000 0.500000 0.500000
O O10 0.671916 0.760304 0.625434
O O11 0.424319 0.862213 0.580929
O O12 0.558023 0.956935 0.880241
O O13 0.308903 0.689936 0.708131
O O14 0.183704 0.518236 0.377205
O O15 0.113312 0.341224 0.449245
O O16 0.926971 0.115350 0.365293
O O17 0.821298 0.143268 0.566991
#
# Coordination Sequence:
#
# PCOD9084030 Si02
#       8
#     2   2   2   2   2   2   2   2
#     4  11  25  46  67  86 117 176 222 255 313 371
#     4  10  20  34  61  95 123 174 204 245 311 386
#     4  12  24  39  61 100 132 158 204 266 319 377
#     4  11  20  36  61  97 131 165 201 253 316 383
#     4  12  22  40  68  89 125 172 216 250 309 379
#     4  10  19  34  59  92 135 166 200 244 319 386
#     4  11  25  44  64  92 127 164 211 268 314 371
#     4  11  21  38  61  93 136 158 201 259 322 375
#
# _framework density 24.792634
#
# number of rings (size 3 to 8) (size 9 to 14) (size 15 to 20)
#    0.000    1.000    7.500    0.750    0.000    1.500 
#    2.250    0.625    0.000    1.500    0.000    0.000 
#    0.000    0.000    0.000    0.000    0.000    0.000 
#
# Total GULP energy -89471.477921 kJ/mol
# GULP energy per Si atom -5591.967370 kJ/mol
# Density = 2.473620 g / cm^3
# Si number density = 24.792634 Si / 1000 Ang^3
#
#
#
# Elastic Constant Matrix: (Units=GPa)
#
#
# Indices 1 2 3 4 5 6 
#
# 1 109.3614 -2.6804 37.4605 6.1146 -20.6070 25.7387
# 2 -2.6804 49.5151 23.4903 8.0237 -3.1722 3.3120
# 3 37.4605 23.4903 154.3245 12.1268 -26.0738 12.9780
# 4 6.1146 8.0237 12.1268 33.0707 2.4864 -0.6086
# 5 -20.6070 -3.1722 -26.0738 2.4864 40.7701 -0.7839
# 6 25.7387 3.3120 12.9780 -0.6086 -0.7839 40.1727
#
#
#
# Elastic Compliance Matrix: (Units=1/GPa)
#
#
# Indices 1 2 3 4 5 6 
#
# 1 0.012896 0.002892 -0.001709 -0.003032 0.005684 -0.007884
# 2 0.002892 0.023029 -0.003352 -0.005046 0.001365 -0.002718
# 3 -0.001709 -0.003352 0.008438 -0.002319 0.004388 -0.001304
# 4 -0.003032 -0.005046 -0.002319 0.033342 -0.005374 0.003508
# 5 0.005684 0.001365 0.004388 -0.005374 0.030551 -0.004657
# 6 -0.007884 -0.002718 -0.001304 0.003508 -0.004657 0.030551
#
#
# Mechanical properties :
#
#
# Convention : Reuss Voigt Hill
#
# Bulk Modulus (GPa) = 24.98377 47.74909 36.36643
# Shear Modulus (GPa) = 31.95125 39.79809 35.87467
#
# Velocity S-wave (km/s) = 3.59380 4.01089 3.80806
# Velocity P-wave (km/s) = 5.22680 6.38364 5.83397
#
# Compressibility (1/GPa) = 0.04002599
#
# Stress axis : x y z
#
# Youngs Moduli (GPa) = 77.54158 43.42291 118.50918
#
# Poissons Ratio (x) = -0.12556 0.20254
# Poissons Ratio (y) = -0.22422 0.39718
# Poissons Ratio (z) = 0.13252 0.14553
#
# Static dielectric constant tensor:
#      x y z
#    x 2.100260 0.024830 0.012340 
#    y 0.024830 2.011780 -0.052280 
#    z 0.012340 -0.052280 1.950100 
# 
# From -- ./inp_files/519387.got.cif
#   From: 2010.05.17/outbox.cif.g08.bks.cpg/sg2_260_cif.got.tgz:519387.got - 2010.06.03 11:33:40.
