data_PCOD9084722
_publ_section_title
;
Structure prediction by ZEFSAII (Michael W. Deem and Ramdas Pophale) SiO2 
 PCOD9084722
Probable space group: P -1
;
_chemical_formula_sum "Si O2"
_cell_formula_units_Z 16
_cell_length_a 9.325469
_cell_length_b 15.474728
_cell_length_c 11.480270
_cell_angle_alpha 68.827023
_cell_angle_beta 112.822625
_cell_angle_gamma 143.525594
_cell_volume 904.069061
_symmetry_space_group_name_H-M "P -1"
_symmetry_group_IT_number 2
_symmetry_cell_setting 'triclinic'
loop_
_space_group_symop_operation_xyz
x,y,z
-x,-y,-z
loop_
_atom_site_type_symbol
_atom_site_label
_atom_site_fract_x
_atom_site_fract_y
_atom_site_fract_z
Si Si1 0.456232 0.386081 0.887542
Si Si2 0.365989 0.113459 0.640568
Si Si3 0.548342 0.396776 0.179811
Si Si4 0.092490 0.196253 0.679697
Si Si5 0.925146 0.431724 0.381442
Si Si6 0.320248 0.848550 0.452788
Si Si7 0.846172 0.894938 0.652371
Si Si8 0.601627 0.384686 0.703952
O O1 0.449874 0.495055 0.832578
O O2 0.199803 0.232285 0.826102
O O3 0.646235 0.433888 0.827806
O O4 0.507057 0.377188 0.037833
O O5 0.549920 0.125004 0.637164
O O6 0.293708 0.147558 0.492095
O O7 0.502654 0.234839 0.723771
O O8 0.100349 0.957948 0.675512
O O9 0.797417 0.457647 0.261869
O O10 0.330452 0.242294 0.251944
O O11 0.348801 0.324619 0.626077
O O12 0.930863 0.212892 0.616309
O O13 0.939782 0.037522 0.663177
O O14 0.729647 0.261433 0.426371
O O15 0.000000 0.500000 0.500000
O O16 0.160681 0.499167 0.356820
O O17 0.500000 0.000000 0.500000
#
# Coordination Sequence:
#
# PCOD9084722 Si02
#       8
#     2   2   2   2   2   2   2   2
#     4   9  23  40  57  83 110 160 193 238 274 329
#     4  10  19  35  56  86 118 147 180 234 297 333
#     4  11  21  40  61  83 115 149 198 235 283 334
#     4   9  20  39  54  83 116 151 187 231 283 341
#     4  12  22  36  60  88 114 150 187 235 292 346
#     4  12  21  34  56  89 118 145 183 239 291 335
#     4  10  19  36  59  84 115 150 182 235 289 348
#     4   9  21  38  54  85 112 153 193 226 287 332
#
# _framework density 17.697762999999998
#
# number of rings (size 3 to 8) (size 9 to 14) (size 15 to 20)
#    0.750    1.000    3.750    0.750    0.000    2.500 
#    0.000    0.000    0.000    0.750    0.000    0.000 
#    0.000    0.000    0.000    0.000    0.000    0.000 
#
# Total GULP energy -89087.599149 kJ/mol
# GULP energy per Si atom -5567.974947 kJ/mol
# Density = 1.765748 g / cm^3
# Si number density = 17.697763 Si / 1000 Ang^3
#
#
#
# Elastic Constant Matrix: (Units=GPa)
#
#
# Indices 1 2 3 4 5 6 
#
# 1 147.1879 29.4074 46.0119 1.3256 -15.1246 15.8602
# 2 29.4074 66.6844 34.0321 -0.0176 -9.4642 -0.0594
# 3 46.0119 34.0321 90.4003 13.2394 -6.3904 -7.4340
# 4 1.3256 -0.0176 13.2394 22.2958 -2.5860 -8.4350
# 5 -15.1246 -9.4642 -6.3904 -2.5860 29.9415 3.3854
# 6 15.8602 -0.0594 -7.4340 -8.4350 3.3854 32.4040
#
#
#
# Elastic Compliance Matrix: (Units=1/GPa)
#
#
# Indices 1 2 3 4 5 6 
#
# 1 0.009588 -0.001259 -0.004668 0.000375 0.004172 -0.006104
# 2 -0.001259 0.019902 -0.007258 0.004842 0.004550 -0.000227
# 3 -0.004668 -0.007258 0.017666 -0.008861 -0.002126 0.004240
# 4 0.000375 0.004842 -0.008861 0.054916 0.003244 0.011748
# 5 0.004172 0.004550 -0.002126 0.003244 0.037401 -0.005584
# 6 -0.006104 -0.000227 0.004240 0.011748 -0.005584 0.038462
#
#
# Mechanical properties :
#
#
# Convention : Reuss Voigt Hill
#
# Bulk Modulus (GPa) = 48.10852 58.13062 53.11957
# Shear Modulus (GPa) = 23.67049 29.91634 26.79341
#
# Velocity S-wave (km/s) = 3.66113 4.11591 3.89516
# Velocity P-wave (km/s) = 6.71671 7.45018 7.09294
#
# Compressibility (1/GPa) = 0.02078634
#
# Stress axis : x y z
#
# Youngs Moduli (GPa) = 104.29800 50.24628 56.60540
#
# Poissons Ratio (x) = 0.06327 0.26424
# Poissons Ratio (y) = 0.13133 0.41082
# Poissons Ratio (z) = 0.48687 0.36467
#
# Static dielectric constant tensor:
#      x y z
#    x 1.596230 0.048620 -0.030920 
#    y 0.048620 1.596790 0.029350 
#    z -0.030920 0.029350 1.571400 
# 
# From -- ./inp_files/395783.got.cif
#   From: 2010.05.17/outbox.cif.g08.bks.cpg/sg2_198_cif.got.tgz:395783.got - 2010.06.03 11:33:40.
