data_PCOD9084420
_publ_section_title
;
Structure prediction by ZEFSAII (Michael W. Deem and Ramdas Pophale) SiO2 
 PCOD9084420
Probable space group: P -1
;
_chemical_formula_sum "Si O2"
_cell_formula_units_Z 14
_cell_length_a 9.353019
_cell_length_b 27.574003
_cell_length_c 8.713397
_cell_angle_alpha 154.963124
_cell_angle_beta 141.197397
_cell_angle_gamma 36.784567
_cell_volume 556.554948
_symmetry_space_group_name_H-M "P -1"
_symmetry_group_IT_number 2
_symmetry_cell_setting 'triclinic'
loop_
_space_group_symop_operation_xyz
x,y,z
-x,-y,-z
loop_
_atom_site_type_symbol
_atom_site_label
_atom_site_fract_x
_atom_site_fract_y
_atom_site_fract_z
Si Si1 0.077033 0.804287 0.519540
Si Si2 0.700294 0.374850 0.368701
Si Si3 0.016758 0.593035 0.019806
Si Si4 0.760876 0.690475 0.382422
Si Si5 0.061692 0.014566 0.345349
Si Si6 0.422636 0.392752 0.711140
Si Si7 0.369617 0.882560 0.478460
O O1 0.946696 0.709593 0.186993
O O2 0.367099 0.727735 0.523105
O O3 0.045901 0.904561 0.911884
O O4 0.963799 0.873757 0.468315
O O5 0.500000 0.500000 0.500000
O O6 0.758977 0.398036 0.660866
O O7 0.651629 0.248634 0.958193
O O8 0.967543 0.338661 0.409144
O O9 0.826110 0.611898 0.052162
O O10 0.128478 0.464983 0.658604
O O11 0.591797 0.653809 0.256727
O O12 0.636448 0.832170 0.633863
O O13 0.306184 0.964322 0.508221
O O14 0.834322 0.055845 0.389306
O O15 0.500000 0.500000 0.000000
#
# Coordination Sequence:
#
# PCOD9084420 Si02
#       7
#     2   2   2   2   2   2   2
#     4  10  19  39  61  92 127 175 205 264 325 360
#     4  10  22  36  65  97 128 154 217 264 312 380
#     4   9  20  36  61  94 122 163 207 259 318 382
#     4  10  21  38  65  97 126 169 209 259 324 382
#     4  10  21  36  65  87 126 177 219 257 312 370
#     4  10  19  34  65  93 127 167 204 256 330 377
#     4  11  21  40  64  97 122 170 223 260 308 378
#
# _framework density 25.154748000000001
#
# number of rings (size 3 to 8) (size 9 to 14) (size 15 to 20)
#    0.857    1.143    2.857    1.286    2.000    0.000 
#    0.000    7.143    3.143    8.571    0.000    0.000 
#    0.000    0.000    0.000    0.000    0.000    0.000 
#
# Total GULP energy -77963.057229 kJ/mol
# GULP energy per Si atom -5568.789802 kJ/mol
# Density = 2.509749 g / cm^3
# Si number density = 25.154748 Si / 1000 Ang^3
#
#
#
# Elastic Constant Matrix: (Units=GPa)
#
#
# Indices 1 2 3 4 5 6 
#
# 1 114.7717 51.8540 23.7200 1.6330 -12.4221 10.2402
# 2 51.8540 186.3344 48.6532 40.6568 -7.2655 26.5491
# 3 23.7200 48.6532 79.4294 14.2234 -10.1630 -1.1548
# 4 1.6330 40.6568 14.2234 29.3296 -1.6034 -2.8109
# 5 -12.4221 -7.2655 -10.1630 -1.6034 34.7688 12.7985
# 6 10.2402 26.5491 -1.1548 -2.8109 12.7985 48.8893
#
#
#
# Elastic Compliance Matrix: (Units=1/GPa)
#
#
# Indices 1 2 3 4 5 6 
#
# 1 0.011000 -0.003449 -0.001665 0.005058 0.003344 -0.001055
# 2 -0.003449 0.011427 -0.003176 -0.014660 0.002111 -0.006954
# 3 -0.001665 -0.003176 0.015922 -0.002929 0.002679 0.001580
# 4 0.005058 -0.014660 -0.002929 0.056416 -0.003563 0.011009
# 5 0.003344 0.002111 0.002679 -0.003563 0.035134 -0.011186
# 6 -0.001055 -0.006954 0.001580 0.011009 -0.011186 0.028050
#
#
# Mechanical properties :
#
#
# Convention : Reuss Voigt Hill
#
# Bulk Modulus (GPa) = 45.93591 69.88776 57.91183
# Shear Modulus (GPa) = 27.50500 39.68476 33.59488
#
# Velocity S-wave (km/s) = 3.31030 3.97624 3.65845
# Velocity P-wave (km/s) = 5.73687 6.99458 6.39671
#
# Compressibility (1/GPa) = 0.02176946
#
# Stress axis : x y z
#
# Youngs Moduli (GPa) = 90.91317 87.50889 62.80424
#
# Poissons Ratio (x) = 0.30183 0.10459
# Poissons Ratio (y) = 0.31357 0.19944
# Poissons Ratio (z) = 0.15140 0.27789
#
# Static dielectric constant tensor:
#      x y z
#    x 2.004020 -0.026070 0.023100 
#    y -0.026070 2.120930 -0.050530 
#    z 0.023100 -0.050530 2.067340 
# 
# From -- ./inp_files/227654.got.cif
#   From: 2010.05.17/outbox.cif.g08.bks.cpg/sg2_114_cif.got.tgz:227654.got - 2010.06.03 11:33:40.
