data_PCOD9084177
_publ_section_title
;
Structure prediction by ZEFSAII (Michael W. Deem and Ramdas Pophale) SiO2 
 PCOD9084177
Probable space group: P -1
;
_chemical_formula_sum "Si O2"
_cell_formula_units_Z 16
_cell_length_a 14.488931
_cell_length_b 11.886911
_cell_length_c 21.319964
_cell_angle_alpha 148.119494
_cell_angle_beta 151.682945
_cell_angle_gamma 50.050652
_cell_volume 834.493233
_symmetry_space_group_name_H-M "P -1"
_symmetry_group_IT_number 2
_symmetry_cell_setting 'triclinic'
loop_
_space_group_symop_operation_xyz
x,y,z
-x,-y,-z
loop_
_atom_site_type_symbol
_atom_site_label
_atom_site_fract_x
_atom_site_fract_y
_atom_site_fract_z
Si Si1 0.414023 0.017185 0.025380
Si Si2 0.422446 0.696522 0.068089
Si Si3 0.491937 0.342299 0.766629
Si Si4 0.800049 0.211052 0.681216
Si Si5 0.126521 0.850956 0.439188
Si Si6 0.721537 0.576351 0.886293
Si Si7 0.182531 0.576036 0.743473
Si Si8 0.144995 0.846178 0.587578
O O1 0.373832 0.248811 0.113831
O O2 0.603219 0.031884 0.192346
O O3 0.500000 0.000000 0.000000
O O4 0.205402 0.784101 0.808962
O O5 0.355626 0.643369 0.075767
O O6 0.637280 0.936002 0.311501
O O7 0.500000 0.500000 0.000000
O O8 0.262382 0.688600 0.913603
O O9 0.616025 0.472328 0.840877
O O10 0.338331 0.462915 0.755730
O O11 0.347518 0.067109 0.536779
O O12 0.858272 0.282074 0.676811
O O13 0.691984 0.363169 0.721522
O O14 0.024665 0.273964 0.880270
O O15 0.082998 0.743244 0.431505
O O16 0.960985 0.968678 0.382520
O O17 0.958482 0.357879 0.519730
#
# Coordination Sequence:
#
# PCOD9084177 Si02
#       8
#     2   2   2   2   2   2   2   2
#     4  12  25  38  56  85 127 157 185 229 296 359
#     4   9  16  31  54  87 118 140 183 240 288 330
#     4  10  20  35  61  89 114 147 192 247 288 330
#     4  10  22  41  61  87 109 153 205 243 279 338
#     4  10  19  34  61  88 117 142 199 247 284 331
#     4  11  24  40  60  82 119 160 193 235 289 346
#     4  11  21  35  56  91 123 149 183 235 297 351
#     4  11  22  34  59  91 115 154 186 242 293 338
#
# _framework density 19.173314999999999
#
# number of rings (size 3 to 8) (size 9 to 14) (size 15 to 20)
#    0.000    1.500    6.250    1.125    1.750    1.500 
#    0.000    0.625    0.000    0.750    0.000    0.000 
#    0.000    0.000    0.000    0.000    0.000    0.000 
#
# Total GULP energy -89313.166446 kJ/mol
# GULP energy per Si atom -5582.072903 kJ/mol
# Density = 1.912968 g / cm^3
# Si number density = 19.173315 Si / 1000 Ang^3
#
#
#
# Elastic Constant Matrix: (Units=GPa)
#
#
# Indices 1 2 3 4 5 6 
#
# 1 98.6287 32.8804 14.6045 18.7834 -9.2029 14.2451
# 2 32.8804 52.3588 18.6388 17.2952 -4.8743 7.2417
# 3 14.6045 18.6388 60.1525 13.5604 -9.7976 -1.2318
# 4 18.7834 17.2952 13.5604 23.4091 4.9665 4.6290
# 5 -9.2029 -4.8743 -9.7976 4.9665 35.6368 6.9756
# 6 14.2451 7.2417 -1.2318 4.6290 6.9756 30.4647
#
#
#
# Elastic Compliance Matrix: (Units=1/GPa)
#
#
# Indices 1 2 3 4 5 6 
#
# 1 0.014762 -0.005530 0.000780 -0.008281 0.005513 -0.005560
# 2 -0.005530 0.030025 -0.003707 -0.015902 0.004526 -0.003321
# 3 0.000780 -0.003707 0.021489 -0.012138 0.006975 0.001633
# 4 -0.008281 -0.015902 -0.012138 0.071843 -0.017722 0.000303
# 5 0.005513 0.004526 0.006975 -0.017722 0.036248 -0.008978
# 6 -0.005560 -0.003321 0.001633 0.000303 -0.008978 0.038290
#
#
# Mechanical properties :
#
#
# Convention : Reuss Voigt Hill
#
# Bulk Modulus (GPa) = 20.25835 38.15417 29.20626
# Shear Modulus (GPa) = 20.32316 27.56989 23.94652
#
# Velocity S-wave (km/s) = 3.25925 3.79612 3.53788
# Velocity P-wave (km/s) = 4.97519 6.25754 5.65285
#
# Compressibility (1/GPa) = 0.04936236
#
# Stress axis : x y z
#
# Youngs Moduli (GPa) = 67.74302 33.30586 46.53456
#
# Poissons Ratio (x) = 0.18419 -0.03632
# Poissons Ratio (y) = 0.37464 0.17250
# Poissons Ratio (z) = -0.05287 0.12346
#
# Static dielectric constant tensor:
#      x y z
#    x 1.730720 0.113900 -0.015940 
#    y 0.113900 1.811100 -0.086540 
#    z -0.015940 -0.086540 1.745180 
# 
# From -- ./inp_files/455576.got.cif
#   From: 2010.05.17/outbox.cif.g08.bks.cpg/sg2_228_cif.got.tgz:455576.got - 2010.06.03 11:33:40.
