data_PCOD9084698
_publ_section_title
;
Structure prediction by ZEFSAII (Michael W. Deem and Ramdas Pophale) SiO2 
 PCOD9084698
Probable space group: P -1
;
_chemical_formula_sum "Si O2"
_cell_formula_units_Z 16
_cell_length_a 11.398450
_cell_length_b 8.955793
_cell_length_c 13.609492
_cell_angle_alpha 118.729246
_cell_angle_beta 136.602782
_cell_angle_gamma 81.294825
_cell_volume 790.563829
_symmetry_space_group_name_H-M "P -1"
_symmetry_group_IT_number 2
_symmetry_cell_setting 'triclinic'
loop_
_space_group_symop_operation_xyz
x,y,z
-x,-y,-z
loop_
_atom_site_type_symbol
_atom_site_label
_atom_site_fract_x
_atom_site_fract_y
_atom_site_fract_z
Si Si1 0.014019 0.645974 0.929466
Si Si2 0.520168 0.743815 0.782312
Si Si3 0.955482 0.046929 0.683504
Si Si4 0.790020 0.604213 0.974676
Si Si5 0.796651 0.292906 0.574911
Si Si6 0.051163 0.285100 0.547992
Si Si7 0.743016 0.325095 0.228546
Si Si8 0.864162 0.088822 0.079092
O O1 0.058207 0.823955 0.948841
O O2 0.937556 0.660700 0.994623
O O3 0.864311 0.483805 0.730756
O O4 0.183134 0.572006 0.018659
O O5 0.597046 0.581830 0.803237
O O6 0.376405 0.721973 0.601437
O O7 0.429882 0.770359 0.839232
O O8 0.699564 0.904305 0.913932
O O9 0.798085 0.136881 0.603990
O O10 0.929024 0.902419 0.533938
O O11 0.983581 0.940918 0.765004
O O12 0.140897 0.222571 0.855598
O O13 0.951706 0.283292 0.589683
O O14 0.226448 0.464221 0.705449
O O15 0.908524 0.315478 0.393383
O O16 0.772819 0.224901 0.117854
#
# Coordination Sequence:
#
# PCOD9084698 Si02
#       8
#     2   2   2   2   2   2   2   2
#     4  10  20  39  65  75 105 150 195 220 261 339
#     4  10  21  34  54  83 122 138 173 235 286 310
#     4   9  19  32  56  80 110 143 186 219 264 329
#     4   9  21  40  58  81 107 146 188 229 271 323
#     4  10  19  35  56  83 112 146 182 227 272 323
#     4   9  16  30  54  82 109 146 188 217 263 333
#     4   9  17  31  53  83 113 146 177 223 275 328
#     4  10  19  36  58  82 109 148 184 225 269 331
#
# _framework density 20.238720000000001
#
# number of rings (size 3 to 8) (size 9 to 14) (size 15 to 20)
#    0.000    2.500    1.250    0.750    1.750    3.500 
#    2.250    0.625    2.750    3.000    0.000    0.000 
#    0.000    0.000    0.000    0.000    0.000    0.000 
#
# Total GULP energy -89078.776782 kJ/mol
# GULP energy per Si atom -5567.423549 kJ/mol
# Density = 2.019266 g / cm^3
# Si number density = 20.238720 Si / 1000 Ang^3
#
#
#
# Elastic Constant Matrix: (Units=GPa)
#
#
# Indices 1 2 3 4 5 6 
#
# 1 18.9515 17.3347 11.0844 -0.8173 -5.1685 4.1111
# 2 17.3347 104.7661 38.8015 -13.6206 5.5454 -1.3944
# 3 11.0844 38.8015 69.8151 -15.6131 -10.4989 -5.5623
# 4 -0.8173 -13.6206 -15.6131 39.8831 -6.9425 -3.5062
# 5 -5.1685 5.5454 -10.4989 -6.9425 18.8066 -1.6222
# 6 4.1111 -1.3944 -5.5623 -3.5062 -1.6222 27.0849
#
#
#
# Elastic Compliance Matrix: (Units=1/GPa)
#
#
# Indices 1 2 3 4 5 6 
#
# 1 0.074149 -0.012698 -0.002694 -0.001177 0.021205 -0.011344
# 2 -0.012698 0.015484 -0.008714 -0.000669 -0.013161 0.000060
# 3 -0.002694 -0.008714 0.026039 0.011588 0.021341 0.008086
# 4 -0.001177 -0.000669 0.011588 0.033434 0.019377 0.008013
# 5 0.021205 -0.013161 0.021341 0.019377 0.082633 0.007944
# 6 -0.011344 0.000060 0.008086 0.008013 0.007944 0.041819
#
#
# Mechanical properties :
#
#
# Convention : Reuss Voigt Hill
#
# Bulk Modulus (GPa) = 14.82310 36.44154 25.63232
# Shear Modulus (GPa) = 14.52405 25.57573 20.04989
#
# Velocity S-wave (km/s) = 2.68178 3.55872 3.15091
# Velocity P-wave (km/s) = 4.11452 5.91024 5.09216
#
# Compressibility (1/GPa) = 0.06746225
#
# Stress axis : x y z
#
# Youngs Moduli (GPa) = 13.48628 64.58427 38.40382
#
# Poissons Ratio (x) = 0.82006 0.10345
# Poissons Ratio (y) = 0.17124 0.33464
# Poissons Ratio (z) = 0.03633 0.56276
#
# Static dielectric constant tensor:
#      x y z
#    x 1.738370 0.001190 -0.027400 
#    y 0.001190 1.807210 0.001340 
#    z -0.027400 0.001340 1.718660 
# 
# From -- ./inp_files/178713.got.cif
#   From: 2010.05.17/outbox.cif.g08.bks.cpg/sg2_90_cif.got.tgz:178713.got - 2010.06.03 11:33:40.
