data_PCOD9084764
_publ_section_title
;
Structure prediction by ZEFSAII (Michael W. Deem and Ramdas Pophale) SiO2 
 PCOD9084764
Probable space group: P -1
;
_chemical_formula_sum "Si O2"
_cell_formula_units_Z 14
_cell_length_a 16.363559
_cell_length_b 13.279479
_cell_length_c 9.128670
_cell_angle_alpha 68.492512
_cell_angle_beta 113.242711
_cell_angle_gamma 50.768524
_cell_volume 706.504041
_symmetry_space_group_name_H-M "P -1"
_symmetry_group_IT_number 2
_symmetry_cell_setting 'triclinic'
loop_
_space_group_symop_operation_xyz
x,y,z
-x,-y,-z
loop_
_atom_site_type_symbol
_atom_site_label
_atom_site_fract_x
_atom_site_fract_y
_atom_site_fract_z
Si Si1 0.532054 0.591521 0.458128
Si Si2 0.940793 0.692044 0.219064
Si Si3 0.078996 0.102932 0.707188
Si Si4 0.300533 0.894288 0.398265
Si Si5 0.234733 0.711172 0.483467
Si Si6 0.646175 0.141402 0.208389
Si Si7 0.311634 0.123806 0.800146
O O1 0.500000 0.500000 0.500000
O O2 0.511827 0.663091 0.566460
O O3 0.729376 0.386329 0.597994
O O4 0.311818 0.861569 0.074247
O O5 0.044187 0.660132 0.431148
O O6 0.751528 0.844576 0.097071
O O7 0.104460 0.417302 0.439411
O O8 0.864481 0.847806 0.944781
O O9 0.967791 0.116409 0.671957
O O10 0.137150 0.046823 0.608059
O O11 0.231158 0.844150 0.387489
O O12 0.340203 0.887450 0.593888
O O13 0.445580 0.440863 0.867183
O O14 0.630452 0.043677 0.167808
O O15 0.500000 0.000000 0.000000
#
# Coordination Sequence:
#
# PCOD9084764 Si02
#       7
#     2   2   2   2   2   2   2
#     4   8  17  31  49  72 102 139 179 217 248 298
#     4   9  20  36  56  80 105 134 181 231 263 313
#     4   9  18  34  54  79 104 143 187 213 256 319
#     4  10  20  35  53  83 118 141 170 224 276 312
#     4  10  19  35  57  77 111 154 183 207 255 327
#     4  10  21  36  54  80 114 143 176 224 271 316
#     4  10  20  39  61  75  98 142 187 223 269 324
#
# _framework density 19.815881999999998
#
# number of rings (size 3 to 8) (size 9 to 14) (size 15 to 20)
#    0.000    2.571    0.000    2.143    0.000    6.286 
#    0.000    7.857    0.000    0.000    0.000    0.000 
#    0.000    0.000    0.000    0.000    0.000    0.000 
#
# Total GULP energy -77967.064174 kJ/mol
# GULP energy per Si atom -5569.076012 kJ/mol
# Density = 1.977078 g / cm^3
# Si number density = 19.815882 Si / 1000 Ang^3
#
#
#
# Elastic Constant Matrix: (Units=GPa)
#
#
# Indices 1 2 3 4 5 6 
#
# 1 134.5187 47.8951 53.5201 -2.1615 -10.6415 -5.3556
# 2 47.8951 99.6787 41.8642 11.5108 -10.2859 -20.7035
# 3 53.5201 41.8642 70.5783 -4.0755 -28.1299 -2.8902
# 4 -2.1615 11.5108 -4.0755 21.6338 0.1068 -16.3442
# 5 -10.6415 -10.2859 -28.1299 0.1068 37.2579 -4.3285
# 6 -5.3556 -20.7035 -2.8902 -16.3442 -4.3285 30.1664
#
#
#
# Elastic Compliance Matrix: (Units=1/GPa)
#
#
# Indices 1 2 3 4 5 6 
#
# 1 0.011517 -0.002377 -0.009140 -0.000189 -0.004406 -0.001196
# 2 -0.002377 0.016859 -0.009058 -0.005686 -0.002045 0.006906
# 3 -0.009140 -0.009058 0.037429 0.017332 0.024097 0.008595
# 4 -0.000189 -0.005686 0.017332 0.088910 0.016819 0.048309
# 5 -0.004406 -0.002045 0.024097 0.016819 0.044985 0.015690
# 6 -0.001196 0.006906 0.008595 0.048309 0.015690 0.066926
#
#
# Mechanical properties :
#
#
# Convention : Reuss Voigt Hill
#
# Bulk Modulus (GPa) = 40.55807 65.70381 53.13094
# Shear Modulus (GPa) = 15.82314 28.57805 22.20059
#
# Velocity S-wave (km/s) = 2.82885 3.80172 3.35078
# Velocity P-wave (km/s) = 5.58406 7.24568 6.46845
#
# Compressibility (1/GPa) = 0.02465601
#
# Stress axis : x y z
#
# Youngs Moduli (GPa) = 86.82580 59.31671 26.71723
#
# Poissons Ratio (x) = 0.14098 0.24419
# Poissons Ratio (y) = 0.20637 0.24201
# Poissons Ratio (z) = 0.79356 0.53729
#
# Static dielectric constant tensor:
#      x y z
#    x 1.762690 0.002700 -0.042350 
#    y 0.002700 1.780130 -0.048860 
#    z -0.042350 -0.048860 1.768330 
# 
# From -- ./inp_files/84914.got.cif
#   From: 2010.05.17/outbox.cif.g08.bks.cpg/sg2_43_cif.got.tgz:84914.got - 2010.06.03 11:33:40.
