data_PCOD9084226
_publ_section_title
;
Structure prediction by ZEFSAII (Michael W. Deem and Ramdas Pophale) SiO2 
 PCOD9084226
Probable space group: P -1
;
_chemical_formula_sum "Si O2"
_cell_formula_units_Z 14
_cell_length_a 12.428403
_cell_length_b 9.443742
_cell_length_c 7.458780
_cell_angle_alpha 106.678282
_cell_angle_beta 85.877944
_cell_angle_gamma 40.558045
_cell_volume 482.607617
_symmetry_space_group_name_H-M "P -1"
_symmetry_group_IT_number 2
_symmetry_cell_setting 'triclinic'
loop_
_space_group_symop_operation_xyz
x,y,z
-x,-y,-z
loop_
_atom_site_type_symbol
_atom_site_label
_atom_site_fract_x
_atom_site_fract_y
_atom_site_fract_z
Si Si1 0.762536 0.265349 0.272880
Si Si2 0.277822 0.764667 0.129952
Si Si3 0.178698 0.555382 0.106829
Si Si4 0.650792 0.140585 0.523428
Si Si5 0.936933 0.687183 0.917961
Si Si6 0.136939 0.546467 0.494828
Si Si7 0.579010 0.980004 0.218757
O O1 0.736564 0.160738 0.377945
O O2 0.565896 0.567732 0.359018
O O3 0.870851 0.274323 0.368268
O O4 0.801709 0.153887 0.030822
O O5 0.257785 0.927139 0.320998
O O6 0.500000 0.500000 0.000000
O O7 0.219099 0.677423 0.196918
O O8 0.359095 0.256635 0.916273
O O9 0.048336 0.697710 0.001533
O O10 0.000000 0.500000 0.000000
O O11 0.650697 0.972527 0.393632
O O12 0.914925 0.407005 0.691298
O O13 0.024121 0.584444 0.673418
O O14 0.711039 0.925097 0.041890
O O15 0.358525 0.253659 0.344663
#
# Coordination Sequence:
#
# PCOD9084226 Si02
#       7
#     2   2   2   2   2   2   2
#     4   9  17  33  61  86 123 169 205 258 321 373
#     4  10  19  34  61  94 122 171 213 257 320 384
#     4  11  22  41  67  95 132 171 218 265 325 389
#     4   9  18  36  57  90 127 160 213 263 314 377
#     4  10  24  44  62  94 140 169 210 269 328 383
#     4  11  21  42  69  93 129 175 215 264 328 377
#     4  10  24  42  66 101 129 166 223 267 316 392
#
# _framework density 29.009073999999998
#
# number of rings (size 3 to 8) (size 9 to 14) (size 15 to 20)
#    0.000    2.000    2.857    0.429    2.000    4.571 
#    0.000    4.286    0.000    0.000    0.000    0.000 
#    0.000    0.000    0.000    0.000    0.000    0.000 
#
# Total GULP energy -78378.562522 kJ/mol
# GULP energy per Si atom -5598.468752 kJ/mol
# Density = 2.894305 g / cm^3
# Si number density = 29.009074 Si / 1000 Ang^3
#
#
#
# Elastic Constant Matrix: (Units=GPa)
#
#
# Indices 1 2 3 4 5 6 
#
# 1 101.5964 32.7436 39.4089 -23.0057 -4.9449 8.8826
# 2 32.7436 119.4891 86.0659 -10.8475 -3.4037 4.1100
# 3 39.4089 86.0659 246.4769 -25.5580 0.6647 -7.4266
# 4 -23.0057 -10.8475 -25.5580 75.7963 -14.3852 -5.2999
# 5 -4.9449 -3.4037 0.6647 -14.3852 66.3336 -2.1302
# 6 8.8826 4.1100 -7.4266 -5.2999 -2.1302 27.6399
#
#
#
# Elastic Compliance Matrix: (Units=1/GPa)
#
#
# Indices 1 2 3 4 5 6 
#
# 1 0.011927 -0.002181 -0.000927 0.003036 0.001346 -0.003072
# 2 -0.002181 0.011810 -0.003879 -0.000366 0.000334 -0.002142
# 3 -0.000927 -0.003879 0.005776 0.001307 0.000044 0.002680
# 4 0.003036 -0.000366 0.001307 0.015375 0.003614 0.002656
# 5 0.001346 0.000334 0.000044 0.003614 0.016023 0.001457
# 6 -0.003072 -0.002142 0.002680 0.002656 0.001457 0.038827
#
#
# Mechanical properties :
#
#
# Convention : Reuss Voigt Hill
#
# Bulk Modulus (GPa) = 64.34984 87.11102 75.73043
# Shear Modulus (GPa) = 42.05537 54.57691 48.31614
#
# Velocity S-wave (km/s) = 3.81166 4.34219 4.08555
# Velocity P-wave (km/s) = 6.45000 7.43193 6.95831
#
# Compressibility (1/GPa) = 0.01554005
#
# Stress axis : x y z
#
# Youngs Moduli (GPa) = 83.84399 84.67156 173.13430
#
# Poissons Ratio (x) = 0.18469 0.16044
# Poissons Ratio (y) = 0.18288 0.67152
# Poissons Ratio (z) = 0.07770 0.32841
#
# Static dielectric constant tensor:
#      x y z
#    x 2.382140 0.066080 0.049510 
#    y 0.066080 2.341920 0.178060 
#    z 0.049510 0.178060 2.327450 
# 
# From -- ./inp_files/260664.got.cif
#   From: 2010.05.17/outbox.cif.g08.bks.cpg/sg2_131_cif.got.tgz:260664.got - 2010.06.03 11:33:40.
