data_PCOD9084016
_publ_section_title
;
Structure prediction by ZEFSAII (Michael W. Deem and Ramdas Pophale) SiO2 
 PCOD9084016
Probable space group: P -1
;
_chemical_formula_sum "Si O2"
_cell_formula_units_Z 16
_cell_length_a 14.636735
_cell_length_b 7.531778
_cell_length_c 5.954827
_cell_angle_alpha 110.846013
_cell_angle_beta 103.746533
_cell_angle_gamma 85.217752
_cell_volume 595.918831
_symmetry_space_group_name_H-M "P -1"
_symmetry_group_IT_number 2
_symmetry_cell_setting 'triclinic'
loop_
_space_group_symop_operation_xyz
x,y,z
-x,-y,-z
loop_
_atom_site_type_symbol
_atom_site_label
_atom_site_fract_x
_atom_site_fract_y
_atom_site_fract_z
Si Si1 0.081623 0.107069 0.843990
Si Si2 0.086818 0.646192 0.631818
Si Si3 0.212976 0.058014 0.271579
Si Si4 0.417528 0.526227 0.144009
Si Si5 0.628765 0.034392 0.013224
Si Si6 0.267089 0.271257 0.784297
Si Si7 0.121142 0.700795 0.199050
Si Si8 0.519978 0.233222 0.358421
O O1 0.166226 0.206579 0.797136
O O2 0.986878 0.224951 0.815789
O O3 0.070825 0.877754 0.702671
O O4 0.117557 0.121681 0.126527
O O5 0.139414 0.596192 0.401145
O O6 0.000000 0.500000 0.500000
O O7 0.125683 0.627774 0.906334
O O8 0.280300 0.968120 0.085985
O O9 0.260014 0.233768 0.500549
O O10 0.187500 0.884943 0.338074
O O11 0.442750 0.386821 0.304934
O O12 0.431495 0.727077 0.360815
O O13 0.500000 0.500000 0.000000
O O14 0.315594 0.466929 0.971760
O O15 0.539353 0.958032 0.789625
O O16 0.656631 0.881909 0.152101
O O17 0.600190 0.222894 0.210254
#
# Coordination Sequence:
#
# PCOD9084016 Si02
#       8
#     2   2   2   2   2   2   2   2
#     4  10  22  39  63  91 118 168 220 261 313 386
#     4  11  22  39  64  93 125 165 214 273 330 378
#     4  10  19  34  59  90 120 156 212 267 309 372
#     4  10  20  35  60  87 116 158 194 259 315 372
#     4   9  19  35  58  87 115 166 202 253 310 387
#     4  10  20  35  59  85 122 155 208 257 314 373
#     4  11  23  40  68  93 126 175 225 264 319 394
#     4   9  19  37  58  84 122 154 206 249 314 385
#
# _framework density 26.849297
#
# number of rings (size 3 to 8) (size 9 to 14) (size 15 to 20)
#    0.000    2.000    1.250    3.000    1.750    2.000 
#    0.000    7.500   11.000    0.000    0.000    0.000 
#    0.000    0.000    0.000    0.000    0.000    0.000 
#
# Total GULP energy -89392.517413 kJ/mol
# GULP energy per Si atom -5587.032338 kJ/mol
# Density = 2.678819 g / cm^3
# Si number density = 26.849297 Si / 1000 Ang^3
#
#
#
# Elastic Constant Matrix: (Units=GPa)
#
#
# Indices 1 2 3 4 5 6 
#
# 1 128.0364 26.0968 48.3850 7.4185 7.7858 4.1923
# 2 26.0968 96.7227 38.8005 -0.7673 5.0954 2.2204
# 3 48.3850 38.8005 211.5099 16.6757 13.5354 19.8263
# 4 7.4185 -0.7673 16.6757 26.4567 20.0883 5.4058
# 5 7.7858 5.0954 13.5354 20.0883 35.6958 -4.8824
# 6 4.1923 2.2204 19.8263 5.4058 -4.8824 34.8095
#
#
#
# Elastic Compliance Matrix: (Units=1/GPa)
#
#
# Indices 1 2 3 4 5 6 
#
# 1 0.008860 -0.001747 -0.001593 -0.001300 -0.000333 0.000107
# 2 -0.001747 0.011780 -0.001853 0.004645 -0.003303 -0.000670
# 3 -0.001593 -0.001853 0.005920 -0.002133 -0.000821 -0.002846
# 4 -0.001300 0.004645 -0.002133 0.078057 -0.045889 -0.017483
# 5 -0.000333 -0.003303 -0.000821 -0.045889 0.056859 0.015820
# 6 0.000107 -0.000670 -0.002846 -0.017483 0.015820 0.035312
#
#
# Mechanical properties :
#
#
# Convention : Reuss Voigt Hill
#
# Bulk Modulus (GPa) = 61.82706 73.64817 67.73761
# Shear Modulus (GPa) = 23.52224 40.92486 32.22355
#
# Velocity S-wave (km/s) = 2.96308 3.90839 3.46810
# Velocity P-wave (km/s) = 5.89779 6.91788 6.42810
#
# Compressibility (1/GPa) = 0.01617415
#
# Stress axis : x y z
#
# Youngs Moduli (GPa) = 112.86329 84.89049 168.92733
#
# Poissons Ratio (x) = 0.14830 0.26903
# Poissons Ratio (y) = 0.19717 0.31308
# Poissons Ratio (z) = 0.17974 0.15733
#
# Static dielectric constant tensor:
#      x y z
#    x 2.105660 0.016120 -0.044650 
#    y 0.016120 2.236190 0.032930 
#    z -0.044650 0.032930 2.183080 
# 
# From -- ./inp_files/91014.got.cif
#   From: 2010.05.17/outbox.cif.g08.bks.cpg/sg2_46_cif.got.tgz:91014.got - 2010.06.03 11:33:40.
