data_PCOD9084257
_publ_section_title
;
Structure prediction by ZEFSAII (Michael W. Deem and Ramdas Pophale) SiO2 
 PCOD9084257
Probable space group: P -1
;
_chemical_formula_sum "Si O2"
_cell_formula_units_Z 14
_cell_length_a 5.486356
_cell_length_b 18.006487
_cell_length_c 7.628835
_cell_angle_alpha 121.324524
_cell_angle_beta 118.865576
_cell_angle_gamma 70.875282
_cell_volume 560.841627
_symmetry_space_group_name_H-M "P -1"
_symmetry_group_IT_number 2
_symmetry_cell_setting 'triclinic'
loop_
_space_group_symop_operation_xyz
x,y,z
-x,-y,-z
loop_
_atom_site_type_symbol
_atom_site_label
_atom_site_fract_x
_atom_site_fract_y
_atom_site_fract_z
Si Si1 0.347077 0.708874 0.293266
Si Si2 0.074851 0.060976 0.263032
Si Si3 0.923516 0.767393 0.690932
Si Si4 0.372999 0.006116 0.764416
Si Si5 0.586242 0.348331 0.162113
Si Si6 0.804183 0.800488 0.082345
Si Si7 0.323721 0.519006 0.143337
O O1 0.620248 0.750306 0.498829
O O2 0.323570 0.622478 0.295152
O O3 0.063825 0.772984 0.265145
O O4 0.381969 0.677493 0.064254
O O5 0.958859 0.159947 0.299715
O O6 0.412029 0.052021 0.356420
O O7 0.927883 0.026746 0.339803
O O8 0.000000 0.000000 0.000000
O O9 0.121012 0.677798 0.672823
O O10 0.905935 0.809340 0.929554
O O11 0.356590 0.106075 0.816985
O O12 0.500000 0.000000 0.000000
O O13 0.469613 0.449345 0.246009
O O14 0.377633 0.281573 0.080211
O O15 0.500000 0.500000 0.000000
O O16 0.000000 0.500000 0.000000
#
# Coordination Sequence:
#
# PCOD9084257 Si02
#       7
#     2   2   2   2   2   2   2
#     4  10  24  41  62  96 128 162 213 268 313 380
#     4  10  19  37  59  87 122 169 205 260 314 372
#     4  11  23  39  64  95 126 163 218 266 312 375
#     4  10  19  34  62  85 119 166 213 252 310 381
#     4  10  22  40  68  88 126 174 207 254 326 383
#     4  11  21  39  65  90 123 170 209 262 324 375
#     4  10  20  43  67  91 130 172 207 255 325 382
#
# _framework density 24.962485999999998
#
# number of rings (size 3 to 8) (size 9 to 14) (size 15 to 20)
#    0.000    1.714    4.286    1.714    2.000    1.714 
#    0.000    2.143    0.000    0.000    0.000    0.000 
#    0.000    0.000    0.000    0.000    0.000    0.000 
#
# Total GULP energy -78371.760219 kJ/mol
# GULP energy per Si atom -5597.982873 kJ/mol
# Density = 2.490567 g / cm^3
# Si number density = 24.962486 Si / 1000 Ang^3
#
#
#
# Elastic Constant Matrix: (Units=GPa)
#
#
# Indices 1 2 3 4 5 6 
#
# 1 121.0196 29.4706 16.1885 -12.5480 10.6037 9.7252
# 2 29.4706 221.0887 41.8394 -11.5824 18.1112 -0.7915
# 3 16.1885 41.8394 76.7643 -2.1883 7.8277 -4.7686
# 4 -12.5480 -11.5824 -2.1883 19.6890 1.5480 16.5929
# 5 10.6037 18.1112 7.8277 1.5480 47.6966 -4.2561
# 6 9.7252 -0.7915 -4.7686 16.5929 -4.2561 45.2587
#
#
#
# Elastic Compliance Matrix: (Units=1/GPa)
#
#
# Indices 1 2 3 4 5 6 
#
# 1 0.010852 -0.000137 -0.001991 0.013396 -0.003160 -0.007753
# 2 -0.000137 0.005459 -0.002744 0.004721 -0.001931 -0.002077
# 3 -0.001991 -0.002744 0.015096 -0.004020 -0.000560 0.003392
# 4 0.013396 0.004721 -0.004020 0.095601 -0.010719 -0.039277
# 5 -0.003160 -0.001931 -0.000560 -0.010719 0.023441 0.006720
# 6 -0.007753 -0.002077 0.003392 -0.039277 0.006720 0.039114
#
#
# Mechanical properties :
#
#
# Convention : Reuss Voigt Hill
#
# Bulk Modulus (GPa) = 46.16415 65.98550 56.07483
# Shear Modulus (GPa) = 24.21001 44.62048 34.41524
#
# Velocity S-wave (km/s) = 3.11763 4.23247 3.71708
# Velocity P-wave (km/s) = 5.61187 7.09763 6.39802
#
# Compressibility (1/GPa) = 0.02166183
#
# Stress axis : x y z
#
# Youngs Moduli (GPa) = 92.15163 183.19794 66.24485
#
# Poissons Ratio (x) = 0.02505 0.13192
# Poissons Ratio (y) = 0.01260 0.18177
# Poissons Ratio (z) = 0.18351 0.50267
#
# Static dielectric constant tensor:
#      x y z
#    x 2.428840 -0.176970 0.116100 
#    y -0.176970 2.005590 -0.052710 
#    z 0.116100 -0.052710 1.949800 
# 
# From -- ./inp_files/35385.got.cif
#   From: 2010.05.17/outbox.cif.g08.bks.cpg/sg2_18_cif.got.tgz:35385.got - 2010.06.03 11:33:40.
