data_PCOD9084401
_publ_section_title
;
Structure prediction by ZEFSAII (Michael W. Deem and Ramdas Pophale) SiO2 
 PCOD9084401
Probable space group: P -1
;
_chemical_formula_sum "Si O2"
_cell_formula_units_Z 16
_cell_length_a 14.130624
_cell_length_b 18.777939
_cell_length_c 7.022672
_cell_angle_alpha 62.541963
_cell_angle_beta 134.274971
_cell_angle_gamma 149.038460
_cell_volume 636.760495
_symmetry_space_group_name_H-M "P -1"
_symmetry_group_IT_number 2
_symmetry_cell_setting 'triclinic'
loop_
_space_group_symop_operation_xyz
x,y,z
-x,-y,-z
loop_
_atom_site_type_symbol
_atom_site_label
_atom_site_fract_x
_atom_site_fract_y
_atom_site_fract_z
Si Si1 0.487311 0.441146 0.246358
Si Si2 0.794391 0.263132 0.290519
Si Si3 0.761445 0.023106 0.047470
Si Si4 0.057546 0.828822 0.233354
Si Si5 0.969790 0.678044 0.843085
Si Si6 0.416576 0.224678 0.296967
Si Si7 0.952116 0.449497 0.774025
Si Si8 0.988312 0.062884 0.652154
O O1 0.703083 0.572706 0.531775
O O2 0.520374 0.364719 0.335160
O O3 0.500000 0.500000 0.000000
O O4 0.204968 0.306053 0.075708
O O5 0.849217 0.212855 0.555873
O O6 0.924875 0.413943 0.335730
O O7 0.895655 0.287358 0.198755
O O8 0.504248 0.127122 0.053912
O O9 0.944164 0.059133 0.374992
O O10 0.851470 0.160272 0.038160
O O11 0.768701 0.025076 0.827506
O O12 0.021047 0.856140 0.348251
O O13 0.940863 0.585276 0.051579
O O14 0.659516 0.297125 0.520439
O O15 0.231438 0.099619 0.356458
O O16 0.246544 0.156234 0.959378
O O17 0.000000 0.500000 0.000000
#
# Coordination Sequence:
#
# PCOD9084401 Si02
#       8
#     2   2   2   2   2   2   2   2
#     4  11  19  39  66  89 127 162 210 256 314 368
#     4  11  21  40  63  90 129 169 205 258 316 366
#     4  12  25  40  65  94 129 164 214 254 310 378
#     4  11  24  41  64  94 126 167 208 261 309 372
#     4  11  21  37  66  97 118 169 211 255 314 372
#     4  10  19  37  64  94 123 163 212 256 312 377
#     4  10  19  34  64  95 122 164 211 257 314 368
#     4  10  22  40  66  93 123 169 207 258 319 363
#
# _framework density 25.127185999999998
#
# number of rings (size 3 to 8) (size 9 to 14) (size 15 to 20)
#    0.000    1.250    5.000    3.000    1.750    0.500 
#    0.000    6.250    2.750    0.000    0.000    0.000 
#    0.000    0.000    0.000    0.000    0.000    0.000 
#
# Total GULP energy -89621.130168 kJ/mol
# GULP energy per Si atom -5601.320635 kJ/mol
# Density = 2.506999 g / cm^3
# Si number density = 25.127186 Si / 1000 Ang^3
#
#
#
# Elastic Constant Matrix: (Units=GPa)
#
#
# Indices 1 2 3 4 5 6 
#
# 1 36.3220 11.0593 13.7724 -1.2593 -9.6663 -12.5304
# 2 11.0593 131.1732 49.2418 4.0496 2.9624 -11.6906
# 3 13.7724 49.2418 147.4417 -12.2128 19.4050 -2.3848
# 4 -1.2593 4.0496 -12.2128 54.7169 3.3441 6.4880
# 5 -9.6663 2.9624 19.4050 3.3441 28.2618 -2.8473
# 6 -12.5304 -11.6906 -2.3848 6.4880 -2.8473 43.3223
#
#
#
# Elastic Compliance Matrix: (Units=1/GPa)
#
#
# Indices 1 2 3 4 5 6 
#
# 1 0.039420 -0.000187 -0.006235 -0.003172 0.019444 0.012761
# 2 -0.000187 0.009163 -0.003390 -0.001860 0.001788 0.002628
# 3 -0.006235 -0.003390 0.009943 0.003285 -0.009323 -0.003275
# 4 -0.003172 -0.001860 0.003285 0.019987 -0.005976 -0.004625
# 5 0.019444 0.001788 -0.009323 -0.005976 0.049939 0.009771
# 6 0.012761 0.002628 -0.003275 -0.004625 0.009771 0.028637
#
#
# Mechanical properties :
#
#
# Convention : Reuss Voigt Hill
#
# Bulk Modulus (GPa) = 25.70529 51.45375 38.57952
# Shear Modulus (GPa) = 26.36015 41.31776 33.83895
#
# Velocity S-wave (km/s) = 3.24245 4.05945 3.67373
# Velocity P-wave (km/s) = 4.92648 6.51874 5.77772
#
# Compressibility (1/GPa) = 0.03890249
#
# Stress axis : x y z
#
# Youngs Moduli (GPa) = 25.36802 109.13498 100.57405
#
# Poissons Ratio (x) = 0.02038 0.62710
# Poissons Ratio (y) = 0.00474 0.34091
# Poissons Ratio (z) = 0.15818 0.36993
#
# Static dielectric constant tensor:
#      x y z
#    x 2.067510 -0.021780 -0.045980 
#    y -0.021780 1.974710 -0.040940 
#    z -0.045980 -0.040940 1.985980 
# 
# From -- ./inp_files/350249.got.cif
#   From: 2010.05.17/outbox.cif.g08.bks.cpg/sg2_176_cif.got.tgz:350249.got - 2010.06.03 11:33:40.
