data_PCOD9084021
_publ_section_title
;
Structure prediction by ZEFSAII (Michael W. Deem and Ramdas Pophale) SiO2 
 PCOD9084021
Probable space group: P -1
;
_chemical_formula_sum "Si O2"
_cell_formula_units_Z 14
_cell_length_a 9.387537
_cell_length_b 10.587407
_cell_length_c 9.650615
_cell_angle_alpha 135.134797
_cell_angle_beta 67.334648
_cell_angle_gamma 83.461770
_cell_volume 502.069138
_symmetry_space_group_name_H-M "P -1"
_symmetry_group_IT_number 2
_symmetry_cell_setting 'triclinic'
loop_
_space_group_symop_operation_xyz
x,y,z
-x,-y,-z
loop_
_atom_site_type_symbol
_atom_site_label
_atom_site_fract_x
_atom_site_fract_y
_atom_site_fract_z
Si Si1 0.243786 0.517625 0.137001
Si Si2 0.745869 0.331032 0.173441
Si Si3 0.152582 0.168436 0.982323
Si Si4 0.731496 0.828587 0.766483
Si Si5 0.631915 0.516821 0.646000
Si Si6 0.108084 0.271887 0.684202
Si Si7 0.445293 0.227149 0.592556
O O1 0.160430 0.377634 0.107068
O O2 0.300113 0.578449 0.301699
O O3 0.080014 0.721926 0.262988
O O4 0.418560 0.348650 0.840610
O O5 0.681991 0.352547 0.373927
O O6 0.667886 0.570515 0.320748
O O7 0.973916 0.196469 0.995107
O O8 0.600653 0.295260 0.121243
O O9 0.161335 0.142271 0.126168
O O10 0.350584 0.955018 0.685835
O O11 0.752491 0.605575 0.624247
O O12 0.814134 0.795258 0.557133
O O13 0.500000 0.000000 0.000000
O O14 0.314208 0.137624 0.577577
O O15 0.000000 0.500000 0.000000
#
# Coordination Sequence:
#
# PCOD9084021 Si02
#       7
#     2   2   2   2   2   2   2
#     4  10  21  37  61  89 119 158 205 254 306 359
#     4  11  22  40  61  83 123 164 205 245 306 371
#     4  11  21  36  65  90 119 157 207 255 305 356
#     4  11  19  37  63  94 124 152 205 262 301 356
#     4  10  22  39  59  87 120 162 204 249 302 367
#     4  10  19  34  59  91 117 155 198 246 307 357
#     4  11  21  38  60  90 124 158 202 256 308 362
#
# _framework density 27.884606999999999
#
# number of rings (size 3 to 8) (size 9 to 14) (size 15 to 20)
#    0.000    1.429    4.286    1.286    0.000    2.857 
#    0.000    8.571    0.000    0.000    0.000    0.000 
#    0.000    0.000    0.000    0.000    0.000    0.000 
#
# Total GULP energy -78115.647209 kJ/mol
# GULP energy per Si atom -5579.689086 kJ/mol
# Density = 2.782114 g / cm^3
# Si number density = 27.884607 Si / 1000 Ang^3
#
#
#
# Elastic Constant Matrix: (Units=GPa)
#
#
# Indices 1 2 3 4 5 6 
#
# 1 99.3800 22.1253 31.2251 -1.9051 -19.4473 -22.0569
# 2 22.1253 80.6589 32.6807 -19.8856 15.1165 -25.0644
# 3 31.2251 32.6807 172.6048 2.1990 -27.7313 -19.3430
# 4 -1.9051 -19.8856 2.1990 42.2411 -19.7452 4.4341
# 5 -19.4473 15.1165 -27.7313 -19.7452 52.6002 -3.8820
# 6 -22.0569 -25.0644 -19.3430 4.4341 -3.8820 53.3098
#
#
#
# Elastic Compliance Matrix: (Units=1/GPa)
#
#
# Indices 1 2 3 4 5 6 
#
# 1 0.013055 -0.002900 -0.000317 0.001830 0.006493 0.004244
# 2 -0.002900 0.018735 -0.003401 0.005607 -0.005739 0.005491
# 3 -0.000317 -0.003401 0.007433 0.000169 0.004939 0.001312
# 4 0.001830 0.005607 0.000169 0.031382 0.011056 0.001649
# 5 0.006493 -0.005739 0.004939 0.011056 0.030040 0.003048
# 6 0.004244 0.005491 0.001312 0.001649 0.003048 0.023657
#
#
# Mechanical properties :
#
#
# Convention : Reuss Voigt Hill
#
# Bulk Modulus (GPa) = 38.47887 58.30065 48.38976
# Shear Modulus (GPa) = 34.19940 47.40440 40.80190
#
# Velocity S-wave (km/s) = 3.50589 4.12760 3.82938
# Velocity P-wave (km/s) = 5.49705 6.60828 6.07812
#
# Compressibility (1/GPa) = 0.02598829
#
# Stress axis : x y z
#
# Youngs Moduli (GPa) = 76.59825 53.37472 134.52766
#
# Poissons Ratio (x) = 0.15476 0.04269
# Poissons Ratio (y) = 0.22210 0.45753
# Poissons Ratio (z) = 0.02431 0.18153
#
# Static dielectric constant tensor:
#      x y z
#    x 2.338160 0.125580 0.030520 
#    y 0.125580 2.407560 0.095050 
#    z 0.030520 0.095050 2.163810 
# 
# From -- ./inp_files/400701.got.cif
#   From: 2010.05.17/outbox.cif.g08.bks.cpg/sg2_201_cif.got.tgz:400701.got - 2010.06.03 11:33:40.
