data_PCOD9084713
_publ_section_title
;
Structure prediction by ZEFSAII (Michael W. Deem and Ramdas Pophale) SiO2 
 PCOD9084713
Probable space group: P -1
;
_chemical_formula_sum "Si O2"
_cell_formula_units_Z 16
_cell_length_a 14.759364
_cell_length_b 15.841626
_cell_length_c 5.186282
_cell_angle_alpha 98.323138
_cell_angle_beta 75.041419
_cell_angle_gamma 133.388610
_cell_volume 850.443957
_symmetry_space_group_name_H-M "P -1"
_symmetry_group_IT_number 2
_symmetry_cell_setting 'triclinic'
loop_
_space_group_symop_operation_xyz
x,y,z
-x,-y,-z
loop_
_atom_site_type_symbol
_atom_site_label
_atom_site_fract_x
_atom_site_fract_y
_atom_site_fract_z
Si Si1 0.642256 0.679527 0.351818
Si Si2 0.804508 0.929458 0.182773
Si Si3 0.401579 0.891301 0.212489
Si Si4 0.620066 0.392910 0.659120
Si Si5 0.393876 0.056278 0.514899
Si Si6 0.600807 0.270666 0.133893
Si Si7 0.724484 0.637278 0.753505
Si Si8 0.069443 0.106421 0.303922
O O1 0.748304 0.820332 0.361377
O O2 0.513480 0.647223 0.349131
O O3 0.631211 0.622511 0.602603
O O4 0.685761 0.643617 0.072044
O O5 0.706158 0.945673 0.269299
O O6 0.819620 0.883595 0.895209
O O7 0.948537 0.050264 0.181184
O O8 0.487770 0.897792 0.368706
O O9 0.331684 0.928843 0.409076
O O10 0.334639 0.776549 0.043177
O O11 0.500000 0.000000 0.000000
O O12 0.657014 0.351634 0.381108
O O13 0.715551 0.530679 0.687782
O O14 0.598365 0.332126 0.919607
O O15 0.460153 0.151492 0.278537
O O16 0.861450 0.762234 0.631049
O O17 0.000000 0.000000 0.500000
#
# Coordination Sequence:
#
# PCOD9084713 Si02
#       8
#     2   2   2   2   2   2   2   2
#     4  11  20  34  53  74 110 142 189 230 277 324
#     4  10  20  34  57  79 107 154 185 231 277 326
#     4   9  19  33  55  83 120 142 172 229 279 347
#     4  12  22  33  53  79 110 151 186 221 279 340
#     4  10  19  35  56  85 116 145 184 220 286 342
#     4  11  20  35  53  81 116 144 178 219 278 339
#     4  11  23  36  51  75 109 149 191 236 269 319
#     4  10  21  37  54  75 112 148 197 237 271 307
#
# _framework density 18.813704000000001
#
# number of rings (size 3 to 8) (size 9 to 14) (size 15 to 20)
#    0.000    1.500    3.750    2.250    0.000    3.000 
#    0.000    0.000    0.000    0.000    0.000    1.750 
#    0.000    0.500    0.000    0.000    0.000    0.000 
#
# Total GULP energy -89134.103907 kJ/mol
# GULP energy per Si atom -5570.881494 kJ/mol
# Density = 1.877088 g / cm^3
# Si number density = 18.813704 Si / 1000 Ang^3
#
#
#
# Elastic Constant Matrix: (Units=GPa)
#
#
# Indices 1 2 3 4 5 6 
#
# 1 41.3514 36.6306 36.4082 2.2590 -3.4686 -20.6921
# 2 36.6306 143.4482 42.3476 17.5049 -5.2537 -20.1771
# 3 36.4082 42.3476 77.1964 9.3075 7.5210 -13.5977
# 4 2.2590 17.5049 9.3075 34.3725 -11.3284 0.1163
# 5 -3.4686 -5.2537 7.5210 -11.3284 34.2554 2.4218
# 6 -20.6921 -20.1771 -13.5977 0.1163 2.4218 25.5150
#
#
#
# Elastic Compliance Matrix: (Units=1/GPa)
#
#
# Indices 1 2 3 4 5 6 
#
# 1 0.073077 -0.005985 -0.026694 0.009539 0.012736 0.039052
# 2 -0.005985 0.009780 -0.001639 -0.004248 -0.000296 0.002054
# 3 -0.026694 -0.001639 0.027271 -0.008471 -0.011227 -0.007307
# 4 0.009539 -0.004248 -0.008471 0.037806 0.014798 -0.001714
# 5 0.012736 -0.000296 -0.011227 0.014798 0.037763 0.000460
# 6 0.039052 0.002054 -0.007307 -0.001714 0.000460 0.068557
#
#
# Mechanical properties :
#
#
# Convention : Reuss Voigt Hill
#
# Bulk Modulus (GPa) = 24.10190 54.75207 39.42698
# Shear Modulus (GPa) = 14.84909 28.60255 21.72582
#
# Velocity S-wave (km/s) = 2.81244 3.90334 3.40190
# Velocity P-wave (km/s) = 4.83581 7.03421 6.03594
#
# Compressibility (1/GPa) = 0.04149051
#
# Stress axis : x y z
#
# Youngs Moduli (GPa) = 13.68427 102.25103 36.66881
#
# Poissons Ratio (x) = 0.61195 0.97885
# Poissons Ratio (y) = 0.08190 0.06012
# Poissons Ratio (z) = 0.36529 0.16764
#
# Static dielectric constant tensor:
#      x y z
#    x 1.669330 -0.009020 0.044260 
#    y -0.009020 1.766590 0.034410 
#    z 0.044260 0.034410 1.744970 
# 
# From -- ./inp_files/96978.got.cif
#   From: 2010.05.17/outbox.cif.g08.bks.cpg/sg2_49_cif.got.tgz:96978.got - 2010.06.03 11:33:40.
