data_PCOD9084174
_publ_section_title
;
Structure prediction by ZEFSAII (Michael W. Deem and Ramdas Pophale) SiO2 
 PCOD9084174
Probable space group: P -1
;
_chemical_formula_sum "Si O2"
_cell_formula_units_Z 16
_cell_length_a 11.689007
_cell_length_b 11.101171
_cell_length_c 7.829888
_cell_angle_alpha 103.132314
_cell_angle_beta 69.595631
_cell_angle_gamma 128.124523
_cell_volume 749.024208
_symmetry_space_group_name_H-M "P -1"
_symmetry_group_IT_number 2
_symmetry_cell_setting 'triclinic'
loop_
_space_group_symop_operation_xyz
x,y,z
-x,-y,-z
loop_
_atom_site_type_symbol
_atom_site_label
_atom_site_fract_x
_atom_site_fract_y
_atom_site_fract_z
Si Si1 0.876275 0.340194 0.756119
Si Si2 0.636725 0.021625 0.326236
Si Si3 0.534086 0.158984 0.964887
Si Si4 0.952376 0.788934 0.317125
Si Si5 0.865972 0.991256 0.410525
Si Si6 0.399911 0.281910 0.323159
Si Si7 0.163965 0.648464 0.610004
Si Si8 0.335348 0.502238 0.488976
O O1 0.712402 0.280634 0.883527
O O2 0.865075 0.308070 0.546230
O O3 0.930231 0.249264 0.798125
O O4 0.011072 0.520537 0.745984
O O5 0.732440 0.200336 0.282575
O O6 0.500000 0.000000 0.500000
O O7 0.556161 0.894828 0.182685
O O8 0.758148 0.008056 0.354141
O O9 0.472809 0.230551 0.138492
O O10 0.500000 0.000000 0.000000
O O11 0.939326 0.911085 0.265411
O O12 0.787237 0.628872 0.357682
O O13 0.005596 0.859281 0.504304
O O14 0.751833 0.870800 0.576109
O O15 0.370381 0.405852 0.318881
O O16 0.514164 0.366661 0.450371
O O17 0.251634 0.574338 0.491854
#
# Coordination Sequence:
#
# PCOD9084174 Si02
#       8
#     2   2   2   2   2   2   2   2
#     4  10  20  36  59  88 119 157 200 246 295 352
#     4  12  21  36  61  94 122 157 203 246 298 362
#     4  12  24  38  61  92 128 158 195 255 306 354
#     4   9  17  34  59  87 110 153 204 244 288 350
#     4  10  19  34  61  88 115 154 202 248 289 358
#     4  10  21  38  58  89 119 158 200 246 304 351
#     4  10  19  35  61  91 114 156 207 246 287 356
#     4   9  19  36  62  82 116 160 203 243 291 369
#
# _framework density 21.361127
#
# number of rings (size 3 to 8) (size 9 to 14) (size 15 to 20)
#    0.000    1.750    2.500    3.000    0.000    0.000 
#    0.000    7.500    0.000   12.000    0.000    0.000 
#    0.000    0.000    0.000    0.000    0.000    0.000 
#
# Total GULP energy -89242.177198 kJ/mol
# GULP energy per Si atom -5577.636075 kJ/mol
# Density = 2.131251 g / cm^3
# Si number density = 21.361127 Si / 1000 Ang^3
#
#
#
# Elastic Constant Matrix: (Units=GPa)
#
#
# Indices 1 2 3 4 5 6 
#
# 1 129.9475 34.5725 29.4759 1.6761 -26.4619 -10.0906
# 2 34.5725 93.1758 45.1021 2.6832 -28.2214 8.6564
# 3 29.4759 45.1021 72.4968 12.6160 -27.9850 -2.4543
# 4 1.6761 2.6832 12.6160 22.1038 -3.7726 -11.1465
# 5 -26.4619 -28.2214 -27.9850 -3.7726 24.4571 2.0248
# 6 -10.0906 8.6564 -2.4543 -11.1465 2.0248 45.0923
#
#
#
# Elastic Compliance Matrix: (Units=1/GPa)
#
#
# Indices 1 2 3 4 5 6 
#
# 1 0.010175 -0.001106 0.000081 0.002342 0.009969 0.002625
# 2 -0.001106 0.018746 -0.006282 0.001521 0.013848 -0.004434
# 3 0.000081 -0.006282 0.029242 -0.012439 0.024493 -0.001359
# 4 0.002342 0.001521 -0.012439 0.058777 -0.002051 0.014176
# 5 0.009969 0.013848 0.024493 -0.002051 0.095685 -0.003898
# 6 0.002625 -0.004434 -0.001359 0.014176 -0.003898 0.027221
#
#
# Mechanical properties :
#
#
# Convention : Reuss Voigt Hill
#
# Bulk Modulus (GPa) = 22.96306 57.10237 40.03272
# Shear Modulus (GPa) = 18.58890 30.76195 24.67542
#
# Velocity S-wave (km/s) = 2.95315 3.79897 3.40245
# Velocity P-wave (km/s) = 4.73301 6.78475 5.84954
#
# Compressibility (1/GPa) = 0.04354820
#
# Stress axis : x y z
#
# Youngs Moduli (GPa) = 98.27939 53.34423 34.19718
#
# Poissons Ratio (x) = 0.05903 -0.00276
# Poissons Ratio (y) = 0.10875 0.21482
# Poissons Ratio (z) = -0.00794 0.33510
#
# Static dielectric constant tensor:
#      x y z
#    x 1.873630 -0.028060 0.004760 
#    y -0.028060 1.826750 0.017140 
#    z 0.004760 0.017140 1.767250 
# 
# From -- ./inp_files/262790.got.cif
#   From: 2010.05.17/outbox.cif.g08.bks.cpg/sg2_132_cif.got.tgz:262790.got - 2010.06.03 11:33:40.
