data_PCOD9084819
_publ_section_title
;
Structure prediction by ZEFSAII (Michael W. Deem and Ramdas Pophale) SiO2 
 PCOD9084819
Probable space group: P -1
;
_chemical_formula_sum "Si O2"
_cell_formula_units_Z 16
_cell_length_a 7.078852
_cell_length_b 9.102704
_cell_length_c 11.936845
_cell_angle_alpha 89.277324
_cell_angle_beta 91.950888
_cell_angle_gamma 128.515165
_cell_volume 601.447515
_symmetry_space_group_name_H-M "P -1"
_symmetry_group_IT_number 2
_symmetry_cell_setting 'triclinic'
loop_
_space_group_symop_operation_xyz
x,y,z
-x,-y,-z
loop_
_atom_site_type_symbol
_atom_site_label
_atom_site_fract_x
_atom_site_fract_y
_atom_site_fract_z
Si Si1 0.484677 0.475663 0.335771
Si Si2 0.359177 0.992253 0.387692
Si Si3 0.712017 0.987005 0.042382
Si Si4 0.999454 0.805103 0.553922
Si Si5 0.585268 0.852819 0.286670
Si Si6 0.822948 0.393381 0.345169
Si Si7 0.898609 0.372031 0.107116
Si Si8 0.419986 0.335101 0.089365
O O1 0.526097 0.669191 0.340895
O O2 0.744998 0.523130 0.357402
O O3 0.390081 0.394467 0.208949
O O4 0.279911 0.320493 0.418592
O O5 0.108267 0.919293 0.438114
O O6 0.364009 0.858014 0.305418
O O7 0.500000 0.000000 0.500000
O O8 0.544635 0.195031 0.334710
O O9 0.626640 0.865412 0.155180
O O10 0.907686 0.203739 0.080564
O O11 0.761800 0.879882 0.957352
O O12 0.500000 0.000000 0.000000
O O13 0.058304 0.657917 0.562270
O O14 0.175780 0.959015 0.652980
O O15 0.977132 0.437425 0.235615
O O16 0.644695 0.333182 0.108900
O O17 0.000000 0.500000 0.000000
O O18 0.500000 0.500000 0.000000
#
# Coordination Sequence:
#
# PCOD9084819 Si02
#       8
#     2   2   2   2   2   2   2   2
#     4  11  23  38  60  92 125 156 204 256 297 363
#     4   8  17  38  64  87 116 161 203 249 306 362
#     4  10  19  35  57  82 116 165 199 238 309 356
#     4  10  22  41  65  89 118 165 206 246 311 362
#     4  10  19  39  62  84 127 160 198 257 305 356
#     4   9  19  39  60  83 126 156 193 257 300 350
#     4  10  20  34  57  83 111 155 203 235 297 366
#     4  10  21  35  52  82 121 151 193 251 289 348
#
# _framework density 26.602485999999999
#
# number of rings (size 3 to 8) (size 9 to 14) (size 15 to 20)
#    0.000    2.500    3.750    0.000    1.750    1.000 
#    4.500    9.375    0.000    0.000    0.000    0.000 
#    0.000    0.000    0.000    0.000    0.000    0.000 
#
# Total GULP energy -89384.869808 kJ/mol
# GULP energy per Si atom -5586.554363 kJ/mol
# Density = 2.654194 g / cm^3
# Si number density = 26.602486 Si / 1000 Ang^3
#
#
#
# Elastic Constant Matrix: (Units=GPa)
#
#
# Indices 1 2 3 4 5 6 
#
# 1 94.3646 17.0407 11.8185 5.9317 -4.7064 -8.7964
# 2 17.0407 128.2974 24.6085 -0.0112 -3.9465 -8.0963
# 3 11.8185 24.6085 125.9728 -26.1498 -17.6242 12.2374
# 4 5.9317 -0.0112 -26.1498 42.2431 -4.9070 0.2020
# 5 -4.7064 -3.9465 -17.6242 -4.9070 46.5092 2.0620
# 6 -8.7964 -8.0963 12.2374 0.2020 2.0620 42.2109
#
#
#
# Elastic Compliance Matrix: (Units=1/GPa)
#
#
# Indices 1 2 3 4 5 6 
#
# 1 0.011410 -0.001024 -0.001675 -0.002648 0.000035 0.002678
# 2 -0.001024 0.008439 -0.002045 -0.001173 -0.000376 0.002022
# 3 -0.001675 -0.002045 0.011208 0.007764 0.004913 -0.004268
# 4 -0.002648 -0.001173 0.007764 0.029546 0.005845 -0.003455
# 5 0.000035 -0.000376 0.004913 0.005845 0.024070 -0.002693
# 6 0.002678 0.002022 -0.004268 -0.003455 -0.002693 0.026022
#
#
# Mechanical properties :
#
#
# Convention : Reuss Voigt Hill
#
# Bulk Modulus (GPa) = 46.36549 50.61891 48.49220
# Shear Modulus (GPa) = 39.25466 45.87044 42.56255
#
# Velocity S-wave (km/s) = 3.84552 4.15696 4.00427
# Velocity P-wave (km/s) = 6.09789 6.48920 6.29658
#
# Compressibility (1/GPa) = 0.02156776
#
# Stress axis : x y z
#
# Youngs Moduli (GPa) = 87.64381 118.50315 89.21806
#
# Poissons Ratio (x) = 0.12138 0.14948
# Poissons Ratio (y) = 0.08977 0.18244
# Poissons Ratio (z) = 0.14684 0.24233
#
# Static dielectric constant tensor:
#      x y z
#    x 2.202240 0.074930 -0.021820 
#    y 0.074930 2.202380 0.146400 
#    z -0.021820 0.146400 2.150630 
# 
# From -- ./inp_files/492746.got.cif
#   From: 2010.05.17/outbox.cif.g08.bks.cpg/sg2_247_cif.got.tgz:492746.got - 2010.06.03 11:33:40.
