data_PCOD9084183
_publ_section_title
;
Structure prediction by ZEFSAII (Michael W. Deem and Ramdas Pophale) SiO2 
 PCOD9084183
Probable space group: P -1
;
_chemical_formula_sum "Si O2"
_cell_formula_units_Z 16
_cell_length_a 11.154035
_cell_length_b 8.364233
_cell_length_c 9.600889
_cell_angle_alpha 115.168931
_cell_angle_beta 75.168821
_cell_angle_gamma 122.136426
_cell_volume 685.947909
_symmetry_space_group_name_H-M "P -1"
_symmetry_group_IT_number 2
_symmetry_cell_setting 'triclinic'
loop_
_space_group_symop_operation_xyz
x,y,z
-x,-y,-z
loop_
_atom_site_type_symbol
_atom_site_label
_atom_site_fract_x
_atom_site_fract_y
_atom_site_fract_z
Si Si1 0.992793 0.782466 0.418292
Si Si2 0.679461 0.262810 0.949617
Si Si3 0.156534 0.292500 0.042352
Si Si4 0.888684 0.129795 0.877380
Si Si5 0.294299 0.892673 0.420307
Si Si6 0.228252 0.328537 0.339556
Si Si7 0.514077 0.270020 0.599449
Si Si8 0.578163 0.743317 0.068128
O O1 0.017876 0.738517 0.235620
O O2 0.850247 0.644945 0.493500
O O3 0.130987 0.811045 0.469943
O O4 0.000000 0.000000 0.500000
O O5 0.763178 0.504434 0.998045
O O6 0.774632 0.195725 0.986490
O O7 0.513381 0.198705 0.989013
O O8 0.690526 0.177645 0.763467
O O9 0.163066 0.361429 0.226430
O O10 0.258114 0.189995 0.975667
O O11 0.004329 0.163140 0.971549
O O12 0.808499 0.903494 0.754063
O O13 0.385162 0.135778 0.487643
O O14 0.369431 0.806185 0.469108
O O15 0.394107 0.490156 0.353111
O O16 0.446483 0.210231 0.750633
O O17 0.500000 0.500000 0.000000
#
# Coordination Sequence:
#
# PCOD9084183 Si02
#       8
#     2   2   2   2   2   2   2   2
#     4   9  21  38  56  84 125 162 189 244 310 364
#     4   9  18  39  60  86 119 163 201 245 303 371
#     4  11  20  37  66  92 113 162 211 250 289 367
#     4  10  22  38  60  87 129 163 192 245 324 360
#     4   9  18  36  60  84 115 159 201 241 307 351
#     4  11  21  38  59  96 122 151 210 257 288 354
#     4  10  19  34  61  89 114 157 201 256 286 357
#     4   9  17  33  60  86 116 153 212 240 300 354
#
# _framework density 23.325386000000002
#
# number of rings (size 3 to 8) (size 9 to 14) (size 15 to 20)
#    0.000    2.250    3.750    0.750    3.500    0.500 
#    0.000    6.250    0.000    0.000    0.000    0.000 
#    0.000    0.000    0.000    0.000    0.000    0.000 
#
# Total GULP energy -89240.735311 kJ/mol
# GULP energy per Si atom -5577.545957 kJ/mol
# Density = 2.327230 g / cm^3
# Si number density = 23.325386 Si / 1000 Ang^3
#
#
#
# Elastic Constant Matrix: (Units=GPa)
#
#
# Indices 1 2 3 4 5 6 
#
# 1 156.0402 32.4995 22.6465 2.2922 -13.7334 4.4399
# 2 32.4995 75.0902 15.1150 3.0344 4.0619 16.7512
# 3 22.6465 15.1150 43.5736 3.4241 -3.9903 12.0801
# 4 2.2922 3.0344 3.4241 31.8262 5.2476 -1.5969
# 5 -13.7334 4.0619 -3.9903 5.2476 25.3077 0.8197
# 6 4.4399 16.7512 12.0801 -1.5969 0.8197 29.8475
#
#
#
# Elastic Compliance Matrix: (Units=1/GPa)
#
#
# Indices 1 2 3 4 5 6 
#
# 1 0.007903 -0.003444 -0.002963 -0.000562 0.004432 0.001804
# 2 -0.003444 0.017391 -0.002318 -0.000817 -0.004590 -0.008227
# 3 -0.002963 -0.002318 0.028857 -0.003921 0.004460 -0.010270
# 4 -0.000562 -0.000817 -0.003921 0.033465 -0.007865 0.004135
# 5 0.004432 -0.004590 0.004460 -0.007865 0.045040 -0.001546
# 6 0.001804 -0.008227 -0.010270 0.004135 -0.001546 0.042273
#
#
# Mechanical properties :
#
#
# Convention : Reuss Voigt Hill
#
# Bulk Modulus (GPa) = 27.24651 46.13622 36.69136
# Shear Modulus (GPa) = 24.43647 31.02583 27.73115
#
# Velocity S-wave (km/s) = 3.24023 3.65105 3.45176
# Velocity P-wave (km/s) = 5.07003 6.13155 5.62588
#
# Compressibility (1/GPa) = 0.03670195
#
# Stress axis : x y z
#
# Youngs Moduli (GPa) = 126.53669 57.50107 34.65309
#
# Poissons Ratio (x) = 0.19801 0.10268
# Poissons Ratio (y) = 0.43573 0.08033
# Poissons Ratio (z) = 0.37493 0.13329
#
# Static dielectric constant tensor:
#      x y z
#    x 1.949460 -0.045870 0.003180 
#    y -0.045870 1.972560 -0.013610 
#    z 0.003180 -0.013610 1.896700 
# 
# From -- ./inp_files/419719.got.cif
#   From: 2010.05.17/outbox.cif.g08.bks.cpg/sg2_210_cif.got.tgz:419719.got - 2010.06.03 11:33:40.
