data_PCOD9084055
_publ_section_title
;
Structure prediction by ZEFSAII (Michael W. Deem and Ramdas Pophale) SiO2 
 PCOD9084055
Probable space group: P -1
;
_chemical_formula_sum "Si O2"
_cell_formula_units_Z 14
_cell_length_a 7.150275
_cell_length_b 18.544759
_cell_length_c 12.054057
_cell_angle_alpha 22.692539
_cell_angle_beta 71.965528
_cell_angle_gamma 73.626001
_cell_volume 586.303624
_symmetry_space_group_name_H-M "P -1"
_symmetry_group_IT_number 2
_symmetry_cell_setting 'triclinic'
loop_
_space_group_symop_operation_xyz
x,y,z
-x,-y,-z
loop_
_atom_site_type_symbol
_atom_site_label
_atom_site_fract_x
_atom_site_fract_y
_atom_site_fract_z
Si Si1 0.291626 0.521530 0.158062
Si Si2 0.449396 0.870108 0.046316
Si Si3 0.854112 0.050452 0.687460
Si Si4 0.213574 0.156142 0.355306
Si Si5 0.566740 0.182388 0.108432
Si Si6 0.264414 0.568832 0.845344
Si Si7 0.224396 0.177188 0.780967
O O1 0.502402 0.427953 0.224671
O O2 0.161550 0.356529 0.470018
O O3 0.329530 0.685076 0.007326
O O4 0.225859 0.593938 0.948007
O O5 0.389393 0.753375 0.115866
O O6 0.626692 0.000170 0.778812
O O7 0.286706 0.003717 0.938443
O O8 0.570861 0.771076 0.262961
O O9 0.839567 0.260737 0.438517
O O10 0.004022 0.055207 0.551950
O O11 0.911981 0.905032 0.979519
O O12 0.335569 0.180662 0.185460
O O13 0.352647 0.026154 0.590686
O O14 0.199613 0.363408 0.112771
#
# Coordination Sequence:
#
# PCOD9084055 Si02
#       7
#     2   2   2   2   2   2   2
#     4  10  19  35  58  83 111 148 187 223 271 335
#     4   9  18  35  59  80 111 142 187 222 279 323
#     4  10  20  36  61  85 110 141 189 234 272 322
#     4  10  22  36  55  84 118 141 186 229 281 324
#     4  10  22  35  54  84 113 151 181 224 279 334
#     4  10  19  34  60  82 109 145 189 233 269 319
#     4   9  18  36  61  79 111 147 186 222 278 327
#
# _framework density 23.878409999999999
#
# number of rings (size 3 to 8) (size 9 to 14) (size 15 to 20)
#    0.857    1.429    1.429    1.286    6.000    1.143 
#    0.000    3.571    0.000    0.000    0.000    0.000 
#    0.000    0.000    0.000    0.000    0.000    0.000 
#
# Total GULP energy -78090.839558 kJ/mol
# GULP energy per Si atom -5577.917111 kJ/mol
# Density = 2.382406 g / cm^3
# Si number density = 23.878410 Si / 1000 Ang^3
#
#
#
# Elastic Constant Matrix: (Units=GPa)
#
#
# Indices 1 2 3 4 5 6 
#
# 1 34.1614 9.9295 10.0426 -3.0552 0.6910 0.0634
# 2 9.9295 106.0942 24.3782 7.9663 -2.5442 27.9423
# 3 10.0426 24.3782 95.4311 16.5817 3.2902 6.1330
# 4 -3.0552 7.9663 16.5817 21.7971 3.8824 -0.7681
# 5 0.6910 -2.5442 3.2902 3.8824 12.4658 5.6700
# 6 0.0634 27.9423 6.1330 -0.7681 5.6700 38.1941
#
#
#
# Elastic Compliance Matrix: (Units=1/GPa)
#
#
# Indices 1 2 3 4 5 6 
#
# 1 0.032978 -0.004482 -0.004328 0.011061 -0.007431 0.005245
# 2 -0.004482 0.014116 -0.001536 -0.007017 0.011117 -0.011865
# 3 -0.004328 -0.001536 0.013158 -0.010126 0.000157 -0.001209
# 4 0.011061 -0.007017 -0.010126 0.062390 -0.024066 0.011569
# 5 -0.007431 0.011117 0.000157 -0.024066 0.101106 -0.023639
# 6 0.005245 -0.011865 -0.001209 0.011569 -0.023639 0.038789
#
#
# Mechanical properties :
#
#
# Convention : Reuss Voigt Hill
#
# Bulk Modulus (GPa) = 25.27803 36.04303 30.66053
# Shear Modulus (GPa) = 16.86811 27.24716 22.05763
#
# Velocity S-wave (km/s) = 2.66073 3.38165 3.04262
# Velocity P-wave (km/s) = 4.47755 5.51131 5.02111
#
# Compressibility (1/GPa) = 0.03956005
#
# Stress axis : x y z
#
# Youngs Moduli (GPa) = 30.32338 70.84003 75.99763
#
# Poissons Ratio (x) = 0.31750 0.32894
# Poissons Ratio (y) = 0.13591 0.11672
# Poissons Ratio (z) = 0.13125 0.10880
#
# Static dielectric constant tensor:
#      x y z
#    x 1.981710 0.006060 -0.062590 
#    y 0.006060 1.902530 0.015030 
#    z -0.062590 0.015030 1.891930 
# 
# From -- ./inp_files/507796.got.cif
#   From: 2010.05.17/outbox.cif.g08.bks.cpg/sg2_254_cif.got.tgz:507796.got - 2010.06.03 11:33:40.
