data_PCOD9084569
_publ_section_title
;
Structure prediction by ZEFSAII (Michael W. Deem and Ramdas Pophale) SiO2 
 PCOD9084569
Probable space group: P -1
;
_chemical_formula_sum "Si O2"
_cell_formula_units_Z 16
_cell_length_a 27.262660
_cell_length_b 9.017907
_cell_length_c 5.811296
_cell_angle_alpha 102.591923
_cell_angle_beta 87.954611
_cell_angle_gamma 29.219537
_cell_volume 599.237711
_symmetry_space_group_name_H-M "P -1"
_symmetry_group_IT_number 2
_symmetry_cell_setting 'triclinic'
loop_
_space_group_symop_operation_xyz
x,y,z
-x,-y,-z
loop_
_atom_site_type_symbol
_atom_site_label
_atom_site_fract_x
_atom_site_fract_y
_atom_site_fract_z
Si Si1 0.590769 0.942084 0.776047
Si Si2 0.336394 0.586901 0.369766
Si Si3 0.111394 0.086403 0.817967
Si Si4 0.056552 0.657135 0.625222
Si Si5 0.855698 0.284808 0.588074
Si Si6 0.201224 0.016314 0.151151
Si Si7 0.429828 0.851156 0.655798
Si Si8 0.758396 0.856911 0.206772
O O1 0.586237 0.771400 0.697580
O O2 0.723166 0.620603 0.685136
O O3 0.558169 0.099230 0.580128
O O4 0.542490 0.136160 0.102168
O O5 0.208818 0.881315 0.564734
O O6 0.322136 0.642471 0.119900
O O7 0.325729 0.789336 0.526048
O O8 0.085863 0.991954 0.700779
O O9 0.168307 0.954413 0.009544
O O10 0.000000 0.500000 0.000000
O O11 0.115711 0.624341 0.453731
O O12 0.097164 0.378184 0.436177
O O13 0.121818 0.490676 0.798932
O O14 0.923560 0.055891 0.733729
O O15 0.225266 0.089098 0.002990
O O16 0.500000 0.500000 0.500000
O O17 0.301610 0.138258 0.798844
#
# Coordination Sequence:
#
# PCOD9084569 Si02
#       8
#     2   2   2   2   2   2   2   2
#     4  11  25  48  71 105 139 173 230 290 342 411
#     4   9  23  39  66  94 135 182 226 281 346 393
#     4  10  19  35  54  87 128 183 230 271 316 386
#     4  10  19  37  55  93 131 180 224 270 329 395
#     4  10  20  37  60  93 135 175 229 273 332 390
#     4  10  20  38  59  86 135 185 220 274 327 404
#     4  12  27  50  78 103 133 175 227 293 364 420
#     4  10  22  41  68  95 138 181 229 276 347 408
#
# _framework density 26.700586000000001
#
# number of rings (size 3 to 8) (size 9 to 14) (size 15 to 20)
#    0.000    1.750    2.500    1.125    7.000    0.500 
#    9.000    3.125    0.000    0.000    0.000    0.000 
#    0.000    0.000    0.000    0.000    0.000    0.000 
#
# Total GULP energy -89316.143749 kJ/mol
# GULP energy per Si atom -5582.258984 kJ/mol
# Density = 2.663981 g / cm^3
# Si number density = 26.700586 Si / 1000 Ang^3
#
#
#
# Elastic Constant Matrix: (Units=GPa)
#
#
# Indices 1 2 3 4 5 6 
#
# 1 114.4636 24.0465 25.3828 -22.3955 20.6355 16.5187
# 2 24.0465 149.1354 48.5208 -25.9743 12.1902 22.4369
# 3 25.3828 48.5208 86.0589 -4.4507 22.3423 11.3799
# 4 -22.3955 -25.9743 -4.4507 50.9052 3.6818 -4.1011
# 5 20.6355 12.1902 22.3423 3.6818 57.3077 -0.2145
# 6 16.5187 22.4369 11.3799 -4.1011 -0.2145 41.8138
#
#
#
# Elastic Compliance Matrix: (Units=1/GPa)
#
#
# Indices 1 2 3 4 5 6 
#
# 1 0.011245 0.000551 -0.001894 0.005033 -0.003765 -0.003749
# 2 0.000551 0.009498 -0.004623 0.004445 -0.000716 -0.003624
# 3 -0.001894 -0.004623 0.016044 -0.001570 -0.004494 -0.001315
# 4 0.005033 0.004445 -0.001570 0.024128 -0.003702 -0.001599
# 5 -0.003765 -0.000716 -0.004494 -0.003702 0.020958 0.002839
# 6 -0.003749 -0.003624 -0.001315 -0.001599 0.002839 0.027557
#
#
# Mechanical properties :
#
#
# Convention : Reuss Voigt Hill
#
# Bulk Modulus (GPa) = 40.23056 60.61756 50.42406
# Shear Modulus (GPa) = 38.56598 46.78587 42.67593
#
# Velocity S-wave (km/s) = 3.80463 4.19052 4.00223
# Velocity P-wave (km/s) = 5.86518 6.79455 6.34690
#
# Compressibility (1/GPa) = 0.02485673
#
# Stress axis : x y z
#
# Youngs Moduli (GPa) = 88.92687 105.28167 62.32709
#
# Poissons Ratio (x) = -0.05806 0.11805
# Poissons Ratio (y) = -0.04904 0.28814
# Poissons Ratio (z) = 0.16843 0.48671
#
# Static dielectric constant tensor:
#      x y z
#    x 2.211060 -0.162650 -0.036130 
#    y -0.162650 2.166330 -0.017700 
#    z -0.036130 -0.017700 2.234630 
# 
# From -- ./inp_files/109505.got.cif
#   From: 2010.05.17/outbox.cif.g08.bks.cpg/sg2_55_cif.got.tgz:109505.got - 2010.06.03 11:33:40.
