data_PCOD9084536
_publ_section_title
;
Structure prediction by ZEFSAII (Michael W. Deem and Ramdas Pophale) SiO2 
 PCOD9084536
Probable space group: P -1
;
_chemical_formula_sum "Si O2"
_cell_formula_units_Z 14
_cell_length_a 9.288590
_cell_length_b 11.934176
_cell_length_c 7.081691
_cell_angle_alpha 80.065894
_cell_angle_beta 68.317771
_cell_angle_gamma 128.190754
_cell_volume 479.215244
_symmetry_space_group_name_H-M "P -1"
_symmetry_group_IT_number 2
_symmetry_cell_setting 'triclinic'
loop_
_space_group_symop_operation_xyz
x,y,z
-x,-y,-z
loop_
_atom_site_type_symbol
_atom_site_label
_atom_site_fract_x
_atom_site_fract_y
_atom_site_fract_z
Si Si1 0.312343 0.762963 0.759761
Si Si2 0.641363 0.465623 0.300234
Si Si3 0.282751 0.254698 0.256096
Si Si4 0.833937 0.008092 0.337824
Si Si5 0.103333 0.834092 0.095423
Si Si6 0.610995 0.347809 0.745427
Si Si7 0.124243 0.728890 0.471844
O O1 0.243861 0.801382 0.958052
O O2 0.170929 0.742574 0.665278
O O3 0.586030 0.922565 0.543899
O O4 0.264882 0.601108 0.821580
O O5 0.472806 0.428244 0.235707
O O6 0.532456 0.358207 0.579552
O O7 0.862276 0.541326 0.615739
O O8 0.841426 0.656629 0.219615
O O9 0.069227 0.188360 0.262607
O O10 0.179070 0.121362 0.516503
O O11 0.429971 0.265244 0.026007
O O12 0.842418 0.028895 0.102098
O O13 0.146207 0.851712 0.291964
O O14 0.684134 0.257912 0.697666
#
# Coordination Sequence:
#
# PCOD9084536 Si02
#       7
#     2   2   2   2   2   2   2
#     4  10  19  35  54  80 110 142 170 208 269 320
#     4   9  19  34  59  83 100 135 182 215 261 317
#     4  10  20  41  55  70 109 148 177 216 257 309
#     4  10  23  36  53  78 108 145 181 209 259 322
#     4  11  20  35  55  83 110 131 173 230 264 303
#     4   9  17  33  58  82 102 135 177 220 259 309
#     4   9  18  32  56  85 105 129 175 220 267 313
#
# _framework density 29.214428999999999
#
# number of rings (size 3 to 8) (size 9 to 14) (size 15 to 20)
#    0.000    2.286    0.000    4.286    0.000    1.143 
#    0.000   20.000    0.000    0.000    0.000    0.000 
#    0.000    0.000    0.000    0.000    0.000    0.000 
#
# Total GULP energy -78509.480241 kJ/mol
# GULP energy per Si atom -5607.820017 kJ/mol
# Density = 2.914794 g / cm^3
# Si number density = 29.214429 Si / 1000 Ang^3
#
#
#
# Elastic Constant Matrix: (Units=GPa)
#
#
# Indices 1 2 3 4 5 6 
#
# 1 141.9436 20.1320 45.0909 -1.4019 -14.3724 28.4317
# 2 20.1320 149.4256 42.6785 6.3624 -0.4751 48.6045
# 3 45.0909 42.6785 173.9918 30.8975 12.5878 14.4318
# 4 -1.4019 6.3624 30.8975 52.1313 5.2973 5.5321
# 5 -14.3724 -0.4751 12.5878 5.2973 44.4164 4.8199
# 6 28.4317 48.6045 14.4318 5.5321 4.8199 59.0411
#
#
#
# Elastic Compliance Matrix: (Units=1/GPa)
#
#
# Indices 1 2 3 4 5 6 
#
# 1 0.009309 0.001241 -0.002930 0.001973 0.004197 -0.005316
# 2 0.001241 0.009906 -0.002359 0.000915 0.001981 -0.008424
# 3 -0.002930 -0.002359 0.007906 -0.004400 -0.002914 0.002070
# 4 0.001973 0.000915 -0.004400 0.022059 -0.000447 -0.002658
# 5 0.004197 0.001981 -0.002914 -0.000447 0.025311 -0.004964
# 6 -0.005316 -0.008424 0.002070 -0.002658 -0.004964 0.026580
#
#
# Mechanical properties :
#
#
# Convention : Reuss Voigt Hill
#
# Bulk Modulus (GPa) = 52.55998 75.68485 64.12241
# Shear Modulus (GPa) = 43.28681 54.94841 49.11761
#
# Velocity S-wave (km/s) = 3.85345 4.34160 4.10479
# Velocity P-wave (km/s) = 6.15052 7.14812 6.66800
#
# Compressibility (1/GPa) = 0.01902588
#
# Stress axis : x y z
#
# Youngs Moduli (GPa) = 107.42166 100.94828 126.49040
#
# Poissons Ratio (x) = -0.12529 0.37063
# Poissons Ratio (y) = -0.13333 0.29834
# Poissons Ratio (z) = 0.31475 0.23810
#
# Static dielectric constant tensor:
#      x y z
#    x 2.333450 -0.108900 0.013200 
#    y -0.108900 2.280270 -0.068800 
#    z 0.013200 -0.068800 2.240150 
# 
# From -- ./inp_files/285485.got.cif
#   From: 2010.05.17/outbox.cif.g08.bks.cpg/sg2_143_cif.got.tgz:285485.got - 2010.06.03 11:33:40.
