data_PCOD9084620
_publ_section_title
;
Structure prediction by ZEFSAII (Michael W. Deem and Ramdas Pophale) SiO2 
 PCOD9084620
Probable space group: P -1
;
_chemical_formula_sum "Si O2"
_cell_formula_units_Z 14
_cell_length_a 7.856348
_cell_length_b 9.239221
_cell_length_c 13.018351
_cell_angle_alpha 51.657476
_cell_angle_beta 51.593459
_cell_angle_gamma 48.615340
_cell_volume 519.057195
_symmetry_space_group_name_H-M "P -1"
_symmetry_group_IT_number 2
_symmetry_cell_setting 'triclinic'
loop_
_space_group_symop_operation_xyz
x,y,z
-x,-y,-z
loop_
_atom_site_type_symbol
_atom_site_label
_atom_site_fract_x
_atom_site_fract_y
_atom_site_fract_z
Si Si1 0.728670 0.154218 0.889827
Si Si2 0.325356 0.615649 0.888212
Si Si3 0.012479 0.659680 0.183058
Si Si4 0.586701 0.172889 0.513010
Si Si5 0.570459 0.023304 0.802763
Si Si6 0.705167 0.727070 0.615795
Si Si7 0.067818 0.646457 0.766710
O O1 0.520314 0.386655 0.883002
O O2 0.978166 0.156326 0.832416
O O3 0.695417 0.102615 0.807893
O O4 0.651418 0.009074 0.052246
O O5 0.460829 0.756174 0.755132
O O6 0.118715 0.665583 0.858589
O O7 0.222200 0.634025 0.031678
O O8 0.090372 0.474443 0.319755
O O9 0.863713 0.583850 0.193490
O O10 0.363533 0.293618 0.466541
O O11 0.769056 0.273069 0.393273
O O12 0.506019 0.153912 0.665538
O O13 0.728261 0.937120 0.522882
O O14 0.784127 0.797469 0.791511
#
# Coordination Sequence:
#
# PCOD9084620 Si02
#       7
#     2   2   2   2   2   2   2
#     4  10  22  37  60  80 114 142 193 220 291 314
#     4  10  19  36  59  85 107 148 188 234 261 335
#     4  11  19  35  58  83 108 147 187 234 260 334
#     4  10  19  35  55  84 113 146 185 229 264 338
#     4  11  21  37  58  85 112 147 176 244 270 328
#     4   9  18  31  57  82 104 141 197 218 263 317
#     4  11  22  33  62  84 112 143 190 221 285 319
#
# _framework density 26.971982000000001
#
# number of rings (size 3 to 8) (size 9 to 14) (size 15 to 20)
#    0.000    1.714    2.857    3.429    0.000    0.000 
#    0.000    7.857    9.429    0.000    0.000    0.000 
#    0.000    0.000    0.000    0.000    0.000    0.000 
#
# Total GULP energy -78382.067002 kJ/mol
# GULP energy per Si atom -5598.719072 kJ/mol
# Density = 2.691059 g / cm^3
# Si number density = 26.971982 Si / 1000 Ang^3
#
#
#
# Elastic Constant Matrix: (Units=GPa)
#
#
# Indices 1 2 3 4 5 6 
#
# 1 84.9601 16.8050 11.4349 -1.4345 17.1708 47.6767
# 2 16.8050 93.6590 24.9573 -5.9105 -15.2492 23.7066
# 3 11.4349 24.9573 125.4897 -8.3093 18.7380 25.0453
# 4 -1.4345 -5.9105 -8.3093 39.1825 15.1357 -7.2641
# 5 17.1708 -15.2492 18.7380 15.1357 53.9846 -8.7089
# 6 47.6767 23.7066 25.0453 -7.2641 -8.7089 57.6650
#
#
#
# Elastic Compliance Matrix: (Units=1/GPa)
#
#
# Indices 1 2 3 4 5 6 
#
# 1 0.033864 -0.002868 0.007344 0.004276 -0.020585 -0.032578
# 2 -0.002868 0.013147 -0.003131 -0.001243 0.005910 -0.000937
# 3 0.007344 -0.003131 0.011944 0.004286 -0.010341 -0.010994
# 4 0.004276 -0.001243 0.004286 0.030594 -0.012241 -0.002881
# 5 -0.020585 0.005910 -0.010341 -0.012241 0.037505 0.023203
# 6 -0.032578 -0.000937 -0.010994 -0.002881 0.023203 0.052579
#
#
# Mechanical properties :
#
#
# Convention : Reuss Voigt Hill
#
# Bulk Modulus (GPa) = 16.22230 45.61145 30.91688
# Shear Modulus (GPa) = 25.31736 46.89385 36.10560
#
# Velocity S-wave (km/s) = 3.06707 4.17419 3.66270
# Velocity P-wave (km/s) = 4.30931 6.33871 5.41984
#
# Compressibility (1/GPa) = 0.06164354
#
# Stress axis : x y z
#
# Youngs Moduli (GPa) = 29.53025 76.06221 83.72066
#
# Poissons Ratio (x) = 0.21818 -0.61481
# Poissons Ratio (y) = 0.08471 0.26213
# Poissons Ratio (z) = -0.21686 0.23815
#
# Static dielectric constant tensor:
#      x y z
#    x 2.262340 -0.131620 -0.002880 
#    y -0.131620 2.142830 -0.001260 
#    z -0.002880 -0.001260 2.029850 
# 
# From -- ./inp_files/186995.got.cif
#   From: 2010.05.17/outbox.cif.g08.bks.cpg/sg2_94_cif.got.tgz:186995.got - 2010.06.03 11:33:40.
