data_PCOD9084050
_publ_section_title
;
Structure prediction by ZEFSAII (Michael W. Deem and Ramdas Pophale) SiO2 
 PCOD9084050
Probable space group: P -1
;
_chemical_formula_sum "Si O2"
_cell_formula_units_Z 14
_cell_length_a 11.580665
_cell_length_b 11.442354
_cell_length_c 7.998538
_cell_angle_alpha 82.473426
_cell_angle_beta 106.165471
_cell_angle_gamma 43.542121
_cell_volume 606.109106
_symmetry_space_group_name_H-M "P -1"
_symmetry_group_IT_number 2
_symmetry_cell_setting 'triclinic'
loop_
_space_group_symop_operation_xyz
x,y,z
-x,-y,-z
loop_
_atom_site_type_symbol
_atom_site_label
_atom_site_fract_x
_atom_site_fract_y
_atom_site_fract_z
Si Si1 0.821668 0.724244 0.324156
Si Si2 0.605499 0.664116 0.239002
Si Si3 0.774893 0.992332 0.439045
Si Si4 0.486471 0.607347 0.625747
Si Si5 0.119851 0.646316 0.282908
Si Si6 0.229306 0.672296 0.789293
Si Si7 0.201694 0.916482 0.924334
O O1 0.645617 0.770473 0.208478
O O2 0.000000 0.500000 0.500000
O O3 0.924160 0.716247 0.213442
O O4 0.763012 0.862027 0.422127
O O5 0.744194 0.502782 0.475185
O O6 0.684073 0.526786 0.138122
O O7 0.371955 0.819821 0.140485
O O8 0.646855 0.168781 0.484136
O O9 0.724953 0.083331 0.220105
O O10 0.006457 0.839841 0.594607
O O11 0.500000 0.500000 0.500000
O O12 0.709853 0.484052 0.763341
O O13 0.378718 0.620939 0.729426
O O14 0.017799 0.855518 0.191991
O O15 0.207028 0.773821 0.920083
#
# Coordination Sequence:
#
# PCOD9084050 Si02
#       7
#     2   2   2   2   2   2   2
#     4   9  17  36  57  78 108 140 187 222 257 322
#     4  11  20  34  59  80 109 139 184 222 269 317
#     4  10  19  34  60  81 103 151 181 219 271 315
#     4  11  18  32  58  78 112 144 176 222 276 323
#     4  10  20  36  56  79 108 145 175 225 272 312
#     4  11  19  35  58  83 107 141 183 223 272 322
#     4  10  20  34  57  82 106 139 186 224 266 321
#
# _framework density 23.098151999999999
#
# number of rings (size 3 to 8) (size 9 to 14) (size 15 to 20)
#    0.000    1.714    5.714    3.000    0.000    2.286 
#    0.000    3.571    6.286    4.286    0.000    0.000 
#    0.000    0.000    0.000    0.000    0.000    0.000 
#
# Total GULP energy -77978.919289 kJ/mol
# GULP energy per Si atom -5569.922806 kJ/mol
# Density = 2.304558 g / cm^3
# Si number density = 23.098152 Si / 1000 Ang^3
#
#
#
# Elastic Constant Matrix: (Units=GPa)
#
#
# Indices 1 2 3 4 5 6 
#
# 1 126.1009 63.5009 30.4773 11.5492 25.8153 15.4306
# 2 63.5009 174.4592 38.7751 -15.9081 8.2799 9.6222
# 3 30.4773 38.7751 78.5496 -15.5275 13.7298 -4.5649
# 4 11.5492 -15.9081 -15.5275 34.1417 -4.3818 2.9805
# 5 25.8153 8.2799 13.7298 -4.3818 30.9331 0.0766
# 6 15.4306 9.6222 -4.5649 2.9805 0.0766 40.4794
#
#
#
# Elastic Compliance Matrix: (Units=1/GPa)
#
#
# Indices 1 2 3 4 5 6 
#
# 1 0.014885 -0.004746 -0.003746 -0.009981 -0.010893 -0.004213
# 2 -0.004746 0.008213 -0.001825 0.005089 0.003295 -0.000730
# 3 -0.003746 -0.001825 0.017304 0.007618 -0.002994 0.003258
# 4 -0.009981 0.005089 0.007618 0.039637 0.009200 0.000518
# 5 -0.010893 0.003295 -0.002994 0.009200 0.043163 0.002272
# 6 -0.004213 -0.000730 0.003258 0.000518 0.002272 0.026808
#
#
# Mechanical properties :
#
#
# Convention : Reuss Voigt Hill
#
# Bulk Modulus (GPa) = 50.59018 71.62403 61.10710
# Shear Modulus (GPa) = 28.21110 37.53460 32.87285
#
# Velocity S-wave (km/s) = 3.49858 4.03551 3.77660
# Velocity P-wave (km/s) = 6.18627 7.26565 6.74758
#
# Compressibility (1/GPa) = 0.01976668
#
# Stress axis : x y z
#
# Youngs Moduli (GPa) = 67.18082 121.75697 57.78976
#
# Poissons Ratio (x) = 0.57787 0.21651
# Poissons Ratio (y) = 0.31885 0.10548
# Poissons Ratio (z) = 0.25169 0.22224
#
# Static dielectric constant tensor:
#      x y z
#    x 1.961110 0.006430 -0.003830 
#    y 0.006430 1.912760 0.014610 
#    z -0.003830 0.014610 1.987030 
# 
# From -- ./inp_files/258615.got.cif
#   From: 2010.05.17/outbox.cif.g08.bks.cpg/sg2_130_cif.got.tgz:258615.got - 2010.06.03 11:33:40.
