data_PCOD9084840
_publ_section_title
;
Structure prediction by ZEFSAII (Michael W. Deem and Ramdas Pophale) SiO2 
 PCOD9084840
Probable space group: P -1
;
_chemical_formula_sum "Si O2"
_cell_formula_units_Z 16
_cell_length_a 7.962661
_cell_length_b 10.717210
_cell_length_c 20.440408
_cell_angle_alpha 46.756546
_cell_angle_beta 60.184973
_cell_angle_gamma 35.136133
_cell_volume 722.969626
_symmetry_space_group_name_H-M "P -1"
_symmetry_group_IT_number 2
_symmetry_cell_setting 'triclinic'
loop_
_space_group_symop_operation_xyz
x,y,z
-x,-y,-z
loop_
_atom_site_type_symbol
_atom_site_label
_atom_site_fract_x
_atom_site_fract_y
_atom_site_fract_z
Si Si1 0.387137 0.265965 0.441298
Si Si2 0.156684 0.314144 0.831353
Si Si3 0.216724 0.890656 0.688284
Si Si4 0.716810 0.773015 0.384106
Si Si5 0.368201 0.907892 0.274105
Si Si6 0.461362 0.419819 0.143330
Si Si7 0.347592 0.805306 0.940691
Si Si8 0.044189 0.458024 0.083140
O O1 0.612559 0.232012 0.369514
O O2 0.366371 0.291338 0.514701
O O3 0.053465 0.509070 0.392889
O O4 0.500000 0.000000 0.500000
O O5 0.204676 0.327884 0.893194
O O6 0.803141 0.540513 0.807173
O O7 0.348261 0.307908 0.750137
O O8 0.258051 0.053740 0.889030
O O9 0.375434 0.657480 0.792422
O O10 0.870883 0.082867 0.678167
O O11 0.269568 0.041755 0.657308
O O12 0.498737 0.883553 0.326726
O O13 0.182666 0.186773 0.176969
O O14 0.718965 0.191023 0.123666
O O15 0.308884 0.693200 0.045348
O O16 0.701532 0.570682 0.946285
O O17 0.000000 0.500000 0.000000
#
# Coordination Sequence:
#
# PCOD9084840 Si02
#       8
#     2   2   2   2   2   2   2   2
#     4   9  21  42  68  90 120 162 195 246 315 373
#     4  10  20  36  57  81 117 167 209 254 312 358
#     4  11  22  38  62  92 122 160 203 248 308 370
#     4  10  21  43  65  90 125 156 200 252 305 373
#     4  11  24  38  61  95 125 160 207 256 305 363
#     4  10  19  35  57  83 120 157 207 260 304 363
#     4   9  19  33  54  82 112 163 213 255 307 358
#     4  10  21  38  54  81 126 165 206 258 303 354
#
# _framework density 22.130941
#
# number of rings (size 3 to 8) (size 9 to 14) (size 15 to 20)
#    0.000    2.000    0.000    4.125    0.000    4.500 
#    0.000   10.625    0.000    0.000    0.000    0.000 
#    0.000    0.000    0.000    0.000    0.000    0.000 
#
# Total GULP energy -89186.393938 kJ/mol
# GULP energy per Si atom -5574.149621 kJ/mol
# Density = 2.208057 g / cm^3
# Si number density = 22.130941 Si / 1000 Ang^3
#
#
#
# Elastic Constant Matrix: (Units=GPa)
#
#
# Indices 1 2 3 4 5 6 
#
# 1 87.7902 35.2613 47.2554 22.5718 17.0896 -20.9666
# 2 35.2613 100.5331 37.4622 25.5569 3.8669 -14.0174
# 3 47.2554 37.4622 97.6131 22.9063 17.4325 -16.6445
# 4 22.5718 25.5569 22.9063 45.7559 -0.7443 -13.3841
# 5 17.0896 3.8669 17.4325 -0.7443 24.2664 1.5183
# 6 -20.9666 -14.0174 -16.6445 -13.3841 1.5183 33.5823
#
#
#
# Elastic Compliance Matrix: (Units=1/GPa)
#
#
# Indices 1 2 3 4 5 6 
#
# 1 0.019945 -0.002850 -0.004271 -0.003926 -0.011151 0.008086
# 2 -0.002850 0.013112 -0.002891 -0.004306 0.001833 0.000462
# 3 -0.004271 -0.002891 0.016359 -0.003685 -0.008594 0.003155
# 4 -0.003926 -0.004306 -0.003685 0.029754 0.006668 0.005482
# 5 -0.011151 0.001833 -0.008594 0.006668 0.055794 -0.010321
# 6 0.008086 0.000462 0.003155 0.005482 -0.010321 0.039234
#
#
# Mechanical properties :
#
#
# Convention : Reuss Voigt Hill
#
# Bulk Modulus (GPa) = 34.02069 58.43270 46.22670
# Shear Modulus (GPa) = 24.50746 31.78472 28.14609
#
# Velocity S-wave (km/s) = 3.33135 3.79385 3.57010
# Velocity P-wave (km/s) = 5.49573 6.75659 6.15851
#
# Compressibility (1/GPa) = 0.02939388
#
# Stress axis : x y z
#
# Youngs Moduli (GPa) = 50.13688 76.26430 61.12851
#
# Poissons Ratio (x) = 0.21736 0.26105
# Poissons Ratio (y) = 0.14289 0.17671
# Poissons Ratio (z) = 0.21411 0.22046
#
# Static dielectric constant tensor:
#      x y z
#    x 2.006110 0.116650 0.137110 
#    y 0.116650 1.953860 0.139580 
#    z 0.137110 0.139580 2.015460 
# 
# From -- ./inp_files/589007.got.cif
#   From: 2010.05.17/outbox.cif.g08.bks.cpg/sg2_295_cif.got.tgz:589007.got - 2010.06.03 11:33:40.
