data_PCOD9084463
_publ_section_title
;
Structure prediction by ZEFSAII (Michael W. Deem and Ramdas Pophale) SiO2 
 PCOD9084463
Probable space group: P -1
;
_chemical_formula_sum "Si O2"
_cell_formula_units_Z 16
_cell_length_a 25.231362
_cell_length_b 14.981256
_cell_length_c 26.160108
_cell_angle_alpha 26.068334
_cell_angle_beta 11.129183
_cell_angle_gamma 26.331282
_cell_volume 825.775945
_symmetry_space_group_name_H-M "P -1"
_symmetry_group_IT_number 2
_symmetry_cell_setting 'triclinic'
loop_
_space_group_symop_operation_xyz
x,y,z
-x,-y,-z
loop_
_atom_site_type_symbol
_atom_site_label
_atom_site_fract_x
_atom_site_fract_y
_atom_site_fract_z
Si Si1 0.562565 0.618985 0.565822
Si Si2 0.024516 0.886893 0.979926
Si Si3 0.707585 0.466800 0.611050
Si Si4 0.765642 0.312755 0.985118
Si Si5 0.805958 0.272711 0.349973
Si Si6 0.117822 0.820714 0.311619
Si Si7 0.293832 0.521190 0.763766
Si Si8 0.403468 0.394260 0.096419
O O1 0.623692 0.446325 0.641720
O O2 0.430871 0.559561 0.668274
O O3 0.334645 0.803413 0.710476
O O4 0.846845 0.704320 0.242423
O O5 0.871156 0.075900 0.994119
O O6 0.000000 0.000000 0.000000
O O7 0.977827 0.575205 0.300235
O O8 0.770059 0.270383 0.691629
O O9 0.461492 0.632329 0.783887
O O10 0.627485 0.428303 0.007605
O O11 0.511140 0.346273 0.618584
O O12 0.758320 0.289037 0.325111
O O13 0.962152 0.055353 0.335330
O O14 0.004511 0.440487 0.087073
O O15 0.889331 0.683199 0.581606
O O16 0.369611 0.785576 0.050863
O O17 0.500000 0.500000 0.000000
#
# Coordination Sequence:
#
# PCOD9084463 Si02
#       8
#     2   2   2   2   2   2   2   2
#     4  12  22  35  56  83 114 142 190 227 276 325
#     4  12  21  33  54  81 113 153 184 218 264 334
#     4  10  19  35  51  78 110 142 177 217 265 327
#     4  10  20  33  50  74 110 151 179 210 267 315
#     4  10  21  43  61  80 110 140 190 224 293 328
#     4  10  21  36  61  77 105 153 180 216 277 332
#     4  10  23  39  61  84 108 142 176 247 280 322
#     4  10  21  35  53  82 114 141 182 228 263 316
#
# _framework density 19.375717000000002
#
# number of rings (size 3 to 8) (size 9 to 14) (size 15 to 20)
#    0.000    1.500    2.500    3.000    0.000    2.000 
#    0.000    1.250    0.000    0.000    0.000    0.000 
#    0.000    0.000    0.000    0.000    0.000    0.000 
#
# Total GULP energy -89254.563941 kJ/mol
# GULP energy per Si atom -5578.410246 kJ/mol
# Density = 1.933162 g / cm^3
# Si number density = 19.375717 Si / 1000 Ang^3
#
#
#
# Elastic Constant Matrix: (Units=GPa)
#
#
# Indices 1 2 3 4 5 6 
#
# 1 169.1591 30.1746 -66.8078 11.0102 -47.9544 -11.2921
# 2 30.1746 81.0331 -48.7943 20.0922 -11.9863 -31.3603
# 3 -66.8078 -48.7943 174.9229 -23.6254 77.1901 8.8349
# 4 11.0102 20.0922 -23.6254 36.0354 -24.3207 -8.3037
# 5 -47.9544 -11.9863 77.1901 -24.3207 67.6956 3.9519
# 6 -11.2921 -31.3603 8.8349 -8.3037 3.9519 20.5036
#
#
#
# Elastic Compliance Matrix: (Units=1/GPa)
#
#
# Indices 1 2 3 4 5 6 
#
# 1 0.008030 -0.003029 -0.000280 0.003643 0.006775 0.000080
# 2 -0.003029 0.048952 0.016908 -0.015423 -0.022030 0.063919
# 3 -0.000280 0.016908 0.017716 -0.007701 -0.021285 0.019057
# 4 0.003643 -0.015423 -0.007701 0.046433 0.025569 -0.004388
# 5 0.006775 -0.022030 -0.021285 0.025569 0.050302 -0.020132
# 6 0.000080 0.063919 0.019057 -0.004388 -0.020132 0.140472
#
#
# Mechanical properties :
#
#
# Convention : Reuss Voigt Hill
#
# Bulk Modulus (GPa) = 9.81370 28.25113 19.03242
# Shear Modulus (GPa) = 15.69007 58.88307 37.28657
#
# Velocity S-wave (km/s) = 2.84875 5.51871 4.39155
# Velocity P-wave (km/s) = 3.98704 7.43105 5.96309
#
# Compressibility (1/GPa) = 0.10189834
#
# Stress axis : x y z
#
# Youngs Moduli (GPa) = 124.52738 20.42809 56.44498
#
# Poissons Ratio (x) = 0.06187 0.01579
# Poissons Ratio (y) = 0.37718 -0.95439
# Poissons Ratio (z) = 0.03483 -0.34540
#
# Static dielectric constant tensor:
#      x y z
#    x 1.653620 -0.035610 0.051290 
#    y -0.035610 1.698470 0.010970 
#    z 0.051290 0.010970 1.666550 
# 
# From -- ./inp_files/370531.got.cif
#   From: 2010.05.17/outbox.cif.g08.bks.cpg/sg2_186_cif.got.tgz:370531.got - 2010.06.03 11:33:40.
