data_PCOD9084376
_publ_section_title
;
Structure prediction by ZEFSAII (Michael W. Deem and Ramdas Pophale) SiO2 
 PCOD9084376
Probable space group: P -1
;
_chemical_formula_sum "Si O2"
_cell_formula_units_Z 16
_cell_length_a 15.368567
_cell_length_b 20.213949
_cell_length_c 8.594774
_cell_angle_alpha 35.334111
_cell_angle_beta 32.243501
_cell_angle_gamma 35.875374
_cell_volume 758.660536
_symmetry_space_group_name_H-M "P -1"
_symmetry_group_IT_number 2
_symmetry_cell_setting 'triclinic'
loop_
_space_group_symop_operation_xyz
x,y,z
-x,-y,-z
loop_
_atom_site_type_symbol
_atom_site_label
_atom_site_fract_x
_atom_site_fract_y
_atom_site_fract_z
Si Si1 0.131128 0.097893 0.489638
Si Si2 0.779030 0.732727 0.222765
Si Si3 0.739833 0.251903 0.763922
Si Si4 0.567531 0.568023 0.898311
Si Si5 0.053116 0.910985 0.740747
Si Si6 0.832197 0.340257 0.125251
Si Si7 0.663759 0.034385 0.139292
Si Si8 0.506814 0.990045 0.195561
O O1 0.931090 0.172323 0.706117
O O2 0.127468 0.982770 0.612864
O O3 0.300262 0.039401 0.456484
O O4 0.171808 0.198726 0.128691
O O5 0.682097 0.640490 0.512665
O O6 0.630660 0.847637 0.316771
O O7 0.965080 0.670017 0.150694
O O8 0.776198 0.319292 0.425741
O O9 0.600391 0.339697 0.927453
O O10 0.670780 0.152886 0.985418
O O11 0.500000 0.500000 0.000000
O O12 0.697792 0.467162 0.013436
O O13 0.160734 0.773127 0.780857
O O14 0.000000 0.000000 0.500000
O O15 0.857932 0.926167 0.063737
O O16 0.500000 0.000000 0.500000
O O17 0.608922 0.065328 0.979634
O O18 0.500000 0.000000 0.000000
#
# Coordination Sequence:
#
# PCOD9084376 Si02
#       8
#     2   2   2   2   2   2   2   2
#     4   9  20  36  66  97 128 157 205 254 319 367
#     4  10  20  40  63  93 127 160 209 252 304 378
#     4  10  23  43  64  89 125 167 214 253 301 384
#     4  12  28  45  61  90 126 169 213 269 312 350
#     4  11  17  37  66  95 123 166 201 250 310 386
#     4  11  22  42  69  87 123 172 218 241 303 386
#     4  11  21  37  60  98 133 155 198 258 316 370
#     4  10  19  34  63  99 129 157 199 250 318 373
#
# _framework density 21.089801000000001
#
# number of rings (size 3 to 8) (size 9 to 14) (size 15 to 20)
#    0.000    1.500    5.000    2.250    1.750    1.000 
#    2.250    4.375    0.000    0.000    0.000    0.000 
#    0.000    0.000    0.000    0.000    0.000    0.000 
#
# Total GULP energy -89313.296121 kJ/mol
# GULP energy per Si atom -5582.081008 kJ/mol
# Density = 2.104180 g / cm^3
# Si number density = 21.089801 Si / 1000 Ang^3
#
#
#
# Elastic Constant Matrix: (Units=GPa)
#
#
# Indices 1 2 3 4 5 6 
#
# 1 98.0132 49.5504 47.9227 6.6944 -35.3722 -7.0065
# 2 49.5504 116.9655 44.3463 17.3579 -27.8117 6.4457
# 3 47.9227 44.3463 134.8808 5.3873 -27.3318 3.1080
# 4 6.6944 17.3579 5.3873 33.7736 2.9657 -9.4238
# 5 -35.3722 -27.8117 -27.3318 2.9657 42.2989 7.4732
# 6 -7.0065 6.4457 3.1080 -9.4238 7.4732 32.1643
#
#
#
# Elastic Compliance Matrix: (Units=1/GPa)
#
#
# Indices 1 2 3 4 5 6 
#
# 1 0.017352 -0.003854 -0.002915 -0.001241 0.009792 0.002195
# 2 -0.003854 0.014220 -0.001261 -0.009217 0.007368 -0.007980
# 3 -0.002915 -0.001261 0.009693 -0.001338 0.003538 -0.002533
# 4 -0.001241 -0.009217 -0.001338 0.040715 -0.013792 0.016840
# 5 0.009792 0.007368 0.003538 -0.013792 0.042323 -0.013560
# 6 0.002195 -0.007980 -0.002533 0.016840 -0.013560 0.041497
#
#
# Mechanical properties :
#
#
# Convention : Reuss Voigt Hill
#
# Bulk Modulus (GPa) = 39.67471 70.38870 55.03170
# Shear Modulus (GPa) = 26.27981 35.51670 30.89825
#
# Velocity S-wave (km/s) = 3.53383 4.10819 3.83179
# Velocity P-wave (km/s) = 5.95850 7.48005 6.76221
#
# Compressibility (1/GPa) = 0.02520497
#
# Stress axis : x y z
#
# Youngs Moduli (GPa) = 57.63073 70.32472 103.16965
#
# Poissons Ratio (x) = 0.27105 0.30070
# Poissons Ratio (y) = 0.22212 0.13008
# Poissons Ratio (z) = 0.16797 0.08867
#
# Static dielectric constant tensor:
#      x y z
#    x 1.867450 0.041960 0.081390 
#    y 0.041960 1.767220 0.073430 
#    z 0.081390 0.073430 1.865620 
# 
# From -- ./inp_files/317938.got.cif
#   From: 2010.05.17/outbox.cif.g08.bks.cpg/sg2_159_cif.got.tgz:317938.got - 2010.06.03 11:33:40.
