data_PCOD9084211
_publ_section_title
;
Structure prediction by ZEFSAII (Michael W. Deem and Ramdas Pophale) SiO2 
 PCOD9084211
Probable space group: P -1
;
_chemical_formula_sum "Si O2"
_cell_formula_units_Z 16
_cell_length_a 10.607463
_cell_length_b 23.480831
_cell_length_c 10.002696
_cell_angle_alpha 41.361773
_cell_angle_beta 67.843458
_cell_angle_gamma 36.006235
_cell_volume 779.932694
_symmetry_space_group_name_H-M "P -1"
_symmetry_group_IT_number 2
_symmetry_cell_setting 'triclinic'
loop_
_space_group_symop_operation_xyz
x,y,z
-x,-y,-z
loop_
_atom_site_type_symbol
_atom_site_label
_atom_site_fract_x
_atom_site_fract_y
_atom_site_fract_z
Si Si1 0.733649 0.537742 0.532834
Si Si2 0.241404 0.289207 0.933352
Si Si3 0.242643 0.055944 0.768653
Si Si4 0.977952 0.358304 0.490501
Si Si5 0.150340 0.863752 0.296312
Si Si6 0.450995 0.925457 0.187191
Si Si7 0.723522 0.635648 0.944041
Si Si8 0.224418 0.915297 0.461831
O O1 0.720736 0.640296 0.287430
O O2 0.855040 0.408717 0.596999
O O3 0.437323 0.679350 0.449627
O O4 0.946304 0.422961 0.770667
O O5 0.294355 0.282324 0.078458
O O6 0.463226 0.098532 0.138574
O O7 0.088292 0.223170 0.589900
O O8 0.050485 0.107405 0.659687
O O9 0.314157 0.966727 0.034879
O O10 0.245170 0.270501 0.566515
O O11 0.753481 0.530898 0.197291
O O12 0.194023 0.883274 0.388704
O O13 0.000000 0.000000 0.000000
O O14 0.263775 0.994526 0.259655
O O15 0.500000 0.000000 0.000000
O O16 0.492441 0.755147 0.719672
O O17 0.000000 0.500000 0.000000
O O18 0.000000 0.000000 0.500000
#
# Coordination Sequence:
#
# PCOD9084211 Si02
#       8
#     2   2   2   2   2   2   2   2
#     4  10  20  34  61  95 127 164 227 274 325 387
#     4  10  19  34  61  91 123 170 219 282 317 399
#     4  11  21  39  65  94 133 167 226 280 337 386
#     4  10  22  38  65  98 129 171 221 286 331 394
#     4  12  23  39  63  97 132 177 224 278 331 407
#     4  10  20  39  67 100 131 171 222 283 326 391
#     4  11  22  39  64  91 133 177 226 267 341 411
#     4  12  25  41  66 103 138 177 224 280 345 406
#
# _framework density 20.514589999999998
#
# number of rings (size 3 to 8) (size 9 to 14) (size 15 to 20)
#    0.000    1.250    5.000    1.500    3.500    0.500 
#    0.000    2.500    2.750    0.000    0.000    0.000 
#    0.000    0.000    0.000    0.000    0.000    0.000 
#
# Total GULP energy -89090.394854 kJ/mol
# GULP energy per Si atom -5568.149678 kJ/mol
# Density = 2.046790 g / cm^3
# Si number density = 20.514590 Si / 1000 Ang^3
#
#
#
# Elastic Constant Matrix: (Units=GPa)
#
#
# Indices 1 2 3 4 5 6 
#
# 1 92.6538 43.6490 53.6134 -1.6465 31.0472 8.0977
# 2 43.6490 130.6657 43.1504 -9.4210 8.6261 3.0556
# 3 53.6134 43.1504 91.1039 -0.3461 33.6678 9.5918
# 4 -1.6465 -9.4210 -0.3461 33.0008 1.2543 3.4265
# 5 31.0472 8.6261 33.6678 1.2543 38.2758 -1.5491
# 6 8.0977 3.0556 9.5918 3.4265 -1.5491 46.9942
#
#
#
# Elastic Compliance Matrix: (Units=1/GPa)
#
#
# Indices 1 2 3 4 5 6 
#
# 1 0.019478 -0.003889 -0.005662 0.000424 -0.010051 -0.002310
# 2 -0.003889 0.010239 -0.004356 0.002417 0.004635 0.000870
# 3 -0.005662 -0.004356 0.021841 -0.000397 -0.013771 -0.003624
# 4 0.000424 0.002417 -0.000397 0.031331 -0.001667 -0.002488
# 5 -0.010051 0.004635 -0.013771 -0.001667 0.045639 0.005867
# 6 -0.002310 0.000870 -0.003624 -0.002488 0.005867 0.022735
#
#
# Mechanical properties :
#
#
# Convention : Reuss Voigt Hill
#
# Bulk Modulus (GPa) = 42.11566 66.13880 54.12723
# Shear Modulus (GPa) = 26.73931 35.25487 30.99709
#
# Velocity S-wave (km/s) = 3.61422 4.15001 3.89135
# Velocity P-wave (km/s) = 6.16368 7.43460 6.82877
#
# Compressibility (1/GPa) = 0.02374413
#
# Stress axis : x y z
#
# Youngs Moduli (GPa) = 51.33915 97.66900 45.78649
#
# Poissons Ratio (x) = 0.37983 0.25923
# Poissons Ratio (y) = 0.19966 0.19945
# Poissons Ratio (z) = 0.29067 0.42545
#
# Static dielectric constant tensor:
#      x y z
#    x 1.846660 0.018320 -0.056870 
#    y 0.018320 1.822850 0.003890 
#    z -0.056870 0.003890 1.791890 
# 
# From -- ./inp_files/284730.got.cif
#   From: 2010.05.17/outbox.cif.g08.bks.cpg/sg2_143_cif.got.tgz:284730.got - 2010.06.03 11:33:40.
