data_PCOD9084858
_publ_section_title
;
Structure prediction by ZEFSAII (Michael W. Deem and Ramdas Pophale) SiO2 
 PCOD9084858
Probable space group: P -1
;
_chemical_formula_sum "Si O2"
_cell_formula_units_Z 16
_cell_length_a 21.568819
_cell_length_b 21.260198
_cell_length_c 13.728363
_cell_angle_alpha 148.381728
_cell_angle_beta 147.365719
_cell_angle_gamma 13.253909
_cell_volume 752.042170
_symmetry_space_group_name_H-M "P -1"
_symmetry_group_IT_number 2
_symmetry_cell_setting 'triclinic'
loop_
_space_group_symop_operation_xyz
x,y,z
-x,-y,-z
loop_
_atom_site_type_symbol
_atom_site_label
_atom_site_fract_x
_atom_site_fract_y
_atom_site_fract_z
Si Si1 0.199988 0.839052 0.464173
Si Si2 0.509002 0.069902 0.859228
Si Si3 0.752192 0.926800 0.191255
Si Si4 0.054998 0.528777 0.381760
Si Si5 0.681850 0.321244 0.298753
Si Si6 0.280101 0.434334 0.362350
Si Si7 0.465984 0.280769 0.904554
Si Si8 0.934904 0.701677 0.660834
O O1 0.482506 0.506940 0.375391
O O2 0.260530 0.922367 0.658380
O O3 0.000000 0.000000 0.500000
O O4 0.997872 0.005348 0.325335
O O5 0.497810 0.200347 0.950936
O O6 0.208038 0.300486 0.770508
O O7 0.702830 0.791945 0.694651
O O8 0.646072 0.956985 0.997123
O O9 0.056074 0.618243 0.224674
O O10 0.549868 0.110340 0.257478
O O11 0.161835 0.504014 0.399830
O O12 0.977637 0.677949 0.570924
O O13 0.660436 0.478981 0.442016
O O14 0.578759 0.308431 0.081946
O O15 0.155462 0.564857 0.835636
O O16 0.641477 0.024672 0.732129
O O17 0.000000 0.500000 0.500000
#
# Coordination Sequence:
#
# PCOD9084858 Si02
#       8
#     2   2   2   2   2   2   2   2
#     4  10  19  35  57  85 123 160 200 237 295 350
#     4  12  23  37  61  94 118 154 204 245 300 353
#     4  10  22  37  59  87 124 163 196 242 288 352
#     4  12  25  40  63  85 119 163 200 249 299 358
#     4  10  22  38  60  86 120 160 193 247 297 349
#     4  10  23  43  58  85 125 164 201 234 291 359
#     4  12  23  40  65  93 122 148 200 258 305 359
#     4  12  23  43  63  90 122 153 196 252 320 355
#
# _framework density 21.275402
#
# number of rings (size 3 to 8) (size 9 to 14) (size 15 to 20)
#    0.000    1.000    2.500    4.500    0.000    6.000 
#    0.000    1.250    0.000    0.000    0.000    0.000 
#    0.000    0.000    0.000    0.000    0.000    0.000 
#
# Total GULP energy -89452.952750 kJ/mol
# GULP energy per Si atom -5590.809547 kJ/mol
# Density = 2.122698 g / cm^3
# Si number density = 21.275402 Si / 1000 Ang^3
#
#
#
# Elastic Constant Matrix: (Units=GPa)
#
#
# Indices 1 2 3 4 5 6 
#
# 1 95.9816 -1.0718 26.1976 -1.2304 -1.7505 -18.4563
# 2 -1.0718 80.4441 3.8110 0.6789 14.9987 -15.7167
# 3 26.1976 3.8110 70.7161 -14.5151 8.5284 -3.9431
# 4 -1.2304 0.6789 -14.5151 25.0823 -8.3659 -6.4078
# 5 -1.7505 14.9987 8.5284 -8.3659 19.6061 -1.9667
# 6 -18.4563 -15.7167 -3.9431 -6.4078 -1.9667 28.7500
#
#
#
# Elastic Compliance Matrix: (Units=1/GPa)
#
#
# Indices 1 2 3 4 5 6 
#
# 1 0.013659 0.001574 -0.004735 0.001572 0.003707 0.009584
# 2 0.001574 0.016521 0.000054 -0.002347 -0.012654 0.008661
# 3 -0.004735 0.000054 0.018396 0.009279 -0.004378 0.001281
# 4 0.001572 -0.002347 0.009279 0.057280 0.023885 0.015399
# 5 0.003707 -0.012654 -0.004378 0.023885 0.073636 0.005223
# 6 0.009584 0.008661 0.001281 0.015399 0.005223 0.049635
#
#
# Mechanical properties :
#
#
# Convention : Reuss Voigt Hill
#
# Bulk Modulus (GPa) = 23.60596 33.89062 28.74829
# Shear Modulus (GPa) = 20.04317 29.23470 24.63894
#
# Velocity S-wave (km/s) = 3.07267 3.71092 3.40677
# Velocity P-wave (km/s) = 4.86907 5.85878 5.38670
#
# Compressibility (1/GPa) = 0.04236218
#
# Stress axis : x y z
#
# Youngs Moduli (GPa) = 73.21014 60.53059 54.35833
#
# Poissons Ratio (x) = -0.09529 0.25739
# Poissons Ratio (y) = -0.11526 -0.00292
# Poissons Ratio (z) = 0.34666 -0.00325
#
# Static dielectric constant tensor:
#      x y z
#    x 1.805720 -0.014240 -0.019280 
#    y -0.014240 1.757360 0.006140 
#    z -0.019280 0.006140 1.778810 
# 
# From -- ./inp_files/542982.got.cif
#   From: 2010.05.17/outbox.cif.g08.bks.cpg/sg2_272_cif.got.tgz:542982.got - 2010.06.03 11:33:40.
