data_PCOD9084572
_publ_section_title
;
Structure prediction by ZEFSAII (Michael W. Deem and Ramdas Pophale) SiO2 
 PCOD9084572
Probable space group: P -1
;
_chemical_formula_sum "Si O2"
_cell_formula_units_Z 16
_cell_length_a 31.120230
_cell_length_b 14.987261
_cell_length_c 9.697409
_cell_angle_alpha 38.994703
_cell_angle_beta 42.312361
_cell_angle_gamma 16.971102
_cell_volume 830.547886
_symmetry_space_group_name_H-M "P -1"
_symmetry_group_IT_number 2
_symmetry_cell_setting 'triclinic'
loop_
_space_group_symop_operation_xyz
x,y,z
-x,-y,-z
loop_
_atom_site_type_symbol
_atom_site_label
_atom_site_fract_x
_atom_site_fract_y
_atom_site_fract_z
Si Si1 0.968803 0.709526 0.242836
Si Si2 0.171830 0.690458 0.491170
Si Si3 0.782599 0.801284 0.133103
Si Si4 0.127523 0.095675 0.078250
Si Si5 0.405672 0.186510 0.860859
Si Si6 0.323013 0.256619 0.393762
Si Si7 0.266434 0.239066 0.983440
Si Si8 0.847682 0.227785 0.056166
O O1 0.000000 0.500000 0.500000
O O2 0.882373 0.001919 0.185215
O O3 0.888060 0.856076 0.109032
O O4 0.130855 0.445426 0.139806
O O5 0.273555 0.443393 0.419523
O O6 0.215348 0.494556 0.740808
O O7 0.188775 0.822495 0.307955
O O8 0.000000 0.000000 0.500000
O O9 0.727497 0.800877 0.379239
O O10 0.705683 0.913461 0.034752
O O11 0.957512 0.433015 0.129421
O O12 0.777984 0.968795 0.000453
O O13 0.391984 0.047708 0.015133
O O14 0.254821 0.562361 0.817412
O O15 0.504869 0.070532 0.653812
O O16 0.500000 0.000000 0.000000
O O17 0.232551 0.511706 0.179030
O O18 0.000000 0.000000 0.000000
#
# Coordination Sequence:
#
# PCOD9084572 Si02
#       8
#     2   2   2   2   2   2   2   2
#     4  11  22  35  58  91 124 153 196 250 301 350
#     4  11  17  34  63  89 119 151 196 253 293 350
#     4   9  20  32  58  85 119 154 188 244 311 349
#     4  10  19  35  54  94 124 152 194 245 308 357
#     4  10  23  38  61  89 120 158 207 247 295 355
#     4  10  20  37  61  86 120 156 197 254 301 346
#     4  10  20  39  57  88 116 155 200 243 298 360
#     4  11  21  36  60  88 114 157 207 245 290 352
#
# _framework density 19.264391
#
# number of rings (size 3 to 8) (size 9 to 14) (size 15 to 20)
#    0.000    1.750    6.250    0.000    1.750    2.000 
#    4.500    0.000    2.750    3.750    0.000    0.000 
#    0.000    0.000    0.000    0.000    0.000    0.000 
#
# Total GULP energy -89150.533167 kJ/mol
# GULP energy per Si atom -5571.908323 kJ/mol
# Density = 1.922054 g / cm^3
# Si number density = 19.264391 Si / 1000 Ang^3
#
#
#
# Elastic Constant Matrix: (Units=GPa)
#
#
# Indices 1 2 3 4 5 6 
#
# 1 151.1593 34.3134 66.8910 10.6418 -31.7642 5.3984
# 2 34.3134 78.2215 46.0473 26.5522 -5.9097 14.9786
# 3 66.8910 46.0473 116.4836 19.9438 -19.3884 17.4337
# 4 10.6418 26.5522 19.9438 28.4350 4.9429 6.3817
# 5 -31.7642 -5.9097 -19.3884 4.9429 35.0384 -3.9762
# 6 5.3984 14.9786 17.4337 6.3817 -3.9762 25.6760
#
#
#
# Elastic Compliance Matrix: (Units=1/GPa)
#
#
# Indices 1 2 3 4 5 6 
#
# 1 0.010439 -0.001604 -0.004397 -0.001310 0.007306 0.003183
# 2 -0.001604 0.022867 -0.004035 -0.016964 0.001910 -0.005751
# 3 -0.004397 -0.004035 0.014834 -0.004464 0.003590 -0.005128
# 4 -0.001310 -0.016964 -0.004464 0.058058 -0.015114 -0.003568
# 5 0.007306 0.001910 0.003590 -0.015114 0.040159 0.004888
# 6 0.003183 -0.005751 -0.005128 -0.003568 0.004888 0.046758
#
#
# Mechanical properties :
#
#
# Convention : Reuss Voigt Hill
#
# Bulk Modulus (GPa) = 35.62736 71.15196 53.38966
# Shear Modulus (GPa) = 22.46748 31.07072 26.76910
#
# Velocity S-wave (km/s) = 3.41877 4.02040 3.73173
# Velocity P-wave (km/s) = 5.84107 7.65285 6.80750
#
# Compressibility (1/GPa) = 0.02806832
#
# Stress axis : x y z
#
# Youngs Moduli (GPa) = 95.79383 43.73049 67.41134
#
# Poissons Ratio (x) = 0.07015 0.29638
# Poissons Ratio (y) = 0.15366 0.27204
# Poissons Ratio (z) = 0.42117 0.17647
#
# Static dielectric constant tensor:
#      x y z
#    x 2.502800 -0.448550 0.261540 
#    y -0.448550 1.932740 -0.126330 
#    z 0.261540 -0.126330 1.734930 
# 
# From -- ./inp_files/358836.got.cif
#   From: 2010.05.17/outbox.cif.g08.bks.cpg/sg2_180_cif.got.tgz:358836.got - 2010.06.03 11:33:40.
