data_PCOD9084476
_publ_section_title
;
Structure prediction by ZEFSAII (Michael W. Deem and Ramdas Pophale) SiO2 
 PCOD9084476
Probable space group: P -1
;
_chemical_formula_sum "Si O2"
_cell_formula_units_Z 16
_cell_length_a 17.590117
_cell_length_b 11.659561
_cell_length_c 11.181346
_cell_angle_alpha 48.767580
_cell_angle_beta 32.504696
_cell_angle_gamma 40.756265
_cell_volume 803.153704
_symmetry_space_group_name_H-M "P -1"
_symmetry_group_IT_number 2
_symmetry_cell_setting 'triclinic'
loop_
_space_group_symop_operation_xyz
x,y,z
-x,-y,-z
loop_
_atom_site_type_symbol
_atom_site_label
_atom_site_fract_x
_atom_site_fract_y
_atom_site_fract_z
Si Si1 0.490458 0.248405 0.154588
Si Si2 0.637592 0.415308 0.013359
Si Si3 0.956593 0.414424 0.227190
Si Si4 0.736725 0.791844 0.331801
Si Si5 0.350768 0.583962 0.470275
Si Si6 0.690928 0.881143 0.048769
Si Si7 0.182205 0.928579 0.849727
Si Si8 0.451405 0.763302 0.399128
O O1 0.595799 0.324241 0.023649
O O2 0.414460 0.181709 0.404153
O O3 0.612203 0.089716 0.018561
O O4 0.345857 0.419721 0.163742
O O5 0.480777 0.503886 0.246912
O O6 0.774595 0.250234 0.014877
O O7 0.868974 0.583629 0.314079
O O8 0.823149 0.367098 0.387141
O O9 0.000000 0.500000 0.000000
O O10 0.125505 0.242125 0.157268
O O11 0.694524 0.823007 0.224686
O O12 0.796880 0.926622 0.200933
O O13 0.367314 0.732321 0.417703
O O14 0.415157 0.424882 0.590760
O O15 0.560191 0.851901 0.170711
O O16 0.313114 0.869388 0.608875
O O17 0.000000 0.000000 0.000000
#
# Coordination Sequence:
#
# PCOD9084476 Si02
#       8
#     2   2   2   2   2   2   2   2
#     4  11  20  37  64  85 117 157 201 241 296 354
#     4  10  22  38  59  88 117 158 194 246 300 354
#     4  10  20  31  56  88 119 145 193 251 291 335
#     4  11  19  36  62  87 116 151 203 248 286 347
#     4  10  19  35  52  83 121 151 190 243 302 345
#     4  11  20  35  60  91 114 154 205 244 287 350
#     4  11  23  36  60  91 117 151 202 252 299 347
#     4  10  20  32  57  82 114 152 194 242 294 348
#
# _framework density 19.921467
#
# number of rings (size 3 to 8) (size 9 to 14) (size 15 to 20)
#    0.000    1.500    6.250    1.125    3.500    1.000 
#    0.000    1.875    2.750    0.000    0.000    0.000 
#    0.000    0.000    0.000    0.000    0.000    0.000 
#
# Total GULP energy -89205.385614 kJ/mol
# GULP energy per Si atom -5575.336601 kJ/mol
# Density = 1.987612 g / cm^3
# Si number density = 19.921467 Si / 1000 Ang^3
#
#
#
# Elastic Constant Matrix: (Units=GPa)
#
#
# Indices 1 2 3 4 5 6 
#
# 1 68.5838 50.5442 22.2361 3.3141 -22.3091 15.3240
# 2 50.5442 132.9929 33.3550 17.3397 -13.1661 8.9529
# 3 22.2361 33.3550 38.8168 12.3140 -18.2637 -8.2285
# 4 3.3141 17.3397 12.3140 31.0239 -2.5847 1.1393
# 5 -22.3091 -13.1661 -18.2637 -2.5847 24.4428 0.4776
# 6 15.3240 8.9529 -8.2285 1.1393 0.4776 36.6119
#
#
#
# Elastic Compliance Matrix: (Units=1/GPa)
#
#
# Indices 1 2 3 4 5 6 
#
# 1 0.032533 -0.008678 -0.005666 0.005915 0.021670 -0.013235
# 2 -0.008678 0.012814 -0.009140 -0.003238 -0.008164 -0.001348
# 3 -0.005666 -0.009140 0.062316 -0.016848 0.034322 0.018688
# 4 0.005915 -0.003238 -0.016848 0.039961 -0.004578 -0.006654
# 5 0.021670 -0.008164 0.034322 -0.004578 0.081460 -0.000280
# 6 -0.013235 -0.001348 0.018688 -0.006654 -0.000280 0.037594
#
#
# Mechanical properties :
#
#
# Convention : Reuss Voigt Hill
#
# Bulk Modulus (GPa) = 16.47526 50.29600 33.38563
# Shear Modulus (GPa) = 14.97552 27.36625 21.17088
#
# Velocity S-wave (km/s) = 2.74474 3.71038 3.26347
# Velocity P-wave (km/s) = 4.28169 6.60740 5.56734
#
# Compressibility (1/GPa) = 0.06069707
#
# Stress axis : x y z
#
# Youngs Moduli (GPa) = 30.73769 78.03699 16.04713
#
# Poissons Ratio (x) = 0.67724 0.09092
# Poissons Ratio (y) = 0.26676 0.14666
# Poissons Ratio (z) = 0.17415 0.71322
#
# Static dielectric constant tensor:
#      x y z
#    x 1.145230 -0.557950 -0.055010 
#    y -0.557950 1.327500 -0.085420 
#    z -0.055010 -0.085420 1.695990 
# 
# From -- ./inp_files/329193.got.cif
#   From: 2010.05.17/outbox.cif.g08.bks.cpg/sg2_165_cif.got.tgz:329193.got - 2010.06.03 11:33:40.
