data_PCOD9084936
_publ_section_title
;
Structure prediction by ZEFSAII (Michael W. Deem and Ramdas Pophale) SiO2 
 PCOD9084936
Probable space group: P -1
;
_chemical_formula_sum "Si O2"
_cell_formula_units_Z 16
_cell_length_a 14.675394
_cell_length_b 11.774284
_cell_length_c 22.050152
_cell_angle_alpha 28.093804
_cell_angle_beta 26.146167
_cell_angle_gamma 41.664148
_cell_volume 771.963640
_symmetry_space_group_name_H-M "P -1"
_symmetry_group_IT_number 2
_symmetry_cell_setting 'triclinic'
loop_
_space_group_symop_operation_xyz
x,y,z
-x,-y,-z
loop_
_atom_site_type_symbol
_atom_site_label
_atom_site_fract_x
_atom_site_fract_y
_atom_site_fract_z
Si Si1 0.095077 0.006588 0.008333
Si Si2 0.329996 0.327811 0.551784
Si Si3 0.944865 0.045755 0.411175
Si Si4 0.857390 0.263497 0.479964
Si Si5 0.676978 0.381195 0.982440
Si Si6 0.013838 0.459742 0.913455
Si Si7 0.662694 0.261114 0.307996
Si Si8 0.544604 0.901322 0.644963
O O1 0.117628 0.276819 0.896278
O O2 0.906844 0.830257 0.241664
O O3 0.289337 0.870337 0.951936
O O4 0.000000 0.000000 0.000000
O O5 0.459596 0.377449 0.388572
O O6 0.454414 0.147933 0.598417
O O7 0.306315 0.566314 0.490241
O O8 0.030592 0.309757 0.205820
O O9 0.771446 0.896810 0.539760
O O10 0.817245 0.094216 0.524816
O O11 0.117221 0.901529 0.399297
O O12 0.092062 0.437132 0.246644
O O13 0.612623 0.311372 0.123787
O O14 0.500000 0.500000 0.000000
O O15 0.171740 0.586071 0.812741
O O16 0.798138 0.306845 0.144613
O O17 0.595632 0.978188 0.507504
#
# Coordination Sequence:
#
# PCOD9084936 Si02
#       8
#     2   2   2   2   2   2   2   2
#     4  11  20  33  54  84 107 137 172 226 267 313
#     4   9  19  34  51  76 107 134 180 219 258 313
#     4  10  20  32  50  78 106 144 167 221 270 309
#     4  10  21  33  48  79 114 133 173 217 271 323
#     4  11  20  34  52  76 110 141 168 216 274 323
#     4  10  19  35  58  77 106 139 187 218 260 311
#     4   8  19  36  54  80 100 142 187 223 251 305
#     4   9  18  34  52  75  99 140 177 211 263 310
#
# _framework density 20.726364
#
# number of rings (size 3 to 8) (size 9 to 14) (size 15 to 20)
#    0.750    1.500    2.500    1.500    0.000    2.000 
#    0.000    0.625    0.000    0.750    0.000    0.000 
#    0.000    0.000    0.000    0.000    0.000    0.000 
#
# Total GULP energy -89112.014814 kJ/mol
# GULP energy per Si atom -5569.500926 kJ/mol
# Density = 2.067919 g / cm^3
# Si number density = 20.726364 Si / 1000 Ang^3
#
#
#
# Elastic Constant Matrix: (Units=GPa)
#
#
# Indices 1 2 3 4 5 6 
#
# 1 37.5337 16.1928 16.3108 6.5326 26.0899 -10.3156
# 2 16.1928 78.8216 29.6833 4.3049 19.6869 -9.2216
# 3 16.3108 29.6833 116.2968 9.5471 12.7852 -5.0713
# 4 6.5326 4.3049 9.5471 30.1907 -3.0966 -0.3135
# 5 26.0899 19.6869 12.7852 -3.0966 30.5626 -3.4709
# 6 -10.3156 -9.2216 -5.0713 -0.3135 -3.4709 25.2879
#
#
#
# Elastic Compliance Matrix: (Units=1/GPa)
#
#
# Indices 1 2 3 4 5 6 
#
# 1 0.099910 0.007855 -0.002372 -0.030800 -0.089007 0.030546
# 2 0.007855 0.017337 -0.003047 -0.004815 -0.016335 0.006614
# 3 -0.002372 -0.003047 0.009931 -0.002237 -0.000413 -0.000172
# 4 -0.030800 -0.004815 -0.002237 0.044544 0.033755 -0.009583
# 5 -0.089007 -0.016335 -0.000413 0.033755 0.119923 -0.025469
# 6 0.030546 0.006614 -0.000172 -0.009583 -0.025469 0.050768
#
#
# Mechanical properties :
#
#
# Convention : Reuss Voigt Hill
#
# Bulk Modulus (GPa) = 7.57294 39.66954 23.62124
# Shear Modulus (GPa) = 13.10418 28.57261 20.83839
#
# Velocity S-wave (km/s) = 2.51718 3.71693 3.17425
# Velocity P-wave (km/s) = 3.47994 6.13204 4.98558
#
# Compressibility (1/GPa) = 0.13204911
#
# Stress axis : x y z
#
# Youngs Moduli (GPa) = 10.00905 57.67854 100.69838
#
# Poissons Ratio (x) = -0.45306 0.23884
# Poissons Ratio (y) = -0.07862 0.30686
# Poissons Ratio (z) = 0.02374 0.17577
#
# Static dielectric constant tensor:
#      x y z
#    x 1.816800 0.037660 -0.019890 
#    y 0.037660 1.732760 -0.003530 
#    z -0.019890 -0.003530 1.831690 
# 
# From -- ./inp_files/247174.got.cif
#   From: 2010.05.17/outbox.cif.g08.bks.cpg/sg2_124_cif.got.tgz:247174.got - 2010.06.03 11:33:40.
