data_PCOD9084136
_publ_section_title
;
Structure prediction by ZEFSAII (Michael W. Deem and Ramdas Pophale) SiO2 
 PCOD9084136
Probable space group: P -1
;
_chemical_formula_sum "Si O2"
_cell_formula_units_Z 13
_cell_length_a 8.983354
_cell_length_b 11.623520
_cell_length_c 7.985872
_cell_angle_alpha 41.904512
_cell_angle_beta 103.431053
_cell_angle_gamma 103.308228
_cell_volume 539.589953
_symmetry_space_group_name_H-M "P -1"
_symmetry_group_IT_number 2
_symmetry_cell_setting 'triclinic'
loop_
_space_group_symop_operation_xyz
x,y,z
-x,-y,-z
loop_
_atom_site_type_symbol
_atom_site_label
_atom_site_fract_x
_atom_site_fract_y
_atom_site_fract_z
Si Si1 0.900460 0.275679 0.886628
Si Si2 0.203943 0.405971 0.612458
Si Si3 0.000000 0.000000 0.500000
Si Si4 0.664282 0.465430 0.142487
Si Si5 0.812590 0.964792 0.012590
Si Si6 0.076586 0.321250 0.202039
Si Si7 0.320508 0.938256 0.481482
O O1 0.819778 0.453250 0.689362
O O2 0.784715 0.124660 0.951461
O O3 0.040743 0.338795 0.730820
O O4 0.983674 0.208414 0.146588
O O5 0.300020 0.496773 0.692602
O O6 0.253911 0.228381 0.747108
O O7 0.192978 0.003056 0.502695
O O8 0.958098 0.837363 0.514016
O O9 0.697709 0.271791 0.310327
O O10 0.500000 0.500000 0.000000
O O11 0.765964 0.610904 0.908454
O O12 0.729058 0.991853 0.786306
O O13 0.000000 0.000000 0.000000
O O14 0.000000 0.500000 0.000000
O O15 0.500000 0.000000 0.500000
#
# Coordination Sequence:
#
# PCOD9084136 Si02
#       7
#     2   2   1   2   2   2   2
#     4   9  18  32  55  85 119 164 212 259 320 387
#     4   9  17  31  55  86 119 154 210 267 310 381
#     4  12  24  42  64  98 138 170 220 276 338 388
#     4  11  21  39  63  95 128 167 221 274 329 394
#     4  10  19  34  60  94 126 165 222 268 324 397
#     4  11  23  39  61  93 128 169 212 270 328 391
#     4  12  24  41  67 101 135 176 222 279 334 397
#
# _framework density 24.092368
#
# number of rings (size 3 to 8) (size 9 to 14) (size 15 to 20)
#    0.000    1.538    3.077    4.615    2.154    1.231 
#    0.000    0.000    0.000    4.615    0.000    0.000 
#    0.000    0.000    0.000    0.000    0.000    0.000 
#
# Total GULP energy -72379.704668 kJ/mol
# GULP energy per Si atom -5567.669590 kJ/mol
# Density = 2.403753 g / cm^3
# Si number density = 24.092368 Si / 1000 Ang^3
#
#
#
# Elastic Constant Matrix: (Units=GPa)
#
#
# Indices 1 2 3 4 5 6 
#
# 1 103.3454 51.8444 43.4318 0.9406 12.8346 28.3360
# 2 51.8444 127.2856 65.1827 -28.3349 10.0245 30.4081
# 3 43.4318 65.1827 141.1903 -36.9324 15.3392 11.4378
# 4 0.9406 -28.3349 -36.9324 59.8465 -0.2928 2.4082
# 5 12.8346 10.0245 15.3392 -0.2928 32.5276 -2.9683
# 6 28.3360 30.4081 11.4378 2.4082 -2.9683 31.2940
#
#
#
# Elastic Compliance Matrix: (Units=1/GPa)
#
#
# Indices 1 2 3 4 5 6 
#
# 1 0.015929 -0.002513 -0.003038 -0.002892 -0.005120 -0.011134
# 2 -0.002513 0.014828 -0.003391 0.005419 -0.002988 -0.011594
# 3 -0.003038 -0.003391 0.011167 0.005267 -0.002857 0.001288
# 4 -0.002892 0.005419 0.005267 0.022822 -0.003415 -0.006653
# 5 -0.005120 -0.002988 -0.002857 -0.003415 0.036121 0.012273
# 6 -0.011134 -0.011594 0.001288 -0.006653 0.012273 0.054508
#
#
# Mechanical properties :
#
#
# Convention : Reuss Voigt Hill
#
# Bulk Modulus (GPa) = 41.59853 76.97102 59.28478
# Shear Modulus (GPa) = 27.58306 38.82444 33.20375
#
# Velocity S-wave (km/s) = 3.38729 4.01868 3.71642
# Velocity P-wave (km/s) = 5.70982 7.31784 6.56326
#
# Compressibility (1/GPa) = 0.02403931
#
# Stress axis : x y z
#
# Youngs Moduli (GPa) = 62.78013 67.44083 89.55224
#
# Poissons Ratio (x) = 0.16946 0.27206
# Poissons Ratio (y) = 0.15775 0.30369
# Poissons Ratio (z) = 0.19073 0.22871
#
# Static dielectric constant tensor:
#      x y z
#    x 1.936790 0.330770 -0.472540 
#    y 0.330770 0.749580 0.625640 
#    z -0.472540 0.625640 2.585270 
# 
# From -- ./inp_files/172251.got.cif
#   From: 2010.05.17/outbox.cif.g08.bks.cpg/sg2_87_cif.got.tgz:172251.got - 2010.06.03 11:33:40.
