data_PCOD9084123
_publ_section_title
;
Structure prediction by ZEFSAII (Michael W. Deem and Ramdas Pophale) SiO2 
 PCOD9084123
Probable space group: P -1
;
_chemical_formula_sum "Si O2"
_cell_formula_units_Z 14
_cell_length_a 10.917510
_cell_length_b 21.050191
_cell_length_c 7.361070
_cell_angle_alpha 146.257717
_cell_angle_beta 40.868811
_cell_angle_gamma 139.720928
_cell_volume 571.479722
_symmetry_space_group_name_H-M "P -1"
_symmetry_group_IT_number 2
_symmetry_cell_setting 'triclinic'
loop_
_space_group_symop_operation_xyz
x,y,z
-x,-y,-z
loop_
_atom_site_type_symbol
_atom_site_label
_atom_site_fract_x
_atom_site_fract_y
_atom_site_fract_z
Si Si1 0.478559 0.827311 0.188286
Si Si2 0.381712 0.104776 0.164214
Si Si3 0.460647 0.371522 0.839882
Si Si4 0.670483 0.635263 0.646841
Si Si5 0.091162 0.633724 0.065948
Si Si6 0.268915 0.871869 0.896338
Si Si7 0.115638 0.606850 0.404216
O O1 0.396570 0.861063 0.547506
O O2 0.284272 0.754682 0.107593
O O3 0.621075 0.923952 0.115444
O O4 0.589105 0.735467 0.900672
O O5 0.382549 0.242506 0.512258
O O6 0.583475 0.108173 0.051494
O O7 0.218651 0.990969 0.185419
O O8 0.674641 0.386287 0.727956
O O9 0.500000 0.500000 0.000000
O O10 0.306270 0.352294 0.133548
O O11 0.500000 0.500000 0.500000
O O12 0.878184 0.649256 0.351078
O O13 0.136471 0.605512 0.156782
O O14 0.063203 0.525957 0.694923
O O15 0.100265 0.735955 0.782520
#
# Coordination Sequence:
#
# PCOD9084123 Si02
#       7
#     2   2   2   2   2   2   2
#     4  11  21  38  61  89 120 158 200 243 304 354
#     4  10  20  35  62  88 115 162 199 248 294 352
#     4  11  21  35  55  93 122 150 204 243 300 357
#     4  12  19  35  60  82 123 160 187 245 297 354
#     4  10  19  34  60  91 117 155 200 242 303 357
#     4   9  18  37  60  87 115 155 213 236 290 362
#     4   9  17  36  55  83 119 151 193 243 293 347
#
# _framework density 24.497807000000002
#
# number of rings (size 3 to 8) (size 9 to 14) (size 15 to 20)
#    0.000    1.714    5.714    2.143    0.000    0.000 
#    0.000    7.857    0.000   11.143    0.000    0.000 
#    0.000    0.000    0.000    0.000    0.000    0.000 
#
# Total GULP energy -78151.738011 kJ/mol
# GULP energy per Si atom -5582.267001 kJ/mol
# Density = 2.444205 g / cm^3
# Si number density = 24.497807 Si / 1000 Ang^3
#
#
#
# Elastic Constant Matrix: (Units=GPa)
#
#
# Indices 1 2 3 4 5 6 
#
# 1 87.5061 33.4720 30.4442 5.9285 -7.8366 -3.3065
# 2 33.4720 66.3298 38.3180 14.9910 -17.8592 -8.5779
# 3 30.4442 38.3180 96.0518 17.2463 -2.6971 -0.7014
# 4 5.9285 14.9910 17.2463 43.0804 -1.3833 1.5155
# 5 -7.8366 -17.8592 -2.6971 -1.3833 42.2632 3.8403
# 6 -3.3065 -8.5779 -0.7014 1.5155 3.8403 48.5175
#
#
#
# Elastic Compliance Matrix: (Units=1/GPa)
#
#
# Indices 1 2 3 4 5 6 
#
# 1 0.014553 -0.006308 -0.002300 0.001118 -0.000060 -0.000187
# 2 -0.006308 0.026652 -0.007403 -0.005277 0.009119 0.003618
# 3 -0.002300 -0.007403 0.014548 -0.002982 -0.002637 -0.000953
# 4 0.001118 -0.005277 -0.002982 0.026107 -0.001211 -0.001620
# 5 -0.000060 0.009119 -0.002637 -0.001211 0.027346 -0.000557
# 6 -0.000187 0.003618 -0.000953 -0.001620 -0.000557 0.021319
#
#
# Mechanical properties :
#
#
# Convention : Reuss Voigt Hill
#
# Bulk Modulus (GPa) = 42.13987 50.48404 46.31195
# Shear Modulus (GPa) = 29.33313 36.61578 32.97446
#
# Velocity S-wave (km/s) = 3.46407 3.87027 3.67279
# Velocity P-wave (km/s) = 5.76529 6.37372 6.07712
#
# Compressibility (1/GPa) = 0.02373050
#
# Stress axis : x y z
#
# Youngs Moduli (GPa) = 68.71605 37.52094 68.73943
#
# Poissons Ratio (x) = 0.23669 0.15808
# Poissons Ratio (y) = 0.43348 0.50887
# Poissons Ratio (z) = 0.15803 0.27776
#
# Static dielectric constant tensor:
#      x y z
#    x 1.920060 -0.027580 0.026800 
#    y -0.027580 2.123080 0.106350 
#    z 0.026800 0.106350 2.061780 
# 
# From -- ./inp_files/284518.got.cif
#   From: 2010.05.17/outbox.cif.g08.bks.cpg/sg2_143_cif.got.tgz:284518.got - 2010.06.03 11:33:40.
