data_PCOD9084823
_publ_section_title
;
Structure prediction by ZEFSAII (Michael W. Deem and Ramdas Pophale) SiO2 
 PCOD9084823
Probable space group: P -1
;
_chemical_formula_sum "Si O2"
_cell_formula_units_Z 16
_cell_length_a 11.375499
_cell_length_b 14.178534
_cell_length_c 8.667150
_cell_angle_alpha 98.284411
_cell_angle_beta 33.384684
_cell_angle_gamma 111.358745
_cell_volume 680.556197
_symmetry_space_group_name_H-M "P -1"
_symmetry_group_IT_number 2
_symmetry_cell_setting 'triclinic'
loop_
_space_group_symop_operation_xyz
x,y,z
-x,-y,-z
loop_
_atom_site_type_symbol
_atom_site_label
_atom_site_fract_x
_atom_site_fract_y
_atom_site_fract_z
Si Si1 0.742581 0.186243 0.252597
Si Si2 0.343057 0.215560 0.291011
Si Si3 0.998499 0.451322 0.319718
Si Si4 0.770988 0.691956 0.093701
Si Si5 0.351906 0.629764 0.764459
Si Si6 0.888670 0.082534 0.608925
Si Si7 0.564845 0.963370 0.696238
Si Si8 0.470951 0.754759 0.233061
O O1 0.719855 0.282565 0.209488
O O2 0.580899 0.079826 0.312095
O O3 0.618296 0.176401 0.551196
O O4 0.022429 0.230953 0.996296
O O5 0.482044 0.324219 0.255145
O O6 0.343763 0.125849 0.383337
O O7 0.087714 0.190870 0.491739
O O8 0.491668 0.214141 0.977429
O O9 0.725701 0.367632 0.570583
O O10 0.000000 0.500000 0.500000
O O11 0.138125 0.378809 0.124597
O O12 0.114182 0.535166 0.073127
O O13 0.532565 0.620464 0.438335
O O14 0.701785 0.761011 0.067420
O O15 0.795518 0.067327 0.531644
O O16 0.654373 0.049557 0.958787
O O17 0.000000 0.000000 0.500000
#
# Coordination Sequence:
#
# PCOD9084823 Si02
#       8
#     2   2   2   2   2   2   2   2
#     4   9  20  37  57  79 110 146 183 227 273 330
#     4  10  19  35  57  83 109 140 183 230 272 326
#     4  11  22  38  54  80 115 146 184 237 281 319
#     4  10  22  37  56  79 109 152 189 226 276 327
#     4  10  20  37  58  80 106 147 196 229 268 328
#     4   9  18  32  56  86 111 135 178 227 270 325
#     4   9  18  35  59  82 107 142 179 224 274 324
#     4  10  22  38  54  81 114 144 182 231 278 327
#
# _framework density 23.510183000000001
#
# number of rings (size 3 to 8) (size 9 to 14) (size 15 to 20)
#    0.000    2.250    1.250    1.125    0.000    9.000 
#    2.250    0.625    0.000    7.500    0.000    0.000 
#    0.000    0.000    0.000    0.000    0.000    0.000 
#
# Total GULP energy -89206.739990 kJ/mol
# GULP energy per Si atom -5575.421249 kJ/mol
# Density = 2.345667 g / cm^3
# Si number density = 23.510183 Si / 1000 Ang^3
#
#
#
# Elastic Constant Matrix: (Units=GPa)
#
#
# Indices 1 2 3 4 5 6 
#
# 1 114.6360 50.8150 30.3073 -0.3577 -5.3435 23.4520
# 2 50.8150 59.2662 21.8601 -3.3952 -5.9945 28.9337
# 3 30.3073 21.8601 91.7388 -10.8711 0.5921 14.9407
# 4 -0.3577 -3.3952 -10.8711 28.6769 10.7308 1.0593
# 5 -5.3435 -5.9945 0.5921 10.7308 39.8915 0.8110
# 6 23.4520 28.9337 14.9407 1.0593 0.8110 48.0823
#
#
#
# Elastic Compliance Matrix: (Units=1/GPa)
#
#
# Indices 1 2 3 4 5 6 
#
# 1 0.014569 -0.012159 -0.002379 -0.002500 0.000812 0.000991
# 2 -0.012159 0.035876 -0.001748 0.002738 0.003362 -0.015232
# 3 -0.002379 -0.001748 0.013104 0.005646 -0.002255 -0.001946
# 4 -0.002500 0.002738 0.005646 0.041578 -0.011133 -0.002911
# 5 0.000812 0.003362 -0.002255 -0.011133 0.028750 -0.001958
# 6 0.000991 -0.015232 -0.001946 -0.002911 -0.001958 0.030182
#
#
# Mechanical properties :
#
#
# Convention : Reuss Voigt Hill
#
# Bulk Modulus (GPa) = 32.28291 52.40064 42.34178
# Shear Modulus (GPa) = 24.15956 34.17406 29.16681
#
# Velocity S-wave (km/s) = 3.20913 3.81673 3.52604
# Velocity P-wave (km/s) = 5.24334 6.46220 5.88442
#
# Compressibility (1/GPa) = 0.03097614
#
# Stress axis : x y z
#
# Youngs Moduli (GPa) = 68.63723 27.87344 76.31526
#
# Poissons Ratio (x) = 0.33893 0.18153
# Poissons Ratio (y) = 0.83459 0.13343
# Poissons Ratio (z) = 0.16327 0.04873
#
# Static dielectric constant tensor:
#      x y z
#    x 1.922420 0.017570 0.011280 
#    y 0.017570 1.959660 -0.034030 
#    z 0.011280 -0.034030 1.907810 
# 
# From -- ./inp_files/39373.got.cif
#   From: 2010.05.17/outbox.cif.g08.bks.cpg/sg2_20_cif.got.tgz:39373.got - 2010.06.03 11:33:40.
