data_PCOD9084548
_publ_section_title
;
Structure prediction by ZEFSAII (Michael W. Deem and Ramdas Pophale) SiO2 
 PCOD9084548
Probable space group: P -1
;
_chemical_formula_sum "Si O2"
_cell_formula_units_Z 16
_cell_length_a 11.882898
_cell_length_b 16.372166
_cell_length_c 11.049218
_cell_angle_alpha 148.238282
_cell_angle_beta 133.980838
_cell_angle_gamma 47.031566
_cell_volume 790.278979
_symmetry_space_group_name_H-M "P -1"
_symmetry_group_IT_number 2
_symmetry_cell_setting 'triclinic'
loop_
_space_group_symop_operation_xyz
x,y,z
-x,-y,-z
loop_
_atom_site_type_symbol
_atom_site_label
_atom_site_fract_x
_atom_site_fract_y
_atom_site_fract_z
Si Si1 0.198456 0.872046 0.280337
Si Si2 0.500386 0.611394 0.259096
Si Si3 0.194918 0.225698 0.671257
Si Si4 0.968206 0.358833 0.037644
Si Si5 0.907948 0.181277 0.121922
Si Si6 0.805752 0.665335 0.454704
Si Si7 0.688708 0.491044 0.805970
Si Si8 0.169012 0.589773 0.430313
O O1 0.355131 0.765858 0.326561
O O2 0.197224 0.056180 0.515025
O O3 0.045111 0.815551 0.149893
O O4 0.201466 0.828358 0.085839
O O5 0.668395 0.660080 0.439917
O O6 0.457729 0.530938 0.248166
O O7 0.500000 0.500000 0.000000
O O8 0.252521 0.229327 0.577965
O O9 0.007278 0.319136 0.639260
O O10 0.294954 0.327328 0.948311
O O11 0.872454 0.487198 0.226733
O O12 0.132331 0.417432 0.218611
O O13 0.853364 0.399045 0.884022
O O14 0.814464 0.294627 0.301069
O O15 0.049015 0.268587 0.302570
O O16 0.000000 0.000000 0.000000
O O17 0.700441 0.429083 0.600605
#
# Coordination Sequence:
#
# PCOD9084548 Si02
#       8
#     2   2   2   2   2   2   2   2
#     4  11  19  30  56  88 104 135 178 224 269 301
#     4  11  19  36  52  81 106 139 184 221 260 309
#     4   9  16  29  50  81 104 133 172 225 265 301
#     4   8  16  29  49  78 102 129 179 213 263 296
#     4  10  19  35  54  82 108 136 175 219 269 316
#     4   9  17  33  51  74 107 140 170 213 265 309
#     4   9  17  32  53  73 106 146 175 213 265 319
#     4   9  17  32  53  72 109 147 170 210 270 319
#
# _framework density 20.246013999999999
#
# number of rings (size 3 to 8) (size 9 to 14) (size 15 to 20)
#    0.000    3.000    6.250    1.500    0.000    2.500 
#    0.000    5.625    0.000    1.500    0.000    0.000 
#    0.000    0.000    0.000    0.000    0.000    0.000 
#
# Total GULP energy -89180.365791 kJ/mol
# GULP energy per Si atom -5573.772862 kJ/mol
# Density = 2.019993 g / cm^3
# Si number density = 20.246014 Si / 1000 Ang^3
#
#
#
# Elastic Constant Matrix: (Units=GPa)
#
#
# Indices 1 2 3 4 5 6 
#
# 1 114.4016 17.8886 45.1443 4.2854 -5.6980 26.0919
# 2 17.8886 44.7897 26.7439 19.5845 7.7209 13.9667
# 3 45.1443 26.7439 81.7915 16.3326 10.0748 22.5752
# 4 4.2854 19.5845 16.3326 27.9634 12.6006 13.9344
# 5 -5.6980 7.7209 10.0748 12.6006 16.1798 2.6338
# 6 26.0919 13.9667 22.5752 13.9344 2.6338 19.3323
#
#
#
# Elastic Compliance Matrix: (Units=1/GPa)
#
#
# Indices 1 2 3 4 5 6 
#
# 1 0.016043 -0.002130 -0.004398 0.011599 0.004265 -0.023920
# 2 -0.002130 0.036605 -0.006858 -0.023780 0.004414 0.000976
# 3 -0.004398 -0.006858 0.022616 0.010079 -0.016874 -0.020485
# 4 0.011599 -0.023780 0.010079 0.119444 -0.069729 -0.086838
# 5 0.004265 0.004414 -0.016874 -0.069729 0.118712 0.044846
# 6 -0.023920 0.000976 -0.020485 -0.086838 0.044846 0.163708
#
#
# Mechanical properties :
#
#
# Convention : Reuss Voigt Hill
#
# Bulk Modulus (GPa) = 20.62179 46.72626 33.67402
# Shear Modulus (GPa) = 9.61423 22.77551 16.19487
#
# Velocity S-wave (km/s) = 2.18152 3.35765 2.83133
# Velocity P-wave (km/s) = 4.06855 6.17747 5.23040
#
# Compressibility (1/GPa) = 0.04849240
#
# Stress axis : x y z
#
# Youngs Moduli (GPa) = 62.33261 27.31893 44.21646
#
# Poissons Ratio (x) = 0.05818 0.19446
# Poissons Ratio (y) = 0.13274 0.30324
# Poissons Ratio (z) = 0.27414 0.18736
#
# Static dielectric constant tensor:
#      x y z
#    x 1.770060 0.026890 0.004150 
#    y 0.026890 1.760590 0.000770 
#    z 0.004150 0.000770 1.730950 
# 
# From -- ./inp_files/436224.got.cif
#   From: 2010.05.17/outbox.cif.g08.bks.cpg/sg2_219_cif.got.tgz:436224.got - 2010.06.03 11:33:40.
