data_PCOD9084222
_publ_section_title
;
Structure prediction by ZEFSAII (Michael W. Deem and Ramdas Pophale) SiO2 
 PCOD9084222
Probable space group: P -1
;
_chemical_formula_sum "Si O2"
_cell_formula_units_Z 16
_cell_length_a 10.491364
_cell_length_b 9.040364
_cell_length_c 16.765959
_cell_angle_alpha 66.587518
_cell_angle_beta 42.783150
_cell_angle_gamma 98.848626
_cell_volume 693.292534
_symmetry_space_group_name_H-M "P -1"
_symmetry_group_IT_number 2
_symmetry_cell_setting 'triclinic'
loop_
_space_group_symop_operation_xyz
x,y,z
-x,-y,-z
loop_
_atom_site_type_symbol
_atom_site_label
_atom_site_fract_x
_atom_site_fract_y
_atom_site_fract_z
Si Si1 0.444073 0.794843 0.532400
Si Si2 0.945062 0.679466 0.098987
Si Si3 0.232091 0.273881 0.337900
Si Si4 0.233771 0.742165 0.296012
Si Si5 0.436261 0.331613 0.785616
Si Si6 0.432937 0.778284 0.889198
Si Si7 0.079625 0.505672 0.265170
Si Si8 0.297904 0.251521 0.688699
O O1 0.706583 0.885146 0.348268
O O2 0.298016 0.591739 0.709017
O O3 0.219735 0.673326 0.592535
O O4 0.500000 0.000000 0.500000
O O5 0.947385 0.793907 0.153367
O O6 0.218579 0.754144 0.943266
O O7 0.157417 0.260052 0.934433
O O8 0.336097 0.401968 0.348022
O O9 0.476958 0.327789 0.173077
O O10 0.139910 0.374856 0.310018
O O11 0.000000 0.000000 0.500000
O O12 0.491300 0.781731 0.174081
O O13 0.140426 0.688317 0.259351
O O14 0.000000 0.500000 0.500000
O O15 0.317908 0.956115 0.255798
O O16 0.433689 0.282429 0.703984
O O17 0.274053 0.639253 0.072172
O O18 0.500000 0.500000 0.500000
#
# Coordination Sequence:
#
# PCOD9084222 Si02
#       8
#     2   2   2   2   2   2   2   2
#     4  10  19  34  61  93 125 161 210 257 305 376
#     4   8  20  38  58  88 123 164 205 260 314 369
#     4  11  24  39  64  93 129 173 211 266 325 379
#     4  11  22  40  65  94 124 170 210 266 322 382
#     4   9  20  39  57  87 130 158 215 254 321 377
#     4  11  22  42  65  92 125 168 222 264 319 382
#     4  10  23  41  61  92 130 167 216 256 320 385
#     4   8  16  35  57  82 123 167 199 251 313 375
#
# _framework density 23.078278999999998
#
# number of rings (size 3 to 8) (size 9 to 14) (size 15 to 20)
#    0.750    1.500    0.000    3.000    1.750    1.000 
#    0.000    7.500    0.000    0.000    0.000    0.000 
#    0.000    0.000    0.000    0.000    0.000    0.000 
#
# Total GULP energy -89262.931473 kJ/mol
# GULP energy per Si atom -5578.933217 kJ/mol
# Density = 2.302575 g / cm^3
# Si number density = 23.078279 Si / 1000 Ang^3
#
#
#
# Elastic Constant Matrix: (Units=GPa)
#
#
# Indices 1 2 3 4 5 6 
#
# 1 75.4235 -11.7003 -10.7525 -6.3073 -8.3523 -8.2252
# 2 -11.7003 102.5069 -1.7138 -5.1743 1.5968 -3.4595
# 3 -10.7525 -1.7138 58.0591 -1.8718 -9.6893 0.8926
# 4 -6.3073 -5.1743 -1.8718 35.6772 -3.6256 -2.7549
# 5 -8.3523 1.5968 -9.6893 -3.6256 22.5573 2.0024
# 6 -8.2252 -3.4595 0.8926 -2.7549 2.0024 32.2140
#
#
#
# Elastic Compliance Matrix: (Units=1/GPa)
#
#
# Indices 1 2 3 4 5 6 
#
# 1 0.015925 0.002130 0.004431 0.004484 0.008010 0.004058
# 2 0.002130 0.010168 0.000837 0.002092 0.000609 0.001754
# 3 0.004431 0.000837 0.019934 0.003050 0.010610 0.000270
# 4 0.004484 0.002092 0.003050 0.030300 0.007389 0.003417
# 5 0.008010 0.000609 0.010610 0.007389 0.053075 -0.000851
# 6 0.004058 0.001754 0.000270 0.003417 -0.000851 0.032604
#
#
# Mechanical properties :
#
#
# Convention : Reuss Voigt Hill
#
# Bulk Modulus (GPa) = 16.44102 20.85069 18.64585
# Shear Modulus (GPa) = 29.85357 35.43346 32.64351
#
# Velocity S-wave (km/s) = 3.60054 3.92262 3.76502
# Velocity P-wave (km/s) = 4.94213 5.43786 5.19591
#
# Compressibility (1/GPa) = 0.06082348
#
# Stress axis : x y z
#
# Youngs Moduli (GPa) = 62.79388 98.34858 50.16556
#
# Poissons Ratio (x) = -0.20951 -0.22229
# Poissons Ratio (y) = -0.13377 -0.04198
# Poissons Ratio (z) = -0.27824 -0.08230
#
# Static dielectric constant tensor:
#      x y z
#    x 1.899440 -0.036010 -0.035980 
#    y -0.036010 1.898540 -0.010160 
#    z -0.035980 -0.010160 1.958930 
# 
# From -- ./inp_files/418469.got.cif
#   From: 2010.05.17/outbox.cif.g08.bks.cpg/sg2_210_cif.got.tgz:418469.got - 2010.06.03 11:33:40.
