data_PCOD9084337
_publ_section_title
;
Structure prediction by ZEFSAII (Michael W. Deem and Ramdas Pophale) SiO2 
 PCOD9084337
Probable space group: P -1
;
_chemical_formula_sum "Si O2"
_cell_formula_units_Z 16
_cell_length_a 19.200567
_cell_length_b 8.296108
_cell_length_c 10.714477
_cell_angle_alpha 123.170052
_cell_angle_beta 32.951844
_cell_angle_gamma 120.223010
_cell_volume 773.384709
_symmetry_space_group_name_H-M "P -1"
_symmetry_group_IT_number 2
_symmetry_cell_setting 'triclinic'
loop_
_space_group_symop_operation_xyz
x,y,z
-x,-y,-z
loop_
_atom_site_type_symbol
_atom_site_label
_atom_site_fract_x
_atom_site_fract_y
_atom_site_fract_z
Si Si1 0.844233 0.950158 0.366588
Si Si2 0.127454 0.094437 0.056774
Si Si3 0.284711 0.839040 0.585175
Si Si4 0.882103 0.499658 0.779641
Si Si5 0.746363 0.614809 0.538634
Si Si6 0.052601 0.215943 0.489814
Si Si7 0.521411 0.836573 0.065741
Si Si8 0.320642 0.805467 0.125559
O O1 0.772695 0.741206 0.425181
O O2 0.792197 0.056211 0.367100
O O3 0.802022 0.090729 0.599529
O O4 0.997819 0.961962 0.156223
O O5 0.125856 0.290331 0.060829
O O6 0.122216 0.194059 0.242466
O O7 0.248032 0.973448 0.810209
O O8 0.243452 0.613856 0.579212
O O9 0.432413 0.838604 0.321388
O O10 0.742612 0.406168 0.904674
O O11 0.000000 0.500000 0.500000
O O12 0.934106 0.345876 0.728878
O O13 0.851806 0.700864 0.513988
O O14 0.614725 0.671774 0.825326
O O15 0.000000 0.000000 0.500000
O O16 0.418316 0.809678 0.096118
O O17 0.605193 0.045042 0.018470
#
# Coordination Sequence:
#
# PCOD9084337 Si02
#       8
#     2   2   2   2   2   2   2   2
#     4  10  19  38  61  88 119 157 201 256 302 354
#     4  11  22  38  56  92 128 152 197 253 316 363
#     4  11  24  39  58  89 127 160 202 253 303 359
#     4  10  19  34  63  88 117 154 201 246 309 361
#     4  11  22  39  65  88 116 166 214 245 294 365
#     4  11  20  37  62  91 122 154 202 252 304 369
#     4   9  20  36  61  84 119 160 212 250 285 354
#     4   9  16  35  63  90 109 155 213 256 284 354
#
# _framework density 20.688279999999999
#
# number of rings (size 3 to 8) (size 9 to 14) (size 15 to 20)
#    0.000    1.750    3.750    3.000    5.250    0.500 
#    2.250    1.250    0.000    0.000    0.000    0.000 
#    0.000    0.000    0.000    0.000    0.000    0.000 
#
# Total GULP energy -89086.294408 kJ/mol
# GULP energy per Si atom -5567.893400 kJ/mol
# Density = 2.064119 g / cm^3
# Si number density = 20.688280 Si / 1000 Ang^3
#
#
#
# Elastic Constant Matrix: (Units=GPa)
#
#
# Indices 1 2 3 4 5 6 
#
# 1 12.3290 12.1696 0.1189 -6.5026 -6.5424 0.5751
# 2 12.1696 135.9459 60.6750 16.7858 -5.6663 -12.5260
# 3 0.1189 60.6750 83.7513 14.9049 -11.8574 -1.2634
# 4 -6.5026 16.7858 14.9049 31.1515 -0.5439 -8.3231
# 5 -6.5424 -5.6663 -11.8574 -0.5439 18.2604 -3.6444
# 6 0.5751 -12.5260 -1.2634 -8.3231 -3.6444 21.8777
#
#
#
# Elastic Compliance Matrix: (Units=1/GPa)
#
#
# Indices 1 2 3 4 5 6 
#
# 1 0.162189 -0.024920 0.020013 0.041394 0.066491 0.009448
# 2 -0.024920 0.015503 -0.011400 -0.007128 -0.010864 0.004351
# 3 0.020013 -0.011400 0.022847 -0.001158 0.017794 -0.003210
# 4 0.041394 -0.007128 -0.001158 0.049835 0.016643 0.016495
# 5 0.066491 -0.010864 0.017794 0.016643 0.090140 0.014406
# 6 0.009448 0.004351 -0.003210 0.016495 0.014406 0.056441
#
#
# Mechanical properties :
#
#
# Convention : Reuss Voigt Hill
#
# Bulk Modulus (GPa) = 5.95502 41.99481 23.97491
# Shear Modulus (GPa) = 10.29770 24.86209 17.57990
#
# Velocity S-wave (km/s) = 2.23346 3.47038 2.91821
# Velocity P-wave (km/s) = 3.08802 6.03332 4.79254
#
# Compressibility (1/GPa) = 0.16792568
#
# Stress axis : x y z
#
# Youngs Moduli (GPa) = 6.16563 64.50412 43.76858
#
# Poissons Ratio (x) = 1.60746 -0.87595
# Poissons Ratio (y) = 0.15365 0.49896
# Poissons Ratio (z) = -0.12339 0.73534
#
# Static dielectric constant tensor:
#      x y z
#    x 1.771790 -0.064710 0.028140 
#    y -0.064710 1.830510 -0.053150 
#    z 0.028140 -0.053150 1.774230 
# 
# From -- ./inp_files/181556.got.cif
#   From: 2010.05.17/outbox.cif.g08.bks.cpg/sg2_91_cif.got.tgz:181556.got - 2010.06.03 11:33:40.
