data_PCOD9084225
_publ_section_title
;
Structure prediction by ZEFSAII (Michael W. Deem and Ramdas Pophale) SiO2 
 PCOD9084225
Probable space group: P -1
;
_chemical_formula_sum "Si O2"
_cell_formula_units_Z 16
_cell_length_a 24.000674
_cell_length_b 13.875060
_cell_length_c 7.972769
_cell_angle_alpha 125.034565
_cell_angle_beta 48.107573
_cell_angle_gamma 160.298523
_cell_volume 650.334480
_symmetry_space_group_name_H-M "P -1"
_symmetry_group_IT_number 2
_symmetry_cell_setting 'triclinic'
loop_
_space_group_symop_operation_xyz
x,y,z
-x,-y,-z
loop_
_atom_site_type_symbol
_atom_site_label
_atom_site_fract_x
_atom_site_fract_y
_atom_site_fract_z
Si Si1 0.824630 0.424251 0.020820
Si Si2 0.701685 0.804785 0.978218
Si Si3 0.190249 0.163669 0.666547
Si Si4 0.435924 0.928009 0.366596
Si Si5 0.897313 0.227330 0.498421
Si Si6 0.593737 0.852951 0.499934
Si Si7 0.947734 0.584428 0.295185
Si Si8 0.969649 0.035498 0.841431
O O1 0.863892 0.419334 0.119548
O O2 0.885517 0.648406 0.162392
O O3 0.604046 0.108968 0.108366
O O4 0.952398 0.576311 0.756214
O O5 0.684080 0.878579 0.231766
O O6 0.500000 0.500000 0.000000
O O7 0.860271 0.082193 0.815842
O O8 0.786768 0.804648 0.873354
O O9 0.391296 0.512244 0.610369
O O10 0.073330 0.060508 0.652090
O O11 0.190523 0.024148 0.523608
O O12 0.097762 0.052388 0.920550
O O13 0.219612 0.577420 0.449527
O O14 0.500000 0.000000 0.500000
O O15 0.424983 0.049968 0.460224
O O16 0.996863 0.414696 0.654873
O O17 0.725635 0.052679 0.595823
#
# Coordination Sequence:
#
# PCOD9084225 Si02
#       8
#     2   2   2   2   2   2   2   2
#     4   9  18  43  62  88 126 163 213 266 310 373
#     4  11  23  41  61  97 133 161 209 265 316 391
#     4  10  19  34  61  94 121 165 209 251 323 385
#     4  10  23  43  68  86 124 173 221 268 310 377
#     4  11  22  38  66  95 130 166 210 264 325 382
#     4  12  22  38  68  90 125 179 209 259 330 371
#     4  10  22  41  63  91 128 164 216 262 312 371
#     4   9  18  36  60  86 130 163 196 260 316 369
#
# _framework density 24.602723999999998
#
# number of rings (size 3 to 8) (size 9 to 14) (size 15 to 20)
#    0.000    1.750    5.000    1.125    1.750    1.500 
#    4.500    1.875    0.000    0.000    0.000    0.000 
#    0.000    0.000    0.000    0.000    0.000    0.000 
#
# Total GULP energy -89336.755800 kJ/mol
# GULP energy per Si atom -5583.547237 kJ/mol
# Density = 2.454673 g / cm^3
# Si number density = 24.602724 Si / 1000 Ang^3
#
#
#
# Elastic Constant Matrix: (Units=GPa)
#
#
# Indices 1 2 3 4 5 6 
#
# 1 127.7740 -9.5092 -80.2906 56.7287 -43.3041 37.1363
# 2 -9.5092 49.9248 -83.3895 26.9845 -54.3092 27.2515
# 3 -80.2906 -83.3895 -146.4486 99.9804 -66.6585 34.0503
# 4 56.7287 26.9845 99.9804 -15.4996 39.4373 -13.4297
# 5 -43.3041 -54.3092 -66.6585 39.4373 7.8843 1.5362
# 6 37.1363 27.2515 34.0503 -13.4297 1.5362 47.6954
#
#
#
# Elastic Compliance Matrix: (Units=1/GPa)
#
#
# Indices 1 2 3 4 5 6 
#
# 1 0.006626 -0.003041 -0.003034 -0.001766 -0.001038 -0.001719
# 2 -0.003041 0.015875 -0.004073 0.010195 0.007448 -0.001164
# 3 -0.003034 -0.004073 0.009249 0.009122 -0.012353 0.001053
# 4 -0.001766 0.010195 0.009122 0.026296 0.006845 -0.003778
# 5 -0.001038 0.007448 -0.012353 0.006845 0.032534 0.006252
# 6 -0.001719 -0.001164 0.001053 -0.003778 0.006252 0.020954
#
#
# Mechanical properties :
#
#
# Convention : Reuss Voigt Hill
#
# Bulk Modulus (GPa) = 87.30613 -35.01424 26.14595
# Shear Modulus (GPa) = 36.86036 21.64531 29.25284
#
# Velocity S-wave (km/s) = 3.87489 2.96935 3.45194
# Velocity P-wave (km/s) = 7.45541 1.58326 5.15152
#
# Compressibility (1/GPa) = 0.01145395
#
# Stress axis : x y z
#
# Youngs Moduli (GPa) = 150.92842 62.99140 108.12326
#
# Poissons Ratio (x) = 0.19159 0.32802
# Poissons Ratio (y) = 0.45905 0.44034
# Poissons Ratio (z) = 0.45788 0.25654
#
# Static dielectric constant tensor:
#      x y z
#    x 2.006860 -0.000600 -0.060000 
#    y -0.000600 2.007060 0.058540 
#    z -0.060000 0.058540 2.029120 
# 
# From -- ./inp_files/354554.got.cif
#   From: 2010.05.17/outbox.cif.g08.bks.cpg/sg2_178_cif.got.tgz:354554.got - 2010.06.03 11:33:40.
