data_PCOD9084634
_publ_section_title
;
Structure prediction by ZEFSAII (Michael W. Deem and Ramdas Pophale) SiO2 
 PCOD9084634
Probable space group: P -1
;
_chemical_formula_sum "Si O2"
_cell_formula_units_Z 16
_cell_length_a 9.387925
_cell_length_b 12.496464
_cell_length_c 12.132601
_cell_angle_alpha 46.927574
_cell_angle_beta 92.153906
_cell_angle_gamma 115.947102
_cell_volume 857.822265
_symmetry_space_group_name_H-M "P -1"
_symmetry_group_IT_number 2
_symmetry_cell_setting 'triclinic'
loop_
_space_group_symop_operation_xyz
x,y,z
-x,-y,-z
loop_
_atom_site_type_symbol
_atom_site_label
_atom_site_fract_x
_atom_site_fract_y
_atom_site_fract_z
Si Si1 0.749401 0.844322 0.085572
Si Si2 0.191374 0.553438 0.451574
Si Si3 0.841527 0.486294 0.864838
Si Si4 0.623488 0.451340 0.341173
Si Si5 0.776608 0.695966 0.532132
Si Si6 0.028383 0.961416 0.839077
Si Si7 0.846998 0.546288 0.076183
Si Si8 0.401989 0.804542 0.088870
O O1 0.736999 0.662298 0.223127
O O2 0.554143 0.774818 0.106956
O O3 0.821928 0.958477 0.119117
O O4 0.875041 0.952065 0.910957
O O5 0.305159 0.623475 0.515927
O O6 0.207822 0.401888 0.504440
O O7 0.269480 0.696962 0.257636
O O8 0.000000 0.500000 0.500000
O O9 0.827019 0.618611 0.690202
O O10 0.707972 0.283483 0.962257
O O11 0.028419 0.517544 0.844929
O O12 0.802536 0.508185 0.973244
O O13 0.420759 0.364363 0.413917
O O14 0.682090 0.449318 0.220261
O O15 0.899207 0.903506 0.356700
O O16 0.954319 0.759660 0.947016
O O17 0.500000 0.000000 0.000000
#
# Coordination Sequence:
#
# PCOD9084634 Si02
#       8
#     2   2   2   2   2   2   2   2
#     4  10  19  35  55  87 118 148 191 237 296 344
#     4  11  22  34  57  88 123 155 188 239 303 353
#     4  10  22  42  61  84 118 156 204 237 293 357
#     4  11  19  37  59  86 115 155 191 241 298 342
#     4  11  21  36  60  89 120 148 200 253 290 342
#     4  10  21  34  60  86 118 154 192 241 293 350
#     4  10  23  41  62  79 118 167 197 234 292 363
#     4  11  22  36  59  88 117 149 191 245 293 348
#
# _framework density 18.651882000000001
#
# number of rings (size 3 to 8) (size 9 to 14) (size 15 to 20)
#    0.000    1.500    3.750    3.375    1.750    1.000 
#    0.000    0.000    0.000    2.250    0.000    0.000 
#    0.000    0.000    0.000    0.000    0.000    0.000 
#
# Total GULP energy -89167.073409 kJ/mol
# GULP energy per Si atom -5572.942088 kJ/mol
# Density = 1.860943 g / cm^3
# Si number density = 18.651882 Si / 1000 Ang^3
#
#
#
# Elastic Constant Matrix: (Units=GPa)
#
#
# Indices 1 2 3 4 5 6 
#
# 1 103.9317 29.9074 57.1886 25.3191 -24.4055 3.9394
# 2 29.9074 84.5807 70.5902 16.1485 1.9650 -2.6214
# 3 57.1886 70.5902 34.6238 27.1763 -24.3919 4.1491
# 4 25.3191 16.1485 27.1763 26.9878 3.1425 1.3577
# 5 -24.4055 1.9650 -24.3919 3.1425 28.6176 1.5635
# 6 3.9394 -2.6214 4.1491 1.3577 1.5635 23.2944
#
#
#
# Elastic Compliance Matrix: (Units=1/GPa)
#
#
# Indices 1 2 3 4 5 6 
#
# 1 0.019754 -0.002393 -0.002305 -0.016595 0.017052 -0.003377
# 2 -0.002393 0.004772 0.012391 -0.014175 0.009809 -0.001097
# 3 -0.002305 0.012391 -0.016108 0.012834 -0.018236 0.005129
# 4 -0.016595 -0.014175 0.012834 0.049222 -0.007456 -0.003443
# 5 0.017052 0.009809 -0.018236 -0.007456 0.034109 -0.000387
# 6 -0.003377 -0.001097 0.005129 -0.003443 -0.000387 0.042689
#
#
# Mechanical properties :
#
#
# Convention : Reuss Voigt Hill
#
# Bulk Modulus (GPa) = 42.01199 59.83429 50.92314
# Shear Modulus (GPa) = 39.37372 20.14330 29.75851
#
# Velocity S-wave (km/s) = 4.59952 3.28984 3.99867
# Velocity P-wave (km/s) = 7.12605 6.82494 6.97712
#
# Compressibility (1/GPa) = 0.02380273
#
# Stress axis : x y z
#
# Youngs Moduli (GPa) = 50.62273 209.54147 -62.08115
#
# Poissons Ratio (x) = 0.50149 -0.14313
# Poissons Ratio (y) = 0.12115 0.76925
# Poissons Ratio (z) = 0.11671 -2.59642
#
# Static dielectric constant tensor:
#      x y z
#    x 1.631890 -0.087650 0.067990 
#    y -0.087650 1.644210 -0.023470 
#    z 0.067990 -0.023470 1.690000 
# 
# From -- ./inp_files/181254.got.cif
#   From: 2010.05.17/outbox.cif.g08.bks.cpg/sg2_91_cif.got.tgz:181254.got - 2010.06.03 11:33:40.
