data_PCOD9084979
_publ_section_title
;
Structure prediction by ZEFSAII (Michael W. Deem and Ramdas Pophale) SiO2 
 PCOD9084979
Probable space group: P -1
;
_chemical_formula_sum "Si O2"
_cell_formula_units_Z 16
_cell_length_a 9.586900
_cell_length_b 19.253242
_cell_length_c 9.078194
_cell_angle_alpha 130.253735
_cell_angle_beta 145.641061
_cell_angle_gamma 44.264201
_cell_volume 653.598059
_symmetry_space_group_name_H-M "P -1"
_symmetry_group_IT_number 2
_symmetry_cell_setting 'triclinic'
loop_
_space_group_symop_operation_xyz
x,y,z
-x,-y,-z
loop_
_atom_site_type_symbol
_atom_site_label
_atom_site_fract_x
_atom_site_fract_y
_atom_site_fract_z
Si Si1 0.880256 0.612121 0.625342
Si Si2 0.880830 0.859723 0.207097
Si Si3 0.813131 0.795566 0.375428
Si Si4 0.316629 0.624254 0.659506
Si Si5 0.407001 0.619240 0.052709
Si Si6 0.764689 0.561667 0.761753
Si Si7 0.815680 0.091206 0.071398
Si Si8 0.664234 0.091758 0.291646
O O1 0.882383 0.601118 0.786903
O O2 0.000000 0.500000 0.500000
O O3 0.081416 0.663569 0.840567
O O4 0.579301 0.657601 0.358358
O O5 0.870764 0.797407 0.254295
O O6 0.182786 0.846336 0.420248
O O7 0.752211 0.982042 0.290887
O O8 0.659602 0.852257 0.896006
O O9 0.992809 0.685484 0.443330
O O10 0.991128 0.850829 0.671680
O O11 0.487486 0.849604 0.182303
O O12 0.448601 0.634201 0.939495
O O13 0.499144 0.644893 0.723202
O O14 0.353589 0.510641 0.518336
O O15 0.500000 0.500000 0.000000
O O16 0.000000 0.500000 0.000000
O O17 0.747928 0.075238 0.164625
O O18 0.000000 0.000000 0.000000
#
# Coordination Sequence:
#
# PCOD9084979 Si02
#       8
#     2   2   2   2   2   2   2   2
#     4  10  19  35  58  82 111 154 216 246 294 359
#     4   8  14  28  48  76 101 135 180 214 273 332
#     4  10  22  36  58  87 118 148 189 249 303 344
#     4  11  24  37  60  91 123 162 209 263 306 357
#     4  10  19  36  58  82 110 162 215 239 301 368
#     4  11  23  37  61  89 121 166 215 255 301 369
#     4  10  20  37  60  86 115 151 192 233 293 370
#     4   8  14  26  51  76  99 138 177 217 257 346
#
# _framework density 24.479876999999998
#
# number of rings (size 3 to 8) (size 9 to 14) (size 15 to 20)
#    0.000    2.250    2.500    1.875    3.500    0.000 
#    0.000    0.000    5.500    0.000    0.000    0.000 
#    0.000    0.000    0.000    0.000    0.000    0.000 
#
# Total GULP energy -89271.822031 kJ/mol
# GULP energy per Si atom -5579.488877 kJ/mol
# Density = 2.442416 g / cm^3
# Si number density = 24.479877 Si / 1000 Ang^3
#
#
#
# Elastic Constant Matrix: (Units=GPa)
#
#
# Indices 1 2 3 4 5 6 
#
# 1 89.1340 30.1211 39.7243 -4.8874 -1.0441 -9.0150
# 2 30.1211 65.0751 27.8073 -19.7132 -7.4863 -24.3919
# 3 39.7243 27.8073 202.0151 -29.5754 35.0022 -14.9482
# 4 -4.8874 -19.7132 -29.5754 31.6533 6.7842 5.6314
# 5 -1.0441 -7.4863 35.0022 6.7842 41.7707 -7.5150
# 6 -9.0150 -24.3919 -14.9482 5.6314 -7.5150 25.0699
#
#
#
# Elastic Compliance Matrix: (Units=1/GPa)
#
#
# Indices 1 2 3 4 5 6 
#
# 1 0.014753 -0.007746 -0.003195 -0.005599 0.002166 -0.002230
# 2 -0.007746 0.036934 -0.001314 0.012234 0.011487 0.033061
# 3 -0.003195 -0.001314 0.008542 0.009055 -0.009333 -0.002166
# 4 -0.005599 0.012234 0.009055 0.049715 -0.013602 0.000045
# 5 0.002166 0.011487 -0.009333 -0.013602 0.039936 0.021417
# 6 -0.002230 0.033061 -0.002166 0.000045 0.021417 0.076373
#
#
# Mechanical properties :
#
#
# Convention : Reuss Voigt Hill
#
# Bulk Modulus (GPa) = 27.99587 61.28107 44.63847
# Shear Modulus (GPa) = 19.03536 36.93688 27.98612
#
# Velocity S-wave (km/s) = 2.79156 3.88863 3.38484
# Velocity P-wave (km/s) = 4.67456 6.72677 5.79228
#
# Compressibility (1/GPa) = 0.03571956
#
# Stress axis : x y z
#
# Youngs Moduli (GPa) = 67.78070 27.07562 117.07190
#
# Poissons Ratio (x) = 0.20974 0.37402
# Poissons Ratio (y) = 0.52505 0.15378
# Poissons Ratio (z) = 0.21654 0.03556
#
# Static dielectric constant tensor:
#      x y z
#    x 1.945840 -0.080860 0.042760 
#    y -0.080860 2.000360 -0.043480 
#    z 0.042760 -0.043480 1.957560 
# 
# From -- ./inp_files/223914.got.cif
#   From: 2010.05.17/outbox.cif.g08.bks.cpg/sg2_112_cif.got.tgz:223914.got - 2010.06.03 11:33:40.
