data_PCOD9084933
_publ_section_title
;
Structure prediction by ZEFSAII (Michael W. Deem and Ramdas Pophale) SiO2 
 PCOD9084933
Probable space group: P -1
;
_chemical_formula_sum "Si O2"
_cell_formula_units_Z 16
_cell_length_a 11.864503
_cell_length_b 19.344068
_cell_length_c 12.652283
_cell_angle_alpha 36.882163
_cell_angle_beta 135.167444
_cell_angle_gamma 155.509848
_cell_volume 720.392507
_symmetry_space_group_name_H-M "P -1"
_symmetry_group_IT_number 2
_symmetry_cell_setting 'triclinic'
loop_
_space_group_symop_operation_xyz
x,y,z
-x,-y,-z
loop_
_atom_site_type_symbol
_atom_site_label
_atom_site_fract_x
_atom_site_fract_y
_atom_site_fract_z
Si Si1 0.758907 0.029556 0.754454
Si Si2 0.264545 0.015265 0.822931
Si Si3 0.853106 0.303743 0.784214
Si Si4 0.301136 0.744087 0.506717
Si Si5 0.679421 0.545328 0.650981
Si Si6 0.816685 0.890262 0.145594
Si Si7 0.142901 0.912517 0.630374
Si Si8 0.164508 0.693494 0.814322
O O1 0.763532 0.170395 0.587368
O O2 0.950595 0.070338 0.754337
O O3 0.437455 0.817428 0.786669
O O4 0.855698 0.026910 0.932697
O O5 0.591152 0.193580 0.810713
O O6 0.167210 0.279358 0.381564
O O7 0.159468 0.969216 0.689852
O O8 0.132046 0.820959 0.019769
O O9 0.780450 0.280369 0.640780
O O10 0.121221 0.537947 0.689759
O O11 0.623024 0.899992 0.519947
O O12 0.787588 0.914653 0.215333
O O13 0.461310 0.328627 0.817703
O O14 0.937577 0.626978 0.676438
O O15 0.500000 0.500000 0.500000
O O16 0.236023 0.830757 0.784806
O O17 0.000000 0.500000 0.000000
#
# Coordination Sequence:
#
# PCOD9084933 Si02
#       8
#     2   2   2   2   2   2   2   2
#     4  10  19  36  61  94 133 179 216 269 335 399
#     4  10  19  35  58 100 129 178 223 274 329 407
#     4   9  18  29  60  93 141 167 228 275 338 391
#     4   9  16  34  58  98 132 177 214 283 329 396
#     4  10  22  40  66  96 127 170 228 281 337 398
#     4  11  22  35  63  95 139 175 218 271 332 407
#     4   8  19  36  66  90 130 165 224 277 333 387
#     4   9  17  36  68  91 121 170 222 276 322 398
#
# _framework density 22.210114000000001
#
# number of rings (size 3 to 8) (size 9 to 14) (size 15 to 20)
#    0.750    1.750    2.500    0.000    1.750    1.000 
#    0.000    1.250   11.000    6.750    0.000    0.875 
#    0.000    0.000    0.000    0.000    0.000    0.000 
#
# Total GULP energy -89205.168290 kJ/mol
# GULP energy per Si atom -5575.323018 kJ/mol
# Density = 2.215956 g / cm^3
# Si number density = 22.210114 Si / 1000 Ang^3
#
#
#
# Elastic Constant Matrix: (Units=GPa)
#
#
# Indices 1 2 3 4 5 6 
#
# 1 120.9958 69.4148 33.5419 -3.2765 3.3941 13.4661
# 2 69.4148 150.3377 41.0885 -14.4182 5.0136 8.8647
# 3 33.5419 41.0885 98.3472 -25.9233 -6.5017 5.6098
# 4 -3.2765 -14.4182 -25.9233 46.4631 2.4254 0.8966
# 5 3.3941 5.0136 -6.5017 2.4254 15.5047 2.6250
# 6 13.4661 8.8647 5.6098 0.8966 2.6250 30.5641
#
#
#
# Elastic Compliance Matrix: (Units=1/GPa)
#
#
# Indices 1 2 3 4 5 6 
#
# 1 0.012088 -0.004845 -0.002499 -0.001916 -0.001270 -0.003296
# 2 -0.004845 0.009761 -0.002210 0.001626 -0.003267 -0.000058
# 3 -0.002499 -0.002210 0.014251 0.006784 0.006452 -0.001627
# 4 -0.001916 0.001626 0.006784 0.025760 -0.001031 -0.001540
# 5 -0.001270 -0.003267 0.006452 -0.001031 0.069651 -0.005629
# 6 -0.003296 -0.000058 -0.001627 -0.001540 -0.005629 0.035014
#
#
# Mechanical properties :
#
#
# Convention : Reuss Voigt Hill
#
# Bulk Modulus (GPa) = 58.85150 73.08569 65.96859
# Shear Modulus (GPa) = 26.13730 33.54875 29.84303
#
# Velocity S-wave (km/s) = 3.43420 3.89075 3.66958
# Velocity P-wave (km/s) = 6.50232 7.29122 6.90804
#
# Compressibility (1/GPa) = 0.01699192
#
# Stress axis : x y z
#
# Youngs Moduli (GPa) = 82.72751 102.44762 70.17034
#
# Poissons Ratio (x) = 0.49638 0.17537
# Poissons Ratio (y) = 0.40083 0.15505
# Poissons Ratio (z) = 0.20675 0.22637
#
# Static dielectric constant tensor:
#      x y z
#    x 1.827360 -0.019020 -0.019090 
#    y -0.019020 1.867640 0.000950 
#    z -0.019090 0.000950 1.930870 
# 
# From -- ./inp_files/574517.got.cif
#   From: 2010.05.17/outbox.cif.g08.bks.cpg/sg2_288_cif.got.tgz:574517.got - 2010.06.03 11:33:40.
