data_PCOD9084194
_publ_section_title
;
Structure prediction by ZEFSAII (Michael W. Deem and Ramdas Pophale) SiO2 
 PCOD9084194
Probable space group: P -1
;
_chemical_formula_sum "Si O2"
_cell_formula_units_Z 16
_cell_length_a 9.687103
_cell_length_b 9.720867
_cell_length_c 11.412683
_cell_angle_alpha 105.291224
_cell_angle_beta 56.205996
_cell_angle_gamma 121.047133
_cell_volume 764.770864
_symmetry_space_group_name_H-M "P -1"
_symmetry_group_IT_number 2
_symmetry_cell_setting 'triclinic'
loop_
_space_group_symop_operation_xyz
x,y,z
-x,-y,-z
loop_
_atom_site_type_symbol
_atom_site_label
_atom_site_fract_x
_atom_site_fract_y
_atom_site_fract_z
Si Si1 0.796571 0.347894 0.557236
Si Si2 0.504170 0.910820 0.831835
Si Si3 0.630902 0.523563 0.552539
Si Si4 0.398302 0.343575 0.164685
Si Si5 0.086300 0.137521 0.591055
Si Si6 0.737043 0.461419 0.849004
Si Si7 0.201464 0.783842 0.122942
Si Si8 0.639828 0.989419 0.525951
O O1 0.688961 0.382861 0.510190
O O2 0.697805 0.359017 0.725761
O O3 0.788714 0.176231 0.517745
O O4 0.000000 0.500000 0.500000
O O5 0.617442 0.822925 0.817292
O O6 0.609996 0.093958 0.867926
O O7 0.530995 0.915828 0.681822
O O8 0.290380 0.819017 0.958678
O O9 0.500000 0.500000 0.500000
O O10 0.547813 0.546737 0.719684
O O11 0.813004 0.692996 0.485134
O O12 0.233967 0.367308 0.180019
O O13 0.566649 0.406520 0.007094
O O14 0.946954 0.157457 0.752909
O O15 0.241728 0.104848 0.577511
O O16 0.000000 0.000000 0.500000
O O17 0.867597 0.400372 0.844003
O O18 0.500000 0.000000 0.500000
#
# Coordination Sequence:
#
# PCOD9084194 Si02
#       8
#     2   2   2   2   2   2   2   2
#     4  11  22  37  59  85 116 154 199 253 294 346
#     4  10  19  36  60  87 119 158 205 245 308 354
#     4  11  22  36  58  88 123 155 193 243 311 362
#     4   9  18  32  56  84 113 157 195 243 285 364
#     4  12  21  39  64  94 118 155 212 256 295 354
#     4   9  17  33  55  85 115 146 203 244 293 340
#     4  10  19  34  61  90 116 153 203 264 290 352
#     4  12  24  40  62  90 125 163 201 248 310 372
#
# _framework density 20.921298
#
# number of rings (size 3 to 8) (size 9 to 14) (size 15 to 20)
#    0.000    1.500    3.750    2.250    0.000    1.000 
#    0.000    0.625    2.750    2.250    0.000    0.000 
#    0.000    0.000    0.000    0.000    0.000    0.000 
#
# Total GULP energy -89101.767261 kJ/mol
# GULP energy per Si atom -5568.860454 kJ/mol
# Density = 2.087368 g / cm^3
# Si number density = 20.921298 Si / 1000 Ang^3
#
#
#
# Elastic Constant Matrix: (Units=GPa)
#
#
# Indices 1 2 3 4 5 6 
#
# 1 82.9581 28.4015 51.7197 -10.8578 -1.1245 -28.9890
# 2 28.4015 104.3994 44.8110 -9.5944 -0.6551 -36.1679
# 3 51.7197 44.8110 129.8532 -7.0834 -7.9458 -25.8904
# 4 -10.8578 -9.5944 -7.0834 26.3249 -16.3300 1.6724
# 5 -1.1245 -0.6551 -7.9458 -16.3300 21.8429 2.6120
# 6 -28.9890 -36.1679 -25.8904 1.6724 2.6120 39.2050
#
#
#
# Elastic Compliance Matrix: (Units=1/GPa)
#
#
# Indices 1 2 3 4 5 6 
#
# 1 0.020667 0.002185 -0.005541 0.010276 0.005260 0.012849
# 2 0.002185 0.015603 -0.003013 0.006699 0.002873 0.013543
# 3 -0.005541 -0.003013 0.011610 0.003922 0.006759 0.000172
# 4 0.010276 0.006699 0.003922 0.085608 0.065157 0.008375
# 5 0.005260 0.002873 0.006759 0.065157 0.097099 0.001755
# 6 0.012849 0.013543 0.000172 0.008375 0.001755 0.047141
#
#
# Mechanical properties :
#
#
# Convention : Reuss Voigt Hill
#
# Bulk Modulus (GPa) = 28.45717 63.00835 45.73276
# Shear Modulus (GPa) = 16.54636 30.29313 23.41974
#
# Velocity S-wave (km/s) = 2.81532 3.80933 3.34940
# Velocity P-wave (km/s) = 4.91931 7.03777 6.07165
#
# Compressibility (1/GPa) = 0.03514053
#
# Stress axis : x y z
#
# Youngs Moduli (GPa) = 48.38572 64.09050 86.13416
#
# Poissons Ratio (x) = -0.14003 0.47730
# Poissons Ratio (y) = -0.10572 0.25954
# Poissons Ratio (z) = 0.26812 0.19312
#
# Static dielectric constant tensor:
#      x y z
#    x 1.785160 -0.034760 -0.017090 
#    y -0.034760 1.832160 -0.014910 
#    z -0.017090 -0.014910 1.788920 
# 
# From -- ./inp_files/379048.got.cif
#   From: 2010.05.17/outbox.cif.g08.bks.cpg/sg2_190_cif.got.tgz:379048.got - 2010.06.03 11:33:40.
