data_PCOD9084298
_publ_section_title
;
Structure prediction by ZEFSAII (Michael W. Deem and Ramdas Pophale) SiO2 
 PCOD9084298
Probable space group: P -1
;
_chemical_formula_sum "Si O2"
_cell_formula_units_Z 16
_cell_length_a 11.195419
_cell_length_b 14.192849
_cell_length_c 12.081638
_cell_angle_alpha 62.950488
_cell_angle_beta 132.080415
_cell_angle_gamma 149.457676
_cell_volume 684.850451
_symmetry_space_group_name_H-M "P -1"
_symmetry_group_IT_number 2
_symmetry_cell_setting 'triclinic'
loop_
_space_group_symop_operation_xyz
x,y,z
-x,-y,-z
loop_
_atom_site_type_symbol
_atom_site_label
_atom_site_fract_x
_atom_site_fract_y
_atom_site_fract_z
Si Si1 0.185179 0.269361 0.398084
Si Si2 0.336827 0.704363 0.134500
Si Si3 0.002761 0.235354 0.874012
Si Si4 0.190924 0.847892 0.970420
Si Si5 0.704368 0.912779 0.460530
Si Si6 0.679987 0.921347 0.679664
Si Si7 0.682259 0.839918 0.078618
Si Si8 0.557856 0.385244 0.168294
O O1 0.500000 0.500000 0.500000
O O2 0.208016 0.161742 0.421590
O O3 0.034162 0.257031 0.215066
O O4 0.959261 0.120050 0.441165
O O5 0.433160 0.743724 0.298274
O O6 0.538993 0.742308 0.161893
O O7 0.400555 0.863877 0.064295
O O8 0.000000 0.500000 0.000000
O O9 0.152588 0.384151 0.787995
O O10 0.263411 0.296300 0.038690
O O11 0.723438 0.025363 0.752825
O O12 0.944469 0.266626 0.933546
O O13 0.279608 0.013295 0.979360
O O14 0.617438 0.921304 0.515914
O O15 0.455360 0.705784 0.693670
O O16 0.010057 0.050980 0.806014
O O17 0.475222 0.691200 0.929048
#
# Coordination Sequence:
#
# PCOD9084298 Si02
#       8
#     2   2   2   2   2   2   2   2
#     4  11  23  40  64  93 125 164 208 264 316 369
#     4  12  26  41  61  92 128 171 212 256 310 381
#     4  10  20  34  61  96 118 160 207 259 306 368
#     4  12  21  41  65  90 129 165 212 255 314 370
#     4  11  23  41  61  91 128 165 208 257 316 371
#     4  11  20  39  63  91 128 157 202 265 316 358
#     4  11  19  38  63  89 122 163 203 260 307 364
#     4  10  19  34  62  93 124 154 208 257 310 362
#
# _framework density 23.362765
#
# number of rings (size 3 to 8) (size 9 to 14) (size 15 to 20)
#    0.000    1.000    5.000    3.375    0.000    4.000 
#    0.000    0.625    0.000    1.500    0.000    0.000 
#    0.000    0.000    0.000    0.000    0.000    0.000 
#
# Total GULP energy -89315.899791 kJ/mol
# GULP energy per Si atom -5582.243737 kJ/mol
# Density = 2.330959 g / cm^3
# Si number density = 23.362765 Si / 1000 Ang^3
#
#
#
# Elastic Constant Matrix: (Units=GPa)
#
#
# Indices 1 2 3 4 5 6 
#
# 1 64.2287 -10.0645 26.5762 -0.1060 -8.1108 -5.5917
# 2 -10.0645 81.1256 5.7056 0.6476 -9.5048 2.2845
# 3 26.5762 5.7056 85.4000 -5.8295 -26.2036 10.8471
# 4 -0.1060 0.6476 -5.8295 29.4105 -0.6848 -3.8191
# 5 -8.1108 -9.5048 -26.2036 -0.6848 35.1551 -2.9290
# 6 -5.5917 2.2845 10.8471 -3.8191 -2.9290 16.5643
#
#
#
# Elastic Compliance Matrix: (Units=1/GPa)
#
#
# Indices 1 2 3 4 5 6 
#
# 1 0.020341 0.002814 -0.007821 -0.000005 0.000599 0.011705
# 2 0.002814 0.013156 -0.000651 -0.000302 0.003728 0.000151
# 3 -0.007821 -0.000651 0.019517 0.002472 0.011555 -0.012718
# 4 -0.000005 -0.000302 0.002472 0.035497 0.003046 0.007144
# 5 0.000599 0.003728 0.011555 0.003046 0.038229 -0.000416
# 6 0.011705 0.000151 -0.012718 0.007144 -0.000416 0.074203
#
#
# Mechanical properties :
#
#
# Convention : Reuss Voigt Hill
#
# Bulk Modulus (GPa) = 23.98150 30.57654 27.27902
# Shear Modulus (GPa) = 22.10833 30.12843 26.11838
#
# Velocity S-wave (km/s) = 3.07955 3.59498 3.34720
# Velocity P-wave (km/s) = 4.78873 5.50890 5.16139
#
# Compressibility (1/GPa) = 0.04169881
#
# Stress axis : x y z
#
# Youngs Moduli (GPa) = 49.16079 76.00854 51.23799
#
# Poissons Ratio (x) = -0.21391 0.40076
# Poissons Ratio (y) = -0.13835 0.03334
# Poissons Ratio (z) = 0.38451 0.04946
#
# Static dielectric constant tensor:
#      x y z
#    x 1.906410 0.063850 -0.000760 
#    y 0.063850 2.038350 -0.066590 
#    z -0.000760 -0.066590 1.887330 
# 
# From -- ./inp_files/432763.got.cif
#   From: 2010.05.17/outbox.cif.g08.bks.cpg/sg2_217_cif.got.tgz:432763.got - 2010.06.03 11:33:40.
