data_PCOD9084869
_publ_section_title
;
Structure prediction by ZEFSAII (Michael W. Deem and Ramdas Pophale) SiO2 
 PCOD9084869
Probable space group: P -1
;
_chemical_formula_sum "Si O2"
_cell_formula_units_Z 14
_cell_length_a 10.712071
_cell_length_b 9.970857
_cell_length_c 10.271577
_cell_angle_alpha 40.439149
_cell_angle_beta 121.231135
_cell_angle_gamma 131.859400
_cell_volume 529.874206
_symmetry_space_group_name_H-M "P -1"
_symmetry_group_IT_number 2
_symmetry_cell_setting 'triclinic'
loop_
_space_group_symop_operation_xyz
x,y,z
-x,-y,-z
loop_
_atom_site_type_symbol
_atom_site_label
_atom_site_fract_x
_atom_site_fract_y
_atom_site_fract_z
Si Si1 0.247833 0.916650 0.533246
Si Si2 0.354872 0.438343 0.804892
Si Si3 0.995699 0.936790 0.747924
Si Si4 0.690309 0.588040 0.502844
Si Si5 0.994530 0.270811 0.732114
Si Si6 0.933483 0.424060 0.829323
Si Si7 0.564010 0.892548 0.758737
O O1 0.418522 0.956481 0.661650
O O2 0.179529 0.101919 0.377360
O O3 0.090236 0.674799 0.681448
O O4 0.290932 0.916245 0.400173
O O5 0.326412 0.477234 0.611688
O O6 0.176476 0.358057 0.833549
O O7 0.486357 0.674561 0.773387
O O8 0.399525 0.231584 0.009157
O O9 0.167533 0.133449 0.628726
O O10 0.990584 0.075491 0.774960
O O11 0.008339 0.700598 0.940821
O O12 0.500000 0.500000 0.500000
O O13 0.775496 0.465130 0.723695
O O14 0.000000 0.500000 0.500000
O O15 0.880118 0.232207 0.823597
#
# Coordination Sequence:
#
# PCOD9084869 Si02
#       7
#     2   2   2   2   2   2   2
#     4  10  20  34  53  86 122 151 186 222 296 350
#     4  10  19  35  57  86 119 149 191 229 294 347
#     4  10  21  34  60  84 113 150 193 244 289 347
#     4  10  23  42  60  83 114 151 199 247 286 333
#     4  11  16  33  53  86 115 145 179 233 301 341
#     4  11  20  35  59  82 118 151 188 245 290 346
#     4  10  20  33  55  87 123 157 176 232 286 358
#
# _framework density 26.421364000000001
#
# number of rings (size 3 to 8) (size 9 to 14) (size 15 to 20)
#    0.000    1.714    5.714    1.286    2.000    1.714 
#    5.143    0.714    0.000    6.857    0.000    0.000 
#    0.000    0.000    0.000    0.000    0.000    0.000 
#
# Total GULP energy -78182.839740 kJ/mol
# GULP energy per Si atom -5584.488553 kJ/mol
# Density = 2.636123 g / cm^3
# Si number density = 26.421364 Si / 1000 Ang^3
#
#
#
# Elastic Constant Matrix: (Units=GPa)
#
#
# Indices 1 2 3 4 5 6 
#
# 1 125.3135 44.8892 65.5744 -2.5067 30.8361 50.3759
# 2 44.8892 61.2828 46.9994 -13.8030 10.7645 20.4346
# 3 65.5744 46.9994 187.9113 4.6077 66.4008 38.8674
# 4 -2.5067 -13.8030 4.6077 41.5111 14.9375 3.1001
# 5 30.8361 10.7645 66.4008 14.9375 46.4872 17.6355
# 6 50.3759 20.4346 38.8674 3.1001 17.6355 59.4688
#
#
#
# Elastic Compliance Matrix: (Units=1/GPa)
#
#
# Indices 1 2 3 4 5 6 
#
# 1 0.015658 -0.007318 0.000482 0.001426 -0.006325 -0.009263
# 2 -0.007318 0.027583 -0.006131 0.007615 0.005242 -0.001223
# 3 0.000482 -0.006131 0.013584 0.003344 -0.018690 -0.001812
# 4 0.001426 0.007615 0.003344 0.032639 -0.016955 -0.002684
# 5 -0.006325 0.005242 -0.018690 -0.016955 0.056697 -0.000158
# 6 -0.009263 -0.001223 -0.001812 -0.002684 -0.000158 0.026453
#
#
# Mechanical properties :
#
#
# Convention : Reuss Voigt Hill
#
# Bulk Modulus (GPa) = 32.37230 76.60373 54.48802
# Shear Modulus (GPa) = 23.94132 43.96305 33.95218
#
# Velocity S-wave (km/s) = 3.01347 4.08354 3.58862
# Velocity P-wave (km/s) = 4.93831 7.16169 6.15129
#
# Compressibility (1/GPa) = 0.03089061
#
# Stress axis : x y z
#
# Youngs Moduli (GPa) = 63.86678 36.25469 73.61589
#
# Poissons Ratio (x) = 0.26531 -0.03550
# Poissons Ratio (y) = 0.46738 0.45134
# Poissons Ratio (z) = -0.03080 0.22228
#
# Static dielectric constant tensor:
#      x y z
#    x 2.121000 -0.011160 -0.066400 
#    y -0.011160 2.353060 0.074940 
#    z -0.066400 0.074940 2.174380 
# 
# From -- ./inp_files/521348.got.cif
#   From: 2010.05.17/outbox.cif.g08.bks.cpg/sg2_261_cif.got.tgz:521348.got - 2010.06.03 11:33:40.
