data_PCOD9084486
_publ_section_title
;
Structure prediction by ZEFSAII (Michael W. Deem and Ramdas Pophale) SiO2 
 PCOD9084486
Probable space group: P -1
;
_chemical_formula_sum "Si O2"
_cell_formula_units_Z 12
_cell_length_a 9.455603
_cell_length_b 12.442656
_cell_length_c 6.712727
_cell_angle_alpha 131.635023
_cell_angle_beta 58.089771
_cell_angle_gamma 106.921277
_cell_volume 498.810411
_symmetry_space_group_name_H-M "P -1"
_symmetry_group_IT_number 2
_symmetry_cell_setting 'triclinic'
loop_
_space_group_symop_operation_xyz
x,y,z
-x,-y,-z
loop_
_atom_site_type_symbol
_atom_site_label
_atom_site_fract_x
_atom_site_fract_y
_atom_site_fract_z
Si Si1 0.015481 0.080032 0.796105
Si Si2 0.386704 0.366486 0.293650
Si Si3 0.705414 0.941841 0.987653
Si Si4 0.481117 0.617378 0.347791
Si Si5 0.122316 0.596632 0.648823
Si Si6 0.637291 0.882587 0.495422
O O1 0.213018 0.060848 0.671443
O O2 0.000000 0.000000 0.500000
O O3 0.880183 0.010884 0.947741
O O4 0.970342 0.253337 0.021512
O O5 0.315750 0.217595 0.112077
O O6 0.495981 0.442641 0.138495
O O7 0.498080 0.345536 0.383328
O O8 0.223716 0.483433 0.586035
O O9 0.676578 0.919372 0.741646
O O10 0.548540 0.044877 0.309365
O O11 0.285625 0.649006 0.476382
O O12 0.620287 0.711935 0.277023
O O13 0.000000 0.500000 0.500000
#
# Coordination Sequence:
#
# PCOD9084486 Si02
#       6
#     2   2   2   2   2   2
#     4  10  20  31  53  82 102 137 180 214 253 317
#     4   8  16  29  56  76  98 143 174 212 259 308
#     4   9  15  30  50  77 105 131 175 219 258 299
#     4   8  15  31  52  75  99 138 176 208 255 309
#     4  10  19  35  53  76 109 139 172 214 265 312
#     4   9  16  28  52  76 102 137 172 217 257 303
#
# _framework density 24.057237000000001
#
# number of rings (size 3 to 8) (size 9 to 14) (size 15 to 20)
#    1.000    2.000    1.667    0.000    2.333    0.000 
#    0.000   10.833    0.000    1.000    0.000    0.000 
#    0.000    0.000    0.000    0.000    0.000    0.000 
#
# Total GULP energy -66816.043029 kJ/mol
# GULP energy per Si atom -5568.003586 kJ/mol
# Density = 2.400248 g / cm^3
# Si number density = 24.057237 Si / 1000 Ang^3
#
#
#
# Elastic Constant Matrix: (Units=GPa)
#
#
# Indices 1 2 3 4 5 6 
#
# 1 122.6681 51.1925 37.0646 -0.7502 -1.1624 50.9983
# 2 51.1925 229.8133 63.5409 -3.0791 -20.4382 44.9408
# 3 37.0646 63.5409 80.4181 9.3009 -0.1675 24.2354
# 4 -0.7502 -3.0791 9.3009 45.4771 11.8913 2.9803
# 5 -1.1624 -20.4382 -0.1675 11.8913 31.9249 -2.1497
# 6 50.9983 44.9408 24.2354 2.9803 -2.1497 50.4729
#
#
#
# Elastic Compliance Matrix: (Units=1/GPa)
#
#
# Indices 1 2 3 4 5 6 
#
# 1 0.014699 0.000178 -0.003017 0.002047 -0.001053 -0.013728
# 2 0.000178 0.006559 -0.004148 0.000583 0.003704 -0.003906
# 3 -0.003017 -0.004148 0.018042 -0.003517 -0.001480 -0.001777
# 4 0.002047 0.000583 -0.003517 0.025372 -0.009209 -0.002789
# 5 -0.001053 0.003704 -0.001480 -0.009209 0.037119 0.000602
# 6 -0.013728 -0.003906 -0.001777 -0.002789 0.000602 0.038204
#
#
# Mechanical properties :
#
#
# Convention : Reuss Voigt Hill
#
# Bulk Modulus (GPa) = 39.48372 81.83285 60.65828
# Shear Modulus (GPa) = 30.78581 44.31509 37.55045
#
# Velocity S-wave (km/s) = 3.58116 4.29659 3.95508
# Velocity P-wave (km/s) = 5.79203 7.66185 6.79160
#
# Compressibility (1/GPa) = 0.02532689
#
# Stress axis : x y z
#
# Youngs Moduli (GPa) = 68.03105 152.45293 55.42623
#
# Poissons Ratio (x) = -0.02717 0.16725
# Poissons Ratio (y) = -0.01212 0.22988
# Poissons Ratio (z) = 0.20528 0.63231
#
# Static dielectric constant tensor:
#      x y z
#    x 2.161250 -0.120000 0.068760 
#    y -0.120000 1.987530 -0.010180 
#    z 0.068760 -0.010180 1.956100 
# 
# From -- ./inp_files/151026.got.cif
#   From: 2010.05.17/outbox.cif.g08.bks.cpg/sg2_76_cif.got.tgz:151026.got - 2010.06.03 11:33:40.
