data_PCOD9084195
_publ_section_title
;
Structure prediction by ZEFSAII (Michael W. Deem and Ramdas Pophale) SiO2 
 PCOD9084195
Probable space group: P -1
;
_chemical_formula_sum "Si O2"
_cell_formula_units_Z 16
_cell_length_a 17.210178
_cell_length_b 10.190591
_cell_length_c 5.848622
_cell_angle_alpha 43.886930
_cell_angle_beta 124.517405
_cell_angle_gamma 123.165547
_cell_volume 568.372897
_symmetry_space_group_name_H-M "P -1"
_symmetry_group_IT_number 2
_symmetry_cell_setting 'triclinic'
loop_
_space_group_symop_operation_xyz
x,y,z
-x,-y,-z
loop_
_atom_site_type_symbol
_atom_site_label
_atom_site_fract_x
_atom_site_fract_y
_atom_site_fract_z
Si Si1 0.895436 0.349988 0.211205
Si Si2 0.588979 0.717369 0.784909
Si Si3 0.701185 0.131154 0.403742
Si Si4 0.360010 0.265604 0.657748
Si Si5 0.085256 0.199112 0.772479
Si Si6 0.602016 0.165387 0.795655
Si Si7 0.223148 0.595098 0.418428
Si Si8 0.127900 0.206417 0.333425
O O1 0.807181 0.202476 0.376251
O O2 0.996380 0.304309 0.491371
O O3 0.867332 0.327466 0.923711
O O4 0.892683 0.575079 0.973325
O O5 0.598939 0.640336 0.638276
O O6 0.488826 0.785161 0.532666
O O7 0.681017 0.904976 0.708349
O O8 0.595127 0.633410 0.156109
O O9 0.713884 0.273441 0.454719
O O10 0.601716 0.144477 0.094818
O O11 0.243788 0.235201 0.492977
O O12 0.376837 0.043589 0.971478
O O13 0.182883 0.377197 0.702962
O O14 0.089898 0.109950 0.637403
O O15 0.086277 0.110736 0.140691
O O16 0.697821 0.346922 0.720486
#
# Coordination Sequence:
#
# PCOD9084195 Si02
#       8
#     2   2   2   2   2   2   2   2
#     4  10  22  37  62  91 113 155 202 244 286 347
#     4  11  23  40  64  88 115 157 203 240 286 350
#     4  10  19  34  61  90 118 145 199 254 287 330
#     4  11  22  38  61  89 121 157 191 240 301 350
#     4  11  23  40  64  88 115 157 203 240 286 350
#     4  10  22  37  62  91 113 155 202 244 286 347
#     4  10  19  34  61  90 118 145 199 254 287 330
#     4  11  22  38  61  89 121 157 191 240 301 350
#
# _framework density 28.150535000000001
#
# number of rings (size 3 to 8) (size 9 to 14) (size 15 to 20)
#    0.000    1.500    2.500    4.500    3.500    0.000 
#    0.000    0.000    0.000   52.500    0.000    0.000 
#    0.000    0.000    0.000    0.000    0.000    0.000 
#
# Total GULP energy -89437.289906 kJ/mol
# GULP energy per Si atom -5589.830619 kJ/mol
# Density = 2.808646 g / cm^3
# Si number density = 28.150535 Si / 1000 Ang^3
#
#
#
# Elastic Constant Matrix: (Units=GPa)
#
#
# Indices 1 2 3 4 5 6 
#
# 1 141.3656 6.9345 70.0681 2.9304 -5.9986 12.0406
# 2 6.9345 73.8847 39.0776 -4.3538 -10.2027 1.2186
# 3 70.0681 39.0776 166.4257 49.3679 12.5094 -23.1616
# 4 2.9304 -4.3538 49.3679 55.4582 -7.0208 -17.3138
# 5 -5.9986 -10.2027 12.5094 -7.0208 68.2635 0.8170
# 6 12.0406 1.2186 -23.1616 -17.3138 0.8170 43.4979
#
#
#
# Elastic Compliance Matrix: (Units=1/GPa)
#
#
# Indices 1 2 3 4 5 6 
#
# 1 0.012006 0.004909 -0.009357 0.006806 0.004273 -0.005814
# 2 0.004909 0.020646 -0.011208 0.011060 0.006752 -0.003630
# 3 -0.009357 -0.011208 0.018849 -0.016046 -0.007682 0.006698
# 4 0.006806 0.011060 -0.016046 0.034859 0.008741 0.002973
# 5 0.004273 0.006752 -0.007682 0.008741 0.018368 -0.002328
# 6 -0.005814 -0.003630 0.006698 0.002973 -0.002328 0.029494
#
#
# Mechanical properties :
#
#
# Convention : Reuss Voigt Hill
#
# Bulk Modulus (GPa) = 49.53054 68.20404 58.86729
# Shear Modulus (GPa) = 29.02526 51.15031 40.08779
#
# Velocity S-wave (km/s) = 3.21452 4.26729 3.77775
# Velocity P-wave (km/s) = 5.60451 6.96854 6.32341
#
# Compressibility (1/GPa) = 0.02018956
#
# Stress axis : x y z
#
# Youngs Moduli (GPa) = 83.29061 48.43628 53.05304
#
# Poissons Ratio (x) = -0.23777 0.49640
# Poissons Ratio (y) = -0.40886 0.59461
# Poissons Ratio (z) = 0.77932 0.54287
#
# Static dielectric constant tensor:
#      x y z
#    x 2.405150 -0.075220 -0.242740 
#    y -0.075220 2.200670 0.002490 
#    z -0.242740 0.002490 2.355360 
# 
# From -- ./inp_files/109547.got.cif
#   From: 2010.05.17/outbox.cif.g08.bks.cpg/sg2_55_cif.got.tgz:109547.got - 2010.06.03 11:33:40.
