data_PCOD9084544
_publ_section_title
;
Structure prediction by ZEFSAII (Michael W. Deem and Ramdas Pophale) SiO2 
 PCOD9084544
Probable space group: P -1
;
_chemical_formula_sum "Si O2"
_cell_formula_units_Z 14
_cell_length_a 10.623513
_cell_length_b 11.759170
_cell_length_c 13.024181
_cell_angle_alpha 143.329506
_cell_angle_beta 36.288417
_cell_angle_gamma 123.926453
_cell_volume 556.818171
_symmetry_space_group_name_H-M "P -1"
_symmetry_group_IT_number 2
_symmetry_cell_setting 'triclinic'
loop_
_space_group_symop_operation_xyz
x,y,z
-x,-y,-z
loop_
_atom_site_type_symbol
_atom_site_label
_atom_site_fract_x
_atom_site_fract_y
_atom_site_fract_z
Si Si1 0.028250 0.758734 0.584744
Si Si2 0.661388 0.047852 0.342951
Si Si3 0.575250 0.421264 0.553540
Si Si4 0.812993 0.275028 0.756491
Si Si5 0.049504 0.328689 0.076799
Si Si6 0.885314 0.324332 0.971986
Si Si7 0.333865 0.349540 0.142347
O O1 0.172641 0.850292 0.632856
O O2 0.029741 0.819962 0.509654
O O3 0.153000 0.523517 0.331802
O O4 0.790762 0.785334 0.810062
O O5 0.557601 0.200121 0.431944
O O6 0.500000 0.000000 0.500000
O O7 0.807069 0.834312 0.059510
O O8 0.807089 0.410247 0.340143
O O9 0.360533 0.562907 0.748243
O O10 0.581859 0.526588 0.733887
O O11 0.828076 0.503200 0.908828
O O12 0.875156 0.216156 0.791323
O O13 0.570436 0.255260 0.868436
O O14 0.012078 0.225979 0.918497
O O15 0.000000 0.500000 0.000000
#
# Coordination Sequence:
#
# PCOD9084544 Si02
#       7
#     2   2   2   2   2   2   2
#     4  10  19  35  54  81 112 151 186 233 280 339
#     4  11  23  38  55  85 123 145 184 238 295 340
#     4  10  19  36  58  87 111 152 191 235 281 339
#     4  10  19  35  59  81 108 152 195 230 276 331
#     4  11  20  36  58  86 117 150 187 240 285 331
#     4   9  19  34  58  85 112 146 198 234 271 336
#     4   9  18  32  55  82 111 140 198 233 271 334
#
# _framework density 25.142856999999999
#
# number of rings (size 3 to 8) (size 9 to 14) (size 15 to 20)
#    0.000    2.000    1.429    4.714    0.000    0.000 
#    2.571    0.714    0.000    3.429    0.000    0.000 
#    0.000    0.000    0.000    0.000    0.000    0.000 
#
# Total GULP energy -78207.149906 kJ/mol
# GULP energy per Si atom -5586.224993 kJ/mol
# Density = 2.508563 g / cm^3
# Si number density = 25.142857 Si / 1000 Ang^3
#
#
#
# Elastic Constant Matrix: (Units=GPa)
#
#
# Indices 1 2 3 4 5 6 
#
# 1 63.4070 10.5707 7.1035 -10.9376 -7.7805 -21.4973
# 2 10.5707 96.3354 41.2824 -26.9614 -14.6662 6.8607
# 3 7.1035 41.2824 65.8398 -35.4126 3.0878 1.0956
# 4 -10.9376 -26.9614 -35.4126 54.2379 3.6559 -4.1336
# 5 -7.7805 -14.6662 3.0878 3.6559 33.2300 -5.9089
# 6 -21.4973 6.8607 1.0956 -4.1336 -5.9089 38.5574
#
#
#
# Elastic Compliance Matrix: (Units=1/GPa)
#
#
# Indices 1 2 3 4 5 6 
#
# 1 0.022411 -0.001307 0.000428 0.004788 0.006637 0.014246
# 2 -0.001307 0.016271 -0.010044 0.000607 0.007360 -0.002145
# 3 0.000428 -0.010044 0.030131 0.015459 -0.008564 0.001515
# 4 0.004788 0.000607 0.015459 0.030347 -0.002498 0.004993
# 5 0.006637 0.007360 -0.008564 -0.002498 0.037407 0.008099
# 6 0.014246 -0.002145 0.001515 0.004993 0.008099 0.035993
#
#
# Mechanical properties :
#
#
# Convention : Reuss Voigt Hill
#
# Bulk Modulus (GPa) = 21.29087 38.16615 29.72851
# Shear Modulus (GPa) = 23.80239 36.31343 30.05791
#
# Velocity S-wave (km/s) = 3.08016 3.80450 3.46133
# Velocity P-wave (km/s) = 4.59741 5.87466 5.27484
#
# Compressibility (1/GPa) = 0.04696850
#
# Stress axis : x y z
#
# Youngs Moduli (GPa) = 44.62041 61.45787 33.18789
#
# Poissons Ratio (x) = 0.08031 -0.01421
# Poissons Ratio (y) = 0.05831 0.33335
# Poissons Ratio (z) = -0.01911 0.61730
#
# Static dielectric constant tensor:
#      x y z
#    x 2.062360 -0.006730 0.042240 
#    y -0.006730 1.954870 0.037850 
#    z 0.042240 0.037850 2.029950 
# 
# From -- ./inp_files/267603.got.cif
#   From: 2010.05.17/outbox.cif.g08.bks.cpg/sg2_134_cif.got.tgz:267603.got - 2010.06.03 11:33:40.
