data_PCOD9084125
_publ_section_title
;
Structure prediction by ZEFSAII (Michael W. Deem and Ramdas Pophale) SiO2 
 PCOD9084125
Probable space group: P -1
;
_chemical_formula_sum "Si O2"
_cell_formula_units_Z 16
_cell_length_a 11.911964
_cell_length_b 8.686652
_cell_length_c 9.294716
_cell_angle_alpha 85.099063
_cell_angle_beta 60.516179
_cell_angle_gamma 88.920364
_cell_volume 833.857441
_symmetry_space_group_name_H-M "P -1"
_symmetry_group_IT_number 2
_symmetry_cell_setting 'triclinic'
loop_
_space_group_symop_operation_xyz
x,y,z
-x,-y,-z
loop_
_atom_site_type_symbol
_atom_site_label
_atom_site_fract_x
_atom_site_fract_y
_atom_site_fract_z
Si Si1 0.381140 0.577541 0.141468
Si Si2 0.382832 0.919705 0.992230
Si Si3 0.866296 0.598655 0.716763
Si Si4 0.608281 0.560741 0.535513
Si Si5 0.884339 0.957292 0.751913
Si Si6 0.864841 0.463646 0.403398
Si Si7 0.438649 0.083075 0.396708
Si Si8 0.835999 0.096647 0.469147
O O1 0.262617 0.486527 0.150092
O O2 0.390715 0.540226 0.309052
O O3 0.500000 0.500000 0.000000
O O4 0.368127 0.754315 0.092838
O O5 0.449733 0.914313 0.795006
O O6 0.500000 0.000000 0.000000
O O7 0.241885 0.998700 0.078031
O O8 0.861247 0.781644 0.724605
O O9 0.873112 0.548992 0.547765
O O10 0.986706 0.536050 0.734055
O O11 0.500000 0.500000 0.500000
O O12 0.752160 0.543673 0.382719
O O13 0.589878 0.738197 0.571693
O O14 0.037888 0.960069 0.697068
O O15 0.875250 0.069066 0.611795
O O16 0.826870 0.281031 0.445135
O O17 0.500000 0.000000 0.500000
O O18 0.301278 0.993494 0.457644
#
# Coordination Sequence:
#
# PCOD9084125 Si02
#       8
#     2   2   2   2   2   2   2   2
#     4  11  21  38  60  89 120 154 196 252 299 354
#     4  12  24  38  62  94 124 159 205 253 305 357
#     4   9  18  32  55  87 118 150 198 250 294 347
#     4  11  23  39  62  87 119 160 201 247 305 362
#     4  10  19  34  60  91 120 156 202 251 301 357
#     4   9  18  33  56  84 117 155 199 244 293 354
#     4  12  26  42  60  90 126 164 202 252 307 371
#     4  10  19  36  59  88 122 159 200 249 302 360
#
# _framework density 19.187933999999998
#
# number of rings (size 3 to 8) (size 9 to 14) (size 15 to 20)
#    0.000    1.500    2.500    4.500    1.750    3.000 
#    0.000    0.625    0.000    0.750    0.000    0.000 
#    0.000    0.000    0.000    0.000    0.000    0.000 
#
# Total GULP energy -89079.640276 kJ/mol
# GULP energy per Si atom -5567.477517 kJ/mol
# Density = 1.914426 g / cm^3
# Si number density = 19.187934 Si / 1000 Ang^3
#
#
#
# Elastic Constant Matrix: (Units=GPa)
#
#
# Indices 1 2 3 4 5 6 
#
# 1 133.5489 44.0076 53.8452 10.9792 -35.2782 -11.2274
# 2 44.0076 91.5517 51.2414 12.3458 -19.9330 -10.4507
# 3 53.8452 51.2414 70.5653 1.1431 -24.2795 -12.1258
# 4 10.9792 12.3458 1.1431 26.3743 -9.9256 -10.3420
# 5 -35.2782 -19.9330 -24.2795 -9.9256 41.7794 0.3372
# 6 -11.2274 -10.4507 -12.1258 -10.3420 0.3372 34.9247
#
#
#
# Elastic Compliance Matrix: (Units=1/GPa)
#
#
# Indices 1 2 3 4 5 6 
#
# 1 0.012084 -0.000364 -0.006928 -0.002248 0.005465 0.000652
# 2 -0.000364 0.020501 -0.015573 -0.010517 -0.002054 -0.002484
# 3 -0.006928 -0.015573 0.036438 0.017305 0.011920 0.010773
# 4 -0.002248 -0.010517 0.017305 0.056548 0.016424 0.018725
# 5 0.005465 -0.002054 0.011920 0.016424 0.038320 0.009774
# 6 0.000652 -0.002484 0.010773 0.018725 0.009774 0.037291
#
#
# Mechanical properties :
#
#
# Convention : Reuss Voigt Hill
#
# Bulk Modulus (GPa) = 42.92824 65.98381 54.45603
# Shear Modulus (GPa) = 19.63280 30.38712 25.00996
#
# Velocity S-wave (km/s) = 3.20220 3.98384 3.61421
# Velocity P-wave (km/s) = 6.00776 7.45816 6.77190
#
# Compressibility (1/GPa) = 0.02329469
#
# Stress axis : x y z
#
# Youngs Moduli (GPa) = 82.75221 48.77779 27.44370
#
# Poissons Ratio (x) = 0.01774 0.19013
# Poissons Ratio (y) = 0.03010 0.42737
# Poissons Ratio (z) = 0.57331 0.75960
#
# Static dielectric constant tensor:
#      x y z
#    x 1.695180 0.000940 -0.060180 
#    y 0.000940 1.682990 0.006020 
#    z -0.060180 0.006020 1.766140 
# 
# From -- ./inp_files/238225.got.cif
#   From: 2010.05.17/outbox.cif.g08.bks.cpg/sg2_120_cif.got.tgz:238225.got - 2010.06.03 11:33:40.
