data_PCOD9084967
_publ_section_title
;
Structure prediction by ZEFSAII (Michael W. Deem and Ramdas Pophale) SiO2 
 PCOD9084967
Probable space group: P -1
;
_chemical_formula_sum "Si O2"
_cell_formula_units_Z 12
_cell_length_a 10.365215
_cell_length_b 12.300612
_cell_length_c 9.940141
_cell_angle_alpha 126.891004
_cell_angle_beta 100.162698
_cell_angle_gamma 38.509331
_cell_volume 510.037819
_symmetry_space_group_name_H-M "P -1"
_symmetry_group_IT_number 2
_symmetry_cell_setting 'triclinic'
loop_
_space_group_symop_operation_xyz
x,y,z
-x,-y,-z
loop_
_atom_site_type_symbol
_atom_site_label
_atom_site_fract_x
_atom_site_fract_y
_atom_site_fract_z
Si Si1 0.680983 0.540091 0.145832
Si Si2 0.074902 0.865058 0.619920
Si Si3 0.357994 0.247640 0.465802
Si Si4 0.181470 0.134219 0.245149
Si Si5 0.264498 0.967126 0.846730
Si Si6 0.375279 0.566875 0.195878
O O1 0.563411 0.763351 0.382000
O O2 0.611951 0.461335 0.156157
O O3 0.584069 0.594871 0.017999
O O4 0.986069 0.281636 0.996907
O O5 0.946223 0.866029 0.686473
O O6 0.267054 0.633912 0.372107
O O7 0.851909 0.143908 0.704765
O O8 0.220844 0.846892 0.721630
O O9 0.349405 0.094709 0.326456
O O10 0.069186 0.560207 0.627474
O O11 0.531497 0.158225 0.314460
O O12 0.313593 0.957940 0.004196
#
# Coordination Sequence:
#
# PCOD9084967 Si02
#       6
#     2   2   2   2   2   2
#     4   9  18  35  59  76 104 143 178 215 265 312
#     4  10  19  35  58  82 105 140 178 221 263 311
#     4  10  20  38  56  77 110 144 171 219 270 316
#     4  10  22  36  54  81 111 138 177 218 267 318
#     4  10  19  35  59  79 105 141 177 220 268 309
#     4   9  18  35  58  78 108 139 177 222 264 304
#
# _framework density 23.527667000000001
#
# number of rings (size 3 to 8) (size 9 to 14) (size 15 to 20)
#    0.000    2.333    1.667    1.000    0.000    0.667 
#    9.000    1.667    0.000    0.000    0.000    0.000 
#    0.000    0.000    0.000    0.000    0.000    0.000 
#
# Total GULP energy -67116.402020 kJ/mol
# GULP energy per Si atom -5593.033502 kJ/mol
# Density = 2.347412 g / cm^3
# Si number density = 23.527667 Si / 1000 Ang^3
#
#
#
# Elastic Constant Matrix: (Units=GPa)
#
#
# Indices 1 2 3 4 5 6 
#
# 1 153.9881 3.0538 97.8839 -22.2372 37.2225 -2.4504
# 2 3.0538 46.6644 21.2142 -9.0077 7.5686 -1.1532
# 3 97.8839 21.2142 246.4161 -27.0314 22.5899 -5.3134
# 4 -22.2372 -9.0077 -27.0314 31.5462 -11.6103 -1.9146
# 5 37.2225 7.5686 22.5899 -11.6103 34.9744 2.9337
# 6 -2.4504 -1.1532 -5.3134 -1.9146 2.9337 23.7637
#
#
#
# Elastic Compliance Matrix: (Units=1/GPa)
#
#
# Indices 1 2 3 4 5 6 
#
# 1 0.011507 0.003003 -0.003621 0.002322 -0.009950 0.001938
# 2 0.003003 0.024169 -0.002147 0.005297 -0.005457 0.002103
# 3 -0.003621 -0.002147 0.005843 0.002355 0.001253 0.000864
# 4 0.002322 0.005297 0.002355 0.039955 0.007850 0.003273
# 5 -0.009950 -0.005457 0.001253 0.007850 0.042632 -0.005641
# 6 0.001938 0.002103 0.000864 0.003273 -0.005641 0.043536
#
#
# Mechanical properties :
#
#
# Convention : Reuss Voigt Hill
#
# Bulk Modulus (GPa) = 27.78542 76.81917 52.30229
# Shear Modulus (GPa) = 27.00225 39.71797 33.36011
#
# Velocity S-wave (km/s) = 3.39142 4.11315 3.76960
# Velocity P-wave (km/s) = 5.21258 7.43497 6.42066
#
# Compressibility (1/GPa) = 0.03599010
#
# Stress axis : x y z
#
# Youngs Moduli (GPa) = 86.90015 41.37576 171.13127
#
# Poissons Ratio (x) = -0.12425 0.61966
# Poissons Ratio (y) = -0.26096 0.36739
# Poissons Ratio (z) = 0.31466 0.08883
#
# Static dielectric constant tensor:
#      x y z
#    x 1.846300 -0.011480 0.066710 
#    y -0.011480 1.983200 0.027230 
#    z 0.066710 0.027230 1.895250 
# 
# From -- ./inp_files/182475.got.cif
#   From: 2010.05.17/outbox.cif.g08.bks.cpg/sg2_92_cif.got.tgz:182475.got - 2010.06.03 11:33:40.
