data_PCOD9084098
_publ_section_title
;
Structure prediction by ZEFSAII (Michael W. Deem and Ramdas Pophale) SiO2 
 PCOD9084098
Probable space group: P -1
;
_chemical_formula_sum "Si O2"
_cell_formula_units_Z 16
_cell_length_a 14.929721
_cell_length_b 12.581289
_cell_length_c 8.531088
_cell_angle_alpha 85.981725
_cell_angle_beta 69.525275
_cell_angle_gamma 28.054891
_cell_volume 593.540393
_symmetry_space_group_name_H-M "P -1"
_symmetry_group_IT_number 2
_symmetry_cell_setting 'triclinic'
loop_
_space_group_symop_operation_xyz
x,y,z
-x,-y,-z
loop_
_atom_site_type_symbol
_atom_site_label
_atom_site_fract_x
_atom_site_fract_y
_atom_site_fract_z
Si Si1 0.136542 0.943474 0.629948
Si Si2 0.795264 0.454886 0.080902
Si Si3 0.044788 0.688061 0.681305
Si Si4 0.631228 0.395777 0.192647
Si Si5 0.358784 0.250087 0.124029
Si Si6 0.367758 0.467867 0.252184
Si Si7 0.267494 0.018131 0.461982
Si Si8 0.255505 0.261788 0.526068
O O1 0.367133 0.687231 0.402246
O O2 0.182521 0.820423 0.759238
O O3 0.187124 0.014295 0.638997
O O4 0.875640 0.217659 0.683725
O O5 0.984284 0.248408 0.127793
O O6 0.728464 0.405879 0.059315
O O7 0.550503 0.734511 0.297726
O O8 0.803685 0.542521 0.943993
O O9 0.270422 0.519182 0.474781
O O10 0.083520 0.520953 0.689153
O O11 0.842538 0.903397 0.647490
O O12 0.574869 0.345363 0.139856
O O13 0.440666 0.288000 0.125805
O O14 0.293373 0.274355 0.332560
O O15 0.500000 0.000000 0.000000
O O16 0.168989 0.232347 0.548113
O O17 0.500000 0.000000 0.500000
#
# Coordination Sequence:
#
# PCOD9084098 Si02
#       8
#     2   2   2   2   2   2   2   2
#     4   9  19  35  60  98 123 147 203 265 302 358
#     4  11  22  40  59  87 128 163 198 246 312 365
#     4  10  20  35  59  90 118 156 204 255 301 354
#     4  10  20  35  64  90 125 158 201 254 311 364
#     4  11  23  41  63  86 130 167 203 253 305 368
#     4  10  21  37  63  93 121 161 209 254 302 355
#     4  10  19  34  60  88 121 153 203 246 305 360
#     4  11  20  36  65  86 115 159 203 257 304 353
#
# _framework density 26.956883999999999
#
# number of rings (size 3 to 8) (size 9 to 14) (size 15 to 20)
#    0.000    1.750    2.500    3.000    1.750    2.500 
#    0.000    2.500    2.750    0.000    0.000    0.000 
#    0.000    0.000    0.000    0.000    0.000    0.000 
#
# Total GULP energy -89336.954717 kJ/mol
# GULP energy per Si atom -5583.559670 kJ/mol
# Density = 2.689553 g / cm^3
# Si number density = 26.956884 Si / 1000 Ang^3
#
#
#
# Elastic Constant Matrix: (Units=GPa)
#
#
# Indices 1 2 3 4 5 6 
#
# 1 135.9709 69.7819 44.4888 -15.7395 13.7166 30.9859
# 2 69.7819 181.4182 51.7154 -13.1860 -0.3122 15.1616
# 3 44.4888 51.7154 90.2814 -22.2711 0.9538 6.3086
# 4 -15.7395 -13.1860 -22.2711 51.2657 14.4859 0.9921
# 5 13.7166 -0.3122 0.9538 14.4859 38.7065 -4.0604
# 6 30.9859 15.1616 6.3086 0.9921 -4.0604 59.8318
#
#
#
# Elastic Compliance Matrix: (Units=1/GPa)
#
#
# Indices 1 2 3 4 5 6 
#
# 1 0.012276 -0.003172 -0.002884 0.003576 -0.006244 -0.005733
# 2 -0.003172 0.007507 -0.002956 -0.000773 0.001564 0.000171
# 3 -0.002884 -0.002956 0.015530 0.005486 -0.001394 0.000420
# 4 0.003576 -0.000773 0.005486 0.026118 -0.011545 -0.003451
# 5 -0.006244 0.001564 -0.001394 -0.011545 0.032984 0.005414
# 6 -0.005733 0.000171 0.000420 -0.003451 0.005414 0.020020
#
#
# Mechanical properties :
#
#
# Convention : Reuss Voigt Hill
#
# Bulk Modulus (GPa) = 57.83942 82.18254 70.01098
# Shear Modulus (GPa) = 36.17374 46.07309 41.12341
#
# Velocity S-wave (km/s) = 3.66718 4.13866 3.91003
# Velocity P-wave (km/s) = 6.27964 7.30690 6.81266
#
# Compressibility (1/GPa) = 0.01728925
#
# Stress axis : x y z
#
# Youngs Moduli (GPa) = 81.45885 133.20753 64.39152
#
# Poissons Ratio (x) = 0.42248 0.18571
# Poissons Ratio (y) = 0.25835 0.19037
# Poissons Ratio (z) = 0.23493 0.39381
#
# Static dielectric constant tensor:
#      x y z
#    x 2.266850 -0.013450 0.010770 
#    y -0.013450 2.115990 0.094020 
#    z 0.010770 0.094020 2.156600 
# 
# From -- ./inp_files/307510.got.cif
#   From: 2010.05.17/outbox.cif.g08.bks.cpg/sg2_154_cif.got.tgz:307510.got - 2010.06.03 11:33:40.
