data_PCOD9084519
_publ_section_title
;
Structure prediction by ZEFSAII (Michael W. Deem and Ramdas Pophale) SiO2 
 PCOD9084519
Probable space group: P -1
;
_chemical_formula_sum "Si O2"
_cell_formula_units_Z 12
_cell_length_a 9.266373
_cell_length_b 5.243288
_cell_length_c 17.948384
_cell_angle_alpha 77.381753
_cell_angle_beta 35.996966
_cell_angle_gamma 84.083340
_cell_volume 496.016831
_symmetry_space_group_name_H-M "P -1"
_symmetry_group_IT_number 2
_symmetry_cell_setting 'triclinic'
loop_
_space_group_symop_operation_xyz
x,y,z
-x,-y,-z
loop_
_atom_site_type_symbol
_atom_site_label
_atom_site_fract_x
_atom_site_fract_y
_atom_site_fract_z
Si Si1 0.862233 0.569112 0.803379
Si Si2 0.450134 0.165870 0.732696
Si Si3 0.626366 0.675941 0.043292
Si Si4 0.742364 0.699360 0.623991
Si Si5 0.105104 0.793846 0.054935
Si Si6 0.195793 0.853661 0.529840
O O1 0.716178 0.723334 0.915996
O O2 0.939014 0.331704 0.835736
O O3 0.087569 0.748840 0.659516
O O4 0.657196 0.448433 0.837248
O O5 0.577760 0.422266 0.704987
O O6 0.157983 0.132357 0.864516
O O7 0.537772 0.206051 0.606414
O O8 0.581419 0.911505 0.713842
O O9 0.792120 0.450034 0.013767
O O10 0.305120 0.050866 0.961368
O O11 0.998455 0.716743 0.559811
O O12 0.199893 0.164554 0.490380
#
# Coordination Sequence:
#
# PCOD9084519 Si02
#       6
#     2   2   2   2   2   2
#     4   9  20  34  56  79 103 135 175 212 253 306
#     4  10  19  35  54  76 106 137 167 212 263 304
#     4   9  20  36  51  79 103 140 171 205 260 301
#     4   9  20  36  51  79 103 140 171 205 260 301
#     4  10  19  35  54  76 106 137 167 212 263 304
#     4   9  20  34  56  79 103 135 175 212 253 306
#
# _framework density 24.192729
#
# number of rings (size 3 to 8) (size 9 to 14) (size 15 to 20)
#    2.000    0.667    0.000    2.000    0.000    2.000 
#    0.000    1.667    0.000    6.000    0.000    0.000 
#    0.000    0.000    0.000    0.000    0.000    0.000 
#
# Total GULP energy -66980.554161 kJ/mol
# GULP energy per Si atom -5581.712847 kJ/mol
# Density = 2.413767 g / cm^3
# Si number density = 24.192729 Si / 1000 Ang^3
#
#
#
# Elastic Constant Matrix: (Units=GPa)
#
#
# Indices 1 2 3 4 5 6 
#
# 1 43.9924 10.9018 24.3621 1.4676 2.7629 -5.4708
# 2 10.9018 135.8223 23.4103 -1.7096 0.4868 -2.6854
# 3 24.3621 23.4103 117.8894 -10.7365 12.5467 -16.2788
# 4 1.4676 -1.7096 -10.7365 34.9350 -13.4890 1.3708
# 5 2.7629 0.4868 12.5467 -13.4890 41.5056 -1.3190
# 6 -5.4708 -2.6854 -16.2788 1.3708 -1.3190 15.8660
#
#
#
# Elastic Compliance Matrix: (Units=1/GPa)
#
#
# Indices 1 2 3 4 5 6 
#
# 1 0.026403 -0.001246 -0.004805 -0.003283 -0.001226 0.004145
# 2 -0.001246 0.007690 -0.001371 0.000204 0.000457 -0.000514
# 3 -0.004805 -0.001371 0.011508 0.002517 -0.002022 0.009534
# 4 -0.003283 0.000204 0.002517 0.033562 0.010345 -0.000555
# 5 -0.001226 0.000457 -0.002022 0.010345 0.028112 -0.000977
# 6 0.004145 -0.000514 0.009534 -0.000555 -0.000977 0.074119
#
#
# Mechanical properties :
#
#
# Convention : Reuss Voigt Hill
#
# Bulk Modulus (GPa) = 32.51195 46.11695 39.31445
# Shear Modulus (GPa) = 24.21438 34.39663 29.30550
#
# Velocity S-wave (km/s) = 3.16712 3.77473 3.48420
# Velocity P-wave (km/s) = 5.18094 6.17267 5.69842
#
# Compressibility (1/GPa) = 0.03075792
#
# Stress axis : x y z
#
# Youngs Moduli (GPa) = 37.87476 130.04640 86.89230
#
# Poissons Ratio (x) = 0.16204 0.41751
# Poissons Ratio (y) = 0.04719 0.11909
# Poissons Ratio (z) = 0.18199 0.17823
#
# Static dielectric constant tensor:
#      x y z
#    x 1.999010 -0.023990 0.115580 
#    y -0.023990 1.897590 0.021660 
#    z 0.115580 0.021660 1.955700 
# 
# From -- ./inp_files/585246.got.cif
#   From: 2010.05.17/outbox.cif.g08.bks.cpg/sg2_293_cif.got.tgz:585246.got - 2010.06.03 11:33:40.
