data_PCOD9084537
_publ_section_title
;
Structure prediction by ZEFSAII (Michael W. Deem and Ramdas Pophale) SiO2 
 PCOD9084537
Probable space group: P -1
;
_chemical_formula_sum "Si O2"
_cell_formula_units_Z 16
_cell_length_a 12.367439
_cell_length_b 22.641058
_cell_length_c 22.463988
_cell_angle_alpha 156.453921
_cell_angle_beta 156.484250
_cell_angle_gamma 17.688015
_cell_volume 712.649817
_symmetry_space_group_name_H-M "P -1"
_symmetry_group_IT_number 2
_symmetry_cell_setting 'triclinic'
loop_
_space_group_symop_operation_xyz
x,y,z
-x,-y,-z
loop_
_atom_site_type_symbol
_atom_site_label
_atom_site_fract_x
_atom_site_fract_y
_atom_site_fract_z
Si Si1 0.910157 0.806509 0.598304
Si Si2 0.814380 0.439729 0.384860
Si Si3 0.831619 0.778085 0.927518
Si Si4 0.161194 0.027055 0.742207
Si Si5 0.370352 0.819899 0.271541
Si Si6 0.062392 0.643178 0.146109
Si Si7 0.079653 0.789838 0.407017
Si Si8 0.302717 0.484542 0.332421
O O1 0.766960 0.713099 0.405105
O O2 0.902422 0.775706 0.635840
O O3 0.336999 0.691643 0.690299
O O4 0.670673 0.034769 0.663257
O O5 0.519571 0.479979 0.228010
O O6 0.528283 0.610871 0.449604
O O7 0.000000 0.500000 0.500000
O O8 0.880452 0.597614 0.814058
O O9 0.608616 0.838923 0.808980
O O10 0.212567 0.730343 0.078993
O O11 0.500000 0.000000 0.000000
O O12 0.923217 0.060327 0.709784
O O13 0.082535 0.225515 0.865951
O O14 0.008388 0.981310 0.570053
O O15 0.894350 0.801576 0.263830
O O16 0.000000 0.500000 0.000000
O O17 0.040668 0.691882 0.351933
O O18 0.500000 0.500000 0.500000
#
# Coordination Sequence:
#
# PCOD9084537 Si02
#       8
#     2   2   2   2   2   2   2   2
#     4  10  19  35  54  80 111 142 183 221 277 338
#     4   9  20  36  54  74 107 149 182 220 269 329
#     4  10  20  31  57  84 112 139 180 227 269 326
#     4  11  19  36  57  83 112 143 184 227 274 325
#     4  10  21  32  57  86 109 141 182 230 275 326
#     4  10  23  33  57  84 103 143 189 230 264 318
#     4   9  21  34  58  79 110 143 182 224 274 326
#     4  11  18  36  58  83 110 142 179 223 285 328
#
# _framework density 22.451419000000001
#
# number of rings (size 3 to 8) (size 9 to 14) (size 15 to 20)
#    0.750    1.250    3.750    1.125    5.250    0.000 
#    0.000    0.625    0.000    3.750    0.000    0.000 
#    0.000    0.000    0.000    0.000    0.000    0.000 
#
# Total GULP energy -89118.879562 kJ/mol
# GULP energy per Si atom -5569.929973 kJ/mol
# Density = 2.240032 g / cm^3
# Si number density = 22.451419 Si / 1000 Ang^3
#
#
#
# Elastic Constant Matrix: (Units=GPa)
#
#
# Indices 1 2 3 4 5 6 
#
# 1 64.8981 20.1818 30.7601 10.9933 21.7522 25.5662
# 2 20.1818 59.5588 25.7878 7.2017 27.2445 29.9492
# 3 30.7601 25.7878 136.8210 -2.0872 42.8129 8.7746
# 4 10.9933 7.2017 -2.0872 34.7541 1.0277 10.9676
# 5 21.7522 27.2445 42.8129 1.0277 45.1631 12.8985
# 6 25.5662 29.9492 8.7746 10.9676 12.8985 38.1767
#
#
#
# Elastic Compliance Matrix: (Units=1/GPa)
#
#
# Indices 1 2 3 4 5 6 
#
# 1 0.024861 0.004845 -0.003319 -0.003734 -0.007027 -0.016240
# 2 0.004845 0.035636 -0.001430 -0.000470 -0.015148 -0.025619
# 3 -0.003319 -0.001430 0.010903 0.001155 -0.008905 0.003515
# 4 -0.003734 -0.000470 0.001155 0.032424 0.002397 -0.007521
# 5 -0.007027 -0.015148 -0.008905 0.002397 0.041976 0.003765
# 6 -0.016240 -0.025619 0.003515 -0.007521 0.003765 0.057248
#
#
# Mechanical properties :
#
#
# Convention : Reuss Voigt Hill
#
# Bulk Modulus (GPa) = 13.96799 46.08193 30.02496
# Shear Modulus (GPa) = 22.05361 35.92199 28.98780
#
# Velocity S-wave (km/s) = 3.13754 4.00432 3.59713
# Velocity P-wave (km/s) = 4.40005 6.47682 5.53668
#
# Compressibility (1/GPa) = 0.07159227
#
# Stress axis : x y z
#
# Youngs Moduli (GPa) = 40.22416 28.06125 91.71704
#
# Poissons Ratio (x) = -0.13596 0.30440
# Poissons Ratio (y) = -0.19489 0.13117
# Poissons Ratio (z) = 0.13350 0.04013
#
# Static dielectric constant tensor:
#      x y z
#    x 1.891200 0.000290 -0.062100 
#    y 0.000290 1.926050 -0.003060 
#    z -0.062100 -0.003060 1.848470 
# 
# From -- ./inp_files/619923.got.cif
#   From: 2010.05.17/outbox.cif.g08.bks.cpg/sg2_310_cif.got.tgz:619923.got - 2010.06.03 11:33:40.
