data_PCOD9084413
_publ_section_title
;
Structure prediction by ZEFSAII (Michael W. Deem and Ramdas Pophale) SiO2 
 PCOD9084413
Probable space group: P -1
;
_chemical_formula_sum "Si O2"
_cell_formula_units_Z 16
_cell_length_a 11.490907
_cell_length_b 16.236366
_cell_length_c 7.828174
_cell_angle_alpha 73.791445
_cell_angle_beta 37.303329
_cell_angle_gamma 52.241953
_cell_volume 630.444589
_symmetry_space_group_name_H-M "P -1"
_symmetry_group_IT_number 2
_symmetry_cell_setting 'triclinic'
loop_
_space_group_symop_operation_xyz
x,y,z
-x,-y,-z
loop_
_atom_site_type_symbol
_atom_site_label
_atom_site_fract_x
_atom_site_fract_y
_atom_site_fract_z
Si Si1 0.075246 0.411608 0.318017
Si Si2 0.744490 0.813811 0.740985
Si Si3 0.160293 0.651718 0.576381
Si Si4 0.860054 0.443602 0.012076
Si Si5 0.366816 0.976302 0.812527
Si Si6 0.205757 0.791290 0.639091
Si Si7 0.228078 0.682437 0.011177
Si Si8 0.468627 0.247219 0.424585
O O1 0.290672 0.278013 0.197806
O O2 0.154603 0.449949 0.048469
O O3 0.000000 0.500000 0.500000
O O4 0.842794 0.416838 0.532342
O O5 0.515682 0.932724 0.847413
O O6 0.858978 0.776116 0.822662
O O7 0.997601 0.765480 0.364362
O O8 0.291007 0.703635 0.434940
O O9 0.229080 0.568348 0.699465
O O10 0.726537 0.430964 0.020717
O O11 0.163805 0.331252 0.717906
O O12 0.403163 0.871061 0.750455
O O13 0.500000 0.000000 0.500000
O O14 0.419768 0.782639 0.493781
O O15 0.133156 0.744825 0.900642
O O16 0.936703 0.920189 0.854780
O O17 0.451375 0.683904 0.786405
#
# Coordination Sequence:
#
# PCOD9084413 Si02
#       8
#     2   2   2   2   2   2   2   2
#     4  10  19  34  65  87 113 159 200 241 289 350
#     4  10  20  35  59  90 118 150 202 245 285 344
#     4   9  21  36  58  89 122 152 192 246 293 356
#     4  11  17  39  63  83 120 162 189 236 303 345
#     4  12  18  35  64  88 111 162 201 239 293 344
#     4   9  20  34  55  83 120 151 190 247 283 340
#     4   9  18  36  58  85 120 147 197 248 271 344
#     4  10  21  35  62  93 114 150 211 235 284 358
#
# _framework density 25.378914000000002
#
# number of rings (size 3 to 8) (size 9 to 14) (size 15 to 20)
#    1.500    0.500    3.750    1.500    0.000    0.500 
#    0.000    2.500    0.000    2.250    0.000    0.000 
#    0.000    0.000    0.000    0.000    0.000    0.000 
#
# Total GULP energy -89116.467028 kJ/mol
# GULP energy per Si atom -5569.779189 kJ/mol
# Density = 2.532115 g / cm^3
# Si number density = 25.378914 Si / 1000 Ang^3
#
#
#
# Elastic Constant Matrix: (Units=GPa)
#
#
# Indices 1 2 3 4 5 6 
#
# 1 144.1633 35.7541 31.7976 -4.5461 -5.8596 16.7010
# 2 35.7541 92.4895 13.4176 1.1335 -1.7895 1.2107
# 3 31.7976 13.4176 62.8700 4.5413 -17.0603 0.1790
# 4 -4.5461 1.1335 4.5413 28.6931 -0.2782 10.7876
# 5 -5.8596 -1.7895 -17.0603 -0.2782 33.7578 -10.1978
# 6 16.7010 1.2107 0.1790 10.7876 -10.1978 52.1674
#
#
#
# Elastic Compliance Matrix: (Units=1/GPa)
#
#
# Indices 1 2 3 4 5 6 
#
# 1 0.009255 -0.002898 -0.004945 0.003893 -0.002260 -0.004125
# 2 -0.002898 0.012088 -0.001083 -0.001084 -0.000164 0.000843
# 3 -0.004945 -0.001083 0.022272 -0.006068 0.011830 0.005099
# 4 0.003893 -0.001084 -0.006068 0.040403 -0.005316 -0.010594
# 5 -0.002260 -0.000164 0.011830 -0.005316 0.037937 0.009202
# 6 -0.004125 0.000843 0.005099 -0.010594 0.009202 0.024442
#
#
# Mechanical properties :
#
#
# Convention : Reuss Voigt Hill
#
# Bulk Modulus (GPa) = 38.81410 51.27349 45.04380
# Shear Modulus (GPa) = 28.92907 37.49388 33.21147
#
# Velocity S-wave (km/s) = 3.37988 3.84782 3.62142
# Velocity P-wave (km/s) = 5.52798 6.32361 5.93913
#
# Compressibility (1/GPa) = 0.02576383
#
# Stress axis : x y z
#
# Youngs Moduli (GPa) = 108.05239 82.72402 44.89910
#
# Poissons Ratio (x) = 0.23971 0.22203
# Poissons Ratio (y) = 0.31310 0.04862
# Poissons Ratio (z) = 0.53434 0.08958
#
# Static dielectric constant tensor:
#      x y z
#    x 2.113920 -0.023400 0.067630 
#    y -0.023400 2.051660 -0.010520 
#    z 0.067630 -0.010520 2.094640 
# 
# From -- ./inp_files/267307.got.cif
#   From: 2010.05.17/outbox.cif.g08.bks.cpg/sg2_134_cif.got.tgz:267307.got - 2010.06.03 11:33:40.
