data_PCOD9084294
_publ_section_title
;
Structure prediction by ZEFSAII (Michael W. Deem and Ramdas Pophale) SiO2 
 PCOD9084294
Probable space group: P -1
;
_chemical_formula_sum "Si O2"
_cell_formula_units_Z 14
_cell_length_a 9.154524
_cell_length_b 11.351727
_cell_length_c 6.749604
_cell_angle_alpha 118.389234
_cell_angle_beta 58.542586
_cell_angle_gamma 102.076794
_cell_volume 525.664209
_symmetry_space_group_name_H-M "P -1"
_symmetry_group_IT_number 2
_symmetry_cell_setting 'triclinic'
loop_
_space_group_symop_operation_xyz
x,y,z
-x,-y,-z
loop_
_atom_site_type_symbol
_atom_site_label
_atom_site_fract_x
_atom_site_fract_y
_atom_site_fract_z
Si Si1 0.384577 0.372487 0.735410
Si Si2 0.988821 0.047392 0.278298
Si Si3 0.476907 0.347943 0.180616
Si Si4 0.093368 0.335102 0.428655
Si Si5 0.248128 0.825318 0.011525
Si Si6 0.991442 0.392494 0.122449
Si Si7 0.617038 0.123632 0.480991
O O1 0.435078 0.358234 0.455930
O O2 0.424127 0.526470 0.868535
O O3 0.506329 0.265332 0.683881
O O4 0.184444 0.347178 0.888482
O O5 0.788974 0.093604 0.463119
O O6 0.087935 0.180618 0.361639
O O7 0.000000 0.000000 0.000000
O O8 0.085041 0.928043 0.237175
O O9 0.285383 0.359002 0.242107
O O10 0.592650 0.210122 0.985007
O O11 0.972731 0.354937 0.338811
O O12 0.036042 0.446376 0.720418
O O13 0.325452 0.875117 0.789998
O O14 0.160012 0.683437 0.931782
O O15 0.500000 0.000000 0.500000
#
# Coordination Sequence:
#
# PCOD9084294 Si02
#       7
#     2   2   2   2   2   2   2
#     4  10  22  40  66  92 131 173 207 252 329 385
#     4  10  20  39  62  88 123 173 205 256 317 375
#     4  10  23  41  62  96 133 162 210 266 315 376
#     4  11  23  38  63  99 130 157 214 277 304 364
#     4  10  21  41  65  88 126 177 206 248 320 390
#     4  11  22  39  67  96 125 170 215 258 313 375
#     4  10  19  34  62  93 116 159 219 257 295 379
#
# _framework density 26.63297
#
# number of rings (size 3 to 8) (size 9 to 14) (size 15 to 20)
#    0.000    1.714    2.857    3.429    4.000    3.429 
#    0.000    0.000    0.000    6.857    0.000    0.000 
#    0.000    0.000    0.000    0.000    0.000    0.000 
#
# Total GULP energy -78403.960021 kJ/mol
# GULP energy per Si atom -5600.282859 kJ/mol
# Density = 2.657235 g / cm^3
# Si number density = 26.632970 Si / 1000 Ang^3
#
#
#
# Elastic Constant Matrix: (Units=GPa)
#
#
# Indices 1 2 3 4 5 6 
#
# 1 111.6726 26.0633 2.5302 8.5851 -35.4322 -42.2828
# 2 26.0633 146.5639 25.1081 6.8772 -13.1429 -1.8534
# 3 2.5302 25.1081 147.8843 12.8611 -34.1046 -4.3583
# 4 8.5851 6.8772 12.8611 52.5234 -3.4515 -11.0687
# 5 -35.4322 -13.1429 -34.1046 -3.4515 42.3196 -1.0924
# 6 -42.2828 -1.8534 -4.3583 -11.0687 -1.0924 57.8709
#
#
#
# Elastic Compliance Matrix: (Units=1/GPa)
#
#
# Indices 1 2 3 4 5 6 
#
# 1 0.024873 -0.003019 0.006535 0.000451 0.025685 0.019140
# 2 -0.003019 0.007493 -0.001597 -0.000675 -0.001600 -0.002245
# 3 0.006535 -0.001597 0.010262 -0.001342 0.013278 0.005490
# 4 0.000451 -0.000675 -0.001342 0.020304 0.000848 0.004106
# 5 0.025685 -0.001600 0.013278 0.000848 0.055947 0.020933
# 6 0.019140 -0.002245 0.005490 0.004106 0.020933 0.032786
#
#
# Mechanical properties :
#
#
# Convention : Reuss Voigt Hill
#
# Bulk Modulus (GPa) = 21.52070 57.05822 39.28946
# Shear Modulus (GPa) = 30.61579 54.03738 42.32659
#
# Velocity S-wave (km/s) = 3.39417 4.50929 3.99087
# Velocity P-wave (km/s) = 4.84340 6.97008 6.00169
#
# Compressibility (1/GPa) = 0.04646689
#
# Stress axis : x y z
#
# Youngs Moduli (GPa) = 40.20465 133.45573 97.44699
#
# Poissons Ratio (x) = 0.40284 -0.63682
# Poissons Ratio (y) = 0.12136 0.15563
# Poissons Ratio (z) = -0.26274 0.21314
#
# Static dielectric constant tensor:
#      x y z
#    x 2.088180 -0.028070 0.106640 
#    y -0.028070 1.975810 0.012600 
#    z 0.106640 0.012600 2.190420 
# 
# From -- ./inp_files/189673.got.cif
#   From: 2010.05.17/outbox.cif.g08.bks.cpg/sg2_95_cif.got.tgz:189673.got - 2010.06.03 11:33:40.
