data_PCOD9084955
_publ_section_title
;
Structure prediction by ZEFSAII (Michael W. Deem and Ramdas Pophale) SiO2 
 PCOD9084955
Probable space group: P -1
;
_chemical_formula_sum "Si O2"
_cell_formula_units_Z 16
_cell_length_a 15.403182
_cell_length_b 7.759339
_cell_length_c 9.155026
_cell_angle_alpha 71.837623
_cell_angle_beta 81.281679
_cell_angle_gamma 37.327448
_cell_volume 621.562952
_symmetry_space_group_name_H-M "P -1"
_symmetry_group_IT_number 2
_symmetry_cell_setting 'triclinic'
loop_
_space_group_symop_operation_xyz
x,y,z
-x,-y,-z
loop_
_atom_site_type_symbol
_atom_site_label
_atom_site_fract_x
_atom_site_fract_y
_atom_site_fract_z
Si Si1 0.152818 0.175176 0.101772
Si Si2 0.306681 0.465332 0.055922
Si Si3 0.845959 0.030505 0.243784
Si Si4 0.009908 0.104389 0.301677
Si Si5 0.588327 0.063281 0.990467
Si Si6 0.765438 0.530496 0.439799
Si Si7 0.164362 0.403959 0.308924
Si Si8 0.578458 0.519237 0.368929
O O1 0.198521 0.188077 0.243733
O O2 0.113638 0.037169 0.183510
O O3 0.276214 0.030222 0.997752
O O4 0.000000 0.500000 0.000000
O O5 0.233202 0.766485 0.934109
O O6 0.474183 0.243875 0.104745
O O7 0.210265 0.510425 0.179823
O O8 0.345516 0.244455 0.982136
O O9 0.918041 0.103024 0.248553
O O10 0.724943 0.186116 0.353925
O O11 0.990198 0.673390 0.300609
O O12 0.879697 0.434248 0.321783
O O13 0.125952 0.810771 0.449317
O O14 0.509325 0.275105 0.809206
O O15 0.754325 0.690637 0.533880
O O16 0.627804 0.634143 0.397918
O O17 0.500000 0.500000 0.500000
#
# Coordination Sequence:
#
# PCOD9084955 Si02
#       8
#     2   2   2   2   2   2   2   2
#     4  11  22  36  56  83 111 144 184 230 278 322
#     4   9  17  33  53  75 107 140 180 226 269 320
#     4   9  18  34  59  84 106 143 183 225 275 323
#     4   9  17  33  55  78 110 143 182 221 263 327
#     4   9  19  33  53  78 104 142 184 222 270 323
#     4   9  19  34  55  81 107 146 184 217 268 323
#     4  10  20  34  55  86 114 141 181 227 276 322
#     4  10  19  35  58  81 111 147 184 222 268 329
#
# _framework density 25.741561999999998
#
# number of rings (size 3 to 8) (size 9 to 14) (size 15 to 20)
#    0.000    2.500    0.000    3.375    0.000    2.500 
#    0.000    5.000    0.000    6.000    0.000    0.000 
#    0.000    0.000    0.000    0.000    0.000    0.000 
#
# Total GULP energy -89175.690891 kJ/mol
# GULP energy per Si atom -5573.480681 kJ/mol
# Density = 2.568297 g / cm^3
# Si number density = 25.741562 Si / 1000 Ang^3
#
#
#
# Elastic Constant Matrix: (Units=GPa)
#
#
# Indices 1 2 3 4 5 6 
#
# 1 119.4483 41.6371 34.3410 9.3848 -18.9505 -23.3360
# 2 41.6371 70.9688 23.5922 13.6705 -2.5830 -33.4702
# 3 34.3410 23.5922 63.2666 3.6179 -11.0610 -4.0953
# 4 9.3848 13.6705 3.6179 37.4755 -7.3911 -3.7459
# 5 -18.9505 -2.5830 -11.0610 -7.3911 39.2442 16.1606
# 6 -23.3360 -33.4702 -4.0953 -3.7459 16.1606 49.7794
#
#
#
# Elastic Compliance Matrix: (Units=1/GPa)
#
#
# Indices 1 2 3 4 5 6 
#
# 1 0.012135 -0.005750 -0.003673 0.000303 0.004465 0.000094
# 2 -0.005750 0.032618 -0.009538 -0.010150 -0.014444 0.022376
# 3 -0.003673 -0.009538 0.022013 0.002972 0.007936 -0.008677
# 4 0.000303 -0.010150 0.002972 0.031110 0.009075 -0.007043
# 5 0.004465 -0.014444 0.007936 0.009075 0.038346 -0.018732
# 6 0.000094 0.022376 -0.008677 -0.007043 -0.018732 0.040015
#
#
# Mechanical properties :
#
#
# Convention : Reuss Voigt Hill
#
# Bulk Modulus (GPa) = 34.67233 50.31382 42.49307
# Shear Modulus (GPa) = 22.34395 35.57405 28.95900
#
# Velocity S-wave (km/s) = 2.94940 3.72152 3.35773
# Velocity P-wave (km/s) = 5.00971 6.16883 5.61924
#
# Compressibility (1/GPa) = 0.02884144
#
# Stress axis : x y z
#
# Youngs Moduli (GPa) = 82.40569 30.65831 45.42833
#
# Poissons Ratio (x) = 0.17629 0.16688
# Poissons Ratio (y) = 0.47384 0.43332
# Poissons Ratio (z) = 0.30271 0.29243
#
# Static dielectric constant tensor:
#      x y z
#    x 2.041130 -0.013660 0.214780 
#    y -0.013660 2.167140 -0.111140 
#    z 0.214780 -0.111140 2.127530 
# 
# From -- ./inp_files/407536.got.cif
#   From: 2010.05.17/outbox.cif.g08.bks.cpg/sg2_204_cif.got.tgz:407536.got - 2010.06.03 11:33:40.
