data_PCOD9084005
_publ_section_title
;
Structure prediction by ZEFSAII (Michael W. Deem and Ramdas Pophale) SiO2 
 PCOD9084005
Probable space group: P -1
;
_chemical_formula_sum "Si O2"
_cell_formula_units_Z 16
_cell_length_a 5.408082
_cell_length_b 20.138209
_cell_length_c 7.683443
_cell_angle_alpha 87.022647
_cell_angle_beta 123.609719
_cell_angle_gamma 105.081295
_cell_volume 668.477817
_symmetry_space_group_name_H-M "P -1"
_symmetry_group_IT_number 2
_symmetry_cell_setting 'triclinic'
loop_
_space_group_symop_operation_xyz
x,y,z
-x,-y,-z
loop_
_atom_site_type_symbol
_atom_site_label
_atom_site_fract_x
_atom_site_fract_y
_atom_site_fract_z
Si Si1 0.051552 0.917780 0.378146
Si Si2 0.740759 0.790375 0.744853
Si Si3 0.299241 0.718046 0.279967
Si Si4 0.196287 0.239806 0.770401
Si Si5 0.787564 0.933955 0.656918
Si Si6 0.209756 0.577826 0.883854
Si Si7 0.147420 0.718499 0.706986
Si Si8 0.076451 0.424127 0.842205
O O1 0.416648 0.921072 0.537927
O O2 0.876299 0.842421 0.251050
O O3 0.890962 0.925058 0.499126
O O4 0.053571 0.985116 0.254963
O O5 0.520878 0.773724 0.485888
O O6 0.879607 0.872761 0.801917
O O7 0.497616 0.763386 0.806708
O O8 0.978002 0.749188 0.785787
O O9 0.458867 0.721475 0.155375
O O10 0.984053 0.738601 0.145816
O O11 0.198788 0.640120 0.325781
O O12 0.027088 0.266640 0.536552
O O13 0.141861 0.639065 0.737323
O O14 0.092363 0.500315 0.770007
O O15 0.582429 0.587637 0.049159
O O16 0.020762 0.575955 0.991452
#
# Coordination Sequence:
#
# PCOD9084005 Si02
#       8
#     2   2   2   2   2   2   2   2
#     4  10  16  25  41  65 102 133 154 180 219 278
#     4  10  17  30  45  74 104 123 149 187 235 289
#     4  10  18  30  49  68  96 126 149 191 242 278
#     4  10  17  30  45  74 104 123 149 187 235 289
#     4  10  16  25  41  65 102 133 154 180 219 278
#     4  10  21  37  53  69  90 120 162 204 236 273
#     4  10  18  30  49  68  96 126 149 191 242 278
#     4  10  21  37  53  69  90 120 162 204 236 273
#
# _framework density 23.934975999999999
#
# number of rings (size 3 to 8) (size 9 to 14) (size 15 to 20)
#    0.000    2.000    5.000    1.500    0.000    0.000 
#    0.000    5.000    0.000    0.000    0.000    0.000 
#    0.000   34.000    0.000    0.000    0.000    0.000 
#
# Total GULP energy -89311.266737 kJ/mol
# GULP energy per Si atom -5581.954171 kJ/mol
# Density = 2.388050 g / cm^3
# Si number density = 23.934976 Si / 1000 Ang^3
#
#
#
# Elastic Constant Matrix: (Units=GPa)
#
#
# Indices 1 2 3 4 5 6 
#
# 1 170.3780 31.7840 12.1383 -4.6483 3.8139 9.6822
# 2 31.7840 382.5423 67.9049 -131.0603 47.0909 11.8632
# 3 12.1383 67.9049 64.4867 -57.6594 22.4421 4.3563
# 4 -4.6483 -131.0603 -57.6594 130.7838 -31.2408 -0.6807
# 5 3.8139 47.0909 22.4421 -31.2408 40.9762 3.9185
# 6 9.6822 11.8632 4.3563 -0.6807 3.9185 38.4431
#
#
#
# Elastic Compliance Matrix: (Units=1/GPa)
#
#
# Indices 1 2 3 4 5 6 
#
# 1 0.006113 -0.000566 -0.001361 -0.000893 0.000266 -0.001254
# 2 -0.000566 0.004207 -0.000473 0.003573 -0.001717 -0.000864
# 3 -0.001361 -0.000473 0.027732 0.010108 -0.006639 -0.001798
# 4 -0.000893 0.003573 0.010108 0.016389 0.003132 -0.002052
# 5 0.000266 -0.001717 -0.006639 0.003132 0.032573 -0.002050
# 6 -0.001254 -0.000864 -0.001798 -0.002052 -0.002050 0.026971
#
#
# Mechanical properties :
#
#
# Convention : Reuss Voigt Hill
#
# Bulk Modulus (GPa) = 30.07437 93.45129 61.76283
# Shear Modulus (GPa) = 38.50039 75.74594 57.12316
#
# Velocity S-wave (km/s) = 4.01501 5.63163 4.89058
# Velocity P-wave (km/s) = 5.83833 9.02306 7.59940
#
# Compressibility (1/GPa) = 0.03325090
#
# Stress axis : x y z
#
# Youngs Moduli (GPa) = 163.59147 237.67979 36.05989
#
# Poissons Ratio (x) = 0.13456 0.04907
# Poissons Ratio (y) = 0.09262 0.01707
# Poissons Ratio (z) = 0.22262 0.11253
#
# Static dielectric constant tensor:
#      x y z
#    x 1.956920 0.026350 -0.049620 
#    y 0.026350 1.953440 -0.110670 
#    z -0.049620 -0.110670 2.212310 
# 
# From -- ./inp_files/104056.got.cif
#   From: 2010.05.17/outbox.cif.g08.bks.cpg/sg2_53_cif.got.tgz:104056.got - 2010.06.03 11:33:40.
