data_PCOD9084051
_publ_section_title
;
Structure prediction by ZEFSAII (Michael W. Deem and Ramdas Pophale) SiO2 
 PCOD9084051
Probable space group: P -1
;
_chemical_formula_sum "Si O2"
_cell_formula_units_Z 12
_cell_length_a 18.472991
_cell_length_b 7.010374
_cell_length_c 7.429672
_cell_angle_alpha 106.829848
_cell_angle_beta 61.753564
_cell_angle_gamma 145.797846
_cell_volume 466.246631
_symmetry_space_group_name_H-M "P -1"
_symmetry_group_IT_number 2
_symmetry_cell_setting 'triclinic'
loop_
_space_group_symop_operation_xyz
x,y,z
-x,-y,-z
loop_
_atom_site_type_symbol
_atom_site_label
_atom_site_fract_x
_atom_site_fract_y
_atom_site_fract_z
Si Si1 0.077532 0.835961 0.898914
Si Si2 0.159024 0.747898 0.212566
Si Si3 0.882583 0.870340 0.727910
Si Si4 0.645700 0.296165 0.614275
Si Si5 0.305541 0.199063 0.487615
Si Si6 0.399101 0.075338 0.748027
O O1 0.983053 0.656570 0.778997
O O2 0.236693 0.077863 0.730722
O O3 0.000000 0.500000 0.000000
O O4 0.081662 0.034162 0.077230
O O5 0.130150 0.922844 0.255163
O O6 0.218029 0.871413 0.378973
O O7 0.281771 0.918721 0.979548
O O8 0.730490 0.468439 0.747765
O O9 0.000000 0.000000 0.500000
O O10 0.718559 0.619893 0.502896
O O11 0.483313 0.055596 0.739165
O O12 0.654050 0.117562 0.433026
O O13 0.473861 0.515431 0.334393
#
# Coordination Sequence:
#
# PCOD9084051 Si02
#       6
#     2   2   2   2   2   2
#     4  10  21  36  53  80 116 146 182 225 277 328
#     4  10  19  34  60  81 110 144 187 226 274 324
#     4  10  20  35  53  77 112 149 179 224 279 323
#     4   8  18  34  60  77 113 139 188 220 278 318
#     4   9  18  34  57  84 109 142 188 222 274 327
#     4   9  17  35  62  84 107 139 188 232 269 321
#
# _framework density 25.737451
#
# number of rings (size 3 to 8) (size 9 to 14) (size 15 to 20)
#    1.000    1.667    0.000    2.000    0.000    0.000 
#    0.000   15.000    0.000    0.000    0.000    0.000 
#    0.000    0.000    0.000    0.000    0.000    0.000 
#
# Total GULP energy -67027.495267 kJ/mol
# GULP energy per Si atom -5585.624606 kJ/mol
# Density = 2.567887 g / cm^3
# Si number density = 25.737451 Si / 1000 Ang^3
#
#
#
# Elastic Constant Matrix: (Units=GPa)
#
#
# Indices 1 2 3 4 5 6 
#
# 1 59.0424 22.0323 32.3461 9.6474 -23.8704 -15.6568
# 2 22.0323 154.7490 66.0244 39.6077 -8.7482 39.5487
# 3 32.3461 66.0244 205.7517 6.3771 -40.6896 20.1489
# 4 9.6474 39.6077 6.3771 57.7694 -0.5184 8.3718
# 5 -23.8704 -8.7482 -40.6896 -0.5184 44.0220 4.3378
# 6 -15.6568 39.5487 20.1489 8.3718 4.3378 28.4452
#
#
#
# Elastic Compliance Matrix: (Units=1/GPa)
#
#
# Indices 1 2 3 4 5 6 
#
# 1 0.041160 -0.013993 -0.003914 -0.003127 0.011544 0.044043
# 2 -0.013993 0.017687 -0.000756 -0.005393 -0.001891 -0.029883
# 3 -0.003914 -0.000756 0.007499 0.001507 0.005434 -0.007686
# 4 -0.003127 -0.005393 0.001507 0.021571 -0.000973 -0.001491
# 5 0.011544 -0.001891 0.005434 -0.000973 0.033581 0.000299
# 6 0.044043 -0.029883 -0.007686 -0.001491 0.000299 0.106782
#
#
# Mechanical properties :
#
#
# Convention : Reuss Voigt Hill
#
# Bulk Modulus (GPa) = 34.45967 73.37207 53.91587
# Shear Modulus (GPa) = 18.16336 45.99003 32.07669
#
# Velocity S-wave (km/s) = 2.65942 4.23175 3.53413
# Velocity P-wave (km/s) = 4.77996 7.24201 6.13574
#
# Compressibility (1/GPa) = 0.02901943
#
# Stress axis : x y z
#
# Youngs Moduli (GPa) = 24.29559 56.53712 133.35469
#
# Poissons Ratio (x) = 0.79115 0.52189
# Poissons Ratio (y) = 0.33998 0.10086
# Poissons Ratio (z) = 0.09508 0.04276
#
# Static dielectric constant tensor:
#      x y z
#    x 2.305060 0.153720 0.016250 
#    y 0.153720 2.054110 0.013220 
#    z 0.016250 0.013220 1.960950 
# 
# From -- ./inp_files/234600.got.cif
#   From: 2010.05.17/outbox.cif.g08.bks.cpg/sg2_118_cif.got.tgz:234600.got - 2010.06.03 11:33:40.
