data_PCOD9084400
_publ_section_title
;
Structure prediction by ZEFSAII (Michael W. Deem and Ramdas Pophale) SiO2 
 PCOD9084400
Probable space group: P -1
;
_chemical_formula_sum "Si O2"
_cell_formula_units_Z 16
_cell_length_a 20.232658
_cell_length_b 10.904609
_cell_length_c 8.152597
_cell_angle_alpha 122.759947
_cell_angle_beta 132.555781
_cell_angle_gamma 34.905198
_cell_volume 757.777705
_symmetry_space_group_name_H-M "P -1"
_symmetry_group_IT_number 2
_symmetry_cell_setting 'triclinic'
loop_
_space_group_symop_operation_xyz
x,y,z
-x,-y,-z
loop_
_atom_site_type_symbol
_atom_site_label
_atom_site_fract_x
_atom_site_fract_y
_atom_site_fract_z
Si Si1 0.949382 0.138646 0.750821
Si Si2 0.106605 0.519969 0.318087
Si Si3 0.623031 0.273159 0.463024
Si Si4 0.734447 0.211223 0.261536
Si Si5 0.178434 0.217916 0.937458
Si Si6 0.414991 0.982059 0.939736
Si Si7 0.666916 0.564307 0.188361
Si Si8 0.191290 0.745018 0.067253
O O1 0.947400 0.291173 0.760420
O O2 0.870318 0.117329 0.492253
O O3 0.875924 0.245188 0.879446
O O4 0.087958 0.905750 0.867569
O O5 0.221767 0.458729 0.572533
O O6 0.974472 0.620415 0.259974
O O7 0.167049 0.321924 0.161464
O O8 0.500000 0.500000 0.500000
O O9 0.642442 0.309607 0.337957
O O10 0.613716 0.112641 0.306870
O O11 0.746916 0.178563 0.708585
O O12 0.676381 0.398672 0.176911
O O13 0.762169 0.015180 0.105637
O O14 0.277175 0.176416 0.942487
O O15 0.519663 0.800031 0.119291
O O16 0.500000 0.000000 0.000000
O O17 0.700927 0.487493 0.000982
#
# Coordination Sequence:
#
# PCOD9084400 Si02
#       8
#     2   2   2   2   2   2   2   2
#     4   9  19  36  63  93 124 158 201 255 312 367
#     4  10  22  41  64  93 126 165 204 262 306 370
#     4  10  20  40  61  89 122 161 209 252 306 363
#     4   9  20  38  65  91 125 157 201 264 301 366
#     4  10  22  41  63  89 130 160 207 253 313 358
#     4  11  26  44  62  89 131 169 203 259 314 376
#     4  11  22  40  66  95 120 166 208 251 318 367
#     4  10  19  34  64  94 121 157 209 252 310 366
#
# _framework density 21.114370000000001
#
# number of rings (size 3 to 8) (size 9 to 14) (size 15 to 20)
#    0.000    2.000    1.250    1.500    1.750    6.500 
#    9.000    0.625    0.000    0.000    0.000    0.000 
#    0.000    0.000    0.000    0.000    0.000    0.000 
#
# Total GULP energy -89350.261930 kJ/mol
# GULP energy per Si atom -5584.391371 kJ/mol
# Density = 2.106631 g / cm^3
# Si number density = 21.114370 Si / 1000 Ang^3
#
#
#
# Elastic Constant Matrix: (Units=GPa)
#
#
# Indices 1 2 3 4 5 6 
#
# 1 119.9268 49.4061 37.2998 10.7945 18.7980 -19.2372
# 2 49.4061 69.6590 20.2814 12.2576 -2.6636 -24.6805
# 3 37.2998 20.2814 71.3360 5.8914 10.2944 -7.7368
# 4 10.7945 12.2576 5.8914 34.4770 -1.7128 -3.7675
# 5 18.7980 -2.6636 10.2944 -1.7128 25.1212 -2.8297
# 6 -19.2372 -24.6805 -7.7368 -3.7675 -2.8297 31.8724
#
#
#
# Elastic Compliance Matrix: (Units=1/GPa)
#
#
# Indices 1 2 3 4 5 6 
#
# 1 0.015527 -0.010505 -0.003459 -0.001189 -0.011482 -0.000763
# 2 -0.010505 0.029872 -0.002806 -0.004329 0.013778 0.016821
# 3 -0.003459 -0.002806 0.017375 -0.001204 -0.004982 -0.000628
# 4 -0.001189 -0.004329 -0.001204 0.031227 0.003008 -0.000404
# 5 -0.011482 0.013778 -0.004982 0.003008 0.052961 0.007587
# 6 -0.000763 0.016821 -0.000628 -0.000404 0.007587 0.044413
#
#
# Mechanical properties :
#
#
# Convention : Reuss Voigt Hill
#
# Bulk Modulus (GPa) = 34.20930 52.76627 43.48778
# Shear Modulus (GPa) = 21.30732 28.55642 24.93187
#
# Velocity S-wave (km/s) = 3.18014 3.68158 3.44001
# Velocity P-wave (km/s) = 5.45174 6.56635 6.03483
#
# Compressibility (1/GPa) = 0.02923182
#
# Stress axis : x y z
#
# Youngs Moduli (GPa) = 64.40594 33.47609 57.55357
#
# Poissons Ratio (x) = 0.35168 0.19910
# Poissons Ratio (y) = 0.67660 0.16151
# Poissons Ratio (z) = 0.22280 0.09394
#
# Static dielectric constant tensor:
#      x y z
#    x 1.825150 -0.034160 0.034500 
#    y -0.034160 1.796690 -0.007310 
#    z 0.034500 -0.007310 1.756440 
# 
# From -- ./inp_files/353691.got.cif
#   From: 2010.05.17/outbox.cif.g08.bks.cpg/sg2_177_cif.got.tgz:353691.got - 2010.06.03 11:33:40.
