data_PCOD9084479
_publ_section_title
;
Structure prediction by ZEFSAII (Michael W. Deem and Ramdas Pophale) SiO2 
 PCOD9084479
Probable space group: P -1
;
_chemical_formula_sum "Si O2"
_cell_formula_units_Z 16
_cell_length_a 13.769585
_cell_length_b 11.690038
_cell_length_c 13.556026
_cell_angle_alpha 33.348719
_cell_angle_beta 146.516814
_cell_angle_gamma 129.763958
_cell_volume 649.957234
_symmetry_space_group_name_H-M "P -1"
_symmetry_group_IT_number 2
_symmetry_cell_setting 'triclinic'
loop_
_space_group_symop_operation_xyz
x,y,z
-x,-y,-z
loop_
_atom_site_type_symbol
_atom_site_label
_atom_site_fract_x
_atom_site_fract_y
_atom_site_fract_z
Si Si1 0.198313 0.545210 0.470114
Si Si2 0.279658 0.372329 0.276129
Si Si3 0.704896 0.378707 0.077878
Si Si4 0.492125 0.075427 0.220389
Si Si5 0.196516 0.247342 0.978871
Si Si6 0.751972 0.158450 0.549019
Si Si7 0.116032 0.684225 0.079241
Si Si8 0.045140 0.154571 0.628040
O O1 0.314896 0.645489 0.575261
O O2 0.184015 0.645375 0.276748
O O3 0.195048 0.298430 0.640356
O O4 0.004114 0.633507 0.290519
O O5 0.432870 0.166767 0.568963
O O6 0.218374 0.493512 0.237134
O O7 0.337457 0.530190 0.131940
O O8 0.098318 0.314390 0.114864
O O9 0.904821 0.232455 0.363433
O O10 0.570298 0.229791 0.103204
O O11 0.712534 0.576651 0.015359
O O12 0.288869 0.156660 0.021317
O O13 0.590273 0.106346 0.385034
O O14 0.187996 0.045637 0.185002
O O15 0.905628 0.187142 0.579749
O O16 0.134157 0.909208 0.886830
#
# Coordination Sequence:
#
# PCOD9084479 Si02
#       8
#     2   2   2   2   2   2   2   2
#     4  11  22  38  56  90 117 149 186 231 287 342
#     4  11  21  36  57  82 115 153 192 236 280 327
#     4  10  19  35  52  85 117 145 184 229 283 338
#     4  11  22  38  56  90 117 149 186 231 287 342
#     4  11  20  35  58  84 122 148 181 231 288 346
#     4  11  20  35  58  84 122 148 181 231 288 346
#     4  11  21  36  57  82 115 153 192 236 280 327
#     4  10  19  35  52  85 117 145 184 229 283 338
#
# _framework density 24.617006
#
# number of rings (size 3 to 8) (size 9 to 14) (size 15 to 20)
#    0.000    1.250    7.500    1.500    0.000    1.500 
#    0.000    0.000    0.000    0.750    0.000    1.750 
#    0.000    0.000    0.000    0.000    0.000    0.000 
#
# Total GULP energy -89614.811060 kJ/mol
# GULP energy per Si atom -5600.925691 kJ/mol
# Density = 2.456098 g / cm^3
# Si number density = 24.617006 Si / 1000 Ang^3
#
#
#
# Elastic Constant Matrix: (Units=GPa)
#
#
# Indices 1 2 3 4 5 6 
#
# 1 69.6694 9.0382 36.6691 -17.2615 9.7953 -7.4726
# 2 9.0382 56.8918 36.0113 -14.3833 5.9646 -3.9917
# 3 36.6691 36.0113 102.8488 -29.9031 -6.4884 7.7573
# 4 -17.2615 -14.3833 -29.9031 36.6785 13.0660 -3.9158
# 5 9.7953 5.9646 -6.4884 13.0660 37.8046 -15.5649
# 6 -7.4726 -3.9917 7.7573 -3.9158 -15.5649 28.7341
#
#
#
# Elastic Compliance Matrix: (Units=1/GPa)
#
#
# Indices 1 2 3 4 5 6 
#
# 1 0.022052 0.005239 -0.007761 0.009938 -0.009300 0.004874
# 2 0.005239 0.025938 -0.009341 0.008402 -0.008241 0.004169
# 3 -0.007761 -0.009341 0.018142 0.006134 0.001854 -0.006373
# 4 0.009938 0.008402 0.006134 0.047151 -0.020124 -0.002379
# 5 -0.009300 -0.008241 0.001854 -0.020124 0.044574 0.017339
# 6 0.004874 0.004169 -0.006373 -0.002379 0.017339 0.047437
#
#
# Mechanical properties :
#
#
# Convention : Reuss Voigt Hill
#
# Bulk Modulus (GPa) = 23.58229 43.64969 33.61599
# Shear Modulus (GPa) = 20.56286 30.48953 25.52619
#
# Velocity S-wave (km/s) = 2.89331 3.52313 3.22364
# Velocity P-wave (km/s) = 4.55655 5.85832 5.24796
#
# Compressibility (1/GPa) = 0.04240470
#
# Stress axis : x y z
#
# Youngs Moduli (GPa) = 45.34824 38.55282 55.12026
#
# Poissons Ratio (x) = -0.20198 0.42781
# Poissons Ratio (y) = -0.23758 0.51490
# Poissons Ratio (z) = 0.35197 0.36014
#
# Static dielectric constant tensor:
#      x y z
#    x 1.944110 0.052520 0.034790 
#    y 0.052520 2.126040 0.066390 
#    z 0.034790 0.066390 1.990750 
# 
# From -- ./inp_files/447938.got.cif
#   From: 2010.05.17/outbox.cif.g08.bks.cpg/sg2_224_cif.got.tgz:447938.got - 2010.06.03 11:33:40.
