data_PCOD9084227
_publ_section_title
;
Structure prediction by ZEFSAII (Michael W. Deem and Ramdas Pophale) SiO2 
 PCOD9084227
Probable space group: P -1
;
_chemical_formula_sum "Si O2"
_cell_formula_units_Z 16
_cell_length_a 12.906869
_cell_length_b 8.784607
_cell_length_c 9.073655
_cell_angle_alpha 48.120513
_cell_angle_beta 75.871222
_cell_angle_gamma 98.522681
_cell_volume 670.297448
_symmetry_space_group_name_H-M "P -1"
_symmetry_group_IT_number 2
_symmetry_cell_setting 'triclinic'
loop_
_space_group_symop_operation_xyz
x,y,z
-x,-y,-z
loop_
_atom_site_type_symbol
_atom_site_label
_atom_site_fract_x
_atom_site_fract_y
_atom_site_fract_z
Si Si1 0.825388 0.979246 0.663311
Si Si2 0.604142 0.798988 0.686086
Si Si3 0.189836 0.702559 0.323137
Si Si4 0.402360 0.142525 0.828639
Si Si5 0.893807 0.396439 0.893968
Si Si6 0.010631 0.836143 0.773096
Si Si7 0.624145 0.177287 0.216041
Si Si8 0.359760 0.475535 0.416871
O O1 0.846766 0.224891 0.558003
O O2 0.885751 0.984095 0.480195
O O3 0.686828 0.835199 0.775030
O O4 0.900535 0.895525 0.798676
O O5 0.463418 0.703707 0.818520
O O6 0.636082 0.660654 0.640915
O O7 0.633508 0.048751 0.444087
O O8 0.248060 0.530006 0.431430
O O9 0.098281 0.611636 0.279033
O O10 0.294166 0.944996 0.076075
O O11 0.364717 0.327392 0.650165
O O12 0.522685 0.286452 0.780159
O O13 0.431422 0.018969 0.760434
O O14 0.755760 0.330567 0.017732
O O15 0.932052 0.213391 0.070913
O O16 0.961721 0.619894 0.821377
#
# Coordination Sequence:
#
# PCOD9084227 Si02
#       8
#     2   2   2   2   2   2   2   2
#     4  11  23  41  62  93 121 165 206 257 312 371
#     4  10  19  34  61  94 123 162 203 248 310 372
#     4  11  23  39  63  92 124 161 208 261 312 368
#     4   9  20  38  56  88 130 170 201 250 310 369
#     4  10  21  43  63  92 119 164 207 259 310 366
#     4  10  23  43  65  83 125 162 211 259 306 366
#     4   9  18  35  62  89 125 160 201 252 310 369
#     4  10  20  37  60  89 131 171 203 249 308 376
#
# _framework density 23.870000000000001
#
# number of rings (size 3 to 8) (size 9 to 14) (size 15 to 20)
#    0.000    2.000    1.250    1.875    0.000    4.000 
#    4.500    3.750    0.000    0.000    0.000    0.000 
#    0.000    0.000    0.000    0.000    0.000    0.000 
#
# Total GULP energy -89490.185605 kJ/mol
# GULP energy per Si atom -5593.136600 kJ/mol
# Density = 2.381567 g / cm^3
# Si number density = 23.870000 Si / 1000 Ang^3
#
#
#
# Elastic Constant Matrix: (Units=GPa)
#
#
# Indices 1 2 3 4 5 6 
#
# 1 146.5737 48.7986 27.9909 11.3793 27.9026 -13.4395
# 2 48.7986 76.4397 -3.4332 9.0338 8.7139 -4.2889
# 3 27.9909 -3.4332 38.9296 -0.9660 5.7308 -7.2102
# 4 11.3793 9.0338 -0.9660 24.9418 2.7028 0.5159
# 5 27.9026 8.7139 5.7308 2.7028 38.6543 -8.9059
# 6 -13.4395 -4.2889 -7.2102 0.5159 -8.9059 41.3783
#
#
#
# Elastic Compliance Matrix: (Units=1/GPa)
#
#
# Indices 1 2 3 4 5 6 
#
# 1 0.012152 -0.007155 -0.008511 -0.002689 -0.005581 0.000555
# 2 -0.007155 0.018328 0.006781 -0.003180 0.000456 0.000895
# 3 -0.008511 0.006781 0.033108 0.002589 0.000392 0.003760
# 4 -0.002689 -0.003180 0.002589 0.042718 -0.001062 -0.001513
# 5 -0.005581 0.000456 0.000392 -0.001062 0.030960 0.004980
# 6 0.000555 0.000895 0.003760 -0.001513 0.004980 0.026186
#
#
# Mechanical properties :
#
#
# Convention : Reuss Voigt Hill
#
# Bulk Modulus (GPa) = 21.82562 45.40619 33.61591
# Shear Modulus (GPa) = 25.44600 33.56733 29.50666
#
# Velocity S-wave (km/s) = 3.26854 3.75408 3.51969
# Velocity P-wave (km/s) = 4.83817 6.15259 5.53454
#
# Compressibility (1/GPa) = 0.04581771
#
# Stress axis : x y z
#
# Youngs Moduli (GPa) = 82.29140 54.56047 30.20454
#
# Poissons Ratio (x) = 0.39037 0.25706
# Poissons Ratio (y) = 0.58878 -0.20480
# Poissons Ratio (z) = 0.70036 -0.36995
#
# Static dielectric constant tensor:
#      x y z
#    x 1.913160 -0.017070 -0.019500 
#    y -0.017070 1.885160 -0.004910 
#    z -0.019500 -0.004910 1.979480 
# 
# From -- ./inp_files/242125.got.cif
#   From: 2010.05.17/outbox.cif.g08.bks.cpg/sg2_122_cif.got.tgz:242125.got - 2010.06.03 11:33:40.
