data_PCOD9084286
_publ_section_title
;
Structure prediction by ZEFSAII (Michael W. Deem and Ramdas Pophale) SiO2 
 PCOD9084286
Probable space group: P -1
;
_chemical_formula_sum "Si O2"
_cell_formula_units_Z 14
_cell_length_a 8.170687
_cell_length_b 11.606094
_cell_length_c 7.542968
_cell_angle_alpha 81.998163
_cell_angle_beta 57.817024
_cell_angle_gamma 86.823774
_cell_volume 599.349206
_symmetry_space_group_name_H-M "P -1"
_symmetry_group_IT_number 2
_symmetry_cell_setting 'triclinic'
loop_
_space_group_symop_operation_xyz
x,y,z
-x,-y,-z
loop_
_atom_site_type_symbol
_atom_site_label
_atom_site_fract_x
_atom_site_fract_y
_atom_site_fract_z
Si Si1 0.008472 0.453904 0.229910
Si Si2 0.072506 0.133242 0.547473
Si Si3 0.619933 0.422831 0.086818
Si Si4 0.763584 0.627613 0.525864
Si Si5 0.576185 0.024164 0.647166
Si Si6 0.736155 0.157182 0.021021
Si Si7 0.823088 0.209899 0.359874
O O1 0.124487 0.414518 0.350979
O O2 0.881990 0.564587 0.322074
O O3 0.866735 0.346602 0.287809
O O4 0.186859 0.502221 0.000051
O O5 0.998962 0.173599 0.390684
O O6 0.210783 0.234791 0.524622
O O7 0.209865 0.026860 0.459187
O O8 0.896109 0.125811 0.789872
O O9 0.461793 0.403579 0.334383
O O10 0.667450 0.292330 0.011934
O O11 0.500000 0.500000 0.000000
O O12 0.432991 0.943595 0.866040
O O13 0.500000 0.000000 0.500000
O O14 0.628999 0.162899 0.586421
O O15 0.819119 0.158353 0.174493
#
# Coordination Sequence:
#
# PCOD9084286 Si02
#       7
#     2   2   2   2   2   2   2
#     4   9  18  35  57  88 125 158 201 256 308 371
#     4  11  21  42  69  89 126 170 210 259 318 370
#     4  10  19  34  62  91 122 166 208 249 315 372
#     4   9  17  33  61  87 119 166 201 247 315 368
#     4  10  23  44  67  93 128 165 213 264 311 376
#     4  11  23  42  67  93 127 170 210 260 317 371
#     4  10  24  41  63  97 129 162 216 260 308 379
#
# _framework density 23.35867
#
# number of rings (size 3 to 8) (size 9 to 14) (size 15 to 20)
#    0.000    2.000    2.857    0.429    2.000    3.429 
#    0.000    7.857    0.000    0.000    0.000    0.000 
#    0.000    0.000    0.000    0.000    0.000    0.000 
#
# Total GULP energy -78076.105073 kJ/mol
# GULP energy per Si atom -5576.864648 kJ/mol
# Density = 2.330550 g / cm^3
# Si number density = 23.358670 Si / 1000 Ang^3
#
#
#
# Elastic Constant Matrix: (Units=GPa)
#
#
# Indices 1 2 3 4 5 6 
#
# 1 80.6671 30.7374 36.4838 -7.8255 -2.8428 9.2693
# 2 30.7374 100.7342 32.3647 -35.7133 -12.8317 25.3143
# 3 36.4838 32.3647 100.0003 -14.4491 -20.2851 2.8174
# 4 -7.8255 -35.7133 -14.4491 36.8039 9.9080 -2.6871
# 5 -2.8428 -12.8317 -20.2851 9.9080 45.4628 -11.2443
# 6 9.2693 25.3143 2.8174 -2.6871 -11.2443 38.0198
#
#
#
# Elastic Compliance Matrix: (Units=1/GPa)
#
#
# Indices 1 2 3 4 5 6 
#
# 1 0.016218 -0.003591 -0.005457 -0.001632 -0.002583 -0.002038
# 2 -0.003591 0.021497 -0.003154 0.018679 -0.002777 -0.012705
# 3 -0.005457 -0.003154 0.014132 -0.000013 0.006113 0.004190
# 4 -0.001632 0.018679 -0.000013 0.046193 -0.007631 -0.011030
# 5 -0.002583 -0.002777 0.006113 -0.007631 0.027846 0.009722
# 6 -0.002038 -0.012705 0.004190 -0.011030 0.009722 0.037044
#
#
# Mechanical properties :
#
#
# Convention : Reuss Voigt Hill
#
# Bulk Modulus (GPa) = 36.43866 53.39703 44.91784
# Shear Modulus (GPa) = 25.44775 36.17834 30.81304
#
# Velocity S-wave (km/s) = 3.30424 3.93977 3.63592
# Velocity P-wave (km/s) = 5.49462 6.60341 6.07436
#
# Compressibility (1/GPa) = 0.02744338
#
# Stress axis : x y z
#
# Youngs Moduli (GPa) = 61.66084 46.51740 70.76217
#
# Poissons Ratio (x) = 0.16703 0.38615
# Poissons Ratio (y) = 0.22141 0.22319
# Poissons Ratio (z) = 0.33648 0.14672
#
# Static dielectric constant tensor:
#      x y z
#    x 1.922800 0.017770 0.027820 
#    y 0.017770 2.013850 -0.066760 
#    z 0.027820 -0.066760 1.863030 
# 
# From -- ./inp_files/187270.got.cif
#   From: 2010.05.17/outbox.cif.g08.bks.cpg/sg2_94_cif.got.tgz:187270.got - 2010.06.03 11:33:40.
