data_PCOD9084681
_publ_section_title
;
Structure prediction by ZEFSAII (Michael W. Deem and Ramdas Pophale) SiO2 
 PCOD9084681
Probable space group: P -1
;
_chemical_formula_sum "Si O2"
_cell_formula_units_Z 16
_cell_length_a 16.359638
_cell_length_b 24.129891
_cell_length_c 13.290445
_cell_angle_alpha 156.991250
_cell_angle_beta 34.929745
_cell_angle_gamma 159.054470
_cell_volume 702.768220
_symmetry_space_group_name_H-M "P -1"
_symmetry_group_IT_number 2
_symmetry_cell_setting 'triclinic'
loop_
_space_group_symop_operation_xyz
x,y,z
-x,-y,-z
loop_
_atom_site_type_symbol
_atom_site_label
_atom_site_fract_x
_atom_site_fract_y
_atom_site_fract_z
Si Si1 0.306038 0.530547 0.076431
Si Si2 0.720497 0.779977 0.428770
Si Si3 0.915285 0.256806 0.729556
Si Si4 0.378549 0.750640 0.725501
Si Si5 0.951370 0.681336 0.812774
Si Si6 0.059050 0.642389 0.338104
Si Si7 0.772844 0.849402 0.265299
Si Si8 0.627401 0.098266 0.374048
O O1 0.099067 0.360288 0.086509
O O2 0.558554 0.711252 0.176817
O O3 0.298451 0.682960 0.303624
O O4 0.314045 0.396941 0.777388
O O5 0.583776 0.806286 0.649646
O O6 0.653323 0.726278 0.288512
O O7 0.000000 0.000000 0.500000
O O8 0.996934 0.299955 0.604008
O O9 0.909073 0.108098 0.552324
O O10 0.642640 0.102241 0.729136
O O11 0.079215 0.505791 0.032674
O O12 0.245960 0.580883 0.476480
O O13 0.166371 0.568530 0.715489
O O14 0.500000 0.000000 0.000000
O O15 0.203084 0.826042 0.758776
O O16 0.911110 0.813629 0.041662
O O17 0.272290 0.886139 0.595490
#
# Coordination Sequence:
#
# PCOD9084681 Si02
#       8
#     2   2   2   2   2   2   2   2
#     4  10  19  35  56  80 120 157 185 233 295 352
#     4  11  22  33  55  88 121 149 186 242 292 352
#     4  10  22  42  65  80 117 161 200 241 295 342
#     4  11  22  36  59  86 124 150 191 246 296 348
#     4  10  19  36  56  88 122 150 194 239 292 356
#     4  10  23  40  63  88 116 153 204 246 285 352
#     4  10  19  38  59  78 116 160 190 230 296 350
#     4  10  22  35  63  87 117 153 200 243 290 346
#
# _framework density 22.767106999999999
#
# number of rings (size 3 to 8) (size 9 to 14) (size 15 to 20)
#    0.000    1.750    2.500    2.250    7.000    2.000 
#    0.000    2.500    2.750    2.250    0.000    0.000 
#    0.000    0.000    0.000    0.000    0.000    0.000 
#
# Total GULP energy -89077.310863 kJ/mol
# GULP energy per Si atom -5567.331929 kJ/mol
# Density = 2.271529 g / cm^3
# Si number density = 22.767107 Si / 1000 Ang^3
#
#
#
# Elastic Constant Matrix: (Units=GPa)
#
#
# Indices 1 2 3 4 5 6 
#
# 1 50.0948 13.7157 11.3267 -7.7289 6.0159 9.3686
# 2 13.7157 99.4436 22.8528 -8.3447 -10.9884 14.8534
# 3 11.3267 22.8528 89.2293 -5.9619 -19.4991 6.5390
# 4 -7.7289 -8.3447 -5.9619 24.4686 6.8402 -0.0253
# 5 6.0159 -10.9884 -19.4991 6.8402 37.4603 5.5163
# 6 9.3686 14.8534 6.5390 -0.0253 5.5163 30.3968
#
#
#
# Elastic Compliance Matrix: (Units=1/GPa)
#
#
# Indices 1 2 3 4 5 6 
#
# 1 0.024165 -0.002012 -0.003200 0.008106 -0.006953 -0.004508
# 2 -0.002012 0.012085 -0.001520 0.002128 0.003512 -0.005594
# 3 -0.003200 -0.001520 0.013867 -0.000315 0.007735 -0.002658
# 4 0.008106 0.002128 -0.000315 0.046618 -0.009092 -0.001782
# 5 -0.006953 0.003512 0.007735 -0.009092 0.035664 -0.007717
# 6 -0.004508 -0.005594 -0.002658 -0.001782 -0.007717 0.038992
#
#
# Mechanical properties :
#
#
# Convention : Reuss Voigt Hill
#
# Bulk Modulus (GPa) = 27.28324 37.17312 32.22818
# Shear Modulus (GPa) = 25.37140 31.18998 28.28069
#
# Velocity S-wave (km/s) = 3.34187 3.70531 3.52827
# Velocity P-wave (km/s) = 5.18656 5.88802 5.54839
#
# Compressibility (1/GPa) = 0.03665254
#
# Stress axis : x y z
#
# Youngs Moduli (GPa) = 41.38176 82.74745 72.11605
#
# Poissons Ratio (x) = 0.16653 0.23074
# Poissons Ratio (y) = 0.08328 0.10962
# Poissons Ratio (z) = 0.13240 0.12578
#
# Static dielectric constant tensor:
#      x y z
#    x 2.239150 0.049730 0.086270 
#    y 0.049730 1.882820 0.052480 
#    z 0.086270 0.052480 2.053160 
# 
# From -- ./inp_files/195116.got.cif
#   From: 2010.05.17/outbox.cif.g08.bks.cpg/sg2_98_cif.got.tgz:195116.got - 2010.06.03 11:33:40.
