data_PCOD9084473
_publ_section_title
;
Structure prediction by ZEFSAII (Michael W. Deem and Ramdas Pophale) SiO2 
 PCOD9084473
Probable space group: P -1
;
_chemical_formula_sum "Si O2"
_cell_formula_units_Z 14
_cell_length_a 16.483694
_cell_length_b 5.499430
_cell_length_c 16.755770
_cell_angle_alpha 76.440237
_cell_angle_beta 22.814375
_cell_angle_gamma 70.716365
_cell_volume 545.667938
_symmetry_space_group_name_H-M "P -1"
_symmetry_group_IT_number 2
_symmetry_cell_setting 'triclinic'
loop_
_space_group_symop_operation_xyz
x,y,z
-x,-y,-z
loop_
_atom_site_type_symbol
_atom_site_label
_atom_site_fract_x
_atom_site_fract_y
_atom_site_fract_z
Si Si1 0.262222 0.901628 0.750291
Si Si2 0.991624 0.216846 0.558176
Si Si3 0.774455 0.306546 0.902020
Si Si4 0.135923 0.274068 0.110934
Si Si5 0.656495 0.083074 0.609327
Si Si6 0.453396 0.341808 0.336018
Si Si7 0.162365 0.479270 0.781090
O O1 0.375795 0.756186 0.739299
O O2 0.282039 0.696257 0.675816
O O3 0.308167 0.177684 0.668920
O O4 0.000000 0.000000 0.000000
O O5 0.000000 0.500000 0.500000
O O6 0.776638 0.282210 0.806176
O O7 0.201460 0.075797 0.434368
O O8 0.000000 0.000000 0.500000
O O9 0.870686 0.543814 0.819580
O O10 0.911223 0.005256 0.821498
O O11 0.565670 0.352532 0.146379
O O12 0.997047 0.450473 0.154527
O O13 0.394125 0.182566 0.858803
O O14 0.694135 0.362275 0.537869
O O15 0.672256 0.873199 0.541779
O O16 0.000000 0.500000 0.000000
#
# Coordination Sequence:
#
# PCOD9084473 Si02
#       7
#     2   2   2   2   2   2   2
#     4  10  16  25  46  82 115 142 175 226 262 293
#     4  12  26  44  60  82 108 140 180 226 286 348
#     4  10  20  37  58  80 110 141 180 228 273 331
#     4  10  19  35  57  87 111 144 191 223 261 319
#     4  10  20  37  58  80 110 141 180 228 273 331
#     4  10  19  35  57  87 111 144 191 223 261 319
#     4  10  16  25  46  82 115 142 175 226 262 293
#
# _framework density 25.656627
#
# number of rings (size 3 to 8) (size 9 to 14) (size 15 to 20)
#    0.000    1.714    0.000   10.286    0.000    0.000 
#    0.000   17.143    0.000    0.000    0.000   74.000 
#    0.000    0.000    0.000    0.000    0.000    0.000 
#
# Total GULP energy -78287.357523 kJ/mol
# GULP energy per Si atom -5591.954109 kJ/mol
# Density = 2.559823 g / cm^3
# Si number density = 25.656627 Si / 1000 Ang^3
#
#
#
# Elastic Constant Matrix: (Units=GPa)
#
#
# Indices 1 2 3 4 5 6 
#
# 1 127.8920 53.5036 25.6407 2.1711 0.4354 15.5283
# 2 53.5036 232.4890 24.7984 21.0708 -13.2333 28.5019
# 3 25.6407 24.7984 96.0045 9.0443 22.5742 -7.6105
# 4 2.1711 21.0708 9.0443 49.6865 -5.5659 -0.6901
# 5 0.4354 -13.2333 22.5742 -5.5659 43.9383 5.2721
# 6 15.5283 28.5019 -7.6105 -0.6901 5.2721 65.8501
#
#
#
# Elastic Compliance Matrix: (Units=1/GPa)
#
#
# Indices 1 2 3 4 5 6 
#
# 1 0.009213 -0.001649 -0.002498 0.000840 0.001021 -0.001821
# 2 -0.001649 0.005439 -0.001591 -0.001693 0.002542 -0.002371
# 3 -0.002498 -0.001591 0.014003 -0.002658 -0.008410 0.003541
# 4 0.000840 -0.001693 -0.002658 0.021694 0.003575 0.000169
# 5 0.001021 0.002542 -0.008410 0.003575 0.028838 -0.004584
# 6 -0.001821 -0.002371 0.003541 0.000169 -0.004584 0.017419
#
#
# Mechanical properties :
#
#
# Convention : Reuss Voigt Hill
#
# Bulk Modulus (GPa) = 58.20701 73.80788 66.00744
# Shear Modulus (GPa) = 43.93332 55.39117 49.66224
#
# Velocity S-wave (km/s) = 4.14255 4.65148 4.40437
# Velocity P-wave (km/s) = 6.75405 7.59463 7.18664
#
# Compressibility (1/GPa) = 0.01718006
#
# Stress axis : x y z
#
# Youngs Moduli (GPa) = 108.54266 183.85426 71.41330
#
# Poissons Ratio (x) = 0.30311 0.17840
# Poissons Ratio (y) = 0.17895 0.11360
# Poissons Ratio (z) = 0.27116 0.29245
#
# Static dielectric constant tensor:
#      x y z
#    x 1.958670 0.061520 -0.032670 
#    y 0.061520 2.093510 -0.079300 
#    z -0.032670 -0.079300 2.197370 
# 
# From -- ./inp_files/99589.got.cif
#   From: 2010.05.17/outbox.cif.g08.bks.cpg/sg2_50_cif.got.tgz:99589.got - 2010.06.03 11:33:40.
