data_PCOD9084455
_publ_section_title
;
Structure prediction by ZEFSAII (Michael W. Deem and Ramdas Pophale) SiO2 
 PCOD9084455
Probable space group: P -1
;
_chemical_formula_sum "Si O2"
_cell_formula_units_Z 16
_cell_length_a 12.040206
_cell_length_b 13.259842
_cell_length_c 9.345485
_cell_angle_alpha 114.369041
_cell_angle_beta 66.245987
_cell_angle_gamma 144.982973
_cell_volume 773.839673
_symmetry_space_group_name_H-M "P -1"
_symmetry_group_IT_number 2
_symmetry_cell_setting 'triclinic'
loop_
_space_group_symop_operation_xyz
x,y,z
-x,-y,-z
loop_
_atom_site_type_symbol
_atom_site_label
_atom_site_fract_x
_atom_site_fract_y
_atom_site_fract_z
Si Si1 0.038127 0.213590 0.751551
Si Si2 0.926084 0.068814 0.134200
Si Si3 0.161024 0.709569 0.007181
Si Si4 0.350343 0.406431 0.151992
Si Si5 0.587923 0.626701 0.395788
Si Si6 0.523365 0.928356 0.784258
Si Si7 0.790530 0.997365 0.488900
Si Si8 0.703968 0.877616 0.874752
O O1 0.261127 0.351063 0.738777
O O2 0.964664 0.268868 0.903633
O O3 0.972243 0.167798 0.592762
O O4 0.912871 0.025567 0.774149
O O5 0.131839 0.279728 0.143455
O O6 0.846707 0.024653 0.310405
O O7 0.751690 0.968931 0.055900
O O8 0.000000 0.000000 0.000000
O O9 0.339371 0.869887 0.119250
O O10 0.293382 0.784177 0.840902
O O11 0.000000 0.500000 0.000000
O O12 0.430981 0.547103 0.311868
O O13 0.351037 0.287356 0.162215
O O14 0.500000 0.500000 0.000000
O O15 0.500000 0.500000 0.500000
O O16 0.716675 0.824944 0.480745
O O17 0.612299 0.950912 0.600901
O O18 0.573655 0.862643 0.831987
#
# Coordination Sequence:
#
# PCOD9084455 Si02
#       8
#     2   2   2   2   2   2   2   2
#     4  10  21  36  55  81 107 149 186 221 287 327
#     4  10  19  35  51  70 109 158 181 207 272 334
#     4   9  19  35  62  83 113 140 186 246 280 330
#     4  11  21  31  47  76 111 145 186 221 260 325
#     4  12  21  29  49  82 115 139 176 225 270 327
#     4   9  20  38  58  89 108 146 190 228 292 330
#     4  10  20  35  53  75 117 149 177 222 275 346
#     4   9  18  35  55  70 108 144 189 221 265 338
#
# _framework density 20.676117999999999
#
# number of rings (size 3 to 8) (size 9 to 14) (size 15 to 20)
#    0.000    2.250    0.000    6.375    3.500    1.000 
#    0.000    0.000    0.000   12.000    0.000   14.875 
#    0.000    0.000    0.000    0.000    0.000    0.000 
#
# Total GULP energy -89090.868388 kJ/mol
# GULP energy per Si atom -5568.179274 kJ/mol
# Density = 2.062906 g / cm^3
# Si number density = 20.676118 Si / 1000 Ang^3
#
#
#
# Elastic Constant Matrix: (Units=GPa)
#
#
# Indices 1 2 3 4 5 6 
#
# 1 30.4467 14.2277 22.7011 5.5899 -8.0112 9.1341
# 2 14.2277 108.0570 23.6920 -13.9073 -12.9863 4.0896
# 3 22.7011 23.6920 129.1224 -21.3048 -2.7914 4.6204
# 4 5.5899 -13.9073 -21.3048 33.2902 6.6082 0.7082
# 5 -8.0112 -12.9863 -2.7914 6.6082 32.4344 -6.2980
# 6 9.1341 4.0896 4.6204 0.7082 -6.2980 27.9871
#
#
#
# Elastic Compliance Matrix: (Units=1/GPa)
#
#
# Indices 1 2 3 4 5 6 
#
# 1 0.054418 -0.005447 -0.011318 -0.020834 0.012237 -0.011815
# 2 -0.005447 0.010878 -0.000205 0.004898 0.002106 0.000572
# 3 -0.011318 -0.000205 0.011273 0.009756 -0.003745 0.000773
# 4 -0.020834 0.004898 0.009756 0.044022 -0.011149 0.000850
# 5 0.012237 0.002106 -0.003745 -0.011149 0.037630 0.005067
# 6 -0.011815 0.000572 0.000773 0.000850 0.005067 0.040494
#
#
# Mechanical properties :
#
#
# Convention : Reuss Voigt Hill
#
# Bulk Modulus (GPa) = 23.45845 43.20751 33.33298
# Shear Modulus (GPa) = 20.25390 32.54269 26.39829
#
# Velocity S-wave (km/s) = 3.13322 3.97158 3.57704
# Velocity P-wave (km/s) = 4.94568 6.47873 5.76340
#
# Compressibility (1/GPa) = 0.04262857
#
# Stress axis : x y z
#
# Youngs Moduli (GPa) = 18.37634 91.92567 88.70616
#
# Poissons Ratio (x) = 0.50074 1.00397
# Poissons Ratio (y) = 0.10010 0.01820
# Poissons Ratio (z) = 0.20798 0.01886
#
# Static dielectric constant tensor:
#      x y z
#    x 1.843400 -0.046870 0.037060 
#    y -0.046870 1.825280 -0.002030 
#    z 0.037060 -0.002030 1.845250 
# 
# From -- ./inp_files/315733.got.cif
#   From: 2010.05.17/outbox.cif.g08.bks.cpg/sg2_158_cif.got.tgz:315733.got - 2010.06.03 11:33:40.
