data_PCOD9084549
_publ_section_title
;
Structure prediction by ZEFSAII (Michael W. Deem and Ramdas Pophale) SiO2 
 PCOD9084549
Probable space group: P -1
;
_chemical_formula_sum "Si O2"
_cell_formula_units_Z 16
_cell_length_a 9.456840
_cell_length_b 10.232047
_cell_length_c 18.929403
_cell_angle_alpha 118.964606
_cell_angle_beta 45.856936
_cell_angle_gamma 84.859923
_cell_volume 843.317255
_symmetry_space_group_name_H-M "P -1"
_symmetry_group_IT_number 2
_symmetry_cell_setting 'triclinic'
loop_
_space_group_symop_operation_xyz
x,y,z
-x,-y,-z
loop_
_atom_site_type_symbol
_atom_site_label
_atom_site_fract_x
_atom_site_fract_y
_atom_site_fract_z
Si Si1 0.581281 0.800741 0.031642
Si Si2 0.688872 0.168388 0.631155
Si Si3 0.785933 0.278267 0.862378
Si Si4 0.940371 0.522747 0.704492
Si Si5 0.744760 0.758444 0.699507
Si Si6 0.788229 0.412747 0.606685
Si Si7 0.727010 0.877992 0.447326
Si Si8 0.799375 0.531653 0.020885
O O1 0.304094 0.847176 0.133981
O O2 0.767382 0.642598 0.988910
O O3 0.494497 0.012985 0.134310
O O4 0.743077 0.692332 0.875190
O O5 0.657739 0.318734 0.624405
O O6 0.492816 0.307870 0.799643
O O7 0.630530 0.038773 0.584038
O O8 0.000000 0.000000 0.500000
O O9 0.004480 0.197984 0.705048
O O10 0.500000 0.500000 0.000000
O O11 0.869434 0.327618 0.916617
O O12 0.944988 0.630328 0.663693
O O13 0.816588 0.439318 0.686863
O O14 0.201758 0.321667 0.598620
O O15 0.658342 0.632216 0.679039
O O16 0.917627 0.738793 0.571014
O O17 0.500000 0.000000 0.500000
O O18 0.000000 0.500000 0.000000
#
# Coordination Sequence:
#
# PCOD9084549 Si02
#       8
#     2   2   2   2   2   2   2   2
#     4  11  20  34  62  82 112 147 196 228 274 336
#     4  12  20  34  60  85 109 149 193 230 280 331
#     4  10  19  37  55  79 116 143 188 237 274 327
#     4  10  19  35  54  82 113 144 185 236 268 334
#     4   9  19  34  56  88 107 146 192 243 272 314
#     4   9  19  34  54  85 113 134 191 246 268 316
#     4  12  23  35  55  87 118 148 179 233 300 340
#     4  11  23  36  54  85 122 149 175 233 297 338
#
# _framework density 18.972691999999999
#
# number of rings (size 3 to 8) (size 9 to 14) (size 15 to 20)
#    0.750    0.750    3.750    4.875    0.000    0.000 
#    0.000    0.000    0.000    5.250    0.000    0.000 
#    0.000    0.000    0.000    0.000    0.000    0.000 
#
# Total GULP energy -89077.858192 kJ/mol
# GULP energy per Si atom -5567.366137 kJ/mol
# Density = 1.892951 g / cm^3
# Si number density = 18.972692 Si / 1000 Ang^3
#
#
#
# Elastic Constant Matrix: (Units=GPa)
#
#
# Indices 1 2 3 4 5 6 
#
# 1 65.4914 -0.9983 3.1397 0.9888 5.3587 -9.4014
# 2 -0.9983 38.0007 19.8650 7.7037 8.6958 2.2474
# 3 3.1397 19.8650 76.8348 -2.4134 24.9812 -1.5002
# 4 0.9888 7.7037 -2.4134 29.9582 -2.5603 6.1835
# 5 5.3587 8.6958 24.9812 -2.5603 31.5564 0.7590
# 6 -9.4014 2.2474 -1.5002 6.1835 0.7590 16.3832
#
#
#
# Elastic Compliance Matrix: (Units=1/GPa)
#
#
# Indices 1 2 3 4 5 6 
#
# 1 0.017289 0.001228 0.000448 -0.003546 -0.004189 0.011326
# 2 0.001228 0.033213 -0.007626 -0.009373 -0.004064 -0.000824
# 3 0.000448 -0.007626 0.019393 0.001750 -0.013258 0.003033
# 4 -0.003546 -0.009373 0.001750 0.039783 0.005409 -0.015855
# 5 -0.004189 -0.004064 -0.013258 0.005409 0.044627 -0.007169
# 6 0.011326 -0.000824 0.003033 -0.015855 -0.007169 0.074245
#
#
# Mechanical properties :
#
#
# Convention : Reuss Voigt Hill
#
# Bulk Modulus (GPa) = 17.24348 24.92664 21.08506
# Shear Modulus (GPa) = 19.24693 26.13426 22.69060
#
# Velocity S-wave (km/s) = 3.18851 3.71545 3.46202
# Velocity P-wave (km/s) = 4.76064 5.61897 5.20752
#
# Compressibility (1/GPa) = 0.05799293
#
# Stress axis : x y z
#
# Youngs Moduli (GPa) = 57.84168 30.10869 51.56510
#
# Poissons Ratio (x) = -0.03696 -0.02309
# Poissons Ratio (y) = -0.07101 0.39325
# Poissons Ratio (z) = -0.02590 0.22961
#
# Static dielectric constant tensor:
#      x y z
#    x 1.697900 0.004050 0.017300 
#    y 0.004050 1.740330 0.018460 
#    z 0.017300 0.018460 1.659070 
# 
# From -- ./inp_files/378316.got.cif
#   From: 2010.05.17/outbox.cif.g08.bks.cpg/sg2_190_cif.got.tgz:378316.got - 2010.06.03 11:33:40.
