data_PCOD9084035
_publ_section_title
;
Structure prediction by ZEFSAII (Michael W. Deem and Ramdas Pophale) SiO2 
 PCOD9084035
Probable space group: P -1
;
_chemical_formula_sum "Si O2"
_cell_formula_units_Z 16
_cell_length_a 11.323648
_cell_length_b 9.176150
_cell_length_c 12.342656
_cell_angle_alpha 52.300489
_cell_angle_beta 104.561422
_cell_angle_gamma 133.207398
_cell_volume 707.841182
_symmetry_space_group_name_H-M "P -1"
_symmetry_group_IT_number 2
_symmetry_cell_setting 'triclinic'
loop_
_space_group_symop_operation_xyz
x,y,z
-x,-y,-z
loop_
_atom_site_type_symbol
_atom_site_label
_atom_site_fract_x
_atom_site_fract_y
_atom_site_fract_z
Si Si1 0.698725 0.156423 0.596751
Si Si2 0.809526 0.274461 0.943126
Si Si3 0.842663 0.553780 0.026977
Si Si4 0.695114 0.157595 0.351597
Si Si5 0.224696 0.504827 0.348515
Si Si6 0.360728 0.322625 0.141471
Si Si7 0.547759 0.734519 0.181015
Si Si8 0.305610 0.227164 0.594643
O O1 0.766314 0.227520 0.457674
O O2 0.786356 0.379192 0.601961
O O3 0.507379 0.033905 0.602185
O O4 0.690761 0.941326 0.737003
O O5 0.871223 0.488036 0.772088
O O6 0.962411 0.295442 0.989454
O O7 0.769217 0.345767 0.009862
O O8 0.644161 0.979793 0.014529
O O9 0.760149 0.400327 0.189163
O O10 0.794987 0.708931 0.912151
O O11 0.727173 0.001340 0.366188
O O12 0.411819 0.690376 0.249442
O O13 0.193275 0.266276 0.493410
O O14 0.443977 0.480860 0.201160
O O15 0.500000 0.500000 0.000000
O O16 0.690264 0.794845 0.264888
O O17 0.500000 0.500000 0.500000
#
# Coordination Sequence:
#
# PCOD9084035 Si02
#       8
#     2   2   2   2   2   2   2   2
#     4  11  22  36  63  94 125 162 204 256 317 367
#     4  11  23  41  66  89 125 169 212 260 310 363
#     4  11  24  43  61  93 130 165 207 261 315 367
#     4  11  21  38  58  92 130 160 199 258 318 369
#     4  11  21  38  64  97 122 161 217 259 304 370
#     4  12  24  38  64  99 127 163 205 261 315 371
#     4  11  21  38  64  93 125 159 214 260 299 368
#     4  10  19  34  59  93 124 151 202 266 304 356
#
# _framework density 22.603940999999999
#
# number of rings (size 3 to 8) (size 9 to 14) (size 15 to 20)
#    0.000    1.000    6.250    2.625    1.750    0.000 
#    0.000    5.000    0.000    0.000    0.000    0.000 
#    0.000    0.000    0.000    0.000    0.000    0.000 
#
# Total GULP energy -89415.137447 kJ/mol
# GULP energy per Si atom -5588.446090 kJ/mol
# Density = 2.255249 g / cm^3
# Si number density = 22.603941 Si / 1000 Ang^3
#
#
#
# Elastic Constant Matrix: (Units=GPa)
#
#
# Indices 1 2 3 4 5 6 
#
# 1 60.3500 31.4836 31.2898 7.1831 42.1872 -11.3059
# 2 31.4836 41.2500 29.2858 2.2878 6.8370 -18.9232
# 3 31.2898 29.2858 134.1111 20.6012 29.1728 -21.4692
# 4 7.1831 2.2878 20.6012 23.7499 -8.3705 -4.9153
# 5 42.1872 6.8370 29.1728 -8.3705 42.9556 -3.8259
# 6 -11.3059 -18.9232 -21.4692 -4.9153 -3.8259 27.8195
#
#
#
# Elastic Compliance Matrix: (Units=1/GPa)
#
#
# Indices 1 2 3 4 5 6 
#
# 1 -0.063321 0.054946 -0.022876 0.066708 0.083516 0.017259
# 2 0.054946 -0.009249 0.013778 -0.051114 -0.071108 0.007861
# 3 -0.022876 0.013778 0.005616 0.009218 0.019027 0.008655
# 4 0.066708 -0.051114 0.009218 -0.006591 -0.065883 -0.010770
# 5 0.083516 -0.071108 0.019027 -0.065883 -0.075118 -0.021716
# 6 0.017259 0.007861 0.008655 -0.010770 -0.021716 0.050097
#
#
# Mechanical properties :
#
#
# Convention : Reuss Voigt Hill
#
# Bulk Modulus (GPa) = 40.41834 46.64772 43.53303
# Shear Modulus (GPa) = -27.46993 28.48177 0.50592
#
# Velocity S-wave (km/s) = -3.48986 3.55355 0.47361
# Velocity P-wave (km/s) = 1.29658 6.12525 4.42718
#
# Compressibility (1/GPa) = 0.02474125
#
# Stress axis : x y z
#
# Youngs Moduli (GPa) = -15.79250 -108.11435 178.07585
#
# Poissons Ratio (x) = 5.94043 4.07368
# Poissons Ratio (y) = 0.86773 -2.45361
# Poissons Ratio (z) = -0.36127 1.48965
#
# Static dielectric constant tensor:
#      x y z
#    x 1.864580 0.034130 0.017910 
#    y 0.034130 1.825270 0.027660 
#    z 0.017910 0.027660 1.918210 
# 
# From -- ./inp_files/418957.got.cif
#   From: 2010.05.17/outbox.cif.g08.bks.cpg/sg2_210_cif.got.tgz:418957.got - 2010.06.03 11:33:40.
