data_PCOD9084157
_publ_section_title
;
Structure prediction by ZEFSAII (Michael W. Deem and Ramdas Pophale) SiO2 
 PCOD9084157
Probable space group: P -1
;
_chemical_formula_sum "Si O2"
_cell_formula_units_Z 16
_cell_length_a 8.144223
_cell_length_b 12.043005
_cell_length_c 12.102891
_cell_angle_alpha 126.117668
_cell_angle_beta 100.177894
_cell_angle_gamma 52.696964
_cell_volume 732.045437
_symmetry_space_group_name_H-M "P -1"
_symmetry_group_IT_number 2
_symmetry_cell_setting 'triclinic'
loop_
_space_group_symop_operation_xyz
x,y,z
-x,-y,-z
loop_
_atom_site_type_symbol
_atom_site_label
_atom_site_fract_x
_atom_site_fract_y
_atom_site_fract_z
Si Si1 0.215104 0.378343 0.608175
Si Si2 0.029683 0.664515 0.275730
Si Si3 0.104850 0.266631 0.333533
Si Si4 0.728147 0.349888 0.495291
Si Si5 0.009958 0.052298 0.706009
Si Si6 0.618142 0.595813 0.968220
Si Si7 0.442852 0.696824 0.241347
Si Si8 0.827429 0.072063 0.927340
O O1 0.252499 0.281360 0.439907
O O2 0.411527 0.363079 0.669459
O O3 0.155558 0.300365 0.649694
O O4 0.004559 0.582769 0.684393
O O5 0.211764 0.622503 0.360644
O O6 0.946195 0.830602 0.285055
O O7 0.156258 0.488523 0.111543
O O8 0.198713 0.074908 0.191406
O O9 0.904065 0.327142 0.422039
O O10 0.500000 0.500000 0.500000
O O11 0.795502 0.155048 0.393900
O O12 0.787391 0.108363 0.657875
O O13 0.924728 0.104324 0.852699
O O14 0.614374 0.431463 0.868166
O O15 0.573554 0.672218 0.131867
O O16 0.406984 0.750620 0.967542
O O17 0.000000 0.000000 0.000000
#
# Coordination Sequence:
#
# PCOD9084157 Si02
#       8
#     2   2   2   2   2   2   2   2
#     4  10  20  38  61  81 121 167 186 239 307 350
#     4  10  21  36  56  87 124 147 194 252 287 350
#     4   9  21  37  55  88 118 155 208 235 283 377
#     4  10  21  35  61  84 116 157 195 247 298 335
#     4   9  20  37  58  91 116 142 210 252 276 353
#     4   9  19  34  56  89 111 145 207 243 278 351
#     4   9  18  35  61  82 114 157 191 242 294 339
#     4  10  19  34  61  85 117 154 198 247 291 341
#
# _framework density 21.856566000000001
#
# number of rings (size 3 to 8) (size 9 to 14) (size 15 to 20)
#    0.000    2.500    0.000    1.875    7.000    0.500 
#    0.000   10.625   16.500    0.000    0.000    0.000 
#    0.000    0.000    0.000    0.000    0.000    0.000 
#
# Total GULP energy -89274.324534 kJ/mol
# GULP energy per Si atom -5579.645283 kJ/mol
# Density = 2.180682 g / cm^3
# Si number density = 21.856566 Si / 1000 Ang^3
#
#
#
# Elastic Constant Matrix: (Units=GPa)
#
#
# Indices 1 2 3 4 5 6 
#
# 1 23.6126 18.3686 10.4018 -4.2843 7.8617 2.2121
# 2 18.3686 140.1821 36.5228 4.2229 12.4589 -1.0870
# 3 10.4018 36.5228 39.7692 7.6339 0.8595 -9.4303
# 4 -4.2843 4.2229 7.6339 36.9090 -7.3176 0.3397
# 5 7.8617 12.4589 0.8595 -7.3176 22.2999 -8.8322
# 6 2.2121 -1.0870 -9.4303 0.3397 -8.8322 41.1859
#
#
#
# Elastic Compliance Matrix: (Units=1/GPa)
#
#
# Indices 1 2 3 4 5 6 
#
# 1 0.061750 -0.001520 -0.018535 0.006735 -0.022980 -0.012584
# 2 -0.001520 0.010415 -0.009678 -0.000602 -0.006384 -0.003223
# 3 -0.018535 -0.009678 0.043244 -0.007502 0.013171 0.013528
# 4 0.006735 -0.000602 -0.007502 0.031134 0.008236 -0.000586
# 5 -0.022980 -0.006384 0.013171 0.008236 0.065892 0.018144
# 6 -0.012584 -0.003223 0.013528 -0.000586 0.018144 0.031864
#
#
# Mechanical properties :
#
#
# Convention : Reuss Voigt Hill
#
# Bulk Modulus (GPa) = 17.87547 37.12780 27.50164
# Shear Modulus (GPa) = 15.50810 29.29700 22.40255
#
# Velocity S-wave (km/s) = 2.66661 3.66515 3.20500
# Velocity P-wave (km/s) = 4.20444 5.91058 5.12895
#
# Compressibility (1/GPa) = 0.05594258
#
# Stress axis : x y z
#
# Youngs Moduli (GPa) = 16.19439 96.01760 23.12473
#
# Poissons Ratio (x) = 0.14599 0.42861
# Poissons Ratio (y) = 0.02462 0.22379
# Poissons Ratio (z) = 0.30016 0.92923
#
# Static dielectric constant tensor:
#      x y z
#    x 1.863020 0.035860 -0.016210 
#    y 0.035860 1.825720 -0.015680 
#    z -0.016210 -0.015680 1.855070 
# 
# From -- ./inp_files/345621.got.cif
#   From: 2010.05.17/outbox.cif.g08.bks.cpg/sg2_173_cif.got.tgz:345621.got - 2010.06.03 11:33:40.
