data_PCOD9084492
_publ_section_title
;
Structure prediction by ZEFSAII (Michael W. Deem and Ramdas Pophale) SiO2 
 PCOD9084492
Probable space group: P -1
;
_chemical_formula_sum "Si O2"
_cell_formula_units_Z 16
_cell_length_a 19.171020
_cell_length_b 5.463650
_cell_length_c 8.766889
_cell_angle_alpha 82.592115
_cell_angle_beta 51.079280
_cell_angle_gamma 107.013693
_cell_volume 619.866603
_symmetry_space_group_name_H-M "P -1"
_symmetry_group_IT_number 2
_symmetry_cell_setting 'triclinic'
loop_
_space_group_symop_operation_xyz
x,y,z
-x,-y,-z
loop_
_atom_site_type_symbol
_atom_site_label
_atom_site_fract_x
_atom_site_fract_y
_atom_site_fract_z
Si Si1 0.601379 0.799148 0.865274
Si Si2 0.066688 0.607238 0.666628
Si Si3 0.973594 0.926974 0.364095
Si Si4 0.400363 0.617356 0.591168
Si Si5 0.596856 0.081191 0.136080
Si Si6 0.206371 0.143483 0.252458
Si Si7 0.246174 0.792444 0.631372
Si Si8 0.250704 0.032652 0.902699
O O1 0.677580 0.729972 0.866353
O O2 0.668115 0.956295 0.611478
O O3 0.500000 0.500000 0.000000
O O4 0.592852 0.038246 0.962057
O O5 0.996395 0.292601 0.729891
O O6 0.009199 0.790887 0.769504
O O7 0.140157 0.813255 0.415124
O O8 0.146239 0.613896 0.681191
O O9 0.849214 0.737944 0.570588
O O10 0.000000 0.000000 0.500000
O O11 0.499352 0.784073 0.339739
O O12 0.357731 0.288188 0.677212
O O13 0.420323 0.725133 0.730824
O O14 0.309383 0.657654 0.635801
O O15 0.708762 0.132795 0.031508
O O16 0.200854 0.161838 0.076530
O O17 0.201613 0.890010 0.825583
#
# Coordination Sequence:
#
# PCOD9084492 Si02
#       8
#     2   2   2   2   2   2   2   2
#     4  10  19  35  53  78 116 154 196 249 295 348
#     4   9  21  38  62  94 122 146 195 243 298 354
#     4  10  20  39  68  94 119 151 194 244 300 356
#     4  10  20  32  53  72 107 157 195 250 288 357
#     4   9  20  34  47  74 103 149 210 247 291 341
#     4   8  21  35  57  86 113 158 197 247 286 355
#     4  10  22  34  52  85 115 155 195 243 306 344
#     4  10  19  36  53  76 110 155 196 237 298 346
#
# _framework density 25.812003000000001
#
# number of rings (size 3 to 8) (size 9 to 14) (size 15 to 20)
#    0.750    1.750    0.000    1.500    1.750   10.500 
#    0.000    1.250    0.000    1.500    0.000    0.000 
#    0.000    0.000    0.000    0.000    0.000    0.000 
#
# Total GULP energy -89152.487708 kJ/mol
# GULP energy per Si atom -5572.030482 kJ/mol
# Density = 2.575325 g / cm^3
# Si number density = 25.812003 Si / 1000 Ang^3
#
#
#
# Elastic Constant Matrix: (Units=GPa)
#
#
# Indices 1 2 3 4 5 6 
#
# 1 79.8586 33.1884 16.8324 1.8565 23.6635 16.8940
# 2 33.1884 101.4137 19.2557 10.6535 9.0396 18.8093
# 3 16.8324 19.2557 119.5432 20.8879 11.5548 3.0803
# 4 1.8565 10.6535 20.8879 33.5289 8.1807 5.4716
# 5 23.6635 9.0396 11.5548 8.1807 30.2189 8.2171
# 6 16.8940 18.8093 3.0803 5.4716 8.2171 34.2716
#
#
#
# Elastic Compliance Matrix: (Units=1/GPa)
#
#
# Indices 1 2 3 4 5 6 
#
# 1 0.019664 -0.004645 -0.001531 0.005419 -0.013640 -0.004602
# 2 -0.004645 0.012514 -0.000952 -0.002940 0.002298 -0.004574
# 3 -0.001531 -0.000952 0.009800 -0.005695 -0.001152 0.001582
# 4 0.005419 -0.002940 -0.005695 0.037141 -0.010142 -0.004044
# 5 -0.013640 0.002298 -0.001152 -0.010142 0.047409 -0.004182
# 6 -0.004602 -0.004574 0.001582 -0.004044 -0.004182 0.035464
#
#
# Mechanical properties :
#
#
# Convention : Reuss Voigt Hill
#
# Bulk Modulus (GPa) = 36.07163 48.81872 42.44517
# Shear Modulus (GPa) = 26.95603 35.03981 30.99792
#
# Velocity S-wave (km/s) = 3.23510 3.68842 3.46918
# Velocity P-wave (km/s) = 5.28768 6.09045 5.70321
#
# Compressibility (1/GPa) = 0.02772262
#
# Stress axis : x y z
#
# Youngs Moduli (GPa) = 50.85390 79.91138 102.04349
#
# Poissons Ratio (x) = 0.37116 0.15620
# Poissons Ratio (y) = 0.23620 0.09717
# Poissons Ratio (z) = 0.07784 0.07609
#
# Static dielectric constant tensor:
#      x y z
#    x 2.176800 -0.086660 -0.055130 
#    y -0.086660 2.107900 0.031950 
#    z -0.055130 0.031950 2.026750 
# 
# From -- ./inp_files/116084.got.cif
#   From: 2010.05.17/outbox.cif.g08.bks.cpg/sg2_59_cif.got.tgz:116084.got - 2010.06.03 11:33:40.
