data_PCOD9084524
_publ_section_title
;
Structure prediction by ZEFSAII (Michael W. Deem and Ramdas Pophale) SiO2 
 PCOD9084524
Probable space group: P -1
;
_chemical_formula_sum "Si O2"
_cell_formula_units_Z 14
_cell_length_a 7.776095
_cell_length_b 12.577731
_cell_length_c 9.445815
_cell_angle_alpha 119.426837
_cell_angle_beta 48.243482
_cell_angle_gamma 121.865803
_cell_volume 570.897646
_symmetry_space_group_name_H-M "P -1"
_symmetry_group_IT_number 2
_symmetry_cell_setting 'triclinic'
loop_
_space_group_symop_operation_xyz
x,y,z
-x,-y,-z
loop_
_atom_site_type_symbol
_atom_site_label
_atom_site_fract_x
_atom_site_fract_y
_atom_site_fract_z
Si Si1 0.443958 0.321696 0.949082
Si Si2 0.723613 0.178666 0.847280
Si Si3 0.212298 0.352388 0.573989
Si Si4 0.053868 0.823667 0.793984
Si Si5 0.462883 0.233317 0.585505
Si Si6 0.950321 0.032413 0.818600
Si Si7 0.370797 0.595589 0.823048
O O1 0.614253 0.424296 0.028887
O O2 0.164366 0.299878 0.119574
O O3 0.496592 0.187806 0.885201
O O4 0.504944 0.328789 0.757690
O O5 0.952942 0.248342 0.668004
O O6 0.768456 0.054764 0.812465
O O7 0.714447 0.276948 0.045253
O O8 0.396677 0.301383 0.531216
O O9 0.209056 0.481404 0.741937
O O10 0.354311 0.380583 0.367755
O O11 0.300444 0.804620 0.597071
O O12 0.959082 0.892853 0.762193
O O13 0.102481 0.909681 0.965738
O O14 0.220862 0.116690 0.678160
#
# Coordination Sequence:
#
# PCOD9084524 Si02
#       7
#     2   2   2   2   2   2   2
#     4   9  22  33  52  79 113 129 171 210 275 288
#     4   9  19  35  54  76 105 134 170 220 250 307
#     4  10  19  35  60  74 100 139 184 200 258 307
#     4  10  19  35  54  76 110 137 167 221 248 313
#     4  10  20  35  54  80 102 141 169 217 250 313
#     4   9  19  35  56  78  99 140 183 201 259 304
#     4   9  20  35  54  81 100 137 172 218 253 309
#
# _framework density 24.522784000000001
#
# number of rings (size 3 to 8) (size 9 to 14) (size 15 to 20)
#    0.857    1.714    0.000    1.714    2.000    1.143 
#    0.000    1.429    0.000    0.000    0.000    0.000 
#    0.000    0.000    0.000    0.000    0.000    0.000 
#
# Total GULP energy -78159.897604 kJ/mol
# GULP energy per Si atom -5582.849829 kJ/mol
# Density = 2.446697 g / cm^3
# Si number density = 24.522784 Si / 1000 Ang^3
#
#
#
# Elastic Constant Matrix: (Units=GPa)
#
#
# Indices 1 2 3 4 5 6 
#
# 1 -78.8079 -28.4001 -96.4313 6.1974 -61.8026 102.9428
# 2 -28.4001 28.8967 -15.4052 0.9284 -29.3830 21.5788
# 3 -96.4313 -15.4052 24.2864 -1.0041 -62.4597 107.6343
# 4 6.1974 0.9284 -1.0041 18.9545 1.6825 -12.4675
# 5 -61.8026 -29.3830 -62.4597 1.6825 22.0907 48.7477
# 6 102.9428 21.5788 107.6343 -12.4675 48.7477 -65.3224
#
#
#
# Elastic Compliance Matrix: (Units=1/GPa)
#
#
# Indices 1 2 3 4 5 6 
#
# 1 0.018403 0.000066 -0.005976 0.004767 -0.002265 0.016575
# 2 0.000066 0.033705 -0.003724 0.004673 0.009385 0.011213
# 3 -0.005976 -0.003724 0.007965 0.003248 -0.001321 0.000870
# 4 0.004767 0.004673 0.003248 0.056055 0.006151 0.008299
# 5 -0.002265 0.009385 -0.001321 0.006151 0.021022 0.011868
# 6 0.016575 0.011213 0.000870 0.008299 0.011868 0.023223
#
#
# Mechanical properties :
#
#
# Convention : Reuss Voigt Hill
#
# Bulk Modulus (GPa) = 24.50788 -34.01090 -4.75151
# Shear Modulus (GPa) = 25.87413 2.78534 14.32974
#
# Velocity S-wave (km/s) = 3.25176 1.06690 2.41994
# Velocity P-wave (km/s) = 4.91062 3.51873 2.42206
#
# Compressibility (1/GPa) = 0.04080320
#
# Stress axis : x y z
#
# Youngs Moduli (GPa) = 54.33959 29.66945 125.54954
#
# Poissons Ratio (x) = -0.00197 0.75034
# Poissons Ratio (y) = -0.00360 0.46761
# Poissons Ratio (z) = 0.32476 0.11050
#
# Static dielectric constant tensor:
#      x y z
#    x 1.946290 -0.013790 0.006030 
#    y -0.013790 2.027410 0.002410 
#    z 0.006030 0.002410 1.919950 
# 
# From -- ./inp_files/45007.got.cif
#   From: 2010.05.17/outbox.cif.g08.bks.cpg/sg2_23_cif.got.tgz:45007.got - 2010.06.03 11:33:40.
