data_PCOD9084594
_publ_section_title
;
Structure prediction by ZEFSAII (Michael W. Deem and Ramdas Pophale) SiO2 
 PCOD9084594
Probable space group: P -1
;
_chemical_formula_sum "Si O2"
_cell_formula_units_Z 16
_cell_length_a 16.854601
_cell_length_b 24.910613
_cell_length_c 13.577749
_cell_angle_alpha 157.341386
_cell_angle_beta 32.337559
_cell_angle_gamma 159.632445
_cell_volume 755.617038
_symmetry_space_group_name_H-M "P -1"
_symmetry_group_IT_number 2
_symmetry_cell_setting 'triclinic'
loop_
_space_group_symop_operation_xyz
x,y,z
-x,-y,-z
loop_
_atom_site_type_symbol
_atom_site_label
_atom_site_fract_x
_atom_site_fract_y
_atom_site_fract_z
Si Si1 0.160237 0.650714 0.819568
Si Si2 0.995000 0.935198 0.786227
Si Si3 0.243301 0.032828 0.067147
Si Si4 0.430047 0.119686 0.377814
Si Si5 0.198415 0.671335 0.501015
Si Si6 0.595603 0.614783 0.933016
Si Si7 0.804063 0.750514 0.153305
Si Si8 0.279664 0.498211 0.571017
O O1 0.371592 0.751711 0.696815
O O2 0.137491 0.518452 0.703343
O O3 0.918174 0.481468 0.730355
O O4 0.254480 0.865078 0.121764
O O5 0.858381 0.941989 0.869325
O O6 0.868285 0.697180 0.526602
O O7 0.000000 0.000000 0.000000
O O8 0.259605 0.140551 0.822602
O O9 0.496760 0.268525 0.223078
O O10 0.076905 0.934055 0.169834
O O11 0.227709 0.857676 0.764936
O O12 0.571822 0.211541 0.486192
O O13 0.284803 0.156237 0.583601
O O14 0.000000 0.500000 0.500000
O O15 0.328934 0.429850 0.928950
O O16 0.638564 0.547281 0.679891
O O17 0.711830 0.635519 0.946896
#
# Coordination Sequence:
#
# PCOD9084594 Si02
#       8
#     2   2   2   2   2   2   2   2
#     4  10  19  35  55  79 117 146 199 233 284 332
#     4   9  19  34  57  79 108 148 198 239 279 321
#     4  11  22  36  55  91 115 149 187 238 291 347
#     4  10  20  36  53  82 116 155 183 239 282 353
#     4  10  21  33  55  81 114 147 193 229 285 342
#     4   9  19  33  52  80 110 150 182 233 287 334
#     4  10  20  35  55  79 126 145 183 232 297 349
#     4  11  19  36  56  86 113 149 197 244 273 333
#
# _framework density 21.174748000000001
#
# number of rings (size 3 to 8) (size 9 to 14) (size 15 to 20)
#    0.000    2.000    2.500    2.625    7.000    0.500 
#    2.250    0.000    0.000    3.000    0.000    7.875 
#    0.000    0.000    0.000    0.000    0.000    0.000 
#
# Total GULP energy -89318.946967 kJ/mol
# GULP energy per Si atom -5582.434185 kJ/mol
# Density = 2.112655 g / cm^3
# Si number density = 21.174748 Si / 1000 Ang^3
#
#
#
# Elastic Constant Matrix: (Units=GPa)
#
#
# Indices 1 2 3 4 5 6 
#
# 1 88.2748 36.9917 41.4262 21.1478 -12.4230 -0.5253
# 2 36.9917 91.5359 49.3793 35.3489 -9.6189 -7.5489
# 3 41.4262 49.3793 124.7377 33.5811 -10.3187 8.0285
# 4 21.1478 35.3489 33.5811 43.0442 -3.8624 -3.7580
# 5 -12.4230 -9.6189 -10.3187 -3.8624 33.9652 10.6187
# 6 -0.5253 -7.5489 8.0285 -3.7580 10.6187 32.8407
#
#
#
# Elastic Compliance Matrix: (Units=1/GPa)
#
#
# Indices 1 2 3 4 5 6 
#
# 1 0.015117 -0.003544 -0.002584 -0.002276 0.003944 -0.001477
# 2 -0.003544 0.018697 -0.003618 -0.010414 0.000540 0.003759
# 3 -0.002584 -0.003618 0.012426 -0.005675 0.002877 -0.005490
# 4 -0.002276 -0.010414 -0.005675 0.037458 -0.002514 0.004057
# 5 0.003944 0.000540 0.002877 -0.002514 0.035461 -0.012270
# 6 -0.001477 0.003759 -0.005490 0.004057 -0.012270 0.037064
#
#
# Mechanical properties :
#
#
# Convention : Reuss Voigt Hill
#
# Bulk Modulus (GPa) = 37.38417 62.23809 49.81113
# Shear Modulus (GPa) = 27.08087 33.75343 30.41715
#
# Velocity S-wave (km/s) = 3.58008 3.99688 3.79421
# Velocity P-wave (km/s) = 5.89769 7.12436 6.53985
#
# Compressibility (1/GPa) = 0.02674929
#
# Stress axis : x y z
#
# Youngs Moduli (GPa) = 66.14940 53.48428 80.47448
#
# Poissons Ratio (x) = 0.18954 0.20791
# Poissons Ratio (y) = 0.23442 0.29118
# Poissons Ratio (z) = 0.17090 0.19352
#
# Static dielectric constant tensor:
#      x y z
#    x 1.800980 0.000670 0.004220 
#    y 0.000670 1.797290 0.019400 
#    z 0.004220 0.019400 1.786930 
# 
# From -- ./inp_files/506737.got.cif
#   From: 2010.05.17/outbox.cif.g08.bks.cpg/sg2_254_cif.got.tgz:506737.got - 2010.06.03 11:33:40.
