data_PCOD9084809
_publ_section_title
;
Structure prediction by ZEFSAII (Michael W. Deem and Ramdas Pophale) SiO2 
 PCOD9084809
Probable space group: P -1
;
_chemical_formula_sum "Si O2"
_cell_formula_units_Z 14
_cell_length_a 13.041446
_cell_length_b 15.251053
_cell_length_c 8.672197
_cell_angle_alpha 32.051085
_cell_angle_beta 42.317773
_cell_angle_gamma 54.400559
_cell_volume 611.425962
_symmetry_space_group_name_H-M "P -1"
_symmetry_group_IT_number 2
_symmetry_cell_setting 'triclinic'
loop_
_space_group_symop_operation_xyz
x,y,z
-x,-y,-z
loop_
_atom_site_type_symbol
_atom_site_label
_atom_site_fract_x
_atom_site_fract_y
_atom_site_fract_z
Si Si1 0.466367 0.815685 0.890723
Si Si2 0.301354 0.078481 0.296338
Si Si3 0.960030 0.681699 0.316505
Si Si4 0.850207 0.129934 0.931271
Si Si5 0.009835 0.879695 0.521676
Si Si6 0.626677 0.557222 0.902230
Si Si7 0.227859 0.765545 0.666532
O O1 0.534531 0.832649 0.961990
O O2 0.553075 0.677021 0.921570
O O3 0.500000 0.000000 0.500000
O O4 0.287026 0.772556 0.120171
O O5 0.168611 0.182419 0.225050
O O6 0.326654 0.938218 0.350218
O O7 0.224846 0.995355 0.665374
O O8 0.780358 0.669073 0.502524
O O9 0.000000 0.500000 0.500000
O O10 0.012397 0.743893 0.335729
O O11 0.088092 0.778242 0.923282
O O12 0.914272 0.045927 0.833855
O O13 0.133448 0.761142 0.619274
O O14 0.000000 0.000000 0.500000
O O15 0.500000 0.500000 0.000000
O O16 0.686707 0.393957 0.154891
#
# Coordination Sequence:
#
# PCOD9084809 Si02
#       7
#     2   2   2   2   2   2   2
#     4  10  20  33  54  83 109 140 185 231 270 318
#     4   9  18  36  58  82 109 146 186 225 271 325
#     4   9  18  35  58  81 105 142 186 224 269 329
#     4  10  19  35  57  82 110 146 188 226 268 329
#     4  10  20  35  55  80 112 146 184 229 275 325
#     4  11  20  35  57  82 110 142 181 229 276 329
#     4   9  20  37  55  82 113 144 183 228 275 325
#
# _framework density 22.897293999999999
#
# number of rings (size 3 to 8) (size 9 to 14) (size 15 to 20)
#    0.000    2.286    0.000    4.714    0.000    5.714 
#    0.000   11.429    0.000    0.000    0.000    0.000 
#    0.000    0.000    0.000    0.000    0.000    0.000 
#
# Total GULP energy -77936.480612 kJ/mol
# GULP energy per Si atom -5566.891472 kJ/mol
# Density = 2.284518 g / cm^3
# Si number density = 22.897294 Si / 1000 Ang^3
#
#
#
# Elastic Constant Matrix: (Units=GPa)
#
#
# Indices 1 2 3 4 5 6 
#
# 1 210.2568 49.7444 31.8575 -18.6212 -23.9299 -26.6805
# 2 49.7444 127.6429 18.7088 -6.0148 4.6341 -16.1541
# 3 31.8575 18.7088 21.1592 -1.0925 -11.5550 1.7134
# 4 -18.6212 -6.0148 -1.0925 29.3163 -1.4112 1.7500
# 5 -23.9299 4.6341 -11.5550 -1.4112 38.8270 -0.7684
# 6 -26.6805 -16.1541 1.7134 1.7500 -0.7684 46.5737
#
#
#
# Elastic Compliance Matrix: (Units=1/GPa)
#
#
# Indices 1 2 3 4 5 6 
#
# 1 0.007565 -0.000894 -0.009552 0.004116 0.002160 0.004256
# 2 -0.000894 0.010401 -0.010764 0.000727 -0.004902 0.003383
# 3 -0.009552 -0.010764 0.082653 -0.003547 0.019633 -0.011789
# 4 0.004116 0.000727 -0.003547 0.036791 0.002759 0.001404
# 5 0.002160 -0.004902 0.019633 0.002759 0.033601 -0.000734
# 6 0.004256 0.003383 -0.011789 0.001404 -0.000734 0.025452
#
#
# Mechanical properties :
#
#
# Convention : Reuss Voigt Hill
#
# Bulk Modulus (GPa) = 17.18242 62.18671 39.68456
# Shear Modulus (GPa) = 19.35855 40.19325 29.77590
#
# Velocity S-wave (km/s) = 2.91082 4.19426 3.61003
# Velocity P-wave (km/s) = 4.33792 7.11855 5.89454
#
# Compressibility (1/GPa) = 0.05819903
#
# Stress axis : x y z
#
# Youngs Moduli (GPa) = 132.17899 96.14574 12.09872
#
# Poissons Ratio (x) = 0.08596 0.11557
# Poissons Ratio (y) = 0.11818 0.13023
# Poissons Ratio (z) = 1.26263 1.03490
#
# Static dielectric constant tensor:
#      x y z
#    x 2.082580 0.091900 -0.159060 
#    y 0.091900 1.946040 -0.221800 
#    z -0.159060 -0.221800 2.726680 
# 
# From -- ./inp_files/154813.got.cif
#   From: 2010.05.17/outbox.cif.g08.bks.cpg/sg2_78_cif.got.tgz:154813.got - 2010.06.03 11:33:40.
