data_PCOD9084302
_publ_section_title
;
Structure prediction by ZEFSAII (Michael W. Deem and Ramdas Pophale) SiO2 
 PCOD9084302
Probable space group: P -1
;
_chemical_formula_sum "Si O2"
_cell_formula_units_Z 14
_cell_length_a 8.467250
_cell_length_b 8.923442
_cell_length_c 12.627562
_cell_angle_alpha 142.427286
_cell_angle_beta 111.950087
_cell_angle_gamma 69.927352
_cell_volume 537.744454
_symmetry_space_group_name_H-M "P -1"
_symmetry_group_IT_number 2
_symmetry_cell_setting 'triclinic'
loop_
_space_group_symop_operation_xyz
x,y,z
-x,-y,-z
loop_
_atom_site_type_symbol
_atom_site_label
_atom_site_fract_x
_atom_site_fract_y
_atom_site_fract_z
Si Si1 0.200896 0.750640 0.236550
Si Si2 0.353895 0.042943 0.074036
Si Si3 0.645902 0.374038 0.570548
Si Si4 0.248489 0.424183 0.479989
Si Si5 0.921296 0.331479 0.226262
Si Si6 0.509763 0.205264 0.818489
Si Si7 0.860636 0.663558 0.184773
O O1 0.288009 0.719525 0.353979
O O2 0.340838 0.877535 0.273333
O O3 0.006769 0.826519 0.267152
O O4 0.181400 0.506708 0.022332
O O5 0.336326 0.333401 0.246729
O O6 0.178308 0.915970 0.939481
O O7 0.432104 0.905867 0.118635
O O8 0.500000 0.000000 0.000000
O O9 0.447827 0.331666 0.484275
O O10 0.742638 0.334696 0.460352
O O11 0.100325 0.282551 0.307012
O O12 0.188708 0.489796 0.619833
O O13 0.922178 0.476647 0.193927
O O14 0.310378 0.175376 0.730152
O O15 0.500000 0.500000 0.000000
#
# Coordination Sequence:
#
# PCOD9084302 Si02
#       7
#     2   2   2   2   2   2   2
#     4  10  19  36  62  94 121 163 211 267 305 384
#     4  12  22  37  65 101 124 158 216 280 308 355
#     4  11  22  40  63  97 126 162 210 264 325 365
#     4  10  23  38  60  88 133 176 194 249 328 407
#     4  11  20  40  62  94 121 167 216 253 311 386
#     4  10  19  35  59  92 124 160 201 267 318 364
#     4  10  19  34  62  94 116 161 220 261 298 378
#
# _framework density 26.034670999999999
#
# number of rings (size 3 to 8) (size 9 to 14) (size 15 to 20)
#    0.000    1.429    5.714    2.571    0.000    0.571 
#    0.000    1.429    0.000    8.571    3.714    0.000 
#    0.000    0.000    0.000    0.000    0.000    0.000 
#
# Total GULP energy -78228.652243 kJ/mol
# GULP energy per Si atom -5587.760874 kJ/mol
# Density = 2.597541 g / cm^3
# Si number density = 26.034671 Si / 1000 Ang^3
#
#
#
# Elastic Constant Matrix: (Units=GPa)
#
#
# Indices 1 2 3 4 5 6 
#
# 1 254.0539 52.8220 48.0994 -10.1410 5.7020 8.7329
# 2 52.8220 72.6069 38.3187 -25.0549 12.1312 15.8391
# 3 48.0994 38.3187 116.6920 -19.7420 14.5635 6.6968
# 4 -10.1410 -25.0549 -19.7420 41.0331 11.7560 4.0566
# 5 5.7020 12.1312 14.5635 11.7560 55.5382 -14.8881
# 6 8.7329 15.8391 6.6968 4.0566 -14.8881 47.0024
#
#
#
# Elastic Compliance Matrix: (Units=1/GPa)
#
#
# Indices 1 2 3 4 5 6 
#
# 1 0.004926 -0.004569 -0.001366 -0.002948 0.001926 0.001683
# 2 -0.004569 0.032851 -0.001813 0.024325 -0.015970 -0.017121
# 3 -0.001366 -0.001813 0.011343 0.005499 -0.004295 -0.002587
# 4 -0.002948 0.024325 0.005499 0.049456 -0.022212 -0.019737
# 5 0.001926 -0.015970 -0.004295 -0.022212 0.031854 0.017642
# 6 0.001683 -0.017121 -0.002587 -0.019737 0.017642 0.034392
#
#
# Mechanical properties :
#
#
# Convention : Reuss Voigt Hill
#
# Bulk Modulus (GPa) = 29.74092 80.20367 54.97230
# Shear Modulus (GPa) = 26.10630 48.98892 37.54761
#
# Velocity S-wave (km/s) = 3.17006 4.34254 3.80177
# Velocity P-wave (km/s) = 4.98472 7.48444 6.35863
#
# Compressibility (1/GPa) = 0.03362371
#
# Stress axis : x y z
#
# Youngs Moduli (GPa) = 203.00555 30.44075 88.16224
#
# Poissons Ratio (x) = 0.13908 0.12040
# Poissons Ratio (y) = 0.92754 0.15985
# Poissons Ratio (z) = 0.27724 0.05519
#
# Static dielectric constant tensor:
#      x y z
#    x 2.190990 0.063990 -0.049360 
#    y 0.063990 1.989610 0.041300 
#    z -0.049360 0.041300 2.132660 
# 
# From -- ./inp_files/201549.got.cif
#   From: 2010.05.17/outbox.cif.g08.bks.cpg/sg2_101_cif.got.tgz:201549.got - 2010.06.03 11:33:40.
