data_PCOD9084462
_publ_section_title
;
Structure prediction by ZEFSAII (Michael W. Deem and Ramdas Pophale) SiO2 
 PCOD9084462
Probable space group: P -1
;
_chemical_formula_sum "Si O2"
_cell_formula_units_Z 14
_cell_length_a 21.903997
_cell_length_b 9.081389
_cell_length_c 10.282337
_cell_angle_alpha 137.277173
_cell_angle_beta 36.649091
_cell_angle_gamma 129.782953
_cell_volume 821.860957
_symmetry_space_group_name_H-M "P -1"
_symmetry_group_IT_number 2
_symmetry_cell_setting 'triclinic'
loop_
_space_group_symop_operation_xyz
x,y,z
-x,-y,-z
loop_
_atom_site_type_symbol
_atom_site_label
_atom_site_fract_x
_atom_site_fract_y
_atom_site_fract_z
Si Si1 0.241866 0.556703 0.769613
Si Si2 0.077615 0.810202 0.111217
Si Si3 0.483515 0.857113 0.805381
Si Si4 0.405113 0.967830 0.740276
Si Si5 0.768624 0.765297 0.902003
Si Si6 0.334029 0.405157 0.767265
Si Si7 0.133819 0.411947 0.613570
O O1 0.344547 0.722650 0.672898
O O2 0.259832 0.434713 0.791717
O O3 0.211086 0.405539 0.599349
O O4 0.148775 0.708150 0.031779
O O5 0.959884 0.782822 0.339338
O O6 0.136114 0.042112 0.122269
O O7 0.085426 0.637448 0.867533
O O8 0.442705 0.987891 0.838083
O O9 0.402024 0.640220 0.827096
O O10 0.587446 0.764683 0.519213
O O11 0.500000 0.000000 0.000000
O O12 0.500000 0.000000 0.500000
O O13 0.323683 0.128850 0.942433
O O14 0.808154 0.593792 0.624090
O O15 0.727267 0.672479 0.049322
#
# Coordination Sequence:
#
# PCOD9084462 Si02
#       7
#     2   2   2   2   2   2   2
#     4   8  18  35  54  70 107 138 163 212 261 300
#     4   8  18  36  57  74 106 132 173 218 252 307
#     4  10  22  36  53  68 107 147 171 203 261 302
#     4  10  19  35  51  77 106 136 171 216 250 301
#     4  11  20  32  57  80 103 134 176 214 255 302
#     4  10  21  36  48  79 108 131 171 221 250 301
#     4   9  18  35  59  76  98 139 179 205 260 310
#
# _framework density 17.034510000000001
#
# number of rings (size 3 to 8) (size 9 to 14) (size 15 to 20)
#    0.857    1.714    1.429    0.429    2.000    2.286 
#    0.000    2.857    0.000    0.000    0.000    0.000 
#    0.000    0.000    0.000    0.000    0.000    0.000 
#
# Total GULP energy -77934.487518 kJ/mol
# GULP energy per Si atom -5566.749108 kJ/mol
# Density = 1.699574 g / cm^3
# Si number density = 17.034510 Si / 1000 Ang^3
#
#
#
# Elastic Constant Matrix: (Units=GPa)
#
#
# Indices 1 2 3 4 5 6 
#
# 1 97.9225 51.8751 38.6480 -24.4198 22.3966 2.1308
# 2 51.8751 55.4087 43.5031 -19.3219 16.2116 -5.3847
# 3 38.6480 43.5031 101.1029 -23.9749 23.7747 0.8596
# 4 -24.4198 -19.3219 -23.9749 24.5742 -1.2982 5.0863
# 5 22.3966 16.2116 23.7747 -1.2982 23.4559 -2.0144
# 6 2.1308 -5.3847 0.8596 5.0863 -2.0144 27.7622
#
#
#
# Elastic Compliance Matrix: (Units=1/GPa)
#
#
# Indices 1 2 3 4 5 6 
#
# 1 0.027997 -0.020209 0.007919 0.020979 -0.020631 -0.011654
# 2 -0.020209 0.049732 -0.012300 0.004750 -0.001435 0.010604
# 3 0.007919 -0.012300 0.022015 0.020416 -0.021012 -0.008940
# 4 0.020979 0.004750 0.020416 0.087227 -0.040921 -0.020271
# 5 -0.020631 -0.001435 -0.021012 -0.040921 0.083690 0.015525
# 6 -0.011654 0.010604 -0.008940 -0.020271 0.015525 0.044088
#
#
# Mechanical properties :
#
#
# Convention : Reuss Voigt Hill
#
# Bulk Modulus (GPa) = 19.77744 58.05405 38.91574
# Shear Modulus (GPa) = 13.13082 23.18566 18.15824
#
# Velocity S-wave (km/s) = 2.77941 3.69331 3.26846
# Velocity P-wave (km/s) = 4.68354 7.23475 6.09414
#
# Compressibility (1/GPa) = 0.05056266
#
# Stress axis : x y z
#
# Youngs Moduli (GPa) = 35.71862 20.10773 45.42416
#
# Poissons Ratio (x) = 0.40636 -0.35971
# Poissons Ratio (y) = 0.72185 0.55872
# Poissons Ratio (z) = -0.28285 0.24733
#
# Static dielectric constant tensor:
#      x y z
#    x 1.580980 0.020670 -0.017480 
#    y 0.020670 1.579900 0.023930 
#    z -0.017480 0.023930 1.571880 
# 
# From -- ./inp_files/201762.got.cif
#   From: 2010.05.17/outbox.cif.g08.bks.cpg/sg2_101_cif.got.tgz:201762.got - 2010.06.03 11:33:40.
