data_PCOD9084482
_publ_section_title
;
Structure prediction by ZEFSAII (Michael W. Deem and Ramdas Pophale) SiO2 
 PCOD9084482
Probable space group: P -1
;
_chemical_formula_sum "Si O2"
_cell_formula_units_Z 12
_cell_length_a 14.505360
_cell_length_b 8.134902
_cell_length_c 5.098713
_cell_angle_alpha 51.489950
_cell_angle_beta 111.571796
_cell_angle_gamma 90.507767
_cell_volume 417.312339
_symmetry_space_group_name_H-M "P -1"
_symmetry_group_IT_number 2
_symmetry_cell_setting 'triclinic'
loop_
_space_group_symop_operation_xyz
x,y,z
-x,-y,-z
loop_
_atom_site_type_symbol
_atom_site_label
_atom_site_fract_x
_atom_site_fract_y
_atom_site_fract_z
Si Si1 0.275867 0.545383 0.970575
Si Si2 0.603788 0.187158 0.908690
Si Si3 0.887964 0.648621 0.957726
Si Si4 0.595865 0.628260 0.232912
Si Si5 0.211584 0.067981 0.928250
Si Si6 0.050860 0.854798 0.948678
O O1 0.310418 0.760738 0.857915
O O2 0.150715 0.228723 0.476428
O O3 0.154198 0.561657 0.842179
O O4 0.337298 0.417187 0.913342
O O5 0.561884 0.402515 0.462498
O O6 0.509818 0.179185 0.005770
O O7 0.668392 0.005798 0.954274
O O8 0.672720 0.606676 0.579190
O O9 0.824750 0.809292 0.961038
O O10 0.008073 0.643754 0.113971
O O11 0.170973 0.849453 0.093353
O O12 0.000000 0.000000 0.500000
O O13 0.000000 0.000000 0.000000
#
# Coordination Sequence:
#
# PCOD9084482 Si02
#       6
#     2   2   2   2   2   2
#     4  10  19  35  53  73 101 139 163 201 258 298
#     4   9  21  34  57  71 100 134 178 200 241 300
#     4  10  20  34  53  77 105 129 161 211 258 290
#     4   9  20  34  56  68 102 139 170 194 254 301
#     4  10  20  33  55  78  98 130 174 207 239 298
#     4   8  16  32  50  71 100 133 159 195 253 304
#
# _framework density 28.75544
#
# number of rings (size 3 to 8) (size 9 to 14) (size 15 to 20)
#    1.000    1.667    0.000    1.500    2.333    0.000 
#    0.000    5.833    0.000    1.000    0.000    0.000 
#    0.000    0.000    0.000    0.000    0.000    0.000 
#
# Total GULP energy -67175.030715 kJ/mol
# GULP energy per Si atom -5597.919226 kJ/mol
# Density = 2.868999 g / cm^3
# Si number density = 28.755440 Si / 1000 Ang^3
#
#
#
# Elastic Constant Matrix: (Units=GPa)
#
#
# Indices 1 2 3 4 5 6 
#
# 1 187.9326 41.3727 30.0857 -7.7786 -27.0042 1.7220
# 2 41.3727 98.0620 64.2287 18.6398 -7.8480 -36.8212
# 3 30.0857 64.2287 83.9061 28.4400 -16.9957 -18.2304
# 4 -7.7786 18.6398 28.4400 45.8762 -7.7449 -14.9621
# 5 -27.0042 -7.8480 -16.9957 -7.7449 43.5243 -5.3452
# 6 1.7220 -36.8212 -18.2304 -14.9621 -5.3452 66.2557
#
#
#
# Elastic Compliance Matrix: (Units=1/GPa)
#
#
# Indices 1 2 3 4 5 6 
#
# 1 0.006802 -0.003291 -0.000407 0.003030 0.003870 -0.001121
# 2 -0.003291 0.027032 -0.018842 0.003076 -0.002701 0.010400
# 3 -0.000407 -0.018842 0.030762 -0.011893 0.005727 -0.004220
# 4 0.003030 0.003076 -0.011893 0.030959 0.003996 0.005672
# 5 0.003870 -0.002701 0.005727 0.003996 0.028225 0.003154
# 6 -0.001121 0.010400 -0.004220 0.005672 0.003154 0.021276
#
#
# Mechanical properties :
#
#
# Convention : Reuss Voigt Hill
#
# Bulk Modulus (GPa) = 51.24007 71.25277 61.24642
# Shear Modulus (GPa) = 25.42699 46.74549 36.08624
#
# Velocity S-wave (km/s) = 2.97686 4.03627 3.54635
# Velocity P-wave (km/s) = 5.44734 6.82310 6.17366
#
# Compressibility (1/GPa) = 0.01951598
#
# Stress axis : x y z
#
# Youngs Moduli (GPa) = 147.00732 36.99353 32.50776
#
# Poissons Ratio (x) = 0.12173 0.01323
# Poissons Ratio (y) = 0.48373 0.61252
# Poissons Ratio (z) = 0.05985 0.69705
#
# Static dielectric constant tensor:
#      x y z
#    x 2.217680 0.118170 -0.045200 
#    y 0.118170 2.348800 -0.088440 
#    z -0.045200 -0.088440 2.237860 
# 
# From -- ./inp_files/89578.got.cif
#   From: 2010.05.17/outbox.cif.g08.bks.cpg/sg2_45_cif.got.tgz:89578.got - 2010.06.03 11:33:40.
