data_PCOD9084421
_publ_section_title
;
Structure prediction by ZEFSAII (Michael W. Deem and Ramdas Pophale) SiO2 
 PCOD9084421
Probable space group: P -1
;
_chemical_formula_sum "Si O2"
_cell_formula_units_Z 15
_cell_length_a 20.184003
_cell_length_b 8.518467
_cell_length_c 11.875494
_cell_angle_alpha 122.362973
_cell_angle_beta 31.355036
_cell_angle_gamma 136.681386
_cell_volume 707.420615
_symmetry_space_group_name_H-M "P -1"
_symmetry_group_IT_number 2
_symmetry_cell_setting 'triclinic'
loop_
_space_group_symop_operation_xyz
x,y,z
-x,-y,-z
loop_
_atom_site_type_symbol
_atom_site_label
_atom_site_fract_x
_atom_site_fract_y
_atom_site_fract_z
Si Si1 0.089417 0.549874 0.273115
Si Si2 0.000000 0.500000 0.000000
Si Si3 0.870831 0.040655 0.166319
Si Si4 0.258254 0.227522 0.156769
Si Si5 0.701855 0.609209 0.089318
Si Si6 0.608399 0.902338 0.673359
Si Si7 0.410226 0.082892 0.034268
Si Si8 0.941498 0.686530 0.367891
O O1 0.000000 0.500000 0.500000
O O2 0.982157 0.548760 0.334768
O O3 0.255666 0.812874 0.136578
O O4 0.146065 0.391414 0.113549
O O5 0.946591 0.282798 0.082737
O O6 0.924208 0.590943 0.231934
O O7 0.742601 0.828354 0.184819
O O8 0.768379 0.006076 0.411757
O O9 0.000000 0.000000 0.000000
O O10 0.394125 0.222730 0.015676
O O11 0.198588 0.320930 0.372509
O O12 0.309057 0.362957 0.017679
O O13 0.101791 0.961251 0.249090
O O14 0.538593 0.353981 0.261153
O O15 0.613603 0.863668 0.784217
O O16 0.560793 0.078449 0.805630
#
# Coordination Sequence:
#
# PCOD9084421 Si02
#       8
#     2   1   2   2   2   2   2   2
#     4  10  19  34  65  95 131 175 222 278 342 399
#     4  12  26  42  64 102 138 176 226 282 350 398
#     4  12  28  46  72 100 140 180 233 286 347 420
#     4  10  20  38  66  96 135 174 228 281 338 402
#     4  11  22  43  67  98 136 183 227 279 349 415
#     4  10  24  45  67  97 138 179 227 283 345 417
#     4   9  22  40  66  97 130 180 231 276 344 411
#     4  10  21  36  60  98 139 171 220 291 335 400
#
# _framework density 21.203790000000001
#
# number of rings (size 3 to 8) (size 9 to 14) (size 15 to 20)
#    0.000    1.600    2.667    1.200    5.600    1.600 
#    2.400    0.667    0.000    0.000    0.000    0.000 
#    0.000    0.000    0.000    0.000    0.000    0.000 
#
# Total GULP energy -83539.831428 kJ/mol
# GULP energy per Si atom -5569.322095 kJ/mol
# Density = 2.115553 g / cm^3
# Si number density = 21.203790 Si / 1000 Ang^3
#
#
#
# Elastic Constant Matrix: (Units=GPa)
#
#
# Indices 1 2 3 4 5 6 
#
# 1 66.5430 30.2239 45.7639 -2.4171 2.0189 -20.6394
# 2 30.2239 99.4133 37.5736 7.5884 9.1487 -13.8892
# 3 45.7639 37.5736 137.9101 4.5128 14.1419 -11.3792
# 4 -2.4171 7.5884 4.5128 28.7177 5.3591 9.9205
# 5 2.0189 9.1487 14.1419 5.3591 30.0643 6.8370
# 6 -20.6394 -13.8892 -11.3792 9.9205 6.8370 34.3273
#
#
#
# Elastic Compliance Matrix: (Units=1/GPa)
#
#
# Indices 1 2 3 4 5 6 
#
# 1 0.024349 -0.003490 -0.006187 0.000122 -0.000229 0.011188
# 2 -0.003490 0.012974 -0.001520 -0.004461 -0.003246 0.004583
# 3 -0.006187 -0.001520 0.010139 -0.001042 -0.003722 0.000069
# 4 0.000122 -0.004461 -0.001042 0.041304 -0.002447 -0.013526
# 5 -0.000229 -0.003246 -0.003722 -0.002447 0.038652 -0.009676
# 6 0.011188 0.004583 0.000069 -0.013526 -0.009676 0.043571
#
#
# Mechanical properties :
#
#
# Convention : Reuss Voigt Hill
#
# Bulk Modulus (GPa) = 39.88768 58.99880 49.44324
# Shear Modulus (GPa) = 24.78463 31.30888 28.04676
#
# Velocity S-wave (km/s) = 3.42259 3.84678 3.64087
# Velocity P-wave (km/s) = 5.87123 6.90039 6.40651
#
# Compressibility (1/GPa) = 0.02507040
#
# Stress axis : x y z
#
# Youngs Moduli (GPa) = 41.06956 77.07828 98.62428
#
# Poissons Ratio (x) = 0.26897 0.61015
# Poissons Ratio (y) = 0.14332 0.14989
# Poissons Ratio (z) = 0.25408 0.11714
#
# Static dielectric constant tensor:
#      x y z
#    x 1.740450 0.037900 -0.029980 
#    y 0.037900 1.804970 0.045320 
#    z -0.029980 0.045320 1.672580 
# 
# From -- ./inp_files/295480.got.cif
#   From: 2010.05.17/outbox.cif.g08.bks.cpg/sg2_148_cif.got.tgz:295480.got - 2010.06.03 11:33:40.
