data_PCOD9084417
_publ_section_title
;
Structure prediction by ZEFSAII (Michael W. Deem and Ramdas Pophale) SiO2 
 PCOD9084417
Probable space group: P -1
;
_chemical_formula_sum "Si O2"
_cell_formula_units_Z 16
_cell_length_a 9.180244
_cell_length_b 20.776207
_cell_length_c 9.172834
_cell_angle_alpha 103.419930
_cell_angle_beta 98.372053
_cell_angle_gamma 28.219705
_cell_volume 798.062890
_symmetry_space_group_name_H-M "P -1"
_symmetry_group_IT_number 2
_symmetry_cell_setting 'triclinic'
loop_
_space_group_symop_operation_xyz
x,y,z
-x,-y,-z
loop_
_atom_site_type_symbol
_atom_site_label
_atom_site_fract_x
_atom_site_fract_y
_atom_site_fract_z
Si Si1 0.240684 0.016343 0.374040
Si Si2 0.308475 0.365150 0.378719
Si Si3 0.601551 0.754750 0.421795
Si Si4 0.370970 0.626497 0.035999
Si Si5 0.864509 0.351862 0.501687
Si Si6 0.117231 0.474953 0.846938
Si Si7 0.785026 0.265332 0.256089
Si Si8 0.107656 0.170844 0.685641
O O1 0.358009 0.898616 0.382094
O O2 0.548470 0.935274 0.328267
O O3 0.107818 0.106104 0.547275
O O4 0.010036 0.115231 0.254582
O O5 0.513609 0.238006 0.446642
O O6 0.481352 0.363572 0.355886
O O7 0.000000 0.500000 0.500000
O O8 0.173473 0.387895 0.222963
O O9 0.727578 0.650022 0.273290
O O10 0.892529 0.684618 0.482077
O O11 0.630136 0.568291 0.122338
O O12 0.048128 0.769369 0.148276
O O13 0.500000 0.500000 0.000000
O O14 0.321351 0.672779 0.887962
O O15 0.500000 0.500000 0.500000
O O16 0.959964 0.258963 0.348056
O O17 0.897701 0.307013 0.641557
O O18 0.000000 0.500000 0.000000
#
# Coordination Sequence:
#
# PCOD9084417 Si02
#       8
#     2   2   2   2   2   2   2   2
#     4   9  21  43  67  90 127 170 221 264 298 380
#     4  10  22  39  63  94 129 165 209 267 324 368
#     4  10  23  40  67  94 123 174 211 261 323 369
#     4  12  27  41  66  97 130 171 210 262 337 384
#     4  10  19  34  65  92 120 160 219 264 307 368
#     4  11  24  43  61  93 141 162 203 271 330 386
#     4  11  23  41  62  96 130 169 214 262 311 386
#     4   9  21  40  62  93 128 165 215 268 311 364
#
# _framework density 20.048546999999999
#
# number of rings (size 3 to 8) (size 9 to 14) (size 15 to 20)
#    0.000    1.750    1.250    3.000   14.000    1.000 
#    0.000    1.875    0.000    0.000    0.000    0.000 
#    0.000    0.000    0.000    0.000    0.000    0.000 
#
# Total GULP energy -89170.417030 kJ/mol
# GULP energy per Si atom -5573.151064 kJ/mol
# Density = 2.000292 g / cm^3
# Si number density = 20.048547 Si / 1000 Ang^3
#
#
#
# Elastic Constant Matrix: (Units=GPa)
#
#
# Indices 1 2 3 4 5 6 
#
# 1 115.2348 29.0540 58.0671 2.6276 4.0022 10.7727
# 2 29.0540 99.5419 32.9019 -13.4822 -10.3204 12.9644
# 3 58.0671 32.9019 106.7475 -6.5946 -14.3002 9.8140
# 4 2.6276 -13.4822 -6.5946 34.1534 -0.9600 -3.2745
# 5 4.0022 -10.3204 -14.3002 -0.9600 36.4361 -4.7184
# 6 10.7727 12.9644 9.8140 -3.2745 -4.7184 28.8807
#
#
#
# Elastic Compliance Matrix: (Units=1/GPa)
#
#
# Indices 1 2 3 4 5 6 
#
# 1 0.013483 -0.002207 -0.007355 -0.003756 -0.005462 -0.002857
# 2 -0.002207 0.012598 -0.001720 0.004577 0.002834 -0.003265
# 3 -0.007355 -0.001720 0.014934 0.002926 0.006232 -0.000209
# 4 -0.003756 0.004577 0.002926 0.032311 0.004056 0.002678
# 5 -0.005462 0.002834 0.006232 0.004056 0.031961 0.004329
# 6 -0.002857 -0.003265 -0.000209 0.002678 0.004329 0.038239
#
#
# Mechanical properties :
#
#
# Convention : Reuss Voigt Hill
#
# Bulk Modulus (GPa) = 54.19887 62.39669 58.29778
# Shear Modulus (GPa) = 29.02924 33.32746 31.17835
#
# Velocity S-wave (km/s) = 3.80932 4.08160 3.94781
# Velocity P-wave (km/s) = 6.81472 7.30773 7.06553
#
# Compressibility (1/GPa) = 0.01845057
#
# Stress axis : x y z
#
# Youngs Moduli (GPa) = 74.16650 79.37957 66.96261
#
# Poissons Ratio (x) = 0.17521 0.49252
# Poissons Ratio (y) = 0.16370 0.11515
# Poissons Ratio (z) = 0.54550 0.13651
#
# Static dielectric constant tensor:
#      x y z
#    x 1.956880 -0.226940 0.142950 
#    y -0.226940 2.090970 -0.184670 
#    z 0.142950 -0.184670 1.831770 
# 
# From -- ./inp_files/222228.got.cif
#   From: 2010.05.17/outbox.cif.g08.bks.cpg/sg2_112_cif.got.tgz:222228.got - 2010.06.03 11:33:40.
