data_PCOD9084801
_publ_section_title
;
Structure prediction by ZEFSAII (Michael W. Deem and Ramdas Pophale) SiO2 
 PCOD9084801
Probable space group: P -1
;
_chemical_formula_sum "Si O2"
_cell_formula_units_Z 16
_cell_length_a 8.961930
_cell_length_b 18.370472
_cell_length_c 6.932143
_cell_angle_alpha 87.724185
_cell_angle_beta 58.366842
_cell_angle_gamma 125.256450
_cell_volume 690.538921
_symmetry_space_group_name_H-M "P -1"
_symmetry_group_IT_number 2
_symmetry_cell_setting 'triclinic'
loop_
_space_group_symop_operation_xyz
x,y,z
-x,-y,-z
loop_
_atom_site_type_symbol
_atom_site_label
_atom_site_fract_x
_atom_site_fract_y
_atom_site_fract_z
Si Si1 0.390754 0.763553 0.366337
Si Si2 0.385989 0.029836 0.785615
Si Si3 0.214396 0.948818 0.309347
Si Si4 0.919163 0.862611 0.861022
Si Si5 0.778134 0.571847 0.226795
Si Si6 0.293671 0.352233 0.056447
Si Si7 0.213396 0.557998 0.506601
Si Si8 0.997843 0.730184 0.375287
O O1 0.463906 0.858800 0.418998
O O2 0.279896 0.656788 0.536352
O O3 0.196390 0.735917 0.343413
O O4 0.654702 0.814368 0.104058
O O5 0.570076 0.015605 0.694194
O O6 0.131105 0.942387 0.861111
O O7 0.318617 0.026273 0.056701
O O8 0.004864 0.918518 0.590948
O O9 0.104583 0.842873 0.297291
O O10 0.890824 0.767338 0.863353
O O11 0.500000 0.500000 0.500000
O O12 0.853280 0.516522 0.268451
O O13 0.935264 0.680080 0.216473
O O14 0.780019 0.593412 0.999628
O O15 0.249358 0.344711 0.315825
O O16 0.552489 0.403957 0.781443
O O17 0.000000 0.500000 0.500000
#
# Coordination Sequence:
#
# PCOD9084801 Si02
#       8
#     2   2   2   2   2   2   2   2
#     4  10  21  35  55  81 113 153 180 231 287 321
#     4  10  19  35  57  81 115 143 187 228 269 335
#     4   9  20  34  57  86 106 150 185 222 278 336
#     4  10  19  36  57  83 117 143 182 228 283 328
#     4  10  20  35  60  81 107 146 192 230 276 329
#     4   9  21  36  61  86 106 150 190 222 281 340
#     4  10  19  37  58  79 113 148 181 237 285 321
#     4  10  19  38  58  81 116 142 190 231 274 338
#
# _framework density 23.170309
#
# number of rings (size 3 to 8) (size 9 to 14) (size 15 to 20)
#    0.000    2.250    1.250    1.500    0.000    2.500 
#    0.000    1.875    5.500    0.000    0.000    0.000 
#    0.000    0.000    0.000    0.000    0.000    0.000 
#
# Total GULP energy -89326.562735 kJ/mol
# GULP energy per Si atom -5582.910171 kJ/mol
# Density = 2.311757 g / cm^3
# Si number density = 23.170309 Si / 1000 Ang^3
#
#
#
# Elastic Constant Matrix: (Units=GPa)
#
#
# Indices 1 2 3 4 5 6 
#
# 1 52.2440 33.1304 15.1224 -15.2600 0.5047 -13.0910
# 2 33.1304 71.3156 6.2658 -18.4608 3.0059 -9.8560
# 3 15.1224 6.2658 67.7985 -7.7055 -2.2735 -8.3740
# 4 -15.2600 -18.4608 -7.7055 22.0718 -8.1566 3.3719
# 5 0.5047 3.0059 -2.2735 -8.1566 36.6760 -16.3385
# 6 -13.0910 -9.8560 -8.3740 3.3719 -16.3385 26.7489
#
#
#
# Elastic Compliance Matrix: (Units=1/GPa)
#
#
# Indices 1 2 3 4 5 6 
#
# 1 0.035566 -0.009843 -0.002404 0.017212 0.012135 0.018270
# 2 -0.009843 0.022297 0.002313 0.013220 0.003415 0.004542
# 3 -0.002404 0.002313 0.017051 0.007245 0.005960 0.007741
# 4 0.017212 0.013220 0.007245 0.077062 0.025927 0.021685
# 5 0.012135 0.003415 0.005960 0.025927 0.048820 0.035615
# 6 0.018270 0.004542 0.007741 0.021685 0.035615 0.069443
#
#
# Mechanical properties :
#
#
# Convention : Reuss Voigt Hill
#
# Bulk Modulus (GPa) = 18.16602 33.37726 25.77164
# Shear Modulus (GPa) = 16.20971 26.22199 21.21585
#
# Velocity S-wave (km/s) = 2.64784 3.36773 3.02925
# Velocity P-wave (km/s) = 4.14793 5.43679 4.83549
#
# Compressibility (1/GPa) = 0.05504785
#
# Stress axis : x y z
#
# Youngs Moduli (GPa) = 28.11638 44.84823 58.64589
#
# Poissons Ratio (x) = 0.44143 0.14097
# Poissons Ratio (y) = 0.27674 -0.13563
# Poissons Ratio (z) = 0.06759 -0.10372
#
# Static dielectric constant tensor:
#      x y z
#    x 1.852590 -0.029810 -0.021210 
#    y -0.029810 1.906440 -0.003570 
#    z -0.021210 -0.003570 1.892060 
# 
# From -- ./inp_files/220723.got.cif
#   From: 2010.05.17/outbox.cif.g08.bks.cpg/sg2_111_cif.got.tgz:220723.got - 2010.06.03 11:33:40.
