data_PCOD9084724
_publ_section_title
;
Structure prediction by ZEFSAII (Michael W. Deem and Ramdas Pophale) SiO2 
 PCOD9084724
Probable space group: P -1
;
_chemical_formula_sum "Si O2"
_cell_formula_units_Z 14
_cell_length_a 11.283117
_cell_length_b 12.140454
_cell_length_c 9.323228
_cell_angle_alpha 37.812135
_cell_angle_beta 90.976592
_cell_angle_gamma 108.075579
_cell_volume 684.964246
_symmetry_space_group_name_H-M "P -1"
_symmetry_group_IT_number 2
_symmetry_cell_setting 'triclinic'
loop_
_space_group_symop_operation_xyz
x,y,z
-x,-y,-z
loop_
_atom_site_type_symbol
_atom_site_label
_atom_site_fract_x
_atom_site_fract_y
_atom_site_fract_z
Si Si1 0.462299 0.445868 0.889583
Si Si2 0.633276 0.138656 0.954169
Si Si3 0.307327 0.392584 0.490703
Si Si4 0.799349 0.657135 0.151253
Si Si5 0.011657 0.085275 0.749490
Si Si6 0.189417 0.744285 0.414595
Si Si7 0.457538 0.013989 0.324718
O O1 0.568533 0.588016 0.622404
O O2 0.318932 0.433350 0.873419
O O3 0.500000 0.500000 0.000000
O O4 0.449006 0.222791 0.095392
O O5 0.666745 0.374139 0.732915
O O6 0.753963 0.151656 0.847247
O O7 0.584507 0.034499 0.212919
O O8 0.500000 0.000000 0.000000
O O9 0.277857 0.319174 0.732183
O O10 0.168656 0.237039 0.568334
O O11 0.849274 0.493159 0.354180
O O12 0.923592 0.872017 0.884929
O O13 0.932457 0.213872 0.595930
O O14 0.000000 0.000000 0.000000
O O15 0.314926 0.846190 0.425031
O O16 0.500000 0.000000 0.500000
#
# Coordination Sequence:
#
# PCOD9084724 Si02
#       7
#     2   2   2   2   2   2   2
#     4  11  21  37  59  87 118 155 200 246 290 346
#     4   8  17  32  56  87 113 149 191 240 294 339
#     4   9  20  36  59  85 121 152 193 241 295 346
#     4  10  20  37  63  89 115 154 194 243 298 342
#     4  10  21  38  59  89 123 156 191 238 296 352
#     4  10  19  37  62  83 121 151 192 241 294 348
#     4  10  19  35  56  86 120 150 194 247 293 339
#
# _framework density 20.439022999999999
#
# number of rings (size 3 to 8) (size 9 to 14) (size 15 to 20)
#    0.000    2.286    1.429    1.286    0.000    5.143 
#   12.857    0.714    0.000    4.286    0.000    0.000 
#    0.000    0.000    0.000    0.000    0.000    0.000 
#
# Total GULP energy -78002.700609 kJ/mol
# GULP energy per Si atom -5571.621472 kJ/mol
# Density = 2.039250 g / cm^3
# Si number density = 20.439023 Si / 1000 Ang^3
#
#
#
# Elastic Constant Matrix: (Units=GPa)
#
#
# Indices 1 2 3 4 5 6 
#
# 1 61.0232 19.6462 30.4801 -25.2620 3.6670 16.5098
# 2 19.6462 82.3766 32.7061 -4.8275 -10.4561 8.3480
# 3 30.4801 32.7061 62.5586 -14.5400 -1.7500 3.1054
# 4 -25.2620 -4.8275 -14.5400 41.8954 6.1044 6.8378
# 5 3.6670 -10.4561 -1.7500 6.1044 30.8116 -11.3572
# 6 16.5098 8.3480 3.1054 6.8378 -11.3572 27.7245
#
#
#
# Elastic Compliance Matrix: (Units=1/GPa)
#
#
# Indices 1 2 3 4 5 6 
#
# 1 0.075518 -0.006501 -0.017332 0.058954 -0.052246 -0.077014
# 2 -0.006501 0.016803 -0.007150 -0.006633 0.009240 0.005034
# 3 -0.017332 -0.007150 0.026422 -0.005432 0.007319 0.013852
# 4 0.058954 -0.006633 -0.005432 0.076031 -0.051273 -0.072256
# 5 -0.052246 0.009240 0.007319 -0.051273 0.079133 0.072572
# 6 -0.077014 0.005034 0.013852 -0.072256 0.072572 0.126413
#
#
# Mechanical properties :
#
#
# Convention : Reuss Voigt Hill
#
# Bulk Modulus (GPa) = 17.61291 41.29147 29.45219
# Shear Modulus (GPa) = 10.39044 28.29471 19.34257
#
# Velocity S-wave (km/s) = 2.25714 3.72472 3.07963
# Velocity P-wave (km/s) = 3.92796 6.22448 5.20447
#
# Compressibility (1/GPa) = 0.05677652
#
# Stress axis : x y z
#
# Youngs Moduli (GPa) = 13.24185 59.51459 37.84696
#
# Poissons Ratio (x) = 0.38693 0.65595
# Poissons Ratio (y) = 0.08609 0.27061
# Poissons Ratio (z) = 0.22950 0.42553
#
# Static dielectric constant tensor:
#      x y z
#    x 1.742640 -0.009170 0.012230 
#    y -0.009170 1.772450 -0.044480 
#    z 0.012230 -0.044480 1.746840 
# 
# From -- ./inp_files/155394.got.cif
#   From: 2010.05.17/outbox.cif.g08.bks.cpg/sg2_78_cif.got.tgz:155394.got - 2010.06.03 11:33:40.
