data_PCOD9084402
_publ_section_title
;
Structure prediction by ZEFSAII (Michael W. Deem and Ramdas Pophale) SiO2 
 PCOD9084402
Probable space group: P -1
;
_chemical_formula_sum "Si O2"
_cell_formula_units_Z 16
_cell_length_a 9.863567
_cell_length_b 13.620636
_cell_length_c 12.988134
_cell_angle_alpha 138.781637
_cell_angle_beta 47.930285
_cell_angle_gamma 121.705108
_cell_volume 852.693948
_symmetry_space_group_name_H-M "P -1"
_symmetry_group_IT_number 2
_symmetry_cell_setting 'triclinic'
loop_
_space_group_symop_operation_xyz
x,y,z
-x,-y,-z
loop_
_atom_site_type_symbol
_atom_site_label
_atom_site_fract_x
_atom_site_fract_y
_atom_site_fract_z
Si Si1 0.638933 0.131961 0.497630
Si Si2 0.952865 0.311200 0.573855
Si Si3 0.133240 0.862565 0.817022
Si Si4 0.303478 0.675297 0.747203
Si Si5 0.967661 0.508978 0.904401
Si Si6 0.815478 0.620129 0.786182
Si Si7 0.346131 0.388389 0.359706
Si Si8 0.615890 0.637725 0.097634
O O1 0.822555 0.169988 0.500478
O O2 0.715132 0.114885 0.330854
O O3 0.517152 0.271428 0.693768
O O4 0.500000 0.000000 0.500000
O O5 0.878677 0.460382 0.671522
O O6 0.948570 0.353535 0.729524
O O7 0.162020 0.302746 0.427078
O O8 0.235112 0.820042 0.837264
O O9 0.999255 0.718254 0.744246
O O10 0.000000 0.000000 0.000000
O O11 0.132286 0.601722 0.838179
O O12 0.350259 0.553790 0.539098
O O13 0.475155 0.687450 0.746728
O O14 0.000000 0.500000 0.000000
O O15 0.780224 0.587473 0.043218
O O16 0.685212 0.602428 0.739570
O O17 0.714289 0.704622 0.997324
O O18 0.500000 0.500000 0.000000
#
# Coordination Sequence:
#
# PCOD9084402 Si02
#       8
#     2   2   2   2   2   2   2   2
#     4  12  25  39  64  97 128 173 220 271 332 379
#     4  10  19  37  62  96 131 159 223 271 321 393
#     4  12  24  43  66  87 132 179 224 270 317 390
#     4  10  22  36  60  97 128 160 217 264 330 389
#     4  10  21  36  59  97 137 164 204 272 335 385
#     4  11  19  38  66  92 120 170 216 271 322 374
#     4  10  19  34  64  96 124 152 209 280 326 371
#     4  11  22  37  62  97 132 161 220 264 324 393
#
# _framework density 18.764060000000001
#
# number of rings (size 3 to 8) (size 9 to 14) (size 15 to 20)
#    0.000    1.250    7.500    1.875    1.750    2.000 
#    0.000    0.625    0.000    3.000    0.000    0.000 
#    0.000    0.000    0.000    0.000    0.000    0.000 
#
# Total GULP energy -89257.231662 kJ/mol
# GULP energy per Si atom -5578.576979 kJ/mol
# Density = 1.872135 g / cm^3
# Si number density = 18.764060 Si / 1000 Ang^3
#
#
#
# Elastic Constant Matrix: (Units=GPa)
#
#
# Indices 1 2 3 4 5 6 
#
# 1 168.2380 43.9236 37.2655 -5.0539 -3.9531 -14.8253
# 2 43.9236 88.8003 31.3254 -9.0119 3.5490 5.1706
# 3 37.2655 31.3254 79.8388 -13.8456 -10.8373 -16.0283
# 4 -5.0539 -9.0119 -13.8456 25.6700 -1.9334 4.7270
# 5 -3.9531 3.5490 -10.8373 -1.9334 36.7647 -10.0088
# 6 -14.8253 5.1706 -16.0283 4.7270 -10.0088 40.2786
#
#
#
# Elastic Compliance Matrix: (Units=1/GPa)
#
#
# Indices 1 2 3 4 5 6 
#
# 1 0.007465 -0.003528 -0.001443 -0.001008 0.001515 0.003121
# 2 -0.003528 0.016310 -0.006711 0.002405 -0.005935 -0.007820
# 3 -0.001443 -0.006711 0.020396 0.007246 0.009604 0.009983
# 4 -0.001008 0.002405 0.007246 0.044163 0.003547 -0.002098
# 5 0.001515 -0.005935 0.009604 0.003547 0.034579 0.013317
# 6 0.003121 -0.007820 0.009983 -0.002098 0.013317 0.034508
#
#
# Mechanical properties :
#
#
# Convention : Reuss Voigt Hill
#
# Bulk Modulus (GPa) = 48.05905 62.43401 55.24653
# Shear Modulus (GPa) = 26.63531 35.50017 31.06774
#
# Velocity S-wave (km/s) = 3.77169 4.35434 4.07345
# Velocity P-wave (km/s) = 6.68098 7.65675 7.18545
#
# Compressibility (1/GPa) = 0.02080773
#
# Stress axis : x y z
#
# Youngs Moduli (GPa) = 133.95905 61.31100 49.02880
#
# Poissons Ratio (x) = 0.21631 0.07073
# Poissons Ratio (y) = 0.47261 0.32904
# Poissons Ratio (z) = 0.19326 0.41147
#
# Static dielectric constant tensor:
#      x y z
#    x 1.641710 -0.004550 0.017580 
#    y -0.004550 1.666090 0.014650 
#    z 0.017580 0.014650 1.695140 
# 
# From -- ./inp_files/393011.got.cif
#   From: 2010.05.17/outbox.cif.g08.bks.cpg/sg2_197_cif.got.tgz:393011.got - 2010.06.03 11:33:40.
