data_PCOD9084338
_publ_section_title
;
Structure prediction by ZEFSAII (Michael W. Deem and Ramdas Pophale) SiO2 
 PCOD9084338
Probable space group: P -1
;
_chemical_formula_sum "Si O2"
_cell_formula_units_Z 16
_cell_length_a 5.313721
_cell_length_b 7.136343
_cell_length_c 18.730138
_cell_angle_alpha 104.238759
_cell_angle_beta 76.813662
_cell_angle_gamma 75.904732
_cell_volume 635.600863
_symmetry_space_group_name_H-M "P -1"
_symmetry_group_IT_number 2
_symmetry_cell_setting 'triclinic'
loop_
_space_group_symop_operation_xyz
x,y,z
-x,-y,-z
loop_
_atom_site_type_symbol
_atom_site_label
_atom_site_fract_x
_atom_site_fract_y
_atom_site_fract_z
Si Si1 0.152170 0.471437 0.321821
Si Si2 0.363158 0.822276 0.004863
Si Si3 0.493615 0.221189 0.856729
Si Si4 0.791147 0.107332 0.125399
Si Si5 0.121720 0.181943 0.526454
Si Si6 0.538946 0.026796 0.377231
Si Si7 0.989924 0.904512 0.741314
Si Si8 0.639643 0.620451 0.263171
O O1 0.077958 0.605826 0.411145
O O2 0.157974 0.237893 0.301872
O O3 0.908382 0.562078 0.288788
O O4 0.432295 0.494995 0.278497
O O5 0.506797 0.701052 0.054734
O O6 0.344295 0.746320 0.918423
O O7 0.054768 0.933369 0.060514
O O8 0.500000 0.000000 0.000000
O O9 0.307249 0.362245 0.822442
O O10 0.409254 0.015607 0.848960
O O11 0.798202 0.132162 0.795601
O O12 0.907449 0.185273 0.194682
O O13 0.292733 0.198062 0.446840
O O14 0.310664 0.095368 0.574273
O O15 0.000000 0.000000 0.500000
O O16 0.755048 0.095543 0.323630
O O17 0.468620 0.852481 0.320663
#
# Coordination Sequence:
#
# PCOD9084338 Si02
#       8
#     2   2   2   2   2   2   2   2
#     4  11  26  40  61  91 131 161 204 259 325 363
#     4   8  16  30  53  93 119 151 200 258 293 351
#     4  10  19  34  63  88 118 161 215 249 295 363
#     4   9  17  32  57  88 122 154 197 260 301 349
#     4  10  20  40  61  84 116 165 203 258 304 374
#     4  10  21  37  64  85 115 160 214 250 305 369
#     4  11  23  37  59  95 124 160 201 264 313 364
#     4  11  22  41  62  90 121 168 212 253 299 377
#
# _framework density 25.173030000000001
#
# number of rings (size 3 to 8) (size 9 to 14) (size 15 to 20)
#    0.000    2.000    2.500    1.500    3.500    0.500 
#    0.000    0.625    0.000    1.500    0.000    0.000 
#    0.000    0.000    0.000    0.000    0.000    0.000 
#
# Total GULP energy -89398.681335 kJ/mol
# GULP energy per Si atom -5587.417583 kJ/mol
# Density = 2.511574 g / cm^3
# Si number density = 25.173030 Si / 1000 Ang^3
#
#
#
# Elastic Constant Matrix: (Units=GPa)
#
#
# Indices 1 2 3 4 5 6 
#
# 1 81.9629 15.5870 23.0299 -8.8726 3.9741 13.5360
# 2 15.5870 67.0836 24.5544 1.7397 6.2772 13.9951
# 3 23.0299 24.5544 121.1556 -12.0123 17.4968 17.5262
# 4 -8.8726 1.7397 -12.0123 39.4709 5.8674 10.5709
# 5 3.9741 6.2772 17.4968 5.8674 53.7549 -5.4186
# 6 13.5360 13.9951 17.5262 10.5709 -5.4186 44.5615
#
#
#
# Elastic Compliance Matrix: (Units=1/GPa)
#
#
# Indices 1 2 3 4 5 6 
#
# 1 0.014140 -0.001962 -0.001001 0.004376 -0.001422 -0.004496
# 2 -0.001962 0.017202 -0.002425 -0.000698 -0.001387 -0.003856
# 3 -0.001001 -0.002425 0.010750 0.005082 -0.004188 -0.004877
# 4 0.004376 -0.000698 0.005082 0.031944 -0.006540 -0.011482
# 5 -0.001422 -0.001387 -0.004188 -0.006540 0.021622 0.006695
# 6 -0.004496 -0.003856 -0.004877 -0.011482 0.006695 0.030474
#
#
# Mechanical properties :
#
#
# Convention : Reuss Voigt Hill
#
# Bulk Modulus (GPa) = 31.92991 44.06053 37.99522
# Shear Modulus (GPa) = 33.93396 41.35950 37.64673
#
# Velocity S-wave (km/s) = 3.67553 4.05780 3.87139
# Velocity P-wave (km/s) = 5.54296 6.28454 5.92536
#
# Compressibility (1/GPa) = 0.03131860
#
# Stress axis : x y z
#
# Youngs Moduli (GPa) = 70.72101 58.13137 93.02553
#
# Poissons Ratio (x) = 0.11403 0.09309
# Poissons Ratio (y) = 0.13873 0.22555
# Poissons Ratio (z) = 0.07077 0.14094
#
# Static dielectric constant tensor:
#      x y z
#    x 2.058530 -0.028570 0.030340 
#    y -0.028570 2.048850 -0.004020 
#    z 0.030340 -0.004020 2.062310 
# 
# From -- ./inp_files/50516.got.cif
#   From: 2010.05.17/outbox.cif.g08.bks.cpg/sg2_26_cif.got.tgz:50516.got - 2010.06.03 11:33:40.
