data_PCOD9084369
_publ_section_title
;
Structure prediction by ZEFSAII (Michael W. Deem and Ramdas Pophale) SiO2 
 PCOD9084369
Probable space group: P -1
;
_chemical_formula_sum "Si O2"
_cell_formula_units_Z 16
_cell_length_a 7.825806
_cell_length_b 5.645686
_cell_length_c 30.152133
_cell_angle_alpha 54.758025
_cell_angle_beta 146.641401
_cell_angle_gamma 119.848250
_cell_volume 597.911835
_symmetry_space_group_name_H-M "P -1"
_symmetry_group_IT_number 2
_symmetry_cell_setting 'triclinic'
loop_
_space_group_symop_operation_xyz
x,y,z
-x,-y,-z
loop_
_atom_site_type_symbol
_atom_site_label
_atom_site_fract_x
_atom_site_fract_y
_atom_site_fract_z
Si Si1 0.187213 0.265464 0.830138
Si Si2 0.270463 0.739423 0.662557
Si Si3 0.949668 0.835774 0.322516
Si Si4 0.710421 0.599719 0.846830
Si Si5 0.202307 0.824674 0.474993
Si Si6 0.403679 0.646251 0.918191
Si Si7 0.733241 0.006561 0.878212
Si Si8 0.397453 0.383216 0.342466
O O1 0.455950 0.425602 0.841334
O O2 0.253553 0.407655 0.877600
O O3 0.849511 0.371056 0.732747
O O4 0.208104 0.924858 0.860896
O O5 0.519232 0.788252 0.750080
O O6 0.459942 0.627473 0.674188
O O7 0.043096 0.484514 0.661548
O O8 0.037175 0.980237 0.571571
O O9 0.010084 0.766245 0.394753
O O10 0.202548 0.077212 0.337525
O O11 0.613954 0.945251 0.222671
O O12 0.898733 0.814812 0.897607
O O13 0.853919 0.330383 0.880974
O O14 0.346518 0.603305 0.564625
O O15 0.500000 0.000000 0.500000
O O16 0.679043 0.807589 0.931253
O O17 0.500000 0.500000 0.000000
#
# Coordination Sequence:
#
# PCOD9084369 Si02
#       8
#     2   2   2   2   2   2   2   2
#     4  10  20  39  58  93 131 164 212 262 324 386
#     4  11  22  37  59  88 120 174 222 260 323 372
#     4  10  20  40  58  82 122 167 213 262 318 373
#     4   9  16  32  57  76 116 156 204 246 300 370
#     4  10  21  39  59  83 126 168 222 267 318 369
#     4  10  19  34  63  96 127 160 211 265 318 395
#     4   9  16  31  58  82 116 156 200 250 307 370
#     4  11  22  39  58  91 128 165 213 276 311 381
#
# _framework density 26.759799999999998
#
# number of rings (size 3 to 8) (size 9 to 14) (size 15 to 20)
#    0.000    2.000    3.750    1.500    0.000    2.500 
#    4.500    0.000    0.000    0.000    0.000   33.250 
#    0.000    0.000    0.000    0.000    0.000    0.000 
#
# Total GULP energy -89560.239997 kJ/mol
# GULP energy per Si atom -5597.515000 kJ/mol
# Density = 2.669889 g / cm^3
# Si number density = 26.759800 Si / 1000 Ang^3
#
#
#
# Elastic Constant Matrix: (Units=GPa)
#
#
# Indices 1 2 3 4 5 6 
#
# 1 117.0651 46.3472 38.3262 8.0252 -13.0022 -20.1061
# 2 46.3472 163.7799 45.8944 -13.1494 0.5374 -6.6385
# 3 38.3262 45.8944 128.6552 17.4152 -27.6549 -2.3284
# 4 8.0252 -13.1494 17.4152 31.8169 -6.5795 -7.8211
# 5 -13.0022 0.5374 -27.6549 -6.5795 39.9023 6.2986
# 6 -20.1061 -6.6385 -2.3284 -7.8211 6.2986 42.3861
#
#
#
# Elastic Compliance Matrix: (Units=1/GPa)
#
#
# Indices 1 2 3 4 5 6 
#
# 1 0.011172 -0.002619 -0.001780 -0.001562 0.001509 0.004279
# 2 -0.002619 0.008374 -0.003548 0.005842 -0.002675 0.001350
# 3 -0.001780 -0.003548 0.011971 -0.006851 0.007118 -0.003065
# 4 -0.001562 0.005842 -0.006851 0.039758 0.000096 0.007120
# 5 0.001509 -0.002675 0.007118 0.000096 0.031158 -0.003925
# 6 0.004279 0.001350 -0.003065 0.007120 -0.003925 0.027562
#
#
# Mechanical properties :
#
#
# Convention : Reuss Voigt Hill
#
# Bulk Modulus (GPa) = 64.01978 74.51507 69.26742
# Shear Modulus (GPa) = 33.09115 41.41656 37.25386
#
# Velocity S-wave (km/s) = 3.52035 3.93837 3.73521
# Velocity P-wave (km/s) = 6.36393 6.97046 6.67409
#
# Compressibility (1/GPa) = 0.01562017
#
# Stress axis : x y z
#
# Youngs Moduli (GPa) = 89.51121 119.41939 83.53602
#
# Poissons Ratio (x) = 0.31281 0.14873
# Poissons Ratio (y) = 0.23447 0.29641
# Poissons Ratio (z) = 0.15937 0.42373
#
# Static dielectric constant tensor:
#      x y z
#    x 2.100150 -0.027440 -0.008130 
#    y -0.027440 2.226400 -0.009750 
#    z -0.008130 -0.009750 2.042860 
# 
# From -- ./inp_files/217416.got.cif
#   From: 2010.05.17/outbox.cif.g08.bks.cpg/sg2_109_cif.got.tgz:217416.got - 2010.06.03 11:33:40.
