data_PCOD9084094
_publ_section_title
;
Structure prediction by ZEFSAII (Michael W. Deem and Ramdas Pophale) SiO2 
 PCOD9084094
Probable space group: P -1
;
_chemical_formula_sum "Si O2"
_cell_formula_units_Z 16
_cell_length_a 16.018571
_cell_length_b 11.833577
_cell_length_c 10.738842
_cell_angle_alpha 42.074806
_cell_angle_beta 26.850044
_cell_angle_gamma 47.803662
_cell_volume 615.793484
_symmetry_space_group_name_H-M "P -1"
_symmetry_group_IT_number 2
_symmetry_cell_setting 'triclinic'
loop_
_space_group_symop_operation_xyz
x,y,z
-x,-y,-z
loop_
_atom_site_type_symbol
_atom_site_label
_atom_site_fract_x
_atom_site_fract_y
_atom_site_fract_z
Si Si1 0.077525 0.326608 0.920772
Si Si2 0.330750 0.645273 0.750533
Si Si3 0.701670 0.138727 0.039530
Si Si4 0.376815 0.983877 0.481027
Si Si5 0.090164 0.247317 0.699136
Si Si6 0.065939 0.001505 0.552791
Si Si7 0.178989 0.355415 0.032978
Si Si8 0.657726 0.475036 0.912179
O O1 0.171358 0.266745 0.715840
O O2 0.006850 0.520140 0.832179
O O3 0.201163 0.314143 0.890376
O O4 0.904611 0.198165 0.284743
O O5 0.310828 0.492773 0.806204
O O6 0.429273 0.569958 0.803360
O O7 0.123297 0.703253 0.032500
O O8 0.407022 0.831112 0.469172
O O9 0.625732 0.094932 0.312619
O O10 0.544519 0.111751 0.166356
O O11 0.883455 0.035888 0.847729
O O12 0.770493 0.324490 0.817603
O O13 0.175351 0.076814 0.663552
O O14 0.196783 0.384917 0.368392
O O15 0.176732 0.178287 0.258219
O O16 0.000000 0.000000 0.500000
O O17 0.500000 0.500000 0.000000
#
# Coordination Sequence:
#
# PCOD9084094 Si02
#       8
#     2   2   2   2   2   2   2   2
#     4   9  18  33  59  84 116 154 201 245 297 347
#     4  10  22  36  55  87 126 152 198 248 304 359
#     4  10  19  35  54  84 117 155 202 239 300 367
#     4  10  20  33  55  82 121 156 189 243 306 363
#     4  11  19  36  57  90 115 156 199 254 296 359
#     4  10  19  34  60  88 117 156 207 257 289 348
#     4   9  19  37  55  88 119 153 200 258 294 350
#     4  11  22  37  57  85 123 162 194 248 314 363
#
# _framework density 25.982737
#
# number of rings (size 3 to 8) (size 9 to 14) (size 15 to 20)
#    0.000    2.000    2.500    2.250    0.000    1.000 
#    4.500    0.000    0.000    6.750    0.000   26.250 
#    0.000    0.000    0.000    0.000    0.000    0.000 
#
# Total GULP energy -89105.067862 kJ/mol
# GULP energy per Si atom -5569.066741 kJ/mol
# Density = 2.592360 g / cm^3
# Si number density = 25.982737 Si / 1000 Ang^3
#
#
#
# Elastic Constant Matrix: (Units=GPa)
#
#
# Indices 1 2 3 4 5 6 
#
# 1 98.0874 11.7636 5.8971 -2.5468 -13.5603 24.9530
# 2 11.7636 71.1993 29.3924 -36.9679 -11.5451 15.2582
# 3 5.8971 29.3924 88.6142 -22.7212 -5.5861 1.2315
# 4 -2.5468 -36.9679 -22.7212 39.5109 -0.4881 -9.5760
# 5 -13.5603 -11.5451 -5.5861 -0.4881 34.7209 -4.3771
# 6 24.9530 15.2582 1.2315 -9.5760 -4.3771 38.6365
#
#
#
# Elastic Compliance Matrix: (Units=1/GPa)
#
#
# Indices 1 2 3 4 5 6 
#
# 1 0.012835 -0.000492 -0.000879 -0.002073 0.003649 -0.008168
# 2 -0.000492 0.032060 -0.002905 0.027360 0.009836 -0.004355
# 3 -0.000879 -0.002905 0.013871 0.005921 0.001371 0.002896
# 4 -0.002073 0.027360 0.005921 0.055605 0.010695 0.005339
# 5 0.003649 0.009836 0.001371 0.010695 0.033894 0.000206
# 6 -0.008168 -0.004355 0.002896 0.005339 0.000206 0.034131
#
#
# Mechanical properties :
#
#
# Convention : Reuss Voigt Hill
#
# Bulk Modulus (GPa) = 19.91497 39.11189 29.51343
# Shear Modulus (GPa) = 24.07466 36.63018 30.35242
#
# Velocity S-wave (km/s) = 3.04725 3.75879 3.42157
# Velocity P-wave (km/s) = 4.47910 5.82441 5.19548
#
# Compressibility (1/GPa) = 0.05021348
#
# Stress axis : x y z
#
# Youngs Moduli (GPa) = 77.91023 31.19181 72.09160
#
# Poissons Ratio (x) = 0.01535 0.06336
# Poissons Ratio (y) = 0.03834 0.20945
# Poissons Ratio (z) = 0.06848 0.09062
#
# Static dielectric constant tensor:
#      x y z
#    x 2.100660 -0.120040 -0.004590 
#    y -0.120040 1.801660 -0.157760 
#    z -0.004590 -0.157760 2.121820 
# 
# From -- ./inp_files/217340.got.cif
#   From: 2010.05.17/outbox.cif.g08.bks.cpg/sg2_109_cif.got.tgz:217340.got - 2010.06.03 11:33:40.
