data_PCOD9084354
_publ_section_title
;
Structure prediction by ZEFSAII (Michael W. Deem and Ramdas Pophale) SiO2 
 PCOD9084354
Probable space group: P -1
;
_chemical_formula_sum "Si O2"
_cell_formula_units_Z 16
_cell_length_a 5.278473
_cell_length_b 19.114773
_cell_length_c 7.933302
_cell_angle_alpha 130.179814
_cell_angle_beta 86.830806
_cell_angle_gamma 96.219953
_cell_volume 607.845928
_symmetry_space_group_name_H-M "P -1"
_symmetry_group_IT_number 2
_symmetry_cell_setting 'triclinic'
loop_
_space_group_symop_operation_xyz
x,y,z
-x,-y,-z
loop_
_atom_site_type_symbol
_atom_site_label
_atom_site_fract_x
_atom_site_fract_y
_atom_site_fract_z
Si Si1 0.976871 0.029367 0.745595
Si Si2 0.134942 0.166227 0.396180
Si Si3 0.314820 0.744123 0.603457
Si Si4 0.338543 0.586215 0.104548
Si Si5 0.715328 0.741625 0.155832
Si Si6 0.600149 0.650930 0.710315
Si Si7 0.500379 0.906624 0.243966
Si Si8 0.181883 0.507907 0.668550
O O1 0.904593 0.941087 0.725592
O O2 0.251469 0.077500 0.857700
O O3 0.000000 0.000000 0.500000
O O4 0.757343 0.096739 0.854852
O O5 0.429008 0.199473 0.395513
O O6 0.078325 0.216269 0.654879
O O7 0.930562 0.201351 0.330927
O O8 0.255787 0.643733 0.357198
O O9 0.414681 0.719107 0.744266
O O10 0.537674 0.662552 0.129694
O O11 0.500000 0.500000 0.000000
O O12 0.122351 0.551105 0.918737
O O13 0.547669 0.823901 0.236631
O O14 0.798107 0.700657 0.912135
O O15 0.423101 0.575146 0.701839
O O16 0.732871 0.594742 0.475574
O O17 0.500000 0.000000 0.500000
O O18 0.000000 0.500000 0.500000
#
# Coordination Sequence:
#
# PCOD9084354 Si02
#       8
#     2   2   2   2   2   2   2   2
#     4  10  19  34  63  92 127 156 202 268 318 364
#     4  11  23  40  65 100 122 165 217 266 314 378
#     4  11  25  41  64  91 135 167 212 262 321 378
#     4  10  21  40  61  93 128 168 215 263 315 375
#     4  10  22  38  64  97 124 168 217 264 311 388
#     4  10  23  43  59  88 130 172 210 265 326 378
#     4  10  19  35  60  97 125 157 207 266 313 363
#     4  10  22  40  63  87 122 168 222 264 318 376
#
# _framework density 26.322461000000001
#
# number of rings (size 3 to 8) (size 9 to 14) (size 15 to 20)
#    0.000    1.750    3.750    0.750    8.750    0.000 
#    2.250    3.125    0.000    4.500    0.000    0.000 
#    0.000    0.000    0.000    0.000    0.000    0.000 
#
# Total GULP energy -89532.594891 kJ/mol
# GULP energy per Si atom -5595.787181 kJ/mol
# Density = 2.626255 g / cm^3
# Si number density = 26.322461 Si / 1000 Ang^3
#
#
#
# Elastic Constant Matrix: (Units=GPa)
#
#
# Indices 1 2 3 4 5 6 
#
# 1 131.4309 23.5843 12.3586 10.3490 3.3367 -10.4939
# 2 23.5843 134.0795 30.2165 35.8603 -1.2287 -11.1165
# 3 12.3586 30.2165 93.1161 -9.5153 17.6746 -2.9340
# 4 10.3490 35.8603 -9.5153 44.4838 -12.4115 5.5600
# 5 3.3367 -1.2287 17.6746 -12.4115 25.2013 -4.5402
# 6 -10.4939 -11.1165 -2.9340 5.5600 -4.5402 39.5330
#
#
#
# Elastic Compliance Matrix: (Units=1/GPa)
#
#
# Indices 1 2 3 4 5 6 
#
# 1 0.008160 -0.000442 -0.000873 -0.002349 -0.001257 0.002163
# 2 -0.000442 0.011987 -0.004688 -0.011355 -0.000869 0.004403
# 3 -0.000873 -0.004688 0.014359 0.005067 -0.008071 -0.002124
# 4 -0.002349 -0.011355 0.005067 0.037961 0.013599 -0.007218
# 5 -0.001257 -0.000869 -0.008071 0.013599 0.052696 0.002962
# 6 0.002163 0.004403 -0.002124 -0.007218 0.002962 0.028305
#
#
# Mechanical properties :
#
#
# Convention : Reuss Voigt Hill
#
# Bulk Modulus (GPa) = 44.44522 54.54948 49.49735
# Shear Modulus (GPa) = 28.90627 41.34143 35.12385
#
# Velocity S-wave (km/s) = 3.31744 3.96735 3.65686
# Velocity P-wave (km/s) = 5.62099 6.46181 6.05601
#
# Compressibility (1/GPa) = 0.02249961
#
# Stress axis : x y z
#
# Youngs Moduli (GPa) = 122.55482 83.42626 69.64237
#
# Poissons Ratio (x) = 0.03691 0.06078
# Poissons Ratio (y) = 0.05422 0.32647
# Poissons Ratio (z) = 0.10695 0.39108
#
# Static dielectric constant tensor:
#      x y z
#    x 2.092810 0.018220 -0.084520 
#    y 0.018220 2.025570 -0.056750 
#    z -0.084520 -0.056750 2.106310 
# 
# From -- ./inp_files/99763.got.cif
#   From: 2010.05.17/outbox.cif.g08.bks.cpg/sg2_50_cif.got.tgz:99763.got - 2010.06.03 11:33:40.
