data_PCOD9084666
_publ_section_title
;
Structure prediction by ZEFSAII (Michael W. Deem and Ramdas Pophale) SiO2 
 PCOD9084666
Probable space group: P -1
;
_chemical_formula_sum "Si O2"
_cell_formula_units_Z 16
_cell_length_a 22.147862
_cell_length_b 9.707989
_cell_length_c 6.551963
_cell_angle_alpha 41.185748
_cell_angle_beta 60.087589
_cell_angle_gamma 45.153956
_cell_volume 656.165180
_symmetry_space_group_name_H-M "P -1"
_symmetry_group_IT_number 2
_symmetry_cell_setting 'triclinic'
loop_
_space_group_symop_operation_xyz
x,y,z
-x,-y,-z
loop_
_atom_site_type_symbol
_atom_site_label
_atom_site_fract_x
_atom_site_fract_y
_atom_site_fract_z
Si Si1 0.434380 0.002165 0.333419
Si Si2 0.462493 0.767621 0.154437
Si Si3 0.294107 0.462079 0.241649
Si Si4 0.392548 0.561008 0.261791
Si Si5 0.030389 0.742364 0.359227
Si Si6 0.863878 0.172987 0.658091
Si Si7 0.236953 0.793919 0.582411
Si Si8 0.126589 0.218281 0.581684
O O1 0.403193 0.973271 0.197875
O O2 0.523800 0.731232 0.532963
O O3 0.357015 0.160548 0.441390
O O4 0.534462 0.813214 0.948430
O O5 0.500000 0.500000 0.500000
O O6 0.426311 0.735485 0.044598
O O7 0.345854 0.572552 0.122304
O O8 0.220216 0.558634 0.421175
O O9 0.254984 0.587638 0.950586
O O10 0.321126 0.667513 0.442020
O O11 0.061265 0.790341 0.466012
O O12 0.107251 0.479255 0.415122
O O13 0.953642 0.710938 0.504132
O O14 0.000000 0.000000 0.000000
O O15 0.840592 0.136117 0.514284
O O16 0.870624 0.958487 0.039231
O O17 0.207604 0.041330 0.495521
#
# Coordination Sequence:
#
# PCOD9084666 Si02
#       8
#     2   2   2   2   2   2   2   2
#     4  10  19  35  56  79 109 145 189 239 284 325
#     4   9  18  32  52  76 101 135 179 229 280 331
#     4  10  20  36  56  80 112 149 190 234 277 325
#     4  10  21  37  56  80 111 146 189 237 280 327
#     4   9  18  38  63  87 114 142 179 225 271 327
#     4   9  20  37  56  82 116 149 184 226 271 326
#     4  10  20  37  56  80 116 151 185 227 274 327
#     4   9  19  37  60  85 114 145 180 224 272 327
#
# _framework density 24.384103
#
# number of rings (size 3 to 8) (size 9 to 14) (size 15 to 20)
#    0.000    2.500    0.000    2.625    0.000    2.000 
#    0.000   24.375    0.000    0.000    0.000    0.000 
#    0.000    0.000    0.000    0.000    0.000    0.000 
#
# Total GULP energy -89291.574672 kJ/mol
# GULP energy per Si atom -5580.723417 kJ/mol
# Density = 2.432860 g / cm^3
# Si number density = 24.384103 Si / 1000 Ang^3
#
#
#
# Elastic Constant Matrix: (Units=GPa)
#
#
# Indices 1 2 3 4 5 6 
#
# 1 104.7378 27.0496 22.9991 -6.5862 22.5117 30.1259
# 2 27.0496 163.5653 38.5937 -12.1987 4.3901 13.2778
# 3 22.9991 38.5937 69.0327 -9.1286 14.3988 10.0273
# 4 -6.5862 -12.1987 -9.1286 28.4209 6.4532 3.4938
# 5 22.5117 4.3901 14.3988 6.4532 30.2346 0.5546
# 6 30.1259 13.2778 10.0273 3.4938 0.5546 37.2376
#
#
#
# Elastic Compliance Matrix: (Units=1/GPa)
#
#
# Indices 1 2 3 4 5 6 
#
# 1 0.017734 -0.000885 0.001235 0.009473 -0.015410 -0.015024
# 2 -0.000885 0.007299 -0.003610 0.001680 0.000980 -0.001087
# 3 0.001235 -0.003610 0.020616 0.008806 -0.011985 -0.005911
# 4 0.009473 0.001680 0.008806 0.047601 -0.021380 -0.014781
# 5 -0.015410 0.000980 -0.011985 -0.021380 0.054374 0.016541
# 6 -0.015024 -0.001087 -0.005911 -0.014781 0.016541 0.042129
#
#
# Mechanical properties :
#
#
# Convention : Reuss Voigt Hill
#
# Bulk Modulus (GPa) = 25.55611 57.18004 41.36808
# Shear Modulus (GPa) = 23.88749 35.75819 29.82284
#
# Velocity S-wave (km/s) = 3.13331 3.83359 3.50100
# Velocity P-wave (km/s) = 4.85732 6.56474 5.77448
#
# Compressibility (1/GPa) = 0.03912958
#
# Stress axis : x y z
#
# Youngs Moduli (GPa) = 56.38909 137.00282 48.50713
#
# Poissons Ratio (x) = 0.12119 -0.05992
# Poissons Ratio (y) = 0.04988 0.17513
# Poissons Ratio (z) = -0.06966 0.49462
#
# Static dielectric constant tensor:
#      x y z
#    x 2.004890 -0.027440 0.032270 
#    y -0.027440 1.991730 0.017850 
#    z 0.032270 0.017850 1.958630 
# 
# From -- ./inp_files/122765.got.cif
#   From: 2010.05.17/outbox.cif.g08.bks.cpg/sg2_62_cif.got.tgz:122765.got - 2010.06.03 11:33:40.
