data_PCOD9084935
_publ_section_title
;
Structure prediction by ZEFSAII (Michael W. Deem and Ramdas Pophale) SiO2 
 PCOD9084935
Probable space group: P -1
;
_chemical_formula_sum "Si O2"
_cell_formula_units_Z 12
_cell_length_a 9.344841
_cell_length_b 24.294660
_cell_length_c 16.303466
_cell_angle_alpha 163.582357
_cell_angle_beta 30.632613
_cell_angle_gamma 146.125260
_cell_volume 532.735792
_symmetry_space_group_name_H-M "P -1"
_symmetry_group_IT_number 2
_symmetry_cell_setting 'triclinic'
loop_
_space_group_symop_operation_xyz
x,y,z
-x,-y,-z
loop_
_atom_site_type_symbol
_atom_site_label
_atom_site_fract_x
_atom_site_fract_y
_atom_site_fract_z
Si Si1 0.725787 0.779803 0.219403
Si Si2 0.028767 0.612523 0.418629
Si Si3 0.657891 0.285658 0.202091
Si Si4 0.418343 0.927008 0.740065
Si Si5 0.339607 0.287038 0.529747
Si Si6 0.795664 0.306964 0.738413
O O1 0.624120 0.875986 0.490789
O O2 0.486833 0.814164 0.319306
O O3 0.740613 0.545515 0.890924
O O4 0.048515 0.829030 0.109912
O O5 0.126460 0.813955 0.700901
O O6 0.066625 0.629324 0.326155
O O7 0.752847 0.495590 0.419442
O O8 0.545667 0.302077 0.372225
O O9 0.434708 0.157818 0.076276
O O10 0.529294 0.840153 0.646008
O O11 0.037874 0.210585 0.534062
O O12 0.291044 0.500404 0.895451
#
# Coordination Sequence:
#
# PCOD9084935 Si02
#       6
#     2   2   2   2   2   2
#     4   9  18  37  56  78 100 145 190 207 253 326
#     4   9  19  37  58  77 102 147 186 211 256 323
#     4  10  22  32  58  86 104 137 188 223 255 319
#     4  11  18  37  58  79 108 145 179 218 264 324
#     4  11  20  33  53  87 111 137 175 225 279 309
#     4  10  19  35  58  76 112 146 172 221 275 319
#
# _framework density 22.525236
#
# number of rings (size 3 to 8) (size 9 to 14) (size 15 to 20)
#    1.000    1.000    3.333    2.000    0.000    3.333 
#    0.000    4.167    0.000    8.000    0.000    0.000 
#    0.000    0.000    0.000    0.000    0.000    0.000 
#
# Total GULP energy -66989.619702 kJ/mol
# GULP energy per Si atom -5582.468308 kJ/mol
# Density = 2.247397 g / cm^3
# Si number density = 22.525236 Si / 1000 Ang^3
#
#
#
# Elastic Constant Matrix: (Units=GPa)
#
#
# Indices 1 2 3 4 5 6 
#
# 1 141.2240 58.7744 47.8570 -1.0174 26.0558 9.4628
# 2 58.7744 118.9754 71.8375 3.0508 23.5497 19.7829
# 3 47.8570 71.8375 84.5882 14.4562 21.2989 -5.5058
# 4 -1.0174 3.0508 14.4562 25.6980 4.2439 -4.3047
# 5 26.0558 23.5497 21.2989 4.2439 34.3016 4.9375
# 6 9.4628 19.7829 -5.5058 -4.3047 4.9375 23.9869
#
#
#
# Elastic Compliance Matrix: (Units=1/GPa)
#
#
# Indices 1 2 3 4 5 6 
#
# 1 0.009992 -0.001131 -0.004375 0.003240 -0.004126 -0.002582
# 2 -0.001131 0.032200 -0.030428 0.007677 0.001300 -0.031985
# 3 -0.004375 -0.030428 0.047343 -0.015650 -0.008520 0.036633
# 4 0.003240 0.007677 -0.015650 0.047188 -0.003565 -0.002000
# 5 -0.004126 0.001300 -0.008520 -0.003565 0.038562 -0.009978
# 6 -0.002582 -0.031985 0.036633 -0.002000 -0.009978 0.079191
#
#
# Mechanical properties :
#
#
# Convention : Reuss Voigt Hill
#
# Bulk Modulus (GPa) = 56.60446 77.96948 67.28697
# Shear Modulus (GPa) = 15.04967 27.88520 21.46744
#
# Velocity S-wave (km/s) = 2.58762 3.52227 3.09048
# Velocity P-wave (km/s) = 5.84051 7.15760 6.53234
#
# Compressibility (1/GPa) = 0.01766645
#
# Stress axis : x y z
#
# Youngs Moduli (GPa) = 100.07981 31.05545 21.12263
#
# Poissons Ratio (x) = 0.03514 0.09242
# Poissons Ratio (y) = 0.11323 0.64271
# Poissons Ratio (z) = 0.43787 0.94495
#
# Static dielectric constant tensor:
#      x y z
#    x 1.838820 0.052480 -0.038400 
#    y 0.052480 1.818760 0.022900 
#    z -0.038400 0.022900 1.816930 
# 
# From -- ./inp_files/147150.got.cif
#   From: 2010.05.17/outbox.cif.g08.bks.cpg/sg2_74_cif.got.tgz:147150.got - 2010.06.03 11:33:40.
