data_PCOD9084894
_publ_section_title
;
Structure prediction by ZEFSAII (Michael W. Deem and Ramdas Pophale) SiO2 
 PCOD9084894
Probable space group: P -1
;
_chemical_formula_sum "Si O2"
_cell_formula_units_Z 16
_cell_length_a 13.903671
_cell_length_b 25.324400
_cell_length_c 19.122693
_cell_angle_alpha 22.754245
_cell_angle_beta 158.813646
_cell_angle_gamma 159.133790
_cell_volume 796.058048
_symmetry_space_group_name_H-M "P -1"
_symmetry_group_IT_number 2
_symmetry_cell_setting 'triclinic'
loop_
_space_group_symop_operation_xyz
x,y,z
-x,-y,-z
loop_
_atom_site_type_symbol
_atom_site_label
_atom_site_fract_x
_atom_site_fract_y
_atom_site_fract_z
Si Si1 0.092695 0.414267 0.110179
Si Si2 0.246537 0.746955 0.417491
Si Si3 0.224131 0.956397 0.664778
Si Si4 0.498354 0.347304 0.713309
Si Si5 0.254620 0.423044 0.833536
Si Si6 0.071891 0.425078 0.862843
Si Si7 0.223817 0.377340 0.628796
Si Si8 0.569051 0.118080 0.966369
O O1 0.471620 0.519436 0.239987
O O2 0.974492 0.227808 0.272048
O O3 0.000000 0.500000 0.000000
O O4 0.861549 0.403784 0.905206
O O5 0.307957 0.600647 0.641466
O O6 0.993805 0.695384 0.246679
O O7 0.072057 0.740892 0.378492
O O8 0.560397 0.913311 0.406246
O O9 0.437239 0.959133 0.869598
O O10 0.000000 0.000000 0.500000
O O11 0.500000 0.500000 0.500000
O O12 0.317665 0.301803 0.721131
O O13 0.377247 0.204818 0.748057
O O14 0.128028 0.377346 0.882302
O O15 0.593118 0.444749 0.036073
O O16 0.860779 0.500537 0.613354
O O17 0.909917 0.265922 0.993463
O O18 0.500000 0.000000 0.000000
#
# Coordination Sequence:
#
# PCOD9084894 Si02
#       8
#     2   2   2   2   2   2   2   2
#     4   9  22  40  60  90 121 166 211 246 305 379
#     4  10  21  36  58  90 127 165 205 260 317 368
#     4  11  24  37  62  94 130 157 203 260 315 365
#     4  10  20  39  60  89 121 159 215 257 302 368
#     4   9  20  34  56  86 128 159 211 248 319 369
#     4  10  19  35  57  88 119 163 208 258 297 373
#     4  10  21  37  65  89 118 168 217 251 309 372
#     4  11  23  35  58  89 125 155 204 254 321 360
#
# _framework density 20.099036999999999
#
# number of rings (size 3 to 8) (size 9 to 14) (size 15 to 20)
#    0.000    2.000    1.250    1.500   10.500    0.000 
#    0.000    5.625    0.000    0.000    0.000   28.875 
#    0.000    0.000    0.000    0.000    0.000    0.000 
#
# Total GULP energy -89145.991526 kJ/mol
# GULP energy per Si atom -5571.624470 kJ/mol
# Density = 2.005329 g / cm^3
# Si number density = 20.099037 Si / 1000 Ang^3
#
#
#
# Elastic Constant Matrix: (Units=GPa)
#
#
# Indices 1 2 3 4 5 6 
#
# 1 113.3003 52.6755 18.2824 -16.7145 15.3761 6.5267
# 2 52.6755 69.5640 25.4506 -13.3378 17.0881 7.4686
# 3 18.2824 25.4506 82.3096 3.7804 13.3597 4.6981
# 4 -16.7145 -13.3378 3.7804 33.0350 -3.0849 2.3756
# 5 15.3761 17.0881 13.3597 -3.0849 34.1186 -5.8949
# 6 6.5267 7.4686 4.6981 2.3756 -5.8949 42.0089
#
#
#
# Elastic Compliance Matrix: (Units=1/GPa)
#
#
# Indices 1 2 3 4 5 6 
#
# 1 0.013961 -0.009530 -0.000029 0.003152 -0.001368 -0.000842
# 2 -0.009530 0.026877 -0.005054 0.006219 -0.007336 -0.004113
# 3 -0.000029 -0.005054 0.014559 -0.003993 -0.003694 -0.001018
# 4 0.003152 0.006219 -0.003993 0.035029 -0.000354 -0.003179
# 5 -0.001368 -0.007336 -0.003694 -0.000354 0.036229 0.007034
# 6 -0.000842 -0.004113 -0.001018 -0.003179 0.007034 0.025947
#
#
# Mechanical properties :
#
#
# Convention : Reuss Voigt Hill
#
# Bulk Modulus (GPa) = 38.21030 50.88789 44.54909
# Shear Modulus (GPa) = 26.23971 33.08353 29.66162
#
# Velocity S-wave (km/s) = 3.61712 4.06153 3.84575
# Velocity P-wave (km/s) = 6.04128 6.88246 6.47554
#
# Compressibility (1/GPa) = 0.02617096
#
# Stress axis : x y z
#
# Youngs Moduli (GPa) = 71.63053 37.20720 68.68447
#
# Poissons Ratio (x) = 0.35459 0.00198
# Poissons Ratio (y) = 0.68264 0.34711
# Poissons Ratio (z) = 0.00207 0.18804
#
# Static dielectric constant tensor:
#      x y z
#    x 1.795740 -0.058240 -0.027060 
#    y -0.058240 1.791250 0.046460 
#    z -0.027060 0.046460 1.764890 
# 
# From -- ./inp_files/218289.got.cif
#   From: 2010.05.17/outbox.cif.g08.bks.cpg/sg2_110_cif.got.tgz:218289.got - 2010.06.03 11:33:40.
