data_PCOD9084109
_publ_section_title
;
Structure prediction by ZEFSAII (Michael W. Deem and Ramdas Pophale) SiO2 
 PCOD9084109
Probable space group: P -1
;
_chemical_formula_sum "Si O2"
_cell_formula_units_Z 16
_cell_length_a 11.986925
_cell_length_b 11.855717
_cell_length_c 9.437588
_cell_angle_alpha 49.679738
_cell_angle_beta 65.758341
_cell_angle_gamma 37.608538
_cell_volume 608.866164
_symmetry_space_group_name_H-M "P -1"
_symmetry_group_IT_number 2
_symmetry_cell_setting 'triclinic'
loop_
_space_group_symop_operation_xyz
x,y,z
-x,-y,-z
loop_
_atom_site_type_symbol
_atom_site_label
_atom_site_fract_x
_atom_site_fract_y
_atom_site_fract_z
Si Si1 0.790855 0.254427 0.433810
Si Si2 0.592511 0.657457 0.898145
Si Si3 0.433895 0.817132 0.422382
Si Si4 0.122377 0.352300 0.203971
Si Si5 0.733708 0.217282 0.116938
Si Si6 0.840895 0.135056 0.814721
Si Si7 0.238485 0.414933 0.697704
Si Si8 0.340906 0.984752 0.023938
O O1 0.650172 0.264543 0.431549
O O2 0.746836 0.275057 0.607436
O O3 0.778626 0.442409 0.284818
O O4 0.000000 0.000000 0.500000
O O5 0.761708 0.614780 0.823976
O O6 0.419503 0.771439 0.789522
O O7 0.686080 0.410711 0.067154
O O8 0.474382 0.834081 0.944773
O O9 0.654524 0.648192 0.456557
O O10 0.440285 0.827991 0.237653
O O11 0.280470 0.081653 0.320228
O O12 0.981787 0.417440 0.341591
O O13 0.000000 0.500000 0.000000
O O14 0.731882 0.263524 0.912123
O O15 0.953016 0.984165 0.205086
O O16 0.840051 0.955717 0.950014
O O17 0.303416 0.190791 0.893148
#
# Coordination Sequence:
#
# PCOD9084109 Si02
#       8
#     2   2   2   2   2   2   2   2
#     4  11  24  39  60  92 131 168 204 252 325 388
#     4  10  20  34  59  96 119 154 209 267 309 361
#     4  11  22  39  54  90 128 169 207 240 316 383
#     4  12  22  34  62  94 128 162 207 261 316 370
#     4   9  19  38  64  88 123 161 216 265 299 354
#     4   9  20  39  63  90 120 163 213 258 312 366
#     4  12  22  36  57  85 129 168 195 252 312 380
#     4  10  19  34  60  89 123 158 205 258 305 364
#
# _framework density 26.278354
#
# number of rings (size 3 to 8) (size 9 to 14) (size 15 to 20)
#    0.000    1.500    3.750    2.250    1.750    1.000 
#    0.000    2.500    0.000   13.500    0.000    0.000 
#    0.000    0.000    0.000    0.000    0.000    0.000 
#
# Total GULP energy -89270.547436 kJ/mol
# GULP energy per Si atom -5579.409215 kJ/mol
# Density = 2.621854 g / cm^3
# Si number density = 26.278354 Si / 1000 Ang^3
#
#
#
# Elastic Constant Matrix: (Units=GPa)
#
#
# Indices 1 2 3 4 5 6 
#
# 1 152.7075 37.3442 42.7652 -6.2893 -44.7040 -8.0769
# 2 37.3442 140.4699 15.5206 -30.1636 -22.0077 -7.7373
# 3 42.7652 15.5206 71.4022 -12.3192 -28.2695 11.1585
# 4 -6.2893 -30.1636 -12.3192 22.1879 7.9291 -10.4505
# 5 -44.7040 -22.0077 -28.2695 7.9291 43.3882 8.4886
# 6 -8.0769 -7.7373 11.1585 -10.4505 8.4886 58.8324
#
#
#
# Elastic Compliance Matrix: (Units=1/GPa)
#
#
# Indices 1 2 3 4 5 6 
#
# 1 0.010154 -0.002118 -0.003111 -0.004872 0.008322 -0.000361
# 2 -0.002118 0.011642 0.001405 0.017682 0.000620 0.004025
# 3 -0.003111 0.001405 0.022110 0.006845 0.011620 -0.004897
# 4 -0.004872 0.017682 0.006845 0.082867 -0.009966 0.016516
# 5 0.008322 0.000620 0.011620 -0.009966 0.043083 -0.008967
# 6 -0.000361 0.004025 -0.004897 0.016516 -0.008967 0.022634
#
#
# Mechanical properties :
#
#
# Convention : Reuss Voigt Hill
#
# Bulk Modulus (GPa) = 27.57991 61.75998 44.66994
# Shear Modulus (GPa) = 23.56004 42.81166 33.18585
#
# Velocity S-wave (km/s) = 2.99750 4.04066 3.55753
# Velocity P-wave (km/s) = 4.74322 6.73220 5.82326
#
# Compressibility (1/GPa) = 0.03625828
#
# Stress axis : x y z
#
# Youngs Moduli (GPa) = 98.48391 85.89259 45.22899
#
# Poissons Ratio (x) = 0.18192 0.14069
# Poissons Ratio (y) = 0.20859 -0.06353
# Poissons Ratio (z) = 0.30635 -0.12065
#
# Static dielectric constant tensor:
#      x y z
#    x 2.475850 -0.286120 -0.069980 
#    y -0.286120 2.262200 0.111540 
#    z -0.069980 0.111540 2.179310 
# 
# From -- ./inp_files/427527.got.cif
#   From: 2010.05.17/outbox.cif.g08.bks.cpg/sg2_214_cif.got.tgz:427527.got - 2010.06.03 11:33:40.
