data_PCOD9084885
_publ_section_title
;
Structure prediction by ZEFSAII (Michael W. Deem and Ramdas Pophale) SiO2 
 PCOD9084885
Probable space group: P -1
;
_chemical_formula_sum "Si O2"
_cell_formula_units_Z 12
_cell_length_a 5.843138
_cell_length_b 9.058555
_cell_length_c 14.318503
_cell_angle_alpha 60.187013
_cell_angle_beta 113.015215
_cell_angle_gamma 73.365558
_cell_volume 483.339309
_symmetry_space_group_name_H-M "P -1"
_symmetry_group_IT_number 2
_symmetry_cell_setting 'triclinic'
loop_
_space_group_symop_operation_xyz
x,y,z
-x,-y,-z
loop_
_atom_site_type_symbol
_atom_site_label
_atom_site_fract_x
_atom_site_fract_y
_atom_site_fract_z
Si Si1 0.903287 0.665273 0.192383
Si Si2 0.666029 0.161538 0.308081
Si Si3 0.188754 0.203306 0.329424
Si Si4 0.800819 0.290579 0.485726
Si Si5 0.388074 0.733747 0.337360
Si Si6 0.256805 0.020246 0.076022
O O1 0.032178 0.422874 0.292658
O O2 0.579353 0.831532 0.139552
O O3 0.144778 0.694831 0.269384
O O4 0.838171 0.755910 0.046861
O O5 0.314038 0.242821 0.242292
O O6 0.695774 0.249255 0.384911
O O7 0.897583 0.190825 0.276210
O O8 0.841469 0.910381 0.396138
O O9 0.500000 0.000000 0.500000
O O10 0.708122 0.523168 0.414716
O O11 0.641256 0.264747 0.557410
O O12 0.292464 0.950949 0.209865
O O13 0.000000 0.000000 0.000000
#
# Coordination Sequence:
#
# PCOD9084885 Si02
#       6
#     2   2   2   2   2   2
#     4  10  20  35  59  89 112 157 202 246 297 357
#     4  11  22  38  56  88 120 166 190 234 295 367
#     4  12  20  36  62  87 118 153 205 239 292 358
#     4  10  19  35  57  87 126 153 194 243 301 357
#     4  10  19  36  55  90 119 152 195 252 300 346
#     4   9  20  36  57  81 117 156 198 251 294 354
#
# _framework density 24.827279999999998
#
# number of rings (size 3 to 8) (size 9 to 14) (size 15 to 20)
#    0.000    1.667    5.000    1.000    2.333    0.000 
#    6.000    2.500    0.000    2.000    0.000    0.000 
#    0.000    0.000    0.000    0.000    0.000    0.000 
#
# Total GULP energy -66833.550828 kJ/mol
# GULP energy per Si atom -5569.462569 kJ/mol
# Density = 2.477077 g / cm^3
# Si number density = 24.827280 Si / 1000 Ang^3
#
#
#
# Elastic Constant Matrix: (Units=GPa)
#
#
# Indices 1 2 3 4 5 6 
#
# 1 168.4788 28.1908 22.8021 -4.8946 1.7754 -0.4798
# 2 28.1908 123.4934 29.2870 -12.0667 12.9742 -15.4842
# 3 22.8021 29.2870 102.2925 -18.4141 -24.0293 5.8231
# 4 -4.8946 -12.0667 -18.4141 28.0952 -2.8768 1.5062
# 5 1.7754 12.9742 -24.0293 -2.8768 34.8002 -0.2460
# 6 -0.4798 -15.4842 5.8231 1.5062 -0.2460 40.9269
#
#
#
# Elastic Compliance Matrix: (Units=1/GPa)
#
#
# Indices 1 2 3 4 5 6 
#
# 1 0.006298 -0.001071 -0.001360 -0.000338 -0.000890 -0.000131
# 2 -0.001071 0.010860 -0.004772 0.000357 -0.007226 0.004719
# 3 -0.001360 -0.004772 0.016996 0.010574 0.014426 -0.004542
# 4 -0.000338 0.000357 0.010574 0.043879 0.010792 -0.002923
# 5 -0.000890 -0.007226 0.014426 0.010792 0.042293 -0.004940
# 6 -0.000131 0.004719 -0.004542 -0.002923 -0.004940 0.026942
#
#
# Mechanical properties :
#
#
# Convention : Reuss Voigt Hill
#
# Bulk Modulus (GPa) = 50.63947 61.64715 56.14331
# Shear Modulus (GPa) = 29.71649 41.69678 35.70664
#
# Velocity S-wave (km/s) = 3.46342 4.10259 3.79648
# Velocity P-wave (km/s) = 6.03612 6.87938 6.47150
#
# Compressibility (1/GPa) = 0.01974744
#
# Stress axis : x y z
#
# Youngs Moduli (GPa) = 158.78332 92.08429 58.83706
#
# Poissons Ratio (x) = 0.09865 0.07999
# Poissons Ratio (y) = 0.17010 0.28079
# Poissons Ratio (z) = 0.21587 0.43946
#
# Static dielectric constant tensor:
#      x y z
#    x 2.060420 0.002330 -0.017660 
#    y 0.002330 1.968090 -0.047480 
#    z -0.017660 -0.047480 2.103410 
# 
# From -- ./inp_files/29686.got.cif
#   From: 2010.05.17/outbox.cif.g08.bks.cpg/sg2_15_cif.got.tgz:29686.got - 2010.06.03 11:33:40.
