data_PCOD9084628
_publ_section_title
;
Structure prediction by ZEFSAII (Michael W. Deem and Ramdas Pophale) SiO2 
 PCOD9084628
Probable space group: P -1
;
_chemical_formula_sum "Si O2"
_cell_formula_units_Z 16
_cell_length_a 10.463563
_cell_length_b 10.933711
_cell_length_c 10.813368
_cell_angle_alpha 51.385390
_cell_angle_beta 137.470536
_cell_angle_gamma 107.672104
_cell_volume 624.133876
_symmetry_space_group_name_H-M "P -1"
_symmetry_group_IT_number 2
_symmetry_cell_setting 'triclinic'
loop_
_space_group_symop_operation_xyz
x,y,z
-x,-y,-z
loop_
_atom_site_type_symbol
_atom_site_label
_atom_site_fract_x
_atom_site_fract_y
_atom_site_fract_z
Si Si1 0.519033 0.113275 0.750752
Si Si2 0.002698 0.686678 0.412434
Si Si3 0.730176 0.873976 0.878762
Si Si4 0.352232 0.856536 0.912140
Si Si5 0.731774 0.631423 0.436899
Si Si6 0.544368 0.355667 0.226484
Si Si7 0.949047 0.350386 0.896762
Si Si8 0.781063 0.419081 0.996070
O O1 0.624823 0.059810 0.729714
O O2 0.665477 0.083021 0.994911
O O3 0.371683 0.293168 0.555164
O O4 0.385057 0.994173 0.760747
O O5 0.860969 0.797422 0.139856
O O6 0.220217 0.705581 0.555979
O O7 0.000000 0.500000 0.500000
O O8 0.901420 0.706237 0.462694
O O9 0.889656 0.819535 0.916165
O O10 0.564041 0.781018 0.798759
O O11 0.561389 0.712095 0.165639
O O12 0.807331 0.436892 0.629150
O O13 0.423951 0.446422 0.202411
O O14 0.500000 0.500000 0.000000
O O15 0.790480 0.243768 0.173173
O O16 0.820785 0.361315 0.919600
O O17 0.064811 0.486086 0.914700
#
# Coordination Sequence:
#
# PCOD9084628 Si02
#       8
#     2   2   2   2   2   2   2   2
#     4   9  19  35  58  80 118 154 176 239 295 333
#     4  12  18  31  55  86 114 141 188 245 278 338
#     4  11  20  37  55  81 119 148 188 242 286 335
#     4   9  17  34  58  76 111 152 180 226 291 334
#     4  10  19  35  55  86 113 148 188 230 290 336
#     4  11  21  32  56  87 112 146 185 238 307 328
#     4  10  22  36  58  82 113 152 191 240 284 332
#     4  10  21  38  54  84 118 146 190 240 287 344
#
# _framework density 25.635525000000001
#
# number of rings (size 3 to 8) (size 9 to 14) (size 15 to 20)
#    0.750    1.000    3.750    2.250    0.000    0.500 
#    0.000    4.375    0.000    8.250    0.000    0.000 
#    0.000    0.000    0.000    0.000    0.000    0.000 
#
# Total GULP energy -89286.451541 kJ/mol
# GULP energy per Si atom -5580.403221 kJ/mol
# Density = 2.557718 g / cm^3
# Si number density = 25.635525 Si / 1000 Ang^3
#
#
#
# Elastic Constant Matrix: (Units=GPa)
#
#
# Indices 1 2 3 4 5 6 
#
# 1 106.0903 47.7314 27.0642 10.0101 24.5259 -39.6546
# 2 47.7314 83.1149 17.8197 -4.3259 22.8920 -22.2070
# 3 27.0642 17.8197 52.1229 14.6955 21.4791 3.9348
# 4 10.0101 -4.3259 14.6955 32.3415 -1.3625 8.5433
# 5 24.5259 22.8920 21.4791 -1.3625 24.6626 -6.8873
# 6 -39.6546 -22.2070 3.9348 8.5433 -6.8873 50.6620
#
#
#
# Elastic Compliance Matrix: (Units=1/GPa)
#
#
# Indices 1 2 3 4 5 6 
#
# 1 0.021765 -0.005495 -0.003771 -0.010214 -0.009539 0.015346
# 2 -0.005495 0.019036 0.000032 0.003238 -0.011515 0.001929
# 3 -0.003771 0.000032 0.040944 -0.016783 -0.035117 -0.008061
# 4 -0.010214 0.003238 -0.016783 0.045702 0.021484 -0.010058
# 5 -0.009539 -0.011515 -0.035117 0.021484 0.092250 -0.000868
# 6 0.015346 0.001929 -0.008061 -0.010058 -0.000868 0.034800
#
#
# Mechanical properties :
#
#
# Convention : Reuss Voigt Hill
#
# Bulk Modulus (GPa) = 15.80349 47.39540 31.59944
# Shear Modulus (GPa) = 17.00350 31.44741 24.22545
#
# Velocity S-wave (km/s) = 2.57821 3.50624 3.07741
# Velocity P-wave (km/s) = 3.87827 5.90931 4.99805
#
# Compressibility (1/GPa) = 0.06327718
#
# Stress axis : x y z
#
# Youngs Moduli (GPa) = 45.94523 52.53254 24.42362
#
# Poissons Ratio (x) = 0.28867 0.09209
# Poissons Ratio (y) = 0.25247 -0.00078
# Poissons Ratio (z) = 0.17324 -0.00168
#
# Static dielectric constant tensor:
#      x y z
#    x 2.109430 -0.052010 0.027300 
#    y -0.052010 2.084470 0.039030 
#    z 0.027300 0.039030 2.037990 
# 
# From -- ./inp_files/394009.got.cif
#   From: 2010.05.17/outbox.cif.g08.bks.cpg/sg2_198_cif.got.tgz:394009.got - 2010.06.03 11:33:40.
