data_PCOD9084137
_publ_section_title
;
Structure prediction by ZEFSAII (Michael W. Deem and Ramdas Pophale) SiO2 
 PCOD9084137
Probable space group: P -1
;
_chemical_formula_sum "Si O2"
_cell_formula_units_Z 16
_cell_length_a 5.301687
_cell_length_b 7.404146
_cell_length_c 22.763502
_cell_angle_alpha 52.040389
_cell_angle_beta 83.733491
_cell_angle_gamma 105.374554
_cell_volume 634.267733
_symmetry_space_group_name_H-M "P -1"
_symmetry_group_IT_number 2
_symmetry_cell_setting 'triclinic'
loop_
_space_group_symop_operation_xyz
x,y,z
-x,-y,-z
loop_
_atom_site_type_symbol
_atom_site_label
_atom_site_fract_x
_atom_site_fract_y
_atom_site_fract_z
Si Si1 0.389759 0.550615 0.898559
Si Si2 0.118073 0.519512 0.155582
Si Si3 0.731524 0.177532 0.321903
Si Si4 0.798644 0.135894 0.757283
Si Si5 0.088806 0.157731 0.408950
Si Si6 0.751573 0.959679 0.969112
Si Si7 0.577894 0.589037 0.275066
Si Si8 0.825999 0.243059 0.594029
O O1 0.573639 0.456609 0.870077
O O2 0.094905 0.533470 0.884133
O O3 0.601089 0.844996 0.837171
O O4 0.324485 0.325099 0.993908
O O5 0.974089 0.274854 0.248768
O O6 0.134568 0.789446 0.124070
O O7 0.602329 0.381508 0.272252
O O8 0.864274 0.244441 0.369920
O O9 0.510578 0.889176 0.382349
O O10 0.622705 0.278596 0.762005
O O11 0.834656 0.214920 0.670364
O O12 0.116714 0.217640 0.752920
O O13 0.382183 0.390501 0.368342
O O14 0.094691 0.965914 0.397177
O O15 0.000000 0.000000 0.500000
O O16 0.500000 0.000000 0.000000
O O17 0.000000 0.000000 0.000000
O O18 0.000000 0.500000 0.500000
#
# Coordination Sequence:
#
# PCOD9084137 Si02
#       8
#     2   2   2   2   2   2   2   2
#     4  10  19  34  60  95 127 157 199 261 314 355
#     4  10  19  35  61  93 124 159 207 253 306 370
#     4  11  24  43  65  89 126 168 212 251 312 376
#     4  12  23  42  63  94 124 161 209 262 305 367
#     4  11  25  46  65  88 124 167 212 253 311 381
#     4   8  16  30  53  89 128 157 191 249 313 364
#     4  11  26  42  63  87 125 171 207 245 315 370
#     4  11  26  39  65  95 122 156 207 266 315 354
#
# _framework density 25.225942
#
# number of rings (size 3 to 8) (size 9 to 14) (size 15 to 20)
#    0.000    1.500    2.500    2.250    5.250    1.500 
#    0.000    0.000    0.000    1.500    0.000    0.000 
#    0.000    0.000    0.000    0.000    0.000    0.000 
#
# Total GULP energy -89118.138753 kJ/mol
# GULP energy per Si atom -5569.883672 kJ/mol
# Density = 2.516853 g / cm^3
# Si number density = 25.225942 Si / 1000 Ang^3
#
#
#
# Elastic Constant Matrix: (Units=GPa)
#
#
# Indices 1 2 3 4 5 6 
#
# 1 142.0163 25.8840 29.9885 0.1597 7.3143 26.3690
# 2 25.8840 57.9224 15.4045 -21.0236 2.9780 12.8841
# 3 29.9885 15.4045 118.6436 -46.5225 -8.0686 12.4088
# 4 0.1597 -21.0236 -46.5225 39.1252 -0.7514 -6.2686
# 5 7.3143 2.9780 -8.0686 -0.7514 34.5187 -15.9188
# 6 26.3690 12.8841 12.4088 -6.2686 -15.9188 40.2273
#
#
#
# Elastic Compliance Matrix: (Units=1/GPa)
#
#
# Indices 1 2 3 4 5 6 
#
# 1 0.011539 -0.005598 -0.006774 -0.012666 -0.007865 -0.008767
# 2 -0.005598 0.026849 0.006924 0.022029 -0.000866 -0.003976
# 3 -0.006774 0.006924 0.020925 0.029343 0.007982 0.003499
# 4 -0.012666 0.022029 0.029343 0.074046 0.013426 0.009047
# 5 -0.007865 -0.000866 0.007982 0.013426 0.043062 0.022103
# 6 -0.008767 -0.003976 0.003499 0.009047 0.022103 0.040956
#
#
# Mechanical properties :
#
#
# Convention : Reuss Voigt Hill
#
# Bulk Modulus (GPa) = 20.65383 51.23737 35.94560
# Shear Modulus (GPa) = 20.45721 39.26126 29.85923
#
# Velocity S-wave (km/s) = 2.85082 3.94938 3.44419
# Velocity P-wave (km/s) = 4.36366 6.41501 5.48607
#
# Compressibility (1/GPa) = 0.04841717
#
# Stress axis : x y z
#
# Youngs Moduli (GPa) = 86.66000 37.24510 47.79049
#
# Poissons Ratio (x) = 0.20849 0.32375
# Poissons Ratio (y) = 0.48509 -0.33090
# Poissons Ratio (z) = 0.58706 -0.25788
#
# Static dielectric constant tensor:
#      x y z
#    x 2.165320 0.000010 -0.025640 
#    y 0.000010 2.068310 -0.043420 
#    z -0.025640 -0.043420 2.086570 
# 
# From -- ./inp_files/44188.got.cif
#   From: 2010.05.17/outbox.cif.g08.bks.cpg/sg2_23_cif.got.tgz:44188.got - 2010.06.03 11:33:40.
