data_PCOD9084271
_publ_section_title
;
Structure prediction by ZEFSAII (Michael W. Deem and Ramdas Pophale) SiO2 
 PCOD9084271
Probable space group: P -1
;
_chemical_formula_sum "Si O2"
_cell_formula_units_Z 16
_cell_length_a 7.952043
_cell_length_b 11.630536
_cell_length_c 12.635604
_cell_angle_alpha 64.429456
_cell_angle_beta 141.286996
_cell_angle_gamma 104.401589
_cell_volume 651.210165
_symmetry_space_group_name_H-M "P -1"
_symmetry_group_IT_number 2
_symmetry_cell_setting 'triclinic'
loop_
_space_group_symop_operation_xyz
x,y,z
-x,-y,-z
loop_
_atom_site_type_symbol
_atom_site_label
_atom_site_fract_x
_atom_site_fract_y
_atom_site_fract_z
Si Si1 0.990702 0.887130 0.244812
Si Si2 0.988941 0.105980 0.294781
Si Si3 0.536425 0.723498 0.065522
Si Si4 0.283464 0.769740 0.223653
Si Si5 0.268058 0.420833 0.563842
Si Si6 0.736217 0.343528 0.405117
Si Si7 0.419656 0.012498 0.707284
Si Si8 0.720990 0.723717 0.928219
O O1 0.142721 0.832358 0.235746
O O2 0.144221 0.802008 0.448392
O O3 0.688474 0.849560 0.106569
O O4 0.024756 0.031436 0.231442
O O5 0.267162 0.094135 0.501777
O O6 0.805751 0.024345 0.309147
O O7 0.785778 0.238414 0.125537
O O8 0.615746 0.639147 0.241545
O O9 0.666661 0.669186 0.040137
O O10 0.534762 0.653354 0.396311
O O11 0.402545 0.892279 0.186552
O O12 0.038110 0.716943 0.065394
O O13 0.264245 0.571235 0.522789
O O14 0.961783 0.390224 0.420684
O O15 0.446182 0.346146 0.209482
O O16 0.588022 0.876050 0.807765
#
# Coordination Sequence:
#
# PCOD9084271 Si02
#       8
#     2   2   2   2   2   2   2   2
#     4  10  20  38  58  86 124 158 190 240 301 351
#     4  10  19  34  62  89 118 158 194 243 291 352
#     4   9  20  35  59  90 119 153 195 241 295 347
#     4  11  24  37  57  88 127 154 194 244 296 352
#     4  10  23  41  63  89 114 157 205 247 283 350
#     4  10  21  43  67  82 116 159 204 243 289 350
#     4  10  20  35  60  91 120 156 196 240 293 354
#     4  10  21  39  61  88 123 157 186 246 305 350
#
# _framework density 24.569642999999999
#
# number of rings (size 3 to 8) (size 9 to 14) (size 15 to 20)
#    0.000    2.000    1.250    2.250    3.500    5.000 
#    2.250    0.000    0.000    0.000    0.000    0.000 
#    0.000    0.000    0.000    0.000    0.000    0.000 
#
# Total GULP energy -89476.553251 kJ/mol
# GULP energy per Si atom -5592.284578 kJ/mol
# Density = 2.451372 g / cm^3
# Si number density = 24.569643 Si / 1000 Ang^3
#
#
#
# Elastic Constant Matrix: (Units=GPa)
#
#
# Indices 1 2 3 4 5 6 
#
# 1 52.6036 9.3769 12.0153 -0.9329 18.6291 -8.8362
# 2 9.3769 50.8691 7.3758 8.5067 22.7352 -3.3533
# 3 12.0153 7.3758 93.1149 18.8912 6.8223 8.0492
# 4 -0.9329 8.5067 18.8912 43.6491 0.3099 2.8303
# 5 18.6291 22.7352 6.8223 0.3099 39.8530 -8.1346
# 6 -8.8362 -3.3533 8.0492 2.8303 -8.1346 23.8584
#
#
#
# Elastic Compliance Matrix: (Units=1/GPa)
#
#
# Indices 1 2 3 4 5 6 
#
# 1 0.024275 0.000553 -0.003345 0.001494 -0.009734 0.006701
# 2 0.000553 0.027574 0.000055 -0.005218 -0.016124 -0.000817
# 3 -0.003345 0.000055 0.012843 -0.005269 -0.001756 -0.005538
# 4 0.001494 -0.005218 -0.005269 0.026254 0.002867 -0.000540
# 5 -0.009734 -0.016124 -0.001756 0.002867 0.040812 0.008296
# 6 0.006701 -0.000817 -0.005538 -0.000540 0.008296 0.049042
#
#
# Mechanical properties :
#
#
# Convention : Reuss Voigt Hill
#
# Bulk Modulus (GPa) = 16.88709 28.23598 22.56153
# Shear Modulus (GPa) = 24.27028 32.66007 28.46518
#
# Velocity S-wave (km/s) = 3.14636 3.64989 3.40744
# Velocity P-wave (km/s) = 4.48191 5.41105 4.96825
#
# Compressibility (1/GPa) = 0.05921684
#
# Stress axis : x y z
#
# Youngs Moduli (GPa) = 41.19495 36.26651 77.86316
#
# Poissons Ratio (x) = -0.02004 0.26047
# Poissons Ratio (y) = -0.02277 -0.00430
# Poissons Ratio (z) = 0.13781 -0.00200
#
# Static dielectric constant tensor:
#      x y z
#    x 1.982470 -0.007140 -0.036340 
#    y -0.007140 1.941050 -0.022800 
#    z -0.036340 -0.022800 1.992200 
# 
# From -- ./inp_files/181824.got.cif
#   From: 2010.05.17/outbox.cif.g08.bks.cpg/sg2_91_cif.got.tgz:181824.got - 2010.06.03 11:33:40.
