data_PCOD9084873
_publ_section_title
;
Structure prediction by ZEFSAII (Michael W. Deem and Ramdas Pophale) SiO2 
 PCOD9084873
Probable space group: P -1
;
_chemical_formula_sum "Si O2"
_cell_formula_units_Z 14
_cell_length_a 7.045180
_cell_length_b 11.562011
_cell_length_c 9.221769
_cell_angle_alpha 68.840424
_cell_angle_beta 130.446264
_cell_angle_gamma 95.222159
_cell_volume 522.153959
_symmetry_space_group_name_H-M "P -1"
_symmetry_group_IT_number 2
_symmetry_cell_setting 'triclinic'
loop_
_space_group_symop_operation_xyz
x,y,z
-x,-y,-z
loop_
_atom_site_type_symbol
_atom_site_label
_atom_site_fract_x
_atom_site_fract_y
_atom_site_fract_z
Si Si1 0.796497 0.169232 0.210307
Si Si2 0.037587 0.662982 0.574667
Si Si3 0.701910 0.618073 0.160529
Si Si4 0.142852 0.638200 0.175583
Si Si5 0.382774 0.386065 0.369752
Si Si6 0.391808 0.120310 0.485205
Si Si7 0.774503 0.083858 0.949928
O O1 0.852606 0.213278 0.385460
O O2 0.094409 0.132292 0.339742
O O3 0.573575 0.293095 0.015802
O O4 0.721065 0.066534 0.103315
O O5 0.255543 0.534179 0.730505
O O6 0.866113 0.669360 0.344402
O O7 0.837328 0.634581 0.612827
O O8 0.861862 0.635545 0.088793
O O9 0.258098 0.521452 0.180785
O O10 0.349198 0.609606 0.422092
O O11 0.155758 0.777087 0.071118
O O12 0.434345 0.251749 0.379269
O O13 0.527320 0.100300 0.717884
O O14 0.500000 0.000000 0.500000
O O15 0.000000 0.000000 0.000000
#
# Coordination Sequence:
#
# PCOD9084873 Si02
#       7
#     2   2   2   2   2   2   2
#     4  11  20  35  59  86 114 152 202 231 283 354
#     4   9  19  35  58  85 119 159 191 228 286 360
#     4  10  19  35  57  86 123 154 184 236 299 347
#     4   9  18  34  57  88 119 143 190 244 295 341
#     4   8  16  33  57  85 112 149 189 239 285 330
#     4  10  19  35  58  83 110 148 201 236 274 341
#     4  11  22  39  63  83 110 159 198 243 290 342
#
# _framework density 26.812017000000001
#
# number of rings (size 3 to 8) (size 9 to 14) (size 15 to 20)
#    0.000    2.286    1.429    3.000    0.000    1.143 
#    0.000   11.429    0.000    1.714    0.000    0.000 
#    0.000    0.000    0.000    0.000    0.000    0.000 
#
# Total GULP energy -78000.688276 kJ/mol
# GULP energy per Si atom -5571.477734 kJ/mol
# Density = 2.675099 g / cm^3
# Si number density = 26.812017 Si / 1000 Ang^3
#
#
#
# Elastic Constant Matrix: (Units=GPa)
#
#
# Indices 1 2 3 4 5 6 
#
# 1 101.4974 53.0239 34.1872 -15.5096 25.1165 -22.5370
# 2 53.0239 182.0290 53.9553 6.7112 6.6621 -42.9596
# 3 34.1872 53.9553 157.3867 5.3380 31.4330 -26.4216
# 4 -15.5096 6.7112 5.3380 48.8832 -20.9501 1.0688
# 5 25.1165 6.6621 31.4330 -20.9501 38.6311 -11.3581
# 6 -22.5370 -42.9596 -26.4216 1.0688 -11.3581 36.7353
#
#
#
# Elastic Compliance Matrix: (Units=1/GPa)
#
#
# Indices 1 2 3 4 5 6 
#
# 1 0.014167 -0.003269 -0.000301 0.002143 -0.006479 0.002586
# 2 -0.003269 0.008792 -0.001737 -0.000414 0.004254 0.008354
# 3 -0.000301 -0.001737 0.009314 -0.004852 -0.009190 0.001782
# 4 0.002143 -0.000414 -0.004852 0.030115 0.019710 0.002559
# 5 -0.006479 0.004254 -0.009190 0.019710 0.050285 0.009364
# 6 0.002586 0.008354 0.001782 0.002559 0.009364 0.042681
#
#
# Mechanical properties :
#
#
# Convention : Reuss Voigt Hill
#
# Bulk Modulus (GPa) = 46.17179 80.36068 63.26623
# Shear Modulus (GPa) = 28.87058 44.83302 36.85180
#
# Velocity S-wave (km/s) = 3.28499 4.09360 3.71138
# Velocity P-wave (km/s) = 5.62549 7.23743 6.48176
#
# Compressibility (1/GPa) = 0.02165825
#
# Stress axis : x y z
#
# Youngs Moduli (GPa) = 70.58775 113.74073 107.36559
#
# Poissons Ratio (x) = 0.37182 0.03232
# Poissons Ratio (y) = 0.23075 0.18651
# Poissons Ratio (z) = 0.02125 0.19759
#
# Static dielectric constant tensor:
#      x y z
#    x 2.055250 -0.528620 -0.051330 
#    y -0.528620 1.073310 0.306760 
#    z -0.051330 0.306760 2.035170 
# 
# From -- ./inp_files/267035.got.cif
#   From: 2010.05.17/outbox.cif.g08.bks.cpg/sg2_134_cif.got.tgz:267035.got - 2010.06.03 11:33:40.
