data_PCOD9084172
_publ_section_title
;
Structure prediction by ZEFSAII (Michael W. Deem and Ramdas Pophale) SiO2 
 PCOD9084172
Probable space group: P -1
;
_chemical_formula_sum "Si O2"
_cell_formula_units_Z 16
_cell_length_a 13.966803
_cell_length_b 9.363851
_cell_length_c 13.904684
_cell_angle_alpha 45.432918
_cell_angle_beta 49.429274
_cell_angle_gamma 87.582180
_cell_volume 633.301341
_symmetry_space_group_name_H-M "P -1"
_symmetry_group_IT_number 2
_symmetry_cell_setting 'triclinic'
loop_
_space_group_symop_operation_xyz
x,y,z
-x,-y,-z
loop_
_atom_site_type_symbol
_atom_site_label
_atom_site_fract_x
_atom_site_fract_y
_atom_site_fract_z
Si Si1 0.156400 0.367717 0.202693
Si Si2 0.610876 0.059068 0.114244
Si Si3 0.427419 0.397878 0.706185
Si Si4 0.301660 0.773476 0.299493
Si Si5 0.264719 0.329802 0.459394
Si Si6 0.152181 0.858747 0.621638
Si Si7 0.387807 0.778759 0.585589
Si Si8 0.645064 0.770989 0.880812
O O1 0.324730 0.426675 0.024374
O O2 0.231151 0.573605 0.150577
O O3 0.000000 0.000000 0.500000
O O4 0.051873 0.386876 0.186676
O O5 0.683140 0.950750 0.061937
O O6 0.398865 0.845225 0.305939
O O7 0.555694 0.966187 0.305519
O O8 0.500000 0.500000 0.500000
O O9 0.611955 0.598197 0.562908
O O10 0.316455 0.461141 0.783518
O O11 0.177396 0.436610 0.500103
O O12 0.224993 0.905958 0.297886
O O13 0.500000 0.000000 0.000000
O O14 0.137705 0.004442 0.646922
O O15 0.433114 0.565996 0.156881
O O16 0.305572 0.121751 0.313380
O O17 0.228144 0.744720 0.670234
O O18 0.500000 0.000000 0.500000
#
# Coordination Sequence:
#
# PCOD9084172 Si02
#       8
#     2   2   2   2   2   2   2   2
#     4  10  24  36  58  84 127 163 189 228 302 364
#     4  10  20  39  58  83 122 153 192 243 296 344
#     4   9  20  36  61  88 114 148 197 251 293 334
#     4   9  19  30  58  86 110 146 196 240 294 335
#     4  10  19  34  61  88 114 146 199 251 298 335
#     4  11  21  36  57  88 122 148 196 242 293 353
#     4  11  20  36  66  92 109 146 207 253 286 338
#     4  10  20  35  57  86 115 157 192 242 295 351
#
# _framework density 25.264436
#
# number of rings (size 3 to 8) (size 9 to 14) (size 15 to 20)
#    0.000    2.000    2.500    1.125    7.000    0.000 
#    0.000    1.875    5.500    0.000    0.000    0.000 
#    0.000    0.000    0.000    0.000    0.000    0.000 
#
# Total GULP energy -89243.598798 kJ/mol
# GULP energy per Si atom -5577.724925 kJ/mol
# Density = 2.520693 g / cm^3
# Si number density = 25.264436 Si / 1000 Ang^3
#
#
#
# Elastic Constant Matrix: (Units=GPa)
#
#
# Indices 1 2 3 4 5 6 
#
# 1 143.8860 74.7612 11.6464 -7.5394 -11.6431 -6.8305
# 2 74.7612 212.2675 21.2690 -31.9661 -2.0069 -5.9052
# 3 11.6464 21.2690 37.1876 -4.5280 -8.3108 1.7346
# 4 -7.5394 -31.9661 -4.5280 28.0990 3.0220 17.3595
# 5 -11.6431 -2.0069 -8.3108 3.0220 26.4411 3.8724
# 6 -6.8305 -5.9052 1.7346 17.3595 3.8724 56.8925
#
#
#
# Elastic Compliance Matrix: (Units=1/GPa)
#
#
# Indices 1 2 3 4 5 6 
#
# 1 0.009010 -0.003489 -0.000409 -0.002849 0.003702 0.001350
# 2 -0.003489 0.007412 -0.002555 0.008602 -0.002463 -0.002029
# 3 -0.000409 -0.002555 0.031047 0.002643 0.009480 -0.002713
# 4 -0.002849 0.008602 0.002643 0.055441 -0.003736 -0.016192
# 5 0.003702 -0.002463 0.009480 -0.003736 0.042946 -0.001883
# 6 0.001350 -0.002029 -0.002713 -0.016192 -0.001883 0.022680
#
#
# Mechanical properties :
#
#
# Convention : Reuss Voigt Hill
#
# Bulk Modulus (GPa) = 28.93213 67.63270 48.28241
# Shear Modulus (GPa) = 25.91193 41.33081 33.62137
#
# Velocity S-wave (km/s) = 3.20602 4.04905 3.65194
# Velocity P-wave (km/s) = 5.01810 6.97766 6.07738
#
# Compressibility (1/GPa) = 0.03456365
#
# Stress axis : x y z
#
# Youngs Moduli (GPa) = 110.98501 134.92500 32.20944
#
# Poissons Ratio (x) = 0.47076 0.01317
# Poissons Ratio (y) = 0.38723 0.08228
# Poissons Ratio (z) = 0.04537 0.34468
#
# Static dielectric constant tensor:
#      x y z
#    x 2.187670 -0.106800 0.044360 
#    y -0.106800 2.086180 -0.066200 
#    z 0.044360 -0.066200 2.212650 
# 
# From -- ./inp_files/277459.got.cif
#   From: 2010.05.17/outbox.cif.g08.bks.cpg/sg2_139_cif.got.tgz:277459.got - 2010.06.03 11:33:40.
