data_PCOD9084598
_publ_section_title
;
Structure prediction by ZEFSAII (Michael W. Deem and Ramdas Pophale) SiO2 
 PCOD9084598
Probable space group: P -1
;
_chemical_formula_sum "Si O2"
_cell_formula_units_Z 16
_cell_length_a 7.244949
_cell_length_b 14.505290
_cell_length_c 8.281953
_cell_angle_alpha 62.795389
_cell_angle_beta 83.215144
_cell_angle_gamma 118.466028
_cell_volume 614.426101
_symmetry_space_group_name_H-M "P -1"
_symmetry_group_IT_number 2
_symmetry_cell_setting 'triclinic'
loop_
_space_group_symop_operation_xyz
x,y,z
-x,-y,-z
loop_
_atom_site_type_symbol
_atom_site_label
_atom_site_fract_x
_atom_site_fract_y
_atom_site_fract_z
Si Si1 0.763135 0.040499 0.958015
Si Si2 0.077369 0.222060 0.301906
Si Si3 0.852579 0.683745 0.403823
Si Si4 0.734535 0.522885 0.034938
Si Si5 0.469155 0.739099 0.811005
Si Si6 0.322749 0.998894 0.337429
Si Si7 0.331104 0.571905 0.513211
Si Si8 0.499846 0.829714 0.382985
O O1 0.947781 0.194893 0.821556
O O2 0.727632 0.939768 0.173538
O O3 0.500000 0.000000 0.000000
O O4 0.804423 0.006084 0.805988
O O5 0.119373 0.270274 0.448515
O O6 0.059469 0.328378 0.137258
O O7 0.291879 0.236901 0.181066
O O8 0.860848 0.071378 0.443237
O O9 0.605025 0.642980 0.398932
O O10 0.819756 0.548867 0.494862
O O11 0.500000 0.500000 0.000000
O O12 0.734705 0.412145 0.032581
O O13 0.715271 0.489969 0.252418
O O14 0.528012 0.776760 0.586269
O O15 0.463129 0.852116 0.788255
O O16 0.390926 0.902315 0.387986
O O17 0.326901 0.695877 0.409387
#
# Coordination Sequence:
#
# PCOD9084598 Si02
#       8
#     2   2   2   2   2   2   2   2
#     4   9  21  39  55  78 114 149 186 231 274 334
#     4  10  19  37  55  82 113 143 185 233 274 333
#     4  10  19  36  58  83 113 145 187 230 286 328
#     4   9  17  34  54  78 117 140 177 237 273 326
#     4  10  19  35  55  81 107 147 184 228 277 331
#     4  10  21  36  55  79 111 152 184 225 282 332
#     4  10  20  35  57  87 113 145 187 234 282 334
#     4  10  20  39  55  79 117 146 184 237 276 331
#
# _framework density 26.040558999999998
#
# number of rings (size 3 to 8) (size 9 to 14) (size 15 to 20)
#    0.000    2.250    3.750    0.750    0.000    2.500 
#    2.250   10.625    0.000    0.000    0.000    0.000 
#    0.000    0.000    0.000    0.000    0.000    0.000 
#
# Total GULP energy -89250.628375 kJ/mol
# GULP energy per Si atom -5578.164273 kJ/mol
# Density = 2.598129 g / cm^3
# Si number density = 26.040559 Si / 1000 Ang^3
#
#
#
# Elastic Constant Matrix: (Units=GPa)
#
#
# Indices 1 2 3 4 5 6 
#
# 1 61.6352 33.4245 7.1678 -17.4374 0.2054 3.6296
# 2 33.4245 147.1939 15.1239 -43.9205 -1.4552 -10.3157
# 3 7.1678 15.1239 105.5696 -28.2913 -6.5905 8.6394
# 4 -17.4374 -43.9205 -28.2913 39.7611 4.7285 -1.6633
# 5 0.2054 -1.4552 -6.5905 4.7285 26.6680 -14.2020
# 6 3.6296 -10.3157 8.6394 -1.6633 -14.2020 35.9950
#
#
#
# Elastic Compliance Matrix: (Units=1/GPa)
#
#
# Indices 1 2 3 4 5 6 
#
# 1 0.019780 -0.003078 0.000865 0.006121 -0.003398 -0.004142
# 2 -0.003078 0.011312 0.001624 0.012348 0.001065 0.004153
# 3 0.000865 0.001624 0.012244 0.010787 0.000123 -0.002014
# 4 0.006121 0.012348 0.010787 0.049796 -0.005234 0.000569
# 5 -0.003398 0.001065 0.000123 -0.005234 0.049047 0.019728
# 6 -0.004142 0.004153 -0.002014 0.000569 0.019728 0.037683
#
#
# Mechanical properties :
#
#
# Convention : Reuss Voigt Hill
#
# Bulk Modulus (GPa) = 23.71981 47.31457 35.51719
# Shear Modulus (GPa) = 25.62898 37.73034 31.67966
#
# Velocity S-wave (km/s) = 3.14059 3.81058 3.49169
# Velocity P-wave (km/s) = 4.72013 6.12941 5.47035
#
# Compressibility (1/GPa) = 0.04215886
#
# Stress axis : x y z
#
# Youngs Moduli (GPa) = 50.55620 88.40254 81.67150
#
# Poissons Ratio (x) = 0.27210 -0.07066
# Poissons Ratio (y) = 0.15561 -0.13265
# Poissons Ratio (z) = -0.04374 -0.14358
#
# Static dielectric constant tensor:
#      x y z
#    x 2.192380 -0.030070 0.002220 
#    y -0.030070 2.153840 0.023030 
#    z 0.002220 0.023030 2.106640 
# 
# From -- ./inp_files/205953.got.cif
#   From: 2010.05.17/outbox.cif.g08.bks.cpg/sg2_103_cif.got.tgz:205953.got - 2010.06.03 11:33:40.
