data_PCOD9084501
_publ_section_title
;
Structure prediction by ZEFSAII (Michael W. Deem and Ramdas Pophale) SiO2 
 PCOD9084501
Probable space group: P -1
;
_chemical_formula_sum "Si O2"
_cell_formula_units_Z 11
_cell_length_a 12.789771
_cell_length_b 7.969347
_cell_length_c 7.317274
_cell_angle_alpha 105.758666
_cell_angle_beta 51.137800
_cell_angle_gamma 135.165186
_cell_volume 388.507889
_symmetry_space_group_name_H-M "P -1"
_symmetry_group_IT_number 2
_symmetry_cell_setting 'triclinic'
loop_
_space_group_symop_operation_xyz
x,y,z
-x,-y,-z
loop_
_atom_site_type_symbol
_atom_site_label
_atom_site_fract_x
_atom_site_fract_y
_atom_site_fract_z
Si Si1 0.301230 0.204959 0.119195
Si Si2 0.264633 0.025546 0.502395
Si Si3 0.117132 0.446658 0.777084
Si Si4 0.106848 0.363968 0.353336
Si Si5 0.451803 0.863996 0.280957
Si Si6 0.000000 0.000000 0.000000
O O1 0.148515 0.200986 0.195494
O O2 0.262375 0.138846 0.356475
O O3 0.500000 0.500000 0.000000
O O4 0.357524 0.072549 0.928762
O O5 0.441098 0.059632 0.322788
O O6 0.068782 0.726926 0.596603
O O7 0.206484 0.085909 0.753446
O O8 0.044172 0.305812 0.617617
O O9 0.330118 0.707521 0.551940
O O10 0.098590 0.272381 0.885783
O O11 0.000000 0.500000 0.000000
O O12 0.307272 0.652365 0.218996
#
# Coordination Sequence:
#
# PCOD9084501 Si02
#       6
#     2   2   2   2   2   1
#     4  10  19  35  53  82 114 148 190 227 281 338
#     4  12  20  34  60  87 107 152 192 234 275 338
#     4  10  20  36  56  85 115 146 186 237 277 339
#     4   9  20  35  58  84 109 147 192 233 274 331
#     4   9  20  35  57  84 114 145 189 232 283 336
#     4  12  20  32  58  84 114 148 188 230 292 320
#
# _framework density 28.313454
#
# number of rings (size 3 to 8) (size 9 to 14) (size 15 to 20)
#    1.091    0.727    3.636    1.636    0.000    0.000 
#    0.000    0.000    0.000   16.364    0.000    0.000 
#    0.000    0.000    0.000    0.000    0.000    0.000 
#
# Total GULP energy -61335.286213 kJ/mol
# GULP energy per Si atom -5575.935110 kJ/mol
# Density = 2.824901 g / cm^3
# Si number density = 28.313454 Si / 1000 Ang^3
#
#
#
# Elastic Constant Matrix: (Units=GPa)
#
#
# Indices 1 2 3 4 5 6 
#
# 1 114.7630 31.1435 47.9532 18.0564 -18.3552 -26.8316
# 2 31.1435 64.7406 32.7929 19.0767 -4.0684 -30.1353
# 3 47.9532 32.7929 233.7932 29.8001 -16.2667 -44.1084
# 4 18.0564 19.0767 29.8001 67.3700 -24.0702 -8.5160
# 5 -18.3552 -4.0684 -16.2667 -24.0702 57.5898 7.9178
# 6 -26.8316 -30.1353 -44.1084 -8.5160 7.9178 59.6606
#
#
#
# Elastic Compliance Matrix: (Units=1/GPa)
#
#
# Indices 1 2 3 4 5 6 
#
# 1 0.011089 -0.003603 -0.001198 -0.000263 0.002570 0.001903
# 2 -0.003603 0.023131 -0.000237 -0.005399 -0.003149 0.009535
# 3 -0.001198 -0.000237 0.005336 -0.001575 0.000030 0.003058
# 4 -0.000263 -0.005399 -0.001575 0.019564 0.007572 -0.002222
# 5 0.002570 -0.003149 0.000030 0.007572 0.021433 -0.002176
# 6 0.001903 0.009535 0.003058 -0.002222 -0.002176 0.024666
#
#
# Mechanical properties :
#
#
# Convention : Reuss Voigt Hill
#
# Bulk Modulus (GPa) = 33.92092 70.78621 52.35356
# Shear Modulus (GPa) = 39.96099 57.01789 48.48944
#
# Velocity S-wave (km/s) = 3.76091 4.49242 4.14284
# Velocity P-wave (km/s) = 5.55569 7.20862 6.43545
#
# Compressibility (1/GPa) = 0.02948034
#
# Stress axis : x y z
#
# Youngs Moduli (GPa) = 90.17781 43.23193 187.40879
#
# Poissons Ratio (x) = 0.15575 0.22446
# Poissons Ratio (y) = 0.32489 0.04451
# Poissons Ratio (z) = 0.10801 0.01027
#
# Static dielectric constant tensor:
#      x y z
#    x 1.908150 0.048160 -0.189450 
#    y 0.048160 2.375900 -0.034270 
#    z -0.189450 -0.034270 2.036020 
# 
# From -- ./inp_files/144848.got.cif
#   From: 2010.05.17/outbox.cif.g08.bks.cpg/sg2_73_cif.got.tgz:144848.got - 2010.06.03 11:33:40.
