data_PCOD9084611
_publ_section_title
;
Structure prediction by ZEFSAII (Michael W. Deem and Ramdas Pophale) SiO2 
 PCOD9084611
Probable space group: P -1
;
_chemical_formula_sum "Si O2"
_cell_formula_units_Z 16
_cell_length_a 6.792369
_cell_length_b 19.091346
_cell_length_c 12.447746
_cell_angle_alpha 138.021443
_cell_angle_beta 75.551568
_cell_angle_gamma 78.097487
_cell_volume 832.604246
_symmetry_space_group_name_H-M "P -1"
_symmetry_group_IT_number 2
_symmetry_cell_setting 'triclinic'
loop_
_space_group_symop_operation_xyz
x,y,z
-x,-y,-z
loop_
_atom_site_type_symbol
_atom_site_label
_atom_site_fract_x
_atom_site_fract_y
_atom_site_fract_z
Si Si1 0.530452 0.848996 0.123796
Si Si2 0.934566 0.022138 0.798064
Si Si3 0.143825 0.567318 0.216991
Si Si4 0.245022 0.050503 0.948138
Si Si5 0.874958 0.661858 0.037711
Si Si6 0.267863 0.661346 0.096608
Si Si7 0.661359 0.122656 0.603318
Si Si8 0.805391 0.834338 0.686969
O O1 0.742507 0.711217 0.994948
O O2 0.364776 0.936690 0.351394
O O3 0.333153 0.857034 0.078018
O O4 0.665877 0.899837 0.101873
O O5 0.893551 0.910996 0.697377
O O6 0.153926 0.971813 0.622140
O O7 0.027660 0.045337 0.921796
O O8 0.164671 0.627429 0.173557
O O9 0.972340 0.685387 0.456863
O O10 0.040951 0.482193 0.114966
O O11 0.435117 0.460360 0.094733
O O12 0.495278 0.089218 0.209548
O O13 0.164501 0.143887 0.168061
O O14 0.633209 0.768536 0.268153
O O15 0.096960 0.675818 0.038351
O O16 0.250485 0.789625 0.269493
#
# Coordination Sequence:
#
# PCOD9084611 Si02
#       8
#     2   2   2   2   2   2   2   2
#     4   9  22  36  52  84 116 141 185 223 269 338
#     4  11  20  36  59  81 111 147 182 228 280 321
#     4  10  20  35  57  82 112 142 183 232 270 324
#     4  10  23  38  59  78 112 149 184 231 268 321
#     4   9  21  34  55  84 112 147 176 218 282 335
#     4  10  19  35  55  82 118 143 177 228 274 327
#     4   9  20  33  52  85 114 141 177 222 272 337
#     4  10  22  40  56  85 106 142 196 228 268 320
#
# _framework density 19.216812999999998
#
# number of rings (size 3 to 8) (size 9 to 14) (size 15 to 20)
#    0.750    1.500    1.250    1.125    3.500    1.500 
#    0.000    0.625    0.000    1.500    0.000    0.000 
#    0.000    0.000    0.000    0.000    0.000    0.000 
#
# Total GULP energy -89211.359403 kJ/mol
# GULP energy per Si atom -5575.709963 kJ/mol
# Density = 1.917307 g / cm^3
# Si number density = 19.216813 Si / 1000 Ang^3
#
#
#
# Elastic Constant Matrix: (Units=GPa)
#
#
# Indices 1 2 3 4 5 6 
#
# 1 71.5333 2.8602 18.4747 -3.8980 8.5545 -16.7195
# 2 2.8602 50.7452 12.9675 -9.1784 3.5840 -3.1534
# 3 18.4747 12.9675 77.9311 4.1702 1.5232 -13.2803
# 4 -3.8980 -9.1784 4.1702 15.6486 -1.3104 0.8739
# 5 8.5545 3.5840 1.5232 -1.3104 10.8878 -5.6647
# 6 -16.7195 -3.1534 -13.2803 0.8739 -5.6647 23.1388
#
#
#
# Elastic Compliance Matrix: (Units=1/GPa)
#
#
# Indices 1 2 3 4 5 6 
#
# 1 0.018251 0.001954 -0.003189 0.005265 -0.009121 0.009192
# 2 0.001954 0.024233 -0.005304 0.015544 -0.007260 -0.000694
# 3 -0.003189 -0.005304 0.016137 -0.008217 0.005054 0.007783
# 4 0.005265 0.015544 -0.008217 0.076636 0.000276 -0.001620
# 5 -0.009121 -0.007260 0.005054 0.000276 0.112635 0.022885
# 6 0.009192 -0.000694 0.007783 -0.001620 0.022885 0.059895
#
#
# Mechanical properties :
#
#
# Convention : Reuss Voigt Hill
#
# Bulk Modulus (GPa) = 21.95679 29.86828 25.91254
# Shear Modulus (GPa) = 14.87895 20.99552 17.93724
#
# Velocity S-wave (km/s) = 2.78558 3.30898 3.05850
# Velocity P-wave (km/s) = 4.66868 5.49323 5.09766
#
# Compressibility (1/GPa) = 0.04554399
#
# Stress axis : x y z
#
# Youngs Moduli (GPa) = 54.79123 41.26669 61.96761
#
# Poissons Ratio (x) = -0.08063 0.19761
# Poissons Ratio (y) = -0.10706 0.32865
# Poissons Ratio (z) = 0.17472 0.21886
#
# Static dielectric constant tensor:
#      x y z
#    x 1.712670 -0.013600 -0.011560 
#    y -0.013600 1.696150 -0.016510 
#    z -0.011560 -0.016510 1.643100 
# 
# From -- ./inp_files/370096.got.cif
#   From: 2010.05.17/outbox.cif.g08.bks.cpg/sg2_186_cif.got.tgz:370096.got - 2010.06.03 11:33:40.
