data_PCOD9084117
_publ_section_title
;
Structure prediction by ZEFSAII (Michael W. Deem and Ramdas Pophale) SiO2 
 PCOD9084117
Probable space group: P -1
;
_chemical_formula_sum "Si O2"
_cell_formula_units_Z 16
_cell_length_a 12.637893
_cell_length_b 8.476467
_cell_length_c 8.302400
_cell_angle_alpha 97.591774
_cell_angle_beta 124.539569
_cell_angle_gamma 90.080418
_cell_volume 723.022992
_symmetry_space_group_name_H-M "P -1"
_symmetry_group_IT_number 2
_symmetry_cell_setting 'triclinic'
loop_
_space_group_symop_operation_xyz
x,y,z
-x,-y,-z
loop_
_atom_site_type_symbol
_atom_site_label
_atom_site_fract_x
_atom_site_fract_y
_atom_site_fract_z
Si Si1 0.527640 0.199486 0.747802
Si Si2 0.972522 0.886405 0.810335
Si Si3 0.106586 0.855698 0.436812
Si Si4 0.909115 0.565978 0.164412
Si Si5 0.832762 0.580728 0.750459
Si Si6 0.436844 0.527587 0.623104
Si Si7 0.615986 0.143704 0.447441
Si Si8 0.204576 0.739964 0.839973
O O1 0.475493 0.376171 0.738834
O O2 0.573669 0.174112 0.599134
O O3 0.432310 0.037768 0.672811
O O4 0.652334 0.210853 0.970938
O O5 0.854053 0.763975 0.743809
O O6 0.102560 0.802561 0.885079
O O7 0.936162 0.974111 0.628625
O O8 0.000000 0.000000 0.000000
O O9 0.227603 0.832666 0.419137
O O10 0.171209 0.820458 0.656041
O O11 0.974341 0.738660 0.293729
O O12 0.835477 0.452064 0.217960
O O13 0.037805 0.491612 0.203363
O O14 0.819028 0.567744 0.929324
O O15 0.714769 0.500814 0.541124
O O16 0.500000 0.500000 0.500000
O O17 0.450948 0.718983 0.694847
#
# Coordination Sequence:
#
# PCOD9084117 Si02
#       8
#     2   2   2   2   2   2   2   2
#     4  10  22  41  62  89 124 163 215 264 302 364
#     4  11  22  38  63  91 118 158 208 258 310 366
#     4  12  22  40  62  90 127 164 199 252 321 382
#     4  10  20  36  62  87 124 158 198 253 308 369
#     4  10  19  35  61  93 115 152 207 262 304 357
#     4  10  19  34  60  90 120 151 207 261 306 354
#     4  10  21  39  65  88 120 163 215 264 306 357
#     4  11  25  40  58  90 131 163 201 249 318 383
#
# _framework density 22.129308999999999
#
# number of rings (size 3 to 8) (size 9 to 14) (size 15 to 20)
#    0.000    1.500    2.500    3.750    1.750    2.500 
#    2.250    0.625    0.000    0.000    0.000    0.000 
#    0.000    0.000    0.000    0.000    0.000    0.000 
#
# Total GULP energy -89252.006896 kJ/mol
# GULP energy per Si atom -5578.250431 kJ/mol
# Density = 2.207894 g / cm^3
# Si number density = 22.129309 Si / 1000 Ang^3
#
#
#
# Elastic Constant Matrix: (Units=GPa)
#
#
# Indices 1 2 3 4 5 6 
#
# 1 23.2220 10.2976 6.5862 1.8427 3.8519 4.0357
# 2 10.2976 123.1536 17.0236 -12.5829 6.4750 11.6985
# 3 6.5862 17.0236 59.8406 -23.6332 8.3701 13.8097
# 4 1.8427 -12.5829 -23.6332 30.7501 2.5581 3.3397
# 5 3.8519 6.4750 8.3701 2.5581 17.6769 -2.0384
# 6 4.0357 11.6985 13.8097 3.3397 -2.0384 25.1034
#
#
#
# Elastic Compliance Matrix: (Units=1/GPa)
#
#
# Indices 1 2 3 4 5 6 
#
# 1 0.048403 -0.003634 -0.006876 -0.009110 -0.004813 -0.001485
# 2 -0.003634 0.009859 0.003609 0.008408 -0.006628 -0.007653
# 3 -0.006876 0.003609 0.046088 0.043695 -0.031929 -0.034336
# 4 -0.009110 0.008408 0.043695 0.077547 -0.037603 -0.039861
# 5 -0.004813 -0.006628 -0.031929 -0.037603 0.084446 0.033287
# 6 -0.001485 -0.007653 -0.034336 -0.039861 0.033287 0.070534
#
#
# Mechanical properties :
#
#
# Convention : Reuss Voigt Hill
#
# Bulk Modulus (GPa) = 11.04367 30.44790 20.74579
# Shear Modulus (GPa) = 13.12811 26.19333 19.66072
#
# Velocity S-wave (km/s) = 2.43831 3.44415 2.98392
# Velocity P-wave (km/s) = 3.59562 5.44107 4.61160
#
# Compressibility (1/GPa) = 0.09054962
#
# Stress axis : x y z
#
# Youngs Moduli (GPa) = 20.65970 101.42595 21.69776
#
# Poissons Ratio (x) = 0.36854 0.14919
# Poissons Ratio (y) = 0.07507 -0.07831
# Poissons Ratio (z) = 0.14205 -0.36604
#
# Static dielectric constant tensor:
#      x y z
#    x 1.870030 -0.025610 -0.020530 
#    y -0.025610 1.819130 -0.093430 
#    z -0.020530 -0.093430 1.701750 
# 
# From -- ./inp_files/179283.got.cif
#   From: 2010.05.17/outbox.cif.g08.bks.cpg/sg2_90_cif.got.tgz:179283.got - 2010.06.03 11:33:40.
