data_PCOD9084404
_publ_section_title
;
Structure prediction by ZEFSAII (Michael W. Deem and Ramdas Pophale) SiO2 
 PCOD9084404
Probable space group: P -1
;
_chemical_formula_sum "Si O2"
_cell_formula_units_Z 16
_cell_length_a 14.654693
_cell_length_b 12.545963
_cell_length_c 8.782903
_cell_angle_alpha 83.588149
_cell_angle_beta 154.251652
_cell_angle_gamma 104.481470
_cell_volume 653.988408
_symmetry_space_group_name_H-M "P -1"
_symmetry_group_IT_number 2
_symmetry_cell_setting 'triclinic'
loop_
_space_group_symop_operation_xyz
x,y,z
-x,-y,-z
loop_
_atom_site_type_symbol
_atom_site_label
_atom_site_fract_x
_atom_site_fract_y
_atom_site_fract_z
Si Si1 0.376039 0.441053 0.090943
Si Si2 0.633615 0.796933 0.861006
Si Si3 0.025787 0.937693 0.203417
Si Si4 0.450275 0.692874 0.109117
Si Si5 0.972868 0.750976 0.944632
Si Si6 0.140313 0.468048 0.031325
Si Si7 0.583706 0.903221 0.066490
Si Si8 0.186775 0.706635 0.004235
O O1 0.328748 0.312379 0.981156
O O2 0.378082 0.556546 0.989107
O O3 0.201677 0.424890 0.970006
O O4 0.622992 0.481438 0.531812
O O5 0.413514 0.746086 0.436833
O O6 0.598370 0.886033 0.912941
O O7 0.827006 0.861168 0.023243
O O8 0.164985 0.040457 0.502800
O O9 0.108654 0.844220 0.257311
O O10 0.000000 0.000000 0.000000
O O11 0.705515 0.729192 0.555382
O O12 0.468511 0.779185 0.986673
O O13 0.279545 0.716649 0.970514
O O14 0.008308 0.635799 0.075100
O O15 0.044989 0.769118 0.873693
O O16 0.056854 0.571365 0.851938
O O17 0.500000 0.000000 0.000000
#
# Coordination Sequence:
#
# PCOD9084404 Si02
#       8
#     2   2   2   2   2   2   2   2
#     4   8  15  32  64  88 122 164 200 259 317 370
#     4  11  21  41  63  93 127 166 212 257 326 370
#     4  12  23  42  66  90 123 167 218 258 300 372
#     4  10  21  42  62  93 129 162 215 259 308 377
#     4  11  18  34  63  91 125 159 213 256 307 359
#     4   8  14  28  54  96 127 151 199 259 310 366
#     4  12  27  44  61  89 131 172 211 261 315 375
#     4  10  19  34  64  97 123 162 204 259 314 373
#
# _framework density 24.465264999999999
#
# number of rings (size 3 to 8) (size 9 to 14) (size 15 to 20)
#    0.000    1.750    3.750    3.000    0.000    1.500 
#    2.250    2.500    0.000    0.750    0.000    0.000 
#    0.000    0.000    0.000    0.000    0.000    0.000 
#
# Total GULP energy -89232.820929 kJ/mol
# GULP energy per Si atom -5577.051308 kJ/mol
# Density = 2.440958 g / cm^3
# Si number density = 24.465265 Si / 1000 Ang^3
#
#
#
# Elastic Constant Matrix: (Units=GPa)
#
#
# Indices 1 2 3 4 5 6 
#
# 1 130.4100 64.6126 14.8511 9.1521 15.6417 -17.1846
# 2 64.6126 105.0546 27.8248 10.7979 11.3500 1.8748
# 3 14.8511 27.8248 33.0808 10.2254 -8.1511 2.6423
# 4 9.1521 10.7979 10.2254 16.5016 -5.6157 -1.9150
# 5 15.6417 11.3500 -8.1511 -5.6157 22.6138 2.0476
# 6 -17.1846 1.8748 2.6423 -1.9150 2.0476 35.8319
#
#
#
# Elastic Compliance Matrix: (Units=1/GPa)
#
#
# Indices 1 2 3 4 5 6 
#
# 1 0.013319 -0.006531 -0.001868 -0.003929 -0.008229 0.007127
# 2 -0.006531 0.018931 -0.014232 -0.003949 -0.010854 -0.002664
# 3 -0.001868 -0.014232 0.054523 -0.015757 0.024757 -0.006429
# 4 -0.003929 -0.003949 -0.015757 0.081956 0.019121 0.002772
# 5 -0.008229 -0.010854 0.024757 0.019121 0.069772 -0.008169
# 6 0.007127 -0.002664 -0.006429 0.002772 -0.008169 0.032555
#
#
# Mechanical properties :
#
#
# Convention : Reuss Voigt Hill
#
# Bulk Modulus (GPa) = 24.09070 53.68028 38.88549
# Shear Modulus (GPa) = 15.14436 25.73993 20.44214
#
# Velocity S-wave (km/s) = 2.49070 3.24713 2.89374
# Velocity P-wave (km/s) = 4.25908 6.00396 5.20515
#
# Compressibility (1/GPa) = 0.04150979
#
# Stress axis : x y z
#
# Youngs Moduli (GPa) = 75.08318 52.82245 18.34080
#
# Poissons Ratio (x) = 0.34498 0.03427
# Poissons Ratio (y) = 0.49036 0.26103
# Poissons Ratio (z) = 0.14028 0.75179
#
# Static dielectric constant tensor:
#      x y z
#    x 1.372520 0.326270 -0.398540 
#    y 0.326270 1.782550 0.278340 
#    z -0.398540 0.278340 1.700810 
# 
# From -- ./inp_files/216428.got.cif
#   From: 2010.05.17/outbox.cif.g08.bks.cpg/sg2_109_cif.got.tgz:216428.got - 2010.06.03 11:33:40.
