data_PCOD9084181
_publ_section_title
;
Structure prediction by ZEFSAII (Michael W. Deem and Ramdas Pophale) SiO2 
 PCOD9084181
Probable space group: P -1
;
_chemical_formula_sum "Si O2"
_cell_formula_units_Z 14
_cell_length_a 11.469236
_cell_length_b 14.299587
_cell_length_c 7.869284
_cell_angle_alpha 52.208897
_cell_angle_beta 115.648516
_cell_angle_gamma 141.400254
_cell_volume 633.509157
_symmetry_space_group_name_H-M "P -1"
_symmetry_group_IT_number 2
_symmetry_cell_setting 'triclinic'
loop_
_space_group_symop_operation_xyz
x,y,z
-x,-y,-z
loop_
_atom_site_type_symbol
_atom_site_label
_atom_site_fract_x
_atom_site_fract_y
_atom_site_fract_z
Si Si1 0.343380 0.810261 0.694279
Si Si2 0.868668 0.106351 0.527203
Si Si3 0.821596 0.845366 0.300803
Si Si4 0.097398 0.482160 0.722747
Si Si5 0.055258 0.192138 0.888436
Si Si6 0.722945 0.223547 0.937889
Si Si7 0.401746 0.120292 0.685700
O O1 0.159420 0.772596 0.631744
O O2 0.289012 0.663074 0.712464
O O3 0.375219 0.802052 0.919994
O O4 0.116284 0.910191 0.243723
O O5 0.500000 0.000000 0.500000
O O6 0.064058 0.181629 0.498644
O O7 0.699241 0.942250 0.491380
O O8 0.978673 0.051996 0.137026
O O9 0.789650 0.766403 0.182385
O O10 0.653321 0.798064 0.340211
O O11 0.110429 0.356912 0.804134
O O12 0.000000 0.500000 0.500000
O O13 0.943840 0.383999 0.886225
O O14 0.687616 0.058670 0.086546
O O15 0.618656 0.228692 0.719307
#
# Coordination Sequence:
#
# PCOD9084181 Si02
#       7
#     2   2   2   2   2   2   2
#     4  11  25  40  66  91 123 159 207 261 310 370
#     4   9  19  33  55  94 116 163 206 239 301 369
#     4   9  17  34  58  88 124 162 209 238 301 367
#     4  12  22  40  62  91 128 162 201 255 315 358
#     4   9  19  32  57  90 119 164 203 244 302 363
#     4  10  24  37  59  96 124 162 202 261 308 360
#     4  10  19  34  61  88 129 153 211 247 303 359
#
# _framework density 22.099128
#
# number of rings (size 3 to 8) (size 9 to 14) (size 15 to 20)
#    0.857    1.143    2.857    0.857    8.000    0.000 
#    0.000    0.000    0.000    6.857    0.000    0.000 
#    0.000    0.000    0.000    0.000    0.000    0.000 
#
# Total GULP energy -77962.533133 kJ/mol
# GULP energy per Si atom -5568.752367 kJ/mol
# Density = 2.204883 g / cm^3
# Si number density = 22.099128 Si / 1000 Ang^3
#
#
#
# Elastic Constant Matrix: (Units=GPa)
#
#
# Indices 1 2 3 4 5 6 
#
# 1 94.9042 47.0999 9.4107 -3.4968 3.0645 -18.6427
# 2 47.0999 117.4588 15.6776 1.2756 -9.8724 -25.1039
# 3 9.4107 15.6776 51.0181 12.0081 -4.3279 -2.3076
# 4 -3.4968 1.2756 12.0081 22.7042 -4.0032 3.7746
# 5 3.0645 -9.8724 -4.3279 -4.0032 35.0782 -2.2862
# 6 -18.6427 -25.1039 -2.3076 3.7746 -2.2862 37.4406
#
#
#
# Elastic Compliance Matrix: (Units=1/GPa)
#
#
# Indices 1 2 3 4 5 6 
#
# 1 0.013920 -0.004905 -0.001672 0.002369 -0.002327 0.003158
# 2 -0.004905 0.012400 -0.002149 -0.000619 0.003977 0.006045
# 3 -0.001672 -0.002149 0.023633 -0.012534 0.001060 0.000511
# 4 0.002369 -0.000619 -0.012534 0.052578 0.003742 -0.005081
# 5 -0.002327 0.003977 0.001060 0.003742 0.030588 0.003064
# 6 0.003158 0.006045 0.000511 -0.005081 0.003064 0.033065
#
#
# Mechanical properties :
#
#
# Convention : Reuss Voigt Hill
#
# Bulk Modulus (GPa) = 30.76917 45.30639 38.03778
# Shear Modulus (GPa) = 25.71090 31.79081 28.75085
#
# Velocity S-wave (km/s) = 3.41462 3.79694 3.61084
# Velocity P-wave (km/s) = 5.43135 6.30621 5.88506
#
# Compressibility (1/GPa) = 0.03250007
#
# Stress axis : x y z
#
# Youngs Moduli (GPa) = 71.84022 80.64427 42.31365
#
# Poissons Ratio (x) = 0.39554 0.07077
# Poissons Ratio (y) = 0.35236 0.09094
# Poissons Ratio (z) = 0.12015 0.17333
#
# Static dielectric constant tensor:
#      x y z
#    x 1.881090 0.000200 -0.020260 
#    y 0.000200 1.818770 0.045460 
#    z -0.020260 0.045460 1.875410 
# 
# From -- ./inp_files/169857.got.cif
#   From: 2010.05.17/outbox.cif.g08.bks.cpg/sg2_85_cif.got.tgz:169857.got - 2010.06.03 11:33:40.
