data_PCOD9084243
_publ_section_title
;
Structure prediction by ZEFSAII (Michael W. Deem and Ramdas Pophale) SiO2 
 PCOD9084243
Probable space group: P -1
;
_chemical_formula_sum "Si O2"
_cell_formula_units_Z 14
_cell_length_a 9.215950
_cell_length_b 10.893824
_cell_length_c 12.457470
_cell_angle_alpha 58.427350
_cell_angle_beta 141.252345
_cell_angle_gamma 128.432786
_cell_volume 611.272716
_symmetry_space_group_name_H-M "P -1"
_symmetry_group_IT_number 2
_symmetry_cell_setting 'triclinic'
loop_
_space_group_symop_operation_xyz
x,y,z
-x,-y,-z
loop_
_atom_site_type_symbol
_atom_site_label
_atom_site_fract_x
_atom_site_fract_y
_atom_site_fract_z
Si Si1 0.044262 0.340759 0.109171
Si Si2 0.263888 0.032651 0.579803
Si Si3 0.108855 0.741812 0.508238
Si Si4 0.641272 0.016762 0.965292
Si Si5 0.011349 0.149780 0.813278
Si Si6 0.332199 0.215826 0.179531
Si Si7 0.257447 0.344543 0.456179
O O1 0.280383 0.316866 0.199980
O O2 0.060046 0.313449 0.258118
O O3 0.824193 0.198951 0.986988
O O4 0.000000 0.500000 0.000000
O O5 0.442002 0.972446 0.776155
O O6 0.378678 0.217027 0.565565
O O7 0.195290 0.932119 0.479946
O O8 0.000000 0.000000 0.500000
O O9 0.364392 0.716459 0.689906
O O10 0.035855 0.724432 0.348208
O O11 0.891418 0.671673 0.507784
O O12 0.500000 0.000000 0.000000
O O13 0.788400 0.905244 0.103080
O O14 0.157849 0.223340 0.974876
O O15 0.779930 0.977210 0.779469
O O16 0.500000 0.500000 0.500000
#
# Coordination Sequence:
#
# PCOD9084243 Si02
#       7
#     2   2   2   2   2   2   2
#     4  11  25  45  66  92 133 183 224 282 342 409
#     4  10  19  34  61  99 129 164 217 278 329 390
#     4  11  21  42  72 101 135 175 227 290 339 401
#     4  11  19  35  65  97 130 168 220 274 332 400
#     4  10  21  37  68 106 139 170 221 285 349 396
#     4  10  22  43  66 104 137 174 229 283 346 407
#     4  11  24  44  64  96 137 181 234 275 338 412
#
# _framework density 22.903034999999999
#
# number of rings (size 3 to 8) (size 9 to 14) (size 15 to 20)
#    0.000    1.429    1.429    6.429    0.000    0.000 
#    2.571    1.429    0.000    0.000    0.000    0.000 
#    0.000    0.000    0.000    0.000    0.000    0.000 
#
# Total GULP energy -78015.591502 kJ/mol
# GULP energy per Si atom -5572.542250 kJ/mol
# Density = 2.285091 g / cm^3
# Si number density = 22.903035 Si / 1000 Ang^3
#
#
#
# Elastic Constant Matrix: (Units=GPa)
#
#
# Indices 1 2 3 4 5 6 
#
# 1 124.2660 30.0625 34.2317 -3.3040 -3.4202 14.4317
# 2 30.0625 55.5717 5.7526 1.7160 7.1635 3.5175
# 3 34.2317 5.7526 136.8683 0.3153 -17.9284 17.1375
# 4 -3.3040 1.7160 0.3153 19.6705 2.1213 2.4488
# 5 -3.4202 7.1635 -17.9284 2.1213 42.3196 -2.2917
# 6 14.4317 3.5175 17.1375 2.4488 -2.2917 25.2944
#
#
#
# Elastic Compliance Matrix: (Units=1/GPa)
#
#
# Indices 1 2 3 4 5 6 
#
# 1 0.010406 -0.005344 -0.001776 0.002697 0.000631 -0.004194
# 2 -0.005344 0.021481 -0.000081 -0.002338 -0.003986 -0.000018
# 3 -0.001776 -0.000081 0.008768 -0.000221 0.003347 -0.004591
# 4 0.002697 -0.002338 -0.000221 0.052557 -0.002460 -0.006374
# 5 0.000631 -0.003986 0.003347 -0.002460 0.025924 0.000514
# 6 -0.004194 -0.000018 -0.004591 -0.006374 0.000514 0.045704
#
#
# Mechanical properties :
#
#
# Convention : Reuss Voigt Hill
#
# Bulk Modulus (GPa) = 38.09222 50.75550 44.42386
# Shear Modulus (GPa) = 26.59667 33.90085 30.24876
#
# Velocity S-wave (km/s) = 3.41144 3.85150 3.63813
# Velocity P-wave (km/s) = 5.67321 6.47980 6.08988
#
# Compressibility (1/GPa) = 0.02625208
#
# Stress axis : x y z
#
# Youngs Moduli (GPa) = 96.10175 46.55189 114.05467
#
# Poissons Ratio (x) = 0.24879 0.20260
# Poissons Ratio (y) = 0.51360 0.00920
# Poissons Ratio (z) = 0.17071 0.00376
#
# Static dielectric constant tensor:
#      x y z
#    x 2.450230 0.194030 0.118470 
#    y 0.194030 2.079150 -0.020470 
#    z 0.118470 -0.020470 1.928200 
# 
# From -- ./inp_files/392426.got.cif
#   From: 2010.05.17/outbox.cif.g08.bks.cpg/sg2_197_cif.got.tgz:392426.got - 2010.06.03 11:33:40.
