data_PCOD9084672
_publ_section_title
;
Structure prediction by ZEFSAII (Michael W. Deem and Ramdas Pophale) SiO2 
 PCOD9084672
Probable space group: P -1
;
_chemical_formula_sum "Si O2"
_cell_formula_units_Z 12
_cell_length_a 6.289733
_cell_length_b 5.385868
_cell_length_c 17.994163
_cell_angle_alpha 80.773195
_cell_angle_beta 132.152790
_cell_angle_gamma 95.530454
_cell_volume 446.005707
_symmetry_space_group_name_H-M "P -1"
_symmetry_group_IT_number 2
_symmetry_cell_setting 'triclinic'
loop_
_space_group_symop_operation_xyz
x,y,z
-x,-y,-z
loop_
_atom_site_type_symbol
_atom_site_label
_atom_site_fract_x
_atom_site_fract_y
_atom_site_fract_z
Si Si1 0.921994 0.817050 0.902899
Si Si2 0.181733 0.117535 0.425731
Si Si3 0.522074 0.123294 0.875543
Si Si4 0.301878 0.195384 0.613329
Si Si5 0.553115 0.400822 0.099383
Si Si6 0.677439 0.681757 0.702116
O O1 0.758884 0.651905 0.934212
O O2 0.878740 0.674139 0.822610
O O3 0.718052 0.069660 0.851584
O O4 0.236090 0.882205 0.001760
O O5 0.944425 0.899910 0.383928
O O6 0.500000 0.000000 0.500000
O O7 0.164822 0.247031 0.496659
O O8 0.167377 0.294877 0.342178
O O9 0.342471 0.374494 0.835090
O O10 0.671585 0.118335 0.148022
O O11 0.472455 0.442120 0.663913
O O12 0.498487 0.943307 0.659576
O O13 0.500000 0.500000 0.000000
#
# Coordination Sequence:
#
# PCOD9084672 Si02
#       6
#     2   2   2   2   2   2
#     4   9  22  36  58  79 119 151 198 239 290 341
#     4   9  21  43  67  89 120 161 198 240 303 367
#     4   9  20  36  57  77 109 160 196 230 284 346
#     4  10  23  40  64  91 122 157 200 243 299 369
#     4  10  19  35  56  80 107 150 200 238 286 341
#     4  11  23  39  60  94 126 156 197 254 301 347
#
# _framework density 26.905486
#
# number of rings (size 3 to 8) (size 9 to 14) (size 15 to 20)
#    1.000    1.333    0.000    1.500    2.333    8.667 
#    6.000    0.000    0.000    0.000    0.000    0.000 
#    0.000    0.000    0.000    0.000    0.000    0.000 
#
# Total GULP energy -67059.803051 kJ/mol
# GULP energy per Si atom -5588.316921 kJ/mol
# Density = 2.684425 g / cm^3
# Si number density = 26.905486 Si / 1000 Ang^3
#
#
#
# Elastic Constant Matrix: (Units=GPa)
#
#
# Indices 1 2 3 4 5 6 
#
# 1 118.7241 51.3863 45.2673 4.1985 -12.5945 39.2312
# 2 51.3863 213.0382 59.9953 32.9398 -0.8416 -1.2235
# 3 45.2673 59.9953 138.0719 20.0319 -16.8108 24.6506
# 4 4.1985 32.9398 20.0319 46.1605 -3.5799 1.5808
# 5 -12.5945 -0.8416 -16.8108 -3.5799 37.4192 0.0718
# 6 39.2312 -1.2235 24.6506 1.5808 0.0718 45.1886
#
#
#
# Elastic Compliance Matrix: (Units=1/GPa)
#
#
# Indices 1 2 3 4 5 6 
#
# 1 0.015069 -0.003878 -0.000722 0.002533 0.004928 -0.012890
# 2 -0.003878 0.006924 -0.002375 -0.003930 -0.002602 0.004991
# 3 -0.000722 -0.002375 0.010207 -0.002183 0.004090 -0.004936
# 4 0.002533 -0.003930 -0.002183 0.025426 0.002220 -0.002008
# 5 0.004928 -0.002602 0.004090 0.002220 0.030387 -0.006705
# 6 -0.012890 0.004991 -0.004936 -0.002008 -0.006705 0.036229
#
#
# Mechanical properties :
#
#
# Convention : Reuss Voigt Hill
#
# Bulk Modulus (GPa) = 54.79061 87.01467 70.90264
# Shear Modulus (GPa) = 34.65594 46.63266 40.64430
#
# Velocity S-wave (km/s) = 3.59285 4.16769 3.89090
# Velocity P-wave (km/s) = 6.13349 7.45457 6.82607
#
# Compressibility (1/GPa) = 0.01825130
#
# Stress axis : x y z
#
# Youngs Moduli (GPa) = 66.36132 144.41839 97.97060
#
# Poissons Ratio (x) = 0.56002 0.07071
# Poissons Ratio (y) = 0.25733 0.23269
# Poissons Ratio (z) = 0.04789 0.34301
#
# Static dielectric constant tensor:
#      x y z
#    x 2.203180 -0.114890 -0.018880 
#    y -0.114890 2.258520 -0.052810 
#    z -0.018880 -0.052810 2.121850 
# 
# From -- ./inp_files/581115.got.cif
#   From: 2010.05.17/outbox.cif.g08.bks.cpg/sg2_291_cif.got.tgz:581115.got - 2010.06.03 11:33:40.
