data_PCOD9084122
_publ_section_title
;
Structure prediction by ZEFSAII (Michael W. Deem and Ramdas Pophale) SiO2 
 PCOD9084122
Probable space group: P -1
;
_chemical_formula_sum "Si O2"
_cell_formula_units_Z 16
_cell_length_a 15.369063
_cell_length_b 7.982091
_cell_length_c 14.522403
_cell_angle_alpha 41.818055
_cell_angle_beta 131.410530
_cell_angle_gamma 143.990315
_cell_volume 690.542831
_symmetry_space_group_name_H-M "P -1"
_symmetry_group_IT_number 2
_symmetry_cell_setting 'triclinic'
loop_
_space_group_symop_operation_xyz
x,y,z
-x,-y,-z
loop_
_atom_site_type_symbol
_atom_site_label
_atom_site_fract_x
_atom_site_fract_y
_atom_site_fract_z
Si Si1 0.645579 0.613358 0.261375
Si Si2 0.119533 0.022939 0.874917
Si Si3 0.830964 0.907718 0.738277
Si Si4 0.912254 0.439510 0.821833
Si Si5 0.083707 0.808126 0.500683
Si Si6 0.207244 0.573978 0.439720
Si Si7 0.803493 0.288711 0.205416
Si Si8 0.387497 0.615687 0.061880
O O1 0.662476 0.407475 0.429023
O O2 0.482659 0.492222 0.169326
O O3 0.744104 0.692345 0.207444
O O4 0.720381 0.953373 0.227288
O O5 0.003270 0.068469 0.814185
O O6 0.009286 0.730307 0.843971
O O7 0.166652 0.883127 0.040900
O O8 0.722701 0.567835 0.853157
O O9 0.821413 0.901228 0.623738
O O10 0.788444 0.127086 0.653022
O O11 0.811936 0.453700 0.672342
O O12 0.035807 0.477223 0.827241
O O13 0.182352 0.797211 0.647386
O O14 0.000000 0.500000 0.500000
O O15 0.947148 0.741299 0.491072
O O16 0.714829 0.426585 0.075729
O O17 0.500000 0.000000 0.000000
#
# Coordination Sequence:
#
# PCOD9084122 Si02
#       8
#     2   2   2   2   2   2   2   2
#     4  10  21  36  58  84 124 160 188 242 294 350
#     4  10  19  34  60  91 112 150 201 252 289 331
#     4  11  21  37  61  87 116 156 196 242 290 356
#     4   9  19  33  57  91 117 143 196 251 294 343
#     4   9  19  35  57  92 118 146 189 250 292 342
#     4  10  21  36  56  91 122 151 188 241 307 349
#     4   9  18  36  59  85 118 154 196 241 294 348
#     4  10  22  41  58  84 117 163 198 237 295 352
#
# _framework density 23.170176999999999
#
# number of rings (size 3 to 8) (size 9 to 14) (size 15 to 20)
#    0.000    2.250    2.500    0.000    3.500    2.500 
#    2.250    3.750    0.000    3.750    0.000    0.000 
#    0.000    0.000    0.000    0.000    0.000    0.000 
#
# Total GULP energy -89374.852956 kJ/mol
# GULP energy per Si atom -5585.928310 kJ/mol
# Density = 2.311744 g / cm^3
# Si number density = 23.170177 Si / 1000 Ang^3
#
#
#
# Elastic Constant Matrix: (Units=GPa)
#
#
# Indices 1 2 3 4 5 6 
#
# 1 80.8033 27.4513 47.8131 6.0953 7.4831 -0.3638
# 2 27.4513 33.9479 26.6306 0.6718 -2.9855 8.0248
# 3 47.8131 26.6306 179.5206 28.5020 -7.9866 28.4685
# 4 6.0953 0.6718 28.5020 33.1952 11.1420 3.0764
# 5 7.4831 -2.9855 -7.9866 11.1420 49.4279 2.3175
# 6 -0.3638 8.0248 28.4685 3.0764 2.3175 37.1917
#
#
#
# Elastic Compliance Matrix: (Units=1/GPa)
#
#
# Indices 1 2 3 4 5 6 
#
# 1 0.021026 -0.015336 -0.005119 0.002072 -0.005761 0.007620
# 2 -0.015336 0.045501 -0.001319 0.002299 0.004782 -0.009446
# 3 -0.005119 -0.001319 0.009711 -0.008232 0.004439 -0.006795
# 4 0.002072 0.002299 -0.008232 0.040057 -0.010684 0.003178
# 5 -0.005761 0.004782 0.004439 -0.010684 0.024759 -0.005145
# 6 0.007620 -0.009446 -0.006795 0.003178 -0.005145 0.034259
#
#
# Mechanical properties :
#
#
# Convention : Reuss Voigt Hill
#
# Bulk Modulus (GPa) = 30.59038 55.34018 42.96528
# Shear Modulus (GPa) = 21.76186 36.78808 29.27497
#
# Velocity S-wave (km/s) = 3.06799 3.98896 3.55840
# Velocity P-wave (km/s) = 5.07752 6.71951 5.95538
#
# Compressibility (1/GPa) = 0.03269002
#
# Stress axis : x y z
#
# Youngs Moduli (GPa) = 47.55951 21.97752 102.97187
#
# Poissons Ratio (x) = 0.33705 0.52710
# Poissons Ratio (y) = 0.72937 0.13587
# Poissons Ratio (z) = 0.24345 0.02900
#
# Static dielectric constant tensor:
#      x y z
#    x 1.910150 -0.041660 0.036320 
#    y -0.041660 1.922260 -0.011870 
#    z 0.036320 -0.011870 1.926380 
# 
# From -- ./inp_files/528119.got.cif
#   From: 2010.05.17/outbox.cif.g08.bks.cpg/sg2_265_cif.got.tgz:528119.got - 2010.06.03 11:33:40.
