data_PCOD9084673
_publ_section_title
;
Structure prediction by ZEFSAII (Michael W. Deem and Ramdas Pophale) SiO2 
 PCOD9084673
Probable space group: P -1
;
_chemical_formula_sum "Si O2"
_cell_formula_units_Z 16
_cell_length_a 10.295669
_cell_length_b 14.786676
_cell_length_c 9.193114
_cell_angle_alpha 118.289691
_cell_angle_beta 89.192069
_cell_angle_gamma 139.156815
_cell_volume 645.928711
_symmetry_space_group_name_H-M "P -1"
_symmetry_group_IT_number 2
_symmetry_cell_setting 'triclinic'
loop_
_space_group_symop_operation_xyz
x,y,z
-x,-y,-z
loop_
_atom_site_type_symbol
_atom_site_label
_atom_site_fract_x
_atom_site_fract_y
_atom_site_fract_z
Si Si1 0.240508 0.882050 0.920378
Si Si2 0.463553 0.250847 0.276873
Si Si3 0.005835 0.602237 0.469676
Si Si4 0.978798 0.225453 0.890061
Si Si5 0.554381 0.207986 0.538235
Si Si6 0.204921 0.286728 0.670788
Si Si7 0.696676 0.856971 0.261515
Si Si8 0.692191 0.711267 0.890296
O O1 0.105267 0.764982 0.684984
O O2 0.075124 0.731371 0.945934
O O3 0.500000 0.000000 0.000000
O O4 0.325750 0.054812 0.081274
O O5 0.541596 0.287304 0.472047
O O6 0.291015 0.231814 0.228323
O O7 0.718735 0.430650 0.318071
O O8 0.208603 0.704884 0.425621
O O9 0.000000 0.500000 0.500000
O O10 0.158151 0.343629 0.838202
O O11 0.096689 0.211917 0.974758
O O12 0.706480 0.024232 0.672186
O O13 0.520772 0.230025 0.716438
O O14 0.258320 0.216158 0.700048
O O15 0.446378 0.477267 0.723644
O O16 0.947054 0.092706 0.446706
O O17 0.660000 0.790063 0.051322
#
# Coordination Sequence:
#
# PCOD9084673 Si02
#       8
#     2   2   2   2   2   2   2   2
#     4  11  19  37  60  85 108 149 196 236 276 328
#     4  10  23  37  55  86 122 146 182 237 294 329
#     4  10  19  35  56  80 111 144 191 236 270 327
#     4   9  18  34  61  86 109 149 193 233 277 336
#     4   9  18  35  59  84 105 148 200 234 271 329
#     4   9  19  35  56  84 113 151 194 227 273 341
#     4   9  18  36  60  79 109 155 194 229 271 336
#     4  11  22  37  55  87 126 146 177 234 293 345
#
# _framework density 24.770534999999999
#
# number of rings (size 3 to 8) (size 9 to 14) (size 15 to 20)
#    0.000    2.250    3.750    2.250    0.000    7.000 
#    0.000    3.125    0.000    2.250    0.000    0.000 
#    0.000    0.000    0.000    0.000    0.000    0.000 
#
# Total GULP energy -89287.378140 kJ/mol
# GULP energy per Si atom -5580.461134 kJ/mol
# Density = 2.471416 g / cm^3
# Si number density = 24.770535 Si / 1000 Ang^3
#
#
#
# Elastic Constant Matrix: (Units=GPa)
#
#
# Indices 1 2 3 4 5 6 
#
# 1 33.7622 15.9617 18.4569 1.0990 5.5398 15.2970
# 2 15.9617 43.5953 23.3129 8.9615 -8.0056 23.1376
# 3 18.4569 23.3129 105.9727 10.6099 -2.9516 13.9884
# 4 1.0990 8.9615 10.6099 25.5420 8.0499 0.1413
# 5 5.5398 -8.0056 -2.9516 8.0499 22.3725 -8.5304
# 6 15.2970 23.1376 13.9884 0.1413 -8.5304 47.4646
#
#
#
# Elastic Compliance Matrix: (Units=1/GPa)
#
#
# Indices 1 2 3 4 5 6 
#
# 1 0.051036 -0.018539 -0.005807 0.016286 -0.030155 -0.011167
# 2 -0.018539 0.046039 -0.002540 -0.021898 0.024306 -0.011286
# 3 -0.005807 -0.002540 0.011552 -0.004917 0.003989 0.000436
# 4 0.016286 -0.021898 -0.004917 0.058688 -0.033366 0.000704
# 5 -0.030155 0.024306 0.003989 -0.033366 0.077481 0.010719
# 6 -0.011167 -0.011286 0.000436 0.000704 0.010719 0.031964
#
#
# Mechanical properties :
#
#
# Convention : Reuss Voigt Hill
#
# Bulk Modulus (GPa) = 18.22990 33.19923 25.71457
# Shear Modulus (GPa) = 14.33414 27.44906 20.89160
#
# Velocity S-wave (km/s) = 2.40818 3.33248 2.90729
# Velocity P-wave (km/s) = 3.88689 5.31404 4.65548
#
# Compressibility (1/GPa) = 0.05485494
#
# Stress axis : x y z
#
# Youngs Moduli (GPa) = 19.59415 21.72065 86.56293
#
# Poissons Ratio (x) = 0.40269 0.50264
# Poissons Ratio (y) = 0.36326 0.21988
# Poissons Ratio (z) = 0.11378 0.05517
#
# Static dielectric constant tensor:
#      x y z
#    x 1.976860 0.012120 -0.047420 
#    y 0.012120 2.057270 0.022740 
#    z -0.047420 0.022740 1.972450 
# 
# From -- ./inp_files/436880.got.cif
#   From: 2010.05.17/outbox.cif.g08.bks.cpg/sg2_219_cif.got.tgz:436880.got - 2010.06.03 11:33:40.
