data_PCOD9084199
_publ_section_title
;
Structure prediction by ZEFSAII (Michael W. Deem and Ramdas Pophale) SiO2 
 PCOD9084199
Probable space group: P -1
;
_chemical_formula_sum "Si O2"
_cell_formula_units_Z 16
_cell_length_a 16.012850
_cell_length_b 20.722968
_cell_length_c 24.519525
_cell_angle_alpha 161.175610
_cell_angle_beta 17.761042
_cell_angle_gamma 154.460977
_cell_volume 800.828397
_symmetry_space_group_name_H-M "P -1"
_symmetry_group_IT_number 2
_symmetry_cell_setting 'triclinic'
loop_
_space_group_symop_operation_xyz
x,y,z
-x,-y,-z
loop_
_atom_site_type_symbol
_atom_site_label
_atom_site_fract_x
_atom_site_fract_y
_atom_site_fract_z
Si Si1 0.230925 0.217691 0.309076
Si Si2 0.862767 0.090806 0.104228
Si Si3 0.941002 0.396032 0.141208
Si Si4 0.313762 0.007611 0.979352
Si Si5 0.142324 0.779701 0.062474
Si Si6 0.235939 0.161104 0.555313
Si Si7 0.133927 0.184168 0.514377
Si Si8 0.799063 0.555042 0.876785
O O1 0.012903 0.380620 0.591188
O O2 0.179172 0.017406 0.216807
O O3 0.544640 0.290309 0.180340
O O4 0.202389 0.149063 0.208881
O O5 0.789927 0.953593 0.986271
O O6 0.561412 0.179273 0.375672
O O7 0.076485 0.253355 0.078134
O O8 0.000000 0.000000 0.000000
O O9 0.765744 0.222675 0.140882
O O10 0.814119 0.616608 0.393001
O O11 0.200187 0.412320 0.032436
O O12 0.982837 0.319909 0.993363
O O13 0.640268 0.990477 0.769706
O O14 0.942243 0.751127 0.214868
O O15 0.151954 0.244782 0.615209
O O16 0.145629 0.925777 0.417461
O O17 0.500000 0.500000 0.000000
#
# Coordination Sequence:
#
# PCOD9084199 Si02
#       8
#     2   2   2   2   2   2   2   2
#     4  10  21  38  65  91 124 155 205 257 304 365
#     4  10  24  43  63  88 123 171 207 249 301 365
#     4  10  22  35  61  89 122 156 208 256 298 362
#     4   9  19  39  60  94 121 155 203 256 308 355
#     4  10  21  36  62  99 123 158 192 256 324 359
#     4  10  21  37  57  90 128 159 199 244 318 369
#     4  10  19  34  61  90 123 163 195 246 315 374
#     4  11  26  45  64  88 118 168 218 251 294 364
#
# _framework density 19.979312
#
# number of rings (size 3 to 8) (size 9 to 14) (size 15 to 20)
#    0.000    2.000    1.250    1.125   12.250    0.500 
#    2.250    2.500    0.000    0.000    0.000    0.000 
#    0.000    0.000    0.000    0.000    0.000    0.000 
#
# Total GULP energy -89265.172509 kJ/mol
# GULP energy per Si atom -5579.073282 kJ/mol
# Density = 1.993384 g / cm^3
# Si number density = 19.979312 Si / 1000 Ang^3
#
#
#
# Elastic Constant Matrix: (Units=GPa)
#
#
# Indices 1 2 3 4 5 6 
#
# 1 159.6664 44.3459 54.7269 -13.9927 -5.0927 9.7242
# 2 44.3459 63.7411 25.1267 -15.5094 -7.0664 17.4266
# 3 54.7269 25.1267 49.5954 -15.2052 2.4442 0.5405
# 4 -13.9927 -15.5094 -15.2052 33.9964 -2.6610 -5.5220
# 5 -5.0927 -7.0664 2.4442 -2.6610 23.5032 -5.3866
# 6 9.7242 17.4266 0.5405 -5.5220 -5.3866 28.4698
#
#
#
# Elastic Compliance Matrix: (Units=1/GPa)
#
#
# Indices 1 2 3 4 5 6 
#
# 1 0.010943 -0.002966 -0.011270 -0.002009 0.002031 -0.001714
# 2 -0.002966 0.026741 -0.008768 0.005408 0.005938 -0.013017
# 3 -0.011270 -0.008768 0.040455 0.010510 -0.005950 0.009361
# 4 -0.002009 0.005408 0.010510 0.037068 0.005535 0.005414
# 5 0.002031 0.005938 -0.005950 0.005535 0.047352 0.005817
# 6 -0.001714 -0.013017 0.009361 0.005414 0.005817 0.045651
#
#
# Mechanical properties :
#
#
# Convention : Reuss Voigt Hill
#
# Bulk Modulus (GPa) = 31.12265 57.93356 44.52811
# Shear Modulus (GPa) = 18.87318 27.11410 22.99364
#
# Velocity S-wave (km/s) = 3.07683 3.68789 3.39613
# Velocity P-wave (km/s) = 5.31354 6.86977 6.14115
#
# Compressibility (1/GPa) = 0.03213094
#
# Stress axis : x y z
#
# Youngs Moduli (GPa) = 91.38601 37.39588 24.71905
#
# Poissons Ratio (x) = 0.11090 0.27858
# Poissons Ratio (y) = 0.27101 0.21675
# Poissons Ratio (z) = 1.02989 0.32790
#
# Static dielectric constant tensor:
#      x y z
#    x 1.735120 -0.001530 0.024990 
#    y -0.001530 1.749570 0.016800 
#    z 0.024990 0.016800 1.696550 
# 
# From -- ./inp_files/277258.got.cif
#   From: 2010.05.17/outbox.cif.g08.bks.cpg/sg2_139_cif.got.tgz:277258.got - 2010.06.03 11:33:40.
