data_PCOD9084744
_publ_section_title
;
Structure prediction by ZEFSAII (Michael W. Deem and Ramdas Pophale) SiO2 
 PCOD9084744
Probable space group: P -1
;
_chemical_formula_sum "Si O2"
_cell_formula_units_Z 16
_cell_length_a 11.560427
_cell_length_b 12.551416
_cell_length_c 10.767254
_cell_angle_alpha 110.492036
_cell_angle_beta 98.819503
_cell_angle_gamma 141.665333
_cell_volume 613.992230
_symmetry_space_group_name_H-M "P -1"
_symmetry_group_IT_number 2
_symmetry_cell_setting 'triclinic'
loop_
_space_group_symop_operation_xyz
x,y,z
-x,-y,-z
loop_
_atom_site_type_symbol
_atom_site_label
_atom_site_fract_x
_atom_site_fract_y
_atom_site_fract_z
Si Si1 0.769127 0.462061 0.335415
Si Si2 0.688105 0.831957 0.982890
Si Si3 0.731798 0.400810 0.833609
Si Si4 0.590900 0.328495 0.519298
Si Si5 0.182708 0.145345 0.248797
Si Si6 0.815963 0.729831 0.199860
Si Si7 0.154755 0.989997 0.586176
Si Si8 0.131198 0.737807 0.264599
O O1 0.466675 0.194068 0.110869
O O2 0.743190 0.409621 0.454743
O O3 0.981886 0.604676 0.322464
O O4 0.875745 0.686030 0.460378
O O5 0.719755 0.783654 0.845333
O O6 0.455006 0.575476 0.930977
O O7 0.993677 0.095156 0.200108
O O8 0.755791 0.490347 0.742816
O O9 0.789938 0.321531 0.778546
O O10 0.418868 0.147611 0.722572
O O11 0.918775 0.591080 0.061856
O O12 0.431875 0.306822 0.437497
O O13 0.395831 0.049635 0.412167
O O14 0.925717 0.837373 0.122630
O O15 0.078557 0.921707 0.400823
O O16 0.787838 0.832126 0.292327
#
# Coordination Sequence:
#
# PCOD9084744 Si02
#       8
#     2   2   2   2   2   2   2   2
#     4  10  22  43  65  94 128 166 210 257 315 374
#     4   9  20  34  55  91 126 160 206 253 300 371
#     4  11  24  45  66  93 128 161 212 269 313 377
#     4  11  22  44  69  94 125 168 212 258 315 378
#     4  10  19  35  56  89 125 162 204 252 307 364
#     4  10  19  35  58  83 121 166 204 242 308 366
#     4  10  21  39  60  91 123 164 207 253 309 371
#     4  11  25  45  66  92 126 166 208 266 327 364
#
# _framework density 26.058962000000001
#
# number of rings (size 3 to 8) (size 9 to 14) (size 15 to 20)
#    0.000    1.750    2.500    1.500    3.500    0.500 
#    4.500    3.750    0.000    0.000    0.000    0.000 
#    0.000    0.000    0.000    0.000    0.000    0.000 
#
# Total GULP energy -89083.493309 kJ/mol
# GULP energy per Si atom -5567.718332 kJ/mol
# Density = 2.599965 g / cm^3
# Si number density = 26.058962 Si / 1000 Ang^3
#
#
#
# Elastic Constant Matrix: (Units=GPa)
#
#
# Indices 1 2 3 4 5 6 
#
# 1 68.1134 19.3983 15.8254 5.8751 6.8038 12.7884
# 2 19.3983 145.9601 46.0355 -30.9142 -4.2200 34.3332
# 3 15.8254 46.0355 147.2636 -33.2638 16.5492 7.1659
# 4 5.8751 -30.9142 -33.2638 34.1995 7.1798 5.5660
# 5 6.8038 -4.2200 16.5492 7.1798 42.6398 -9.4423
# 6 12.7884 34.3332 7.1659 5.5660 -9.4423 36.1657
#
#
#
# Elastic Compliance Matrix: (Units=1/GPa)
#
#
# Indices 1 2 3 4 5 6 
#
# 1 0.017108 -0.002281 -0.002232 -0.006352 -0.001661 -0.002897
# 2 -0.002281 0.014995 0.001632 0.019835 -0.006205 -0.018425
# 3 -0.002232 0.001632 0.011432 0.015965 -0.008301 -0.007649
# 4 -0.006352 0.019835 0.015965 0.074983 -0.024171 -0.037599
# 5 -0.001661 -0.006205 -0.008301 -0.024171 0.035044 0.020992
# 6 -0.002897 -0.018425 -0.007649 -0.037599 0.020992 0.058949
#
#
# Mechanical properties :
#
#
# Convention : Reuss Voigt Hill
#
# Bulk Modulus (GPa) = 26.47573 58.20617 42.34095
# Shear Modulus (GPa) = 21.65763 41.27286 31.46524
#
# Velocity S-wave (km/s) = 2.88601 3.98405 3.47863
# Velocity P-wave (km/s) = 4.61383 6.59912 5.69367
#
# Compressibility (1/GPa) = 0.03777044
#
# Stress axis : x y z
#
# Youngs Moduli (GPa) = 58.45347 66.68694 87.47693
#
# Poissons Ratio (x) = 0.15215 0.19529
# Poissons Ratio (y) = 0.13336 -0.14275
# Poissons Ratio (z) = 0.13049 -0.10882
#
# Static dielectric constant tensor:
#      x y z
#    x 2.144160 -0.034410 0.053170 
#    y -0.034410 2.116830 -0.074150 
#    z 0.053170 -0.074150 2.164800 
# 
# From -- ./inp_files/428407.got.cif
#   From: 2010.05.17/outbox.cif.g08.bks.cpg/sg2_215_cif.got.tgz:428407.got - 2010.06.03 11:33:40.
