data_PCOD9084965
_publ_section_title
;
Structure prediction by ZEFSAII (Michael W. Deem and Ramdas Pophale) SiO2 
 PCOD9084965
Probable space group: P -1
;
_chemical_formula_sum "Si O2"
_cell_formula_units_Z 16
_cell_length_a 13.164649
_cell_length_b 15.064736
_cell_length_c 7.520859
_cell_angle_alpha 76.738270
_cell_angle_beta 101.651212
_cell_angle_gamma 37.994434
_cell_volume 687.596963
_symmetry_space_group_name_H-M "P -1"
_symmetry_group_IT_number 2
_symmetry_cell_setting 'triclinic'
loop_
_space_group_symop_operation_xyz
x,y,z
-x,-y,-z
loop_
_atom_site_type_symbol
_atom_site_label
_atom_site_fract_x
_atom_site_fract_y
_atom_site_fract_z
Si Si1 0.765774 0.304619 0.981457
Si Si2 0.225703 0.460934 0.631577
Si Si3 0.327240 0.945619 0.501483
Si Si4 0.590633 0.050662 0.866163
Si Si5 0.660348 0.576607 0.679281
Si Si6 0.773329 0.818211 0.371538
Si Si7 0.288873 0.623346 0.655319
Si Si8 0.182226 0.887924 0.337907
O O1 0.777839 0.400590 0.884059
O O2 0.538238 0.441752 0.774564
O O3 0.740501 0.323959 0.175966
O O4 0.965615 0.092668 0.080610
O O5 0.446309 0.236156 0.837580
O O6 0.211584 0.474144 0.406613
O O7 0.231114 0.562731 0.642201
O O8 0.005926 0.592908 0.574088
O O9 0.313606 0.985301 0.268930
O O10 0.570934 0.721646 0.715806
O O11 0.194423 0.953734 0.475776
O O12 0.258242 0.080189 0.538246
O O13 0.419184 0.105392 0.724324
O O14 0.753145 0.883207 0.142308
O O15 0.432382 0.713257 0.451775
O O16 0.165118 0.795324 0.420341
#
# Coordination Sequence:
#
# PCOD9084965 Si02
#       8
#     2   2   2   2   2   2   2   2
#     4  10  19  35  58  81 122 162 199 244 291 350
#     4  11  23  40  60  88 126 158 200 254 304 356
#     4   9  20  42  63  89 128 156 199 254 300 360
#     4  10  24  43  62  95 122 153 206 260 304 364
#     4   8  21  36  54  85 120 156 199 245 288 356
#     4  11  23  41  69  89 119 162 205 249 315 366
#     4  10  22  34  55  90 119 157 204 246 287 364
#     4   9  19  36  57  85 122 160 198 245 293 359
#
# _framework density 23.269445999999999
#
# number of rings (size 3 to 8) (size 9 to 14) (size 15 to 20)
#    0.750    1.500    0.000    1.875    3.500    3.000 
#    0.000    1.250    0.000    6.000    0.000    0.000 
#    0.000    0.000    0.000    0.000    0.000    0.000 
#
# Total GULP energy -89175.286544 kJ/mol
# GULP energy per Si atom -5573.455409 kJ/mol
# Density = 2.321648 g / cm^3
# Si number density = 23.269446 Si / 1000 Ang^3
#
#
#
# Elastic Constant Matrix: (Units=GPa)
#
#
# Indices 1 2 3 4 5 6 
#
# 1 -10.9656 16.3721 7.5159 -9.8533 34.0071 51.7239
# 2 16.3721 116.3742 24.6508 -15.1137 18.9070 14.4439
# 3 7.5159 24.6508 64.7620 -28.5931 -10.5793 -8.9372
# 4 -9.8533 -15.1137 -28.5931 38.0841 0.5784 5.5583
# 5 34.0071 18.9070 -10.5793 0.5784 3.5571 -36.2779
# 6 51.7239 14.4439 -8.9372 5.5583 -36.2779 -8.4303
#
#
#
# Elastic Compliance Matrix: (Units=1/GPa)
#
#
# Indices 1 2 3 4 5 6 
#
# 1 0.019203 -0.008590 0.008637 0.005843 0.019699 0.013030
# 2 -0.008590 0.011876 -0.005184 -0.001165 -0.006193 -0.000977
# 3 0.008637 -0.005184 0.026203 0.019921 0.007133 -0.001230
# 4 0.005843 -0.001165 0.019921 0.042030 0.009250 0.000638
# 5 0.019699 -0.006193 0.007133 0.009250 0.027957 -0.011519
# 6 0.013030 -0.000977 -0.001230 0.000638 -0.011519 0.010945
#
#
# Mechanical properties :
#
#
# Convention : Reuss Voigt Hill
#
# Bulk Modulus (GPa) = 21.27349 29.69423 25.48386
# Shear Modulus (GPa) = 30.45856 14.75097 22.60476
#
# Velocity S-wave (km/s) = 3.62187 2.52051 3.12017
# Velocity P-wave (km/s) = 5.16262 4.61079 4.89449
#
# Compressibility (1/GPa) = 0.04700686
#
# Stress axis : x y z
#
# Youngs Moduli (GPa) = 52.07517 84.20551 38.16339
#
# Poissons Ratio (x) = 0.72331 -0.32961
# Poissons Ratio (y) = 0.44732 0.19786
# Poissons Ratio (z) = -0.44976 0.43656
#
# Static dielectric constant tensor:
#      x y z
#    x 1.887190 0.000100 0.032980 
#    y 0.000100 1.915940 -0.032660 
#    z 0.032980 -0.032660 1.949250 
# 
# From -- ./inp_files/315124.got.cif
#   From: 2010.05.17/outbox.cif.g08.bks.cpg/sg2_158_cif.got.tgz:315124.got - 2010.06.03 11:33:40.
