data_PCOD9084390
_publ_section_title
;
Structure prediction by ZEFSAII (Michael W. Deem and Ramdas Pophale) SiO2 
 PCOD9084390
Probable space group: P -1
;
_chemical_formula_sum "Si O2"
_cell_formula_units_Z 16
_cell_length_a 14.237253
_cell_length_b 30.418953
_cell_length_c 8.532417
_cell_angle_alpha 144.177862
_cell_angle_beta 45.725711
_cell_angle_gamma 160.499863
_cell_volume 679.179959
_symmetry_space_group_name_H-M "P -1"
_symmetry_group_IT_number 2
_symmetry_cell_setting 'triclinic'
loop_
_space_group_symop_operation_xyz
x,y,z
-x,-y,-z
loop_
_atom_site_type_symbol
_atom_site_label
_atom_site_fract_x
_atom_site_fract_y
_atom_site_fract_z
Si Si1 0.874915 0.395350 0.096423
Si Si2 0.024596 0.248532 0.253309
Si Si3 0.569815 0.614500 0.572513
Si Si4 0.643132 0.842585 0.781979
Si Si5 0.525465 0.060720 0.484347
Si Si6 0.031945 0.131917 0.428322
Si Si7 0.174471 0.011028 0.330863
Si Si8 0.404860 0.679921 0.099312
O O1 0.699759 0.339652 0.287590
O O2 0.224777 0.569478 0.149854
O O3 0.736676 0.241407 0.795275
O O4 0.776408 0.397292 0.070948
O O5 0.228124 0.411655 0.393143
O O6 0.216442 0.333397 0.434606
O O7 0.699624 0.107399 0.278792
O O8 0.996938 0.154396 0.928945
O O9 0.698543 0.694055 0.481982
O O10 0.596072 0.706145 0.903053
O O11 0.809915 0.848146 0.587135
O O12 0.672058 0.909111 0.788566
O O13 0.826755 0.978263 0.100041
O O14 0.500000 0.000000 0.500000
O O15 0.198761 0.921744 0.411927
O O16 0.418284 0.152786 0.589454
O O17 0.000000 0.000000 0.500000
#
# Coordination Sequence:
#
# PCOD9084390 Si02
#       8
#     2   2   2   2   2   2   2   2
#     4  10  22  39  67  93 118 170 217 253 298 383
#     4  11  22  36  59  91 125 162 206 252 313 368
#     4  11  19  38  63  92 118 165 213 254 292 380
#     4  10  20  37  62  92 124 160 213 256 309 361
#     4  11  20  34  57  92 124 155 209 259 302 358
#     4  10  19  34  64  90 119 160 216 257 291 371
#     4  12  24  40  62  94 128 161 204 265 320 363
#     4  11  22  40  67  95 124 159 214 264 307 364
#
# _framework density 23.557821000000001
#
# number of rings (size 3 to 8) (size 9 to 14) (size 15 to 20)
#    0.000    1.250    6.250    0.750    3.500    0.500 
#    0.000    0.625    0.000    2.250    0.000    0.000 
#    0.000    0.000    0.000    0.000    0.000    0.000 
#
# Total GULP energy -89366.401127 kJ/mol
# GULP energy per Si atom -5585.400070 kJ/mol
# Density = 2.350420 g / cm^3
# Si number density = 23.557821 Si / 1000 Ang^3
#
#
#
# Elastic Constant Matrix: (Units=GPa)
#
#
# Indices 1 2 3 4 5 6 
#
# 1 66.3791 29.6310 3.5712 -3.3662 -15.7169 -8.9106
# 2 29.6310 140.7298 25.6992 -0.5453 -15.2738 -6.8693
# 3 3.5712 25.6992 70.3620 5.2967 -21.6716 1.5460
# 4 -3.3662 -0.5453 5.2967 29.8854 -2.6120 -16.8240
# 5 -15.7169 -15.2738 -21.6716 -2.6120 27.7929 0.0361
# 6 -8.9106 -6.8693 1.5460 -16.8240 0.0361 34.4451
#
#
#
# Elastic Compliance Matrix: (Units=1/GPa)
#
#
# Indices 1 2 3 4 5 6 
#
# 1 0.021001 -0.003154 0.003519 0.007557 0.013586 0.008323
# 2 -0.003154 0.008454 -0.002818 0.001279 0.000782 0.001620
# 3 0.003519 -0.002818 0.020246 -0.002999 0.015949 -0.002042
# 4 0.007557 0.001279 -0.002999 0.050794 0.007376 0.027146
# 5 0.013586 0.000782 0.015949 0.007376 0.057214 0.006498
# 6 0.008323 0.001620 -0.002042 0.027146 0.006498 0.044852
#
#
# Mechanical properties :
#
#
# Convention : Reuss Voigt Hill
#
# Bulk Modulus (GPa) = 22.32504 43.91929 33.12217
# Shear Modulus (GPa) = 22.48219 32.99598 27.73908
#
# Velocity S-wave (km/s) = 3.09259 3.74657 3.43518
# Velocity P-wave (km/s) = 4.71693 6.11550 5.46117
#
# Compressibility (1/GPa) = 0.04479275
#
# Stress axis : x y z
#
# Youngs Moduli (GPa) = 47.61681 118.29251 49.39290
#
# Poissons Ratio (x) = 0.37314 -0.17381
# Poissons Ratio (y) = 0.15020 0.13921
# Poissons Ratio (z) = -0.16756 0.33340
#
# Static dielectric constant tensor:
#      x y z
#    x 1.932760 0.063550 0.042650 
#    y 0.063550 2.024800 0.000950 
#    z 0.042650 0.000950 1.925210 
# 
# From -- ./inp_files/320981.got.cif
#   From: 2010.05.17/outbox.cif.g08.bks.cpg/sg2_161_cif.got.tgz:320981.got - 2010.06.03 11:33:40.
