data_PCOD9084276
_publ_section_title
;
Structure prediction by ZEFSAII (Michael W. Deem and Ramdas Pophale) SiO2 
 PCOD9084276
Probable space group: P -1
;
_chemical_formula_sum "Si O2"
_cell_formula_units_Z 16
_cell_length_a 14.541028
_cell_length_b 5.082173
_cell_length_c 25.661950
_cell_angle_alpha 78.717681
_cell_angle_beta 157.824749
_cell_angle_gamma 101.406634
_cell_volume 701.247175
_symmetry_space_group_name_H-M "P -1"
_symmetry_group_IT_number 2
_symmetry_cell_setting 'triclinic'
loop_
_space_group_symop_operation_xyz
x,y,z
-x,-y,-z
loop_
_atom_site_type_symbol
_atom_site_label
_atom_site_fract_x
_atom_site_fract_y
_atom_site_fract_z
Si Si1 0.978677 0.780968 0.943972
Si Si2 0.286570 0.577294 0.650619
Si Si3 0.895311 0.484196 0.809696
Si Si4 0.890918 0.922710 0.711094
Si Si5 0.562703 0.532542 0.906820
Si Si6 0.504914 0.751571 0.452256
Si Si7 0.571716 0.113047 0.773788
Si Si8 0.403265 0.054848 0.004619
O O1 0.877605 0.692221 0.838950
O O2 0.796088 0.004849 0.860231
O O3 0.000000 0.500000 0.000000
O O4 0.262468 0.878083 0.087034
O O5 0.393236 0.547529 0.766492
O O6 0.439391 0.393349 0.698193
O O7 0.000000 0.500000 0.500000
O O8 0.360050 0.886323 0.665282
O O9 0.942721 0.636981 0.774145
O O10 0.631576 0.335423 0.668887
O O11 0.156432 0.361260 0.962097
O O12 0.779595 0.879211 0.596682
O O13 0.673271 0.034225 0.626353
O O14 0.123266 0.106515 0.840647
O O15 0.572321 0.222221 0.940570
O O16 0.487474 0.707661 0.910730
O O17 0.500000 0.500000 0.500000
O O18 0.500000 0.000000 0.000000
#
# Coordination Sequence:
#
# PCOD9084276 Si02
#       8
#     2   2   2   2   2   2   2   2
#     4  11  22  38  65  97 137 162 208 277 336 384
#     4  12  25  45  71  91 134 179 227 277 318 386
#     4  10  19  34  62  90 118 162 206 259 304 382
#     4   9  19  33  56  89 117 157 204 249 304 381
#     4  11  22  40  66  96 115 163 229 253 313 394
#     4   9  17  33  56  83 118 149 200 242 308 364
#     4  11  23  41  63 100 127 171 214 269 336 383
#     4  11  23  40  64  92 126 162 205 274 318 367
#
# _framework density 22.816490000000002
#
# number of rings (size 3 to 8) (size 9 to 14) (size 15 to 20)
#    0.000    1.500    3.750    1.500    1.750    2.000 
#    0.000    1.250   13.750    0.000    0.000    0.000 
#    0.000    0.000    0.000    0.000    0.000    0.000 
#
# Total GULP energy -89086.130538 kJ/mol
# GULP energy per Si atom -5567.883159 kJ/mol
# Density = 2.276456 g / cm^3
# Si number density = 22.816490 Si / 1000 Ang^3
#
#
#
# Elastic Constant Matrix: (Units=GPa)
#
#
# Indices 1 2 3 4 5 6 
#
# 1 56.1710 13.2763 21.6266 -0.6841 -6.7985 -26.5734
# 2 13.2763 108.3115 22.9408 2.3812 -7.8270 -24.9784
# 3 21.6266 22.9408 146.1178 20.8074 -20.2686 -16.5335
# 4 -0.6841 2.3812 20.8074 40.3323 -6.9038 -10.4995
# 5 -6.7985 -7.8270 -20.2686 -6.9038 26.9494 5.1437
# 6 -26.5734 -24.9784 -16.5335 -10.4995 5.1437 39.5602
#
#
#
# Elastic Compliance Matrix: (Units=1/GPa)
#
#
# Indices 1 2 3 4 5 6 
#
# 1 0.029002 0.002034 -0.002826 0.008000 0.003782 0.021216
# 2 0.002034 0.011256 -0.001211 0.002505 0.001913 0.008383
# 3 -0.002826 -0.001211 0.008541 -0.003788 0.004520 -0.000686
# 4 0.008000 0.002505 -0.003788 0.031016 0.005379 0.012905
# 5 0.003782 0.001913 0.004520 0.005379 0.043115 0.001459
# 6 0.021216 0.008383 -0.000686 0.012905 0.001459 0.047771
#
#
# Mechanical properties :
#
#
# Convention : Reuss Voigt Hill
#
# Bulk Modulus (GPa) = 22.32489 47.36531 34.84510
# Shear Modulus (GPa) = 26.36598 38.21884 32.29241
#
# Velocity S-wave (km/s) = 3.40305 4.09718 3.76614
# Velocity P-wave (km/s) = 5.02462 6.57167 5.84951
#
# Compressibility (1/GPa) = 0.04479306
#
# Stress axis : x y z
#
# Youngs Moduli (GPa) = 34.48027 88.83888 117.08480
#
# Poissons Ratio (x) = -0.18068 0.33087
# Poissons Ratio (y) = -0.07012 0.14179
# Poissons Ratio (z) = 0.09744 0.10758
#
# Static dielectric constant tensor:
#      x y z
#    x 1.965290 0.028830 0.051440 
#    y 0.028830 1.968570 0.026990 
#    z 0.051440 0.026990 2.026200 
# 
# From -- ./inp_files/619013.got.cif
#   From: 2010.05.17/outbox.cif.g08.bks.cpg/sg2_310_cif.got.tgz:619013.got - 2010.06.03 11:33:40.
