data_PCOD9084368
_publ_section_title
;
Structure prediction by ZEFSAII (Michael W. Deem and Ramdas Pophale) SiO2 
 PCOD9084368
Probable space group: P -1
;
_chemical_formula_sum "Si O2"
_cell_formula_units_Z 14
_cell_length_a 12.887276
_cell_length_b 8.923921
_cell_length_c 20.124986
_cell_angle_alpha 44.129583
_cell_angle_beta 154.121431
_cell_angle_gamma 125.242072
_cell_volume 685.138228
_symmetry_space_group_name_H-M "P -1"
_symmetry_group_IT_number 2
_symmetry_cell_setting 'triclinic'
loop_
_space_group_symop_operation_xyz
x,y,z
-x,-y,-z
loop_
_atom_site_type_symbol
_atom_site_label
_atom_site_fract_x
_atom_site_fract_y
_atom_site_fract_z
Si Si1 0.602078 0.527266 0.229817
Si Si2 0.200076 0.040110 0.653544
Si Si3 0.394805 0.347933 0.039246
Si Si4 0.518742 0.365776 0.731190
Si Si5 0.945867 0.959165 0.057790
Si Si6 0.693697 0.139167 0.586928
Si Si7 0.046882 0.160291 0.664963
O O1 0.455282 0.437444 0.116676
O O2 0.437646 0.599360 0.176722
O O3 0.828827 0.333840 0.446524
O O4 0.734327 0.724580 0.223690
O O5 0.265556 0.278660 0.613432
O O6 0.148756 0.993465 0.716032
O O7 0.435237 0.885178 0.807448
O O8 0.000000 0.000000 0.500000
O O9 0.137965 0.276603 0.908885
O O10 0.500000 0.500000 0.000000
O O11 0.742218 0.178338 0.892769
O O12 0.447549 0.603022 0.579598
O O13 0.000000 0.000000 0.000000
O O14 0.182441 0.932712 0.248579
O O15 0.914135 0.094174 0.673889
O O16 0.500000 0.000000 0.500000
#
# Coordination Sequence:
#
# PCOD9084368 Si02
#       7
#     2   2   2   2   2   2   2
#     4   9  17  35  64  89 124 165 202 266 326 375
#     4  10  19  34  63  95 128 166 204 268 335 376
#     4  11  23  37  61  97 131 164 215 272 327 383
#     4   9  23  43  66  93 130 169 218 268 323 393
#     4  11  27  46  65  96 136 171 218 278 331 388
#     4  11  25  43  69  93 128 177 227 263 318 400
#     4   9  18  35  61  92 123 162 217 259 313 392
#
# _framework density 20.433831999999999
#
# number of rings (size 3 to 8) (size 9 to 14) (size 15 to 20)
#    0.000    2.000    1.429    1.714    6.000    2.286 
#    2.571    4.286    0.000    0.000    0.000    0.000 
#    0.000    0.000    0.000    0.000    0.000    0.000 
#
# Total GULP energy -78031.994501 kJ/mol
# GULP energy per Si atom -5573.713893 kJ/mol
# Density = 2.038732 g / cm^3
# Si number density = 20.433832 Si / 1000 Ang^3
#
#
#
# Elastic Constant Matrix: (Units=GPa)
#
#
# Indices 1 2 3 4 5 6 
#
# 1 125.2546 40.5248 40.8908 7.8063 -12.4427 -27.0822
# 2 40.5248 110.5780 58.1029 11.6928 -16.1293 -12.3747
# 3 40.8908 58.1029 74.2009 9.9560 -12.8018 -1.7222
# 4 7.8063 11.6928 9.9560 26.4115 -5.3234 -6.3755
# 5 -12.4427 -16.1293 -12.8018 -5.3234 27.7253 -1.6682
# 6 -27.0822 -12.3747 -1.7222 -6.3755 -1.6682 34.7769
#
#
#
# Elastic Compliance Matrix: (Units=1/GPa)
#
#
# Indices 1 2 3 4 5 6 
#
# 1 0.012394 0.000307 -0.006438 0.001776 0.003707 0.009946
# 2 0.000307 0.016740 -0.012302 -0.000600 0.004423 0.005688
# 3 -0.006438 -0.012302 0.027292 -0.004863 0.001088 -0.008879
# 4 0.001776 -0.000600 -0.004863 0.043063 0.007022 0.009160
# 5 0.003707 0.004423 0.001088 0.007022 0.042628 0.007847
# 6 0.009946 0.005688 -0.008879 0.009160 0.007847 0.040140
#
#
# Mechanical properties :
#
#
# Convention : Reuss Voigt Hill
#
# Bulk Modulus (GPa) = 51.12528 65.45226 58.28877
# Shear Modulus (GPa) = 22.15890 29.15042 25.65466
#
# Velocity S-wave (km/s) = 3.29663 3.78110 3.54715
# Velocity P-wave (km/s) = 6.29004 7.15284 6.73527
#
# Compressibility (1/GPa) = 0.01955979
#
# Stress axis : x y z
#
# Youngs Moduli (GPa) = 80.68148 59.73692 36.64111
#
# Poissons Ratio (x) = -0.01832 0.23591
# Poissons Ratio (y) = -0.02474 0.45074
# Poissons Ratio (z) = 0.51945 0.73486
#
# Static dielectric constant tensor:
#      x y z
#    x 1.828900 0.133290 0.055200 
#    y 0.133290 1.964870 0.040900 
#    z 0.055200 0.040900 1.761260 
# 
# From -- ./inp_files/199070.got.cif
#   From: 2010.05.17/outbox.cif.g08.bks.cpg/sg2_100_cif.got.tgz:199070.got - 2010.06.03 11:33:40.
