data_PCOD9084668
_publ_section_title
;
Structure prediction by ZEFSAII (Michael W. Deem and Ramdas Pophale) SiO2 
 PCOD9084668
Probable space group: P -1
;
_chemical_formula_sum "Si O2"
_cell_formula_units_Z 16
_cell_length_a 8.125839
_cell_length_b 14.431742
_cell_length_c 17.514388
_cell_angle_alpha 153.453828
_cell_angle_beta 75.939630
_cell_angle_gamma 120.181554
_cell_volume 670.245322
_symmetry_space_group_name_H-M "P -1"
_symmetry_group_IT_number 2
_symmetry_cell_setting 'triclinic'
loop_
_space_group_symop_operation_xyz
x,y,z
-x,-y,-z
loop_
_atom_site_type_symbol
_atom_site_label
_atom_site_fract_x
_atom_site_fract_y
_atom_site_fract_z
Si Si1 0.413582 0.692121 0.862276
Si Si2 0.773052 0.388391 0.607248
Si Si3 0.688486 0.784163 0.406744
Si Si4 0.811394 0.054957 0.979827
Si Si5 0.227549 0.773894 0.355641
Si Si6 0.529725 0.071707 0.811470
Si Si7 0.054989 0.853003 0.127218
Si Si8 0.708571 0.606846 0.106928
O O1 0.256311 0.370189 0.662172
O O2 0.289825 0.801823 0.930266
O O3 0.521872 0.841660 0.042070
O O4 0.605898 0.788300 0.851332
O O5 0.554315 0.337029 0.624786
O O6 0.834878 0.274039 0.583081
O O7 0.979702 0.713963 0.819753
O O8 0.688380 0.198254 0.403033
O O9 0.685132 0.706335 0.262402
O O10 0.835492 0.108617 0.615942
O O11 0.896146 0.007623 0.858627
O O12 0.114006 0.471352 0.116387
O O13 0.500000 0.000000 0.500000
O O14 0.667582 0.333324 0.931781
O O15 0.705110 0.034841 0.787827
O O16 0.926073 0.840331 0.204806
O O17 0.500000 0.500000 0.000000
#
# Coordination Sequence:
#
# PCOD9084668 Si02
#       8
#     2   2   2   2   2   2   2   2
#     4   9  20  38  59  80 106 139 185 229 263 317
#     4  10  19  35  56  79 112 146 176 215 272 328
#     4  10  20  33  54  85 111 138 180 227 264 314
#     4   9  19  38  60  77 104 148 184 216 272 325
#     4   9  17  33  53  76 109 143 173 210 267 326
#     4  10  21  36  53  79 110 143 179 217 269 325
#     4  10  20  36  57  77 106 150 180 210 270 330
#     4  11  19  31  51  80 112 138 176 222 265 315
#
# _framework density 23.871856999999999
#
# number of rings (size 3 to 8) (size 9 to 14) (size 15 to 20)
#    0.000    2.250    0.000    4.875    0.000    1.000 
#    0.000   18.125    0.000    9.750    0.000    0.000 
#    0.000    0.000    0.000    0.000    0.000    0.000 
#
# Total GULP energy -89314.362362 kJ/mol
# GULP energy per Si atom -5582.147648 kJ/mol
# Density = 2.381752 g / cm^3
# Si number density = 23.871857 Si / 1000 Ang^3
#
#
#
# Elastic Constant Matrix: (Units=GPa)
#
#
# Indices 1 2 3 4 5 6 
#
# 1 43.5740 15.9936 7.2544 0.3437 2.1122 -10.3998
# 2 15.9936 120.6934 21.5142 3.2325 2.3785 10.1254
# 3 7.2544 21.5142 66.5415 -15.2169 14.6207 -6.3927
# 4 0.3437 3.2325 -15.2169 32.1649 0.6288 2.6441
# 5 2.1122 2.3785 14.6207 0.6288 27.7364 -0.7291
# 6 -10.3998 10.1254 -6.3927 2.6441 -0.7291 24.5577
#
#
#
# Elastic Compliance Matrix: (Units=1/GPa)
#
#
# Indices 1 2 3 4 5 6 
#
# 1 0.028138 -0.004827 -0.000112 -0.000990 -0.001281 0.013946
# 2 -0.004827 0.010356 -0.004466 -0.002547 0.001703 -0.007152
# 3 -0.000112 -0.004466 0.021954 0.010560 -0.011262 0.006037
# 4 -0.000990 -0.002547 0.010560 0.036532 -0.006120 -0.000735
# 5 -0.001281 0.001703 -0.011262 -0.006120 0.042021 -0.002270
# 6 0.013946 -0.007152 0.006037 -0.000735 -0.002270 0.051158
#
#
# Mechanical properties :
#
#
# Convention : Reuss Voigt Hill
#
# Bulk Modulus (GPa) = 24.01678 35.59260 29.80469
# Shear Modulus (GPa) = 22.43683 29.29492 25.86587
#
# Velocity S-wave (km/s) = 3.06908 3.50690 3.29527
# Velocity P-wave (km/s) = 4.75832 5.59822 5.19527
#
# Compressibility (1/GPa) = 0.04163756
#
# Stress axis : x y z
#
# Youngs Moduli (GPa) = 35.53902 96.56443 45.55039
#
# Poissons Ratio (x) = 0.46610 0.00511
# Poissons Ratio (y) = 0.17154 0.20342
# Poissons Ratio (z) = 0.00399 0.43125
#
# Static dielectric constant tensor:
#      x y z
#    x 2.027700 -0.045390 -0.057330 
#    y -0.045390 1.991220 0.010160 
#    z -0.057330 0.010160 1.923810 
# 
# From -- ./inp_files/561420.got.cif
#   From: 2010.05.17/outbox.cif.g08.bks.cpg/sg2_281_cif.got.tgz:561420.got - 2010.06.03 11:33:40.
