data_PCOD9084619
_publ_section_title
;
Structure prediction by ZEFSAII (Michael W. Deem and Ramdas Pophale) SiO2 
 PCOD9084619
Probable space group: P -1
;
_chemical_formula_sum "Si O2"
_cell_formula_units_Z 16
_cell_length_a 27.508476
_cell_length_b 9.140378
_cell_length_c 4.990254
_cell_angle_alpha 84.925628
_cell_angle_beta 92.165557
_cell_angle_gamma 40.867934
_cell_volume 807.164511
_symmetry_space_group_name_H-M "P -1"
_symmetry_group_IT_number 2
_symmetry_cell_setting 'triclinic'
loop_
_space_group_symop_operation_xyz
x,y,z
-x,-y,-z
loop_
_atom_site_type_symbol
_atom_site_label
_atom_site_fract_x
_atom_site_fract_y
_atom_site_fract_z
Si Si1 0.467778 0.752821 0.715842
Si Si2 0.905500 0.164056 0.613636
Si Si3 0.663653 0.533607 0.174514
Si Si4 0.966729 0.325734 0.428195
Si Si5 0.586867 0.844965 0.604844
Si Si6 0.564854 0.505895 0.262599
Si Si7 0.935104 0.688711 0.169194
Si Si8 0.168152 0.806478 0.931626
O O1 0.538764 0.583471 0.552096
O O2 0.433435 0.671047 0.754797
O O3 0.411108 0.992059 0.518703
O O4 0.499515 0.721851 0.018897
O O5 0.927868 0.283320 0.589021
O O6 0.877290 0.172651 0.317426
O O7 0.843005 0.269037 0.799729
O O8 0.980119 0.890915 0.728828
O O9 0.610523 0.745890 0.922915
O O10 0.643617 0.632569 0.451589
O O11 0.638364 0.422444 0.200688
O O12 0.748076 0.363585 0.127242
O O13 0.910428 0.580859 0.266854
O O14 0.022734 0.304622 0.605897
O O15 0.500000 0.000000 0.500000
O O16 0.867358 0.952813 0.035291
O O17 0.000000 0.500000 0.000000
#
# Coordination Sequence:
#
# PCOD9084619 Si02
#       8
#     2   2   2   2   2   2   2   2
#     4  10  20  33  58  85 111 137 190 246 276 338
#     4  10  21  38  60  87 119 155 198 245 293 340
#     4  12  23  38  58  84 120 155 188 240 304 348
#     4   9  20  34  62  91 114 152 204 251 283 334
#     4  12  21  37  62  89 108 147 202 242 281 344
#     4  10  19  35  55  84 112 144 183 234 296 335
#     4  10  19  36  61  91 117 152 204 245 283 346
#     4  11  24  39  56  85 125 159 192 240 302 358
#
# _framework density 19.822476000000002
#
# number of rings (size 3 to 8) (size 9 to 14) (size 15 to 20)
#    0.000    1.500    3.750    1.875    1.750    1.500 
#    0.000    2.500    0.000    0.000    0.000    0.000 
#    0.000    0.000    0.000    0.000    0.000    0.000 
#
# Total GULP energy -89163.953263 kJ/mol
# GULP energy per Si atom -5572.747079 kJ/mol
# Density = 1.977736 g / cm^3
# Si number density = 19.822476 Si / 1000 Ang^3
#
#
#
# Elastic Constant Matrix: (Units=GPa)
#
#
# Indices 1 2 3 4 5 6 
#
# 1 121.3213 46.9791 17.9312 -4.7779 -40.3655 18.3457
# 2 46.9791 60.4029 -6.4624 2.9075 -17.4630 7.9747
# 3 17.9312 -6.4624 61.6435 6.1471 -11.2701 10.6843
# 4 -4.7779 2.9075 6.1471 28.9814 -0.1651 -11.5850
# 5 -40.3655 -17.4630 -11.2701 -0.1651 32.1240 -3.1105
# 6 18.3457 7.9747 10.6843 -11.5850 -3.1105 30.6020
#
#
#
# Elastic Compliance Matrix: (Units=1/GPa)
#
#
# Indices 1 2 3 4 5 6 
#
# 1 0.018920 -0.009494 -0.002736 0.002692 0.017168 -0.005149
# 2 -0.009494 0.028004 0.008997 -0.009331 0.005656 -0.007705
# 3 -0.002736 0.008997 0.022594 -0.010843 0.008175 -0.011867
# 4 0.002692 -0.009331 -0.010843 0.046992 -0.003115 0.022077
# 5 0.017168 0.005656 0.008175 -0.003115 0.057667 -0.009938
# 6 -0.005149 -0.007705 -0.011867 0.022077 -0.009938 0.049263
#
#
# Mechanical properties :
#
#
# Convention : Reuss Voigt Hill
#
# Bulk Modulus (GPa) = 15.85985 40.02929 27.94457
# Shear Modulus (GPa) = 19.92641 30.66948 25.29795
#
# Velocity S-wave (km/s) = 3.17400 3.93772 3.57631
# Velocity P-wave (km/s) = 4.63149 6.39624 5.58402
#
# Compressibility (1/GPa) = 0.06305231
#
# Stress axis : x y z
#
# Youngs Moduli (GPa) = 52.85328 35.70927 44.25920
#
# Poissons Ratio (x) = 0.33904 0.12110
# Poissons Ratio (y) = 0.50181 -0.39822
# Poissons Ratio (z) = 0.14461 -0.32129
#
# Static dielectric constant tensor:
#      x y z
#    x 1.727390 0.035130 0.004580 
#    y 0.035130 1.736890 -0.032390 
#    z 0.004580 -0.032390 1.762830 
# 
# From -- ./inp_files/122509.got.cif
#   From: 2010.05.17/outbox.cif.g08.bks.cpg/sg2_62_cif.got.tgz:122509.got - 2010.06.03 11:33:40.
