data_PCOD9084504
_publ_section_title
;
Structure prediction by ZEFSAII (Michael W. Deem and Ramdas Pophale) SiO2 
 PCOD9084504
Probable space group: P -1
;
_chemical_formula_sum "Si O2"
_cell_formula_units_Z 16
_cell_length_a 14.008586
_cell_length_b 8.587816
_cell_length_c 17.002421
_cell_angle_alpha 75.289785
_cell_angle_beta 146.113210
_cell_angle_gamma 82.599547
_cell_volume 856.873439
_symmetry_space_group_name_H-M "P -1"
_symmetry_group_IT_number 2
_symmetry_cell_setting 'triclinic'
loop_
_space_group_symop_operation_xyz
x,y,z
-x,-y,-z
loop_
_atom_site_type_symbol
_atom_site_label
_atom_site_fract_x
_atom_site_fract_y
_atom_site_fract_z
Si Si1 0.369466 0.898640 0.512010
Si Si2 0.859309 0.241747 0.898046
Si Si3 0.017594 0.833309 0.283524
Si Si4 0.195678 0.513340 0.310164
Si Si5 0.170180 0.269082 0.208504
Si Si6 0.365417 0.180483 0.591110
Si Si7 0.875353 0.495801 0.487640
Si Si8 0.622419 0.208695 0.877738
O O1 0.236471 0.813317 0.439506
O O2 0.627447 0.750131 0.687518
O O3 0.263324 0.059973 0.346137
O O4 0.342589 0.023607 0.555193
O O5 0.739521 0.389599 0.721624
O O6 0.707903 0.285944 0.862775
O O7 0.021023 0.282912 0.037632
O O8 0.000000 0.000000 0.000000
O O9 0.051904 0.692598 0.252029
O O10 0.005758 0.730319 0.365858
O O11 0.805030 0.064472 0.086113
O O12 0.074868 0.441767 0.188772
O O13 0.375718 0.307189 0.511117
O O14 0.162289 0.354964 0.485300
O O15 0.571353 0.083839 0.802458
O O16 0.619468 0.604715 0.279368
O O17 0.000000 0.500000 0.500000
#
# Coordination Sequence:
#
# PCOD9084504 Si02
#       8
#     2   2   2   2   2   2   2   2
#     4  10  19  35  53  83 118 159 195 226 282 337
#     4  12  20  32  52  85 121 155 202 227 269 346
#     4  11  21  39  61  87 113 155 193 240 284 345
#     4  10  21  34  50  81 121 160 192 226 283 328
#     4  10  21  32  50  79 125 163 195 228 267 337
#     4   8  20  38  57  80 113 152 187 240 286 340
#     4   9  22  43  64  86 108 144 197 248 303 347
#     4  10  21  37  60  86 114 151 195 236 285 336
#
# _framework density 18.672536000000001
#
# number of rings (size 3 to 8) (size 9 to 14) (size 15 to 20)
#    0.750    1.250    2.500    1.125    1.750    3.500 
#    0.000    0.625    0.000    0.750    0.000    0.000 
#    0.000    0.000    0.000    0.000    0.000    0.000 
#
# Total GULP energy -89125.970276 kJ/mol
# GULP energy per Si atom -5570.373142 kJ/mol
# Density = 1.863004 g / cm^3
# Si number density = 18.672536 Si / 1000 Ang^3
#
#
#
# Elastic Constant Matrix: (Units=GPa)
#
#
# Indices 1 2 3 4 5 6 
#
# 1 136.5391 28.2618 43.0936 -8.2919 -7.1148 25.1044
# 2 28.2618 61.6848 24.0293 2.8637 -6.8956 0.6594
# 3 43.0936 24.0293 85.7403 6.7527 -3.9549 14.7478
# 4 -8.2919 2.8637 6.7527 21.0942 0.1627 -6.6636
# 5 -7.1148 -6.8956 -3.9549 0.1627 18.5520 -3.6623
# 6 25.1044 0.6594 14.7478 -6.6636 -3.6623 20.0825
#
#
#
# Elastic Compliance Matrix: (Units=1/GPa)
#
#
# Indices 1 2 3 4 5 6 
#
# 1 0.011218 -0.004045 -0.002788 0.002357 0.000000 -0.011061
# 2 -0.004045 0.020712 -0.005085 0.000149 0.006922 0.009422
# 3 -0.002788 -0.005085 0.017389 -0.009982 -0.001679 -0.012736
# 4 0.002357 0.000149 -0.009982 0.059262 0.003172 0.024622
# 5 0.000000 0.006922 -0.001679 0.003172 0.058606 0.012745
# 6 -0.011061 0.009422 -0.012736 0.024622 0.012745 0.083159
#
#
# Mechanical properties :
#
#
# Convention : Reuss Voigt Hill
#
# Bulk Modulus (GPa) = 39.24065 52.74816 45.99440
# Shear Modulus (GPa) = 17.68827 24.51771 21.10299
#
# Velocity S-wave (km/s) = 3.08114 3.62751 3.36544
# Velocity P-wave (km/s) = 5.80678 6.77167 6.30770
#
# Compressibility (1/GPa) = 0.02548378
#
# Stress axis : x y z
#
# Youngs Moduli (GPa) = 89.14411 48.28234 57.50876
#
# Poissons Ratio (x) = 0.19529 0.16031
# Poissons Ratio (y) = 0.36057 0.29241
# Poissons Ratio (z) = 0.24850 0.24550
#
# Static dielectric constant tensor:
#      x y z
#    x 1.625460 -0.000590 -0.002190 
#    y -0.000590 1.688430 -0.027130 
#    z -0.002190 -0.027130 1.708330 
# 
# From -- ./inp_files/325766.got.cif
#   From: 2010.05.17/outbox.cif.g08.bks.cpg/sg2_163_cif.got.tgz:325766.got - 2010.06.03 11:33:40.
