data_PCOD9084836
_publ_section_title
;
Structure prediction by ZEFSAII (Michael W. Deem and Ramdas Pophale) SiO2 
 PCOD9084836
Probable space group: P -1
;
_chemical_formula_sum "Si O2"
_cell_formula_units_Z 14
_cell_length_a 12.914664
_cell_length_b 17.031866
_cell_length_c 7.838492
_cell_angle_alpha 115.750702
_cell_angle_beta 73.921723
_cell_angle_gamma 155.852715
_cell_volume 600.948906
_symmetry_space_group_name_H-M "P -1"
_symmetry_group_IT_number 2
_symmetry_cell_setting 'triclinic'
loop_
_space_group_symop_operation_xyz
x,y,z
-x,-y,-z
loop_
_atom_site_type_symbol
_atom_site_label
_atom_site_fract_x
_atom_site_fract_y
_atom_site_fract_z
Si Si1 0.790010 0.745139 0.530883
Si Si2 0.099782 0.963731 0.270956
Si Si3 0.811937 0.247281 0.427200
Si Si4 0.271274 0.779900 0.158303
Si Si5 0.649883 0.319767 0.518076
Si Si6 0.268137 0.583254 0.032836
Si Si7 0.856131 0.986480 0.068799
O O1 0.500000 0.500000 0.500000
O O2 0.833872 0.882761 0.627629
O O3 0.859771 0.767416 0.327091
O O4 0.017006 0.880794 0.690423
O O5 0.364635 0.121411 0.381265
O O6 0.063217 0.904848 0.038962
O O7 0.772609 0.229180 0.630403
O O8 0.741829 0.289235 0.418657
O O9 0.117163 0.448373 0.447860
O O10 0.588877 0.025260 0.228602
O O11 0.243525 0.656964 0.013159
O O12 0.047947 0.674808 0.069206
O O13 0.653695 0.339704 0.736061
O O14 0.534013 0.734557 0.982378
O O15 0.000000 0.000000 0.000000
#
# Coordination Sequence:
#
# PCOD9084836 Si02
#       7
#     2   2   2   2   2   2   2
#     4  10  22  41  63  89 115 153 210 248 293 361
#     4  10  21  40  63  84 122 160 188 252 308 343
#     4   9  19  35  55  83 115 150 197 238 298 361
#     4   9  19  35  56  84 113 155 197 243 296 355
#     4  10  19  35  57  83 118 154 190 244 300 357
#     4  10  19  35  58  82 120 154 196 248 295 349
#     4  10  21  39  61  85 120 160 198 245 300 359
#
# _framework density 23.296489999999999
#
# number of rings (size 3 to 8) (size 9 to 14) (size 15 to 20)
#    0.000    2.286    1.429    0.857    0.000    3.429 
#    7.714    1.429    0.000    0.000    0.000    0.000 
#    0.000    0.000    0.000    0.000    0.000    0.000 
#
# Total GULP energy -78022.737603 kJ/mol
# GULP energy per Si atom -5573.052686 kJ/mol
# Density = 2.324347 g / cm^3
# Si number density = 23.296490 Si / 1000 Ang^3
#
#
#
# Elastic Constant Matrix: (Units=GPa)
#
#
# Indices 1 2 3 4 5 6 
#
# 1 28.9557 11.6460 10.8119 5.1894 17.2011 15.0495
# 2 11.6460 121.3386 6.1761 7.4272 3.5219 8.7539
# 3 10.8119 6.1761 58.9275 7.8746 23.9763 -4.3293
# 4 5.1894 7.4272 7.8746 31.9474 5.5209 7.7523
# 5 17.2011 3.5219 23.9763 5.5209 27.8781 4.0413
# 6 15.0495 8.7539 -4.3293 7.7523 4.0413 31.8449
#
#
#
# Elastic Compliance Matrix: (Units=1/GPa)
#
#
# Indices 1 2 3 4 5 6 
#
# 1 0.077515 -0.004237 0.002005 0.003045 -0.045243 -0.030196
# 2 -0.004237 0.008752 -0.001162 -0.001415 0.002873 -0.000582
# 3 0.002005 -0.001162 0.028310 -0.004433 -0.025655 0.007556
# 4 0.003045 -0.001415 -0.004433 0.035197 -0.003439 -0.009785
# 5 -0.045243 0.002873 -0.025655 -0.003439 0.085134 0.007137
# 6 -0.030196 -0.000582 0.007556 -0.009785 0.007137 0.048336
#
#
# Mechanical properties :
#
#
# Convention : Reuss Voigt Hill
#
# Bulk Modulus (GPa) = 9.27741 29.60996 19.44368
# Shear Modulus (GPa) = 15.33912 30.37328 22.85620
#
# Velocity S-wave (km/s) = 2.56877 3.61469 3.13565
# Velocity P-wave (km/s) = 3.57618 5.49172 4.63401
#
# Compressibility (1/GPa) = 0.10778875
#
# Stress axis : x y z
#
# Youngs Moduli (GPa) = 12.90066 114.25396 35.32292
#
# Poissons Ratio (x) = 0.48406 -0.07081
# Poissons Ratio (y) = 0.05466 0.04106
# Poissons Ratio (z) = -0.02586 0.13282
#
# Static dielectric constant tensor:
#      x y z
#    x 1.935200 -0.093560 -0.057690 
#    y -0.093560 2.137870 0.052370 
#    z -0.057690 0.052370 1.921190 
# 
# From -- ./inp_files/179707.got.cif
#   From: 2010.05.17/outbox.cif.g08.bks.cpg/sg2_90_cif.got.tgz:179707.got - 2010.06.03 11:33:40.
