data_PCOD9084423
_publ_section_title
;
Structure prediction by ZEFSAII (Michael W. Deem and Ramdas Pophale) SiO2 
 PCOD9084423
Probable space group: P -1
;
_chemical_formula_sum "Si O2"
_cell_formula_units_Z 16
_cell_length_a 20.511483
_cell_length_b 8.817502
_cell_length_c 11.917313
_cell_angle_alpha 128.649251
_cell_angle_beta 43.826469
_cell_angle_gamma 153.970184
_cell_volume 652.987800
_symmetry_space_group_name_H-M "P -1"
_symmetry_group_IT_number 2
_symmetry_cell_setting 'triclinic'
loop_
_space_group_symop_operation_xyz
x,y,z
-x,-y,-z
loop_
_atom_site_type_symbol
_atom_site_label
_atom_site_fract_x
_atom_site_fract_y
_atom_site_fract_z
Si Si1 0.845649 0.457823 0.744249
Si Si2 0.639259 0.390137 0.271527
Si Si3 0.831677 0.280483 0.281249
Si Si4 0.440163 0.314533 0.842994
Si Si5 0.627537 0.273812 0.569546
Si Si6 0.623499 0.392248 0.032700
Si Si7 0.816065 0.309881 0.975364
Si Si8 0.222403 0.995720 0.533889
O O1 0.823359 0.365267 0.859731
O O2 0.741900 0.123509 0.646466
O O3 0.040756 0.765951 0.616085
O O4 0.789850 0.584740 0.859898
O O5 0.654148 0.485160 0.168735
O O6 0.657713 0.612896 0.427624
O O7 0.465734 0.985601 0.328374
O O8 0.780139 0.461701 0.145083
O O9 0.801367 0.460065 0.418624
O O10 0.795694 0.121119 0.372753
O O11 0.011953 0.507069 0.124819
O O12 0.691777 0.978543 0.225840
O O13 0.607613 0.470184 0.698271
O O14 0.450160 0.556369 0.918987
O O15 0.339196 0.086191 0.974812
O O16 0.500000 0.000000 0.500000
O O17 0.500000 0.000000 0.000000
#
# Coordination Sequence:
#
# PCOD9084423 Si02
#       8
#     2   2   2   2   2   2   2   2
#     4   9  22  39  59  94 130 158 205 261 315 362
#     4  10  21  39  66  92 120 167 215 254 311 369
#     4  10  19  34  65  96 123 160 208 261 306 370
#     4  10  20  40  62  90 125 164 210 254 313 368
#     4   9  21  38  55  94 130 155 205 259 311 370
#     4  11  24  40  63  93 124 164 212 258 309 372
#     4   9  20  38  65  93 125 159 210 260 309 373
#     4  10  20  38  66  90 125 165 206 264 306 370
#
# _framework density 24.502753999999999
#
# number of rings (size 3 to 8) (size 9 to 14) (size 15 to 20)
#    0.000    2.250    1.250    0.375    3.500    4.000 
#    0.000    6.875    2.750    2.250    0.000    0.000 
#    0.000    0.000    0.000    0.000    0.000    0.000 
#
# Total GULP energy -89496.464087 kJ/mol
# GULP energy per Si atom -5593.529005 kJ/mol
# Density = 2.444698 g / cm^3
# Si number density = 24.502754 Si / 1000 Ang^3
#
#
#
# Elastic Constant Matrix: (Units=GPa)
#
#
# Indices 1 2 3 4 5 6 
#
# 1 118.3998 28.6260 59.0240 8.7087 -39.8862 -10.9775
# 2 28.6260 40.7458 21.2671 16.7078 -16.2270 -11.8047
# 3 59.0240 21.2671 106.3521 10.1709 -21.4851 3.1823
# 4 8.7087 16.7078 10.1709 35.0376 3.9489 -8.4198
# 5 -39.8862 -16.2270 -21.4851 3.9489 56.4997 -1.1492
# 6 -10.9775 -11.8047 3.1823 -8.4198 -1.1492 35.7373
#
#
#
# Elastic Compliance Matrix: (Units=1/GPa)
#
#
# Indices 1 2 3 4 5 6 
#
# 1 0.015450 -0.002934 -0.006539 -0.000321 0.007693 0.004531
# 2 -0.002934 0.042329 -0.003411 -0.017298 0.010194 0.009637
# 3 -0.006539 -0.003411 0.013998 -0.001950 -0.000235 -0.004849
# 4 -0.000321 -0.017298 -0.001950 0.039204 -0.008609 0.003321
# 5 0.007693 0.010194 -0.000235 -0.008609 0.026663 0.004580
# 6 0.004531 0.009637 -0.004849 0.003321 0.004580 0.033918
#
#
# Mechanical properties :
#
#
# Convention : Reuss Voigt Hill
#
# Bulk Modulus (GPa) = 21.73441 53.70354 37.71897
# Shear Modulus (GPa) = 23.51115 35.89363 29.70239
#
# Velocity S-wave (km/s) = 3.10099 3.83153 3.48545
# Velocity P-wave (km/s) = 4.65950 6.44508 5.62361
#
# Compressibility (1/GPa) = 0.04600999
#
# Stress axis : x y z
#
# Youngs Moduli (GPa) = 64.72473 23.62467 71.43965
#
# Poissons Ratio (x) = 0.06931 0.46712
# Poissons Ratio (y) = 0.18988 0.24368
# Poissons Ratio (z) = 0.42322 0.08058
#
# Static dielectric constant tensor:
#      x y z
#    x 1.980840 0.039640 -0.019710 
#    y 0.039640 1.952020 -0.009610 
#    z -0.019710 -0.009610 2.035570 
# 
# From -- ./inp_files/403484.got.cif
#   From: 2010.05.17/outbox.cif.g08.bks.cpg/sg2_202_cif.got.tgz:403484.got - 2010.06.03 11:33:40.
