data_PCOD9084943
_publ_section_title
;
Structure prediction by ZEFSAII (Michael W. Deem and Ramdas Pophale) SiO2 
 PCOD9084943
Probable space group: P -1
;
_chemical_formula_sum "Si O2"
_cell_formula_units_Z 15
_cell_length_a 16.774912
_cell_length_b 8.651967
_cell_length_c 19.580404
_cell_angle_alpha 45.925844
_cell_angle_beta 21.743524
_cell_angle_gamma 58.298863
_cell_volume 674.224149
_symmetry_space_group_name_H-M "P -1"
_symmetry_group_IT_number 2
_symmetry_cell_setting 'triclinic'
loop_
_space_group_symop_operation_xyz
x,y,z
-x,-y,-z
loop_
_atom_site_type_symbol
_atom_site_label
_atom_site_fract_x
_atom_site_fract_y
_atom_site_fract_z
Si Si1 0.025053 0.343522 0.430849
Si Si2 0.130917 0.465483 0.973318
Si Si3 0.738313 0.591638 0.627180
Si Si4 0.500000 0.000000 0.500000
Si Si5 0.223573 0.200583 0.189321
Si Si6 0.733362 0.787641 0.277098
Si Si7 0.538837 0.705957 0.305154
Si Si8 0.207241 0.905686 0.539450
O O1 0.912262 0.530562 0.458783
O O2 0.163676 0.397848 0.376330
O O3 0.196137 0.335494 0.237072
O O4 0.808420 0.067881 0.687427
O O5 0.322028 0.733649 0.758441
O O6 0.276199 0.309134 0.891402
O O7 0.000000 0.500000 0.000000
O O8 0.920353 0.315398 0.239344
O O9 0.738541 0.848059 0.539795
O O10 0.471282 0.373819 0.902870
O O11 0.550216 0.864543 0.436729
O O12 0.991830 0.142696 0.344925
O O13 0.665770 0.729365 0.270111
O O14 0.694801 0.555229 0.423888
O O15 0.000000 0.000000 0.000000
O O16 0.442088 0.903743 0.319175
#
# Coordination Sequence:
#
# PCOD9084943 Si02
#       8
#     2   2   2   1   2   2   2   2
#     4   9  20  40  64  91 118 155 197 232 285 353
#     4  11  23  41  60  80 113 157 202 247 293 345
#     4  10  21  38  63  90 121 156 192 237 289 350
#     4  10  20  34  58  80  98 140 194 238 284 336
#     4  10  21  38  62  89 122 155 192 239 288 350
#     4  10  19  35  58  78  99 141 193 239 289 344
#     4  10  22  37  54  79 114 147 186 242 295 344
#     4  11  24  38  55  89 123 152 195 245 296 348
#
# _framework density 22.247793000000001
#
# number of rings (size 3 to 8) (size 9 to 14) (size 15 to 20)
#    0.000    1.867    0.000    4.800    0.000    5.333 
#    0.000    5.333    0.000    0.000    0.000    0.000 
#    0.000    0.000    0.000    0.000    0.000    0.000 
#
# Total GULP energy -83515.590312 kJ/mol
# GULP energy per Si atom -5567.706021 kJ/mol
# Density = 2.219716 g / cm^3
# Si number density = 22.247793 Si / 1000 Ang^3
#
#
#
# Elastic Constant Matrix: (Units=GPa)
#
#
# Indices 1 2 3 4 5 6 
#
# 1 19.1420 3.9967 -9.3405 3.4323 0.5934 5.2978
# 2 3.9967 142.7136 11.3233 15.7593 -6.0079 8.6326
# 3 -9.3405 11.3233 62.9967 5.1048 -11.9032 -3.6806
# 4 3.4323 15.7593 5.1048 29.5436 3.2264 4.6471
# 5 0.5934 -6.0079 -11.9032 3.2264 21.2087 2.5020
# 6 5.2978 8.6326 -3.6806 4.6471 2.5020 20.0577
#
#
#
# Elastic Compliance Matrix: (Units=1/GPa)
#
#
# Indices 1 2 3 4 5 6 
#
# 1 0.062267 -0.000678 0.010409 -0.007287 0.006595 -0.013379
# 2 -0.000678 0.007792 -0.000857 -0.003780 0.002649 -0.002786
# 3 0.010409 -0.000857 0.020294 -0.005716 0.011581 0.001223
# 4 -0.007287 -0.003780 -0.005716 0.039595 -0.009451 -0.005492
# 5 0.006595 0.002649 0.011581 -0.009451 0.056314 -0.005592
# 6 -0.013379 -0.002786 0.001223 -0.005492 -0.005592 0.056783
#
#
# Mechanical properties :
#
#
# Convention : Reuss Voigt Hill
#
# Bulk Modulus (GPa) = 9.25065 26.31236 17.78150
# Shear Modulus (GPa) = 19.13288 28.75350 23.94319
#
# Velocity S-wave (km/s) = 2.93574 3.59892 3.28412
# Velocity P-wave (km/s) = 3.95708 5.39651 4.73185
#
# Compressibility (1/GPa) = 0.10810056
#
# Stress axis : x y z
#
# Youngs Moduli (GPa) = 16.05989 128.34465 49.27531
#
# Poissons Ratio (x) = 0.08704 -0.51291
# Poissons Ratio (y) = 0.01089 0.04223
# Poissons Ratio (z) = -0.16717 0.10999
#
# Static dielectric constant tensor:
#      x y z
#    x 1.824120 -0.019590 -0.005260 
#    y -0.019590 1.799910 -0.004270 
#    z -0.005260 -0.004270 1.802930 
# 
# From -- ./inp_files/105718.got.cif
#   From: 2010.05.17/outbox.cif.g08.bks.cpg/sg2_53_cif.got.tgz:105718.got - 2010.06.03 11:33:40.
