data_PCOD9084076
_publ_section_title
;
Structure prediction by ZEFSAII (Michael W. Deem and Ramdas Pophale) SiO2 
 PCOD9084076
Probable space group: P -1
;
_chemical_formula_sum "Si O2"
_cell_formula_units_Z 10
_cell_length_a 9.847018
_cell_length_b 18.851012
_cell_length_c 7.314719
_cell_angle_alpha 46.332948
_cell_angle_beta 47.506293
_cell_angle_gamma 22.363841
_cell_volume 370.321477
_symmetry_space_group_name_H-M "P -1"
_symmetry_group_IT_number 2
_symmetry_cell_setting 'triclinic'
loop_
_space_group_symop_operation_xyz
x,y,z
-x,-y,-z
loop_
_atom_site_type_symbol
_atom_site_label
_atom_site_fract_x
_atom_site_fract_y
_atom_site_fract_z
Si Si1 0.429997 0.507915 0.763314
Si Si2 0.609049 0.225788 0.978578
Si Si3 0.353231 0.955501 0.200659
Si Si4 0.632876 0.848607 0.765209
Si Si5 0.446862 0.700260 0.525058
O O1 0.500000 0.500000 0.500000
O O2 0.567237 0.333651 0.967053
O O3 0.584497 0.523483 0.725565
O O4 0.997880 0.698947 0.810200
O O5 0.514772 0.304194 0.720263
O O6 0.343685 0.255931 0.202282
O O7 0.000000 0.000000 0.000000
O O8 0.559145 0.755717 0.407984
O O9 0.337310 0.961039 0.986566
O O10 0.976132 0.116730 0.361637
O O11 0.500000 0.000000 0.000000
O O12 0.500000 0.000000 0.500000
#
# Coordination Sequence:
#
# PCOD9084076 Si02
#       5
#     2   2   2   2   2
#     4  10  19  35  57  85 121 151 196 244 286 345
#     4  10  21  36  60  87 117 154 197 249 290 340
#     4  10  19  34  60  86 118 155 192 233 294 355
#     4  11  21  35  60  91 116 155 197 237 292 351
#     4   9  19  35  57  86 113 156 191 237 294 346
#
# _framework density 27.003565999999999
#
# number of rings (size 3 to 8) (size 9 to 14) (size 15 to 20)
#    0.000    2.000    2.000    3.000    0.000    0.000 
#    0.000    0.000    0.000   37.200    0.000    0.000 
#    0.000    0.000    0.000    0.000    0.000    0.000 
#
# Total GULP energy -55699.189082 kJ/mol
# GULP energy per Si atom -5569.918908 kJ/mol
# Density = 2.694210 g / cm^3
# Si number density = 27.003566 Si / 1000 Ang^3
#
#
#
# Elastic Constant Matrix: (Units=GPa)
#
#
# Indices 1 2 3 4 5 6 
#
# 1 150.1769 46.2226 38.5504 -25.2981 -67.7376 43.4582
# 2 46.2226 117.3296 31.6683 -12.4599 -24.8625 22.0470
# 3 38.5504 31.6683 138.6437 -30.6399 -45.7532 25.2615
# 4 -25.2981 -12.4599 -30.6399 43.9128 15.4716 -16.6137
# 5 -67.7376 -24.8625 -45.7532 15.4716 58.4967 -24.6694
# 6 43.4582 22.0470 25.2615 -16.6137 -24.6694 54.6017
#
#
#
# Elastic Compliance Matrix: (Units=1/GPa)
#
#
# Indices 1 2 3 4 5 6 
#
# 1 0.016510 -0.002410 0.003436 0.003118 0.017981 -0.004684
# 2 -0.002410 0.010102 -0.001451 -0.000047 -0.000314 -0.001645
# 3 0.003436 -0.001451 0.011425 0.005470 0.010399 -0.001072
# 4 0.003118 -0.000047 0.005470 0.029485 0.002159 0.004954
# 5 0.017981 -0.000314 0.010399 0.002159 0.046465 0.002655
# 6 -0.004684 -0.001645 -0.001072 0.004954 0.002655 0.025910
#
#
# Mechanical properties :
#
#
# Convention : Reuss Voigt Hill
#
# Bulk Modulus (GPa) = 26.89211 71.00365 48.94788
# Shear Modulus (GPa) = 32.64950 50.71618 41.68284
#
# Velocity S-wave (km/s) = 3.48096 4.33844 3.93314
# Velocity P-wave (km/s) = 5.11238 7.17268 6.22831
#
# Compressibility (1/GPa) = 0.03718562
#
# Stress axis : x y z
#
# Youngs Moduli (GPa) = 60.57117 98.99157 87.52942
#
# Poissons Ratio (x) = 0.23857 -0.30077
# Poissons Ratio (y) = 0.14598 0.12704
# Poissons Ratio (z) = -0.20813 0.14368
#
# Static dielectric constant tensor:
#      x y z
#    x 2.406960 0.168540 -0.153160 
#    y 0.168540 1.979770 -0.145950 
#    z -0.153160 -0.145950 2.208300 
# 
# From -- ./inp_files/151878.got.cif
#   From: 2010.05.17/outbox.cif.g08.bks.cpg/sg2_76_cif.got.tgz:151878.got - 2010.06.03 11:33:40.
