data_PCOD9084415
_publ_section_title
;
Structure prediction by ZEFSAII (Michael W. Deem and Ramdas Pophale) SiO2 
 PCOD9084415
Probable space group: P -1
;
_chemical_formula_sum "Si O2"
_cell_formula_units_Z 16
_cell_length_a 16.602714
_cell_length_b 22.385335
_cell_length_c 9.278713
_cell_angle_alpha 141.018949
_cell_angle_beta 140.483408
_cell_angle_gamma 21.797902
_cell_volume 787.124468
_symmetry_space_group_name_H-M "P -1"
_symmetry_group_IT_number 2
_symmetry_cell_setting 'triclinic'
loop_
_space_group_symop_operation_xyz
x,y,z
-x,-y,-z
loop_
_atom_site_type_symbol
_atom_site_label
_atom_site_fract_x
_atom_site_fract_y
_atom_site_fract_z
Si Si1 0.487745 0.257479 0.688341
Si Si2 0.639305 0.819465 0.864872
Si Si3 0.156049 0.523185 0.956287
Si Si4 0.737325 0.641216 0.928195
Si Si5 0.294552 0.699848 0.092137
Si Si6 0.566510 0.353819 0.511754
Si Si7 0.920998 0.941268 0.812888
Si Si8 0.215408 0.685711 0.505256
O O1 0.446731 0.206818 0.412722
O O2 0.266155 0.434678 0.789243
O O3 0.612725 0.266853 0.801962
O O4 0.656307 0.109739 0.762754
O O5 0.629061 0.789306 0.959532
O O6 0.893212 0.677056 0.898273
O O7 0.500000 0.000000 0.000000
O O8 0.263856 0.377973 0.939453
O O9 0.204908 0.598497 0.227580
O O10 0.606835 0.625758 0.667346
O O11 0.000000 0.500000 0.000000
O O12 0.273370 0.736521 0.300698
O O13 0.500000 0.500000 0.000000
O O14 0.063736 0.816231 0.911805
O O15 0.406471 0.543599 0.619311
O O16 0.712987 0.268695 0.407792
O O17 0.997196 0.836119 0.579087
O O18 0.000000 0.000000 0.000000
#
# Coordination Sequence:
#
# PCOD9084415 Si02
#       8
#     2   2   2   2   2   2   2   2
#     4  11  23  41  61  92 128 165 210 258 317 371
#     4  11  22  42  68  91 125 165 210 261 313 371
#     4  10  22  40  67  91 124 166 212 256 310 377
#     4   9  20  38  61  92 118 163 210 255 311 371
#     4  11  20  37  60  91 124 166 208 255 313 372
#     4  10  19  34  65  89 121 161 210 260 301 383
#     4  10  23  36  55  86 130 164 204 253 314 367
#     4  10  20  37  62  93 122 163 209 252 322 368
#
# _framework density 20.327154
#
# number of rings (size 3 to 8) (size 9 to 14) (size 15 to 20)
#    0.000    1.750    2.500    1.875    8.750    0.000 
#    0.000    6.875    0.000    0.000    0.000    0.000 
#    0.000    0.000    0.000    0.000    0.000    0.000 
#
# Total GULP energy -89098.991963 kJ/mol
# GULP energy per Si atom -5568.686998 kJ/mol
# Density = 2.028089 g / cm^3
# Si number density = 20.327154 Si / 1000 Ang^3
#
#
#
# Elastic Constant Matrix: (Units=GPa)
#
#
# Indices 1 2 3 4 5 6 
#
# 1 93.5048 40.1221 23.8089 -2.0990 -0.4272 9.2516
# 2 40.1221 115.5468 38.1285 -8.1692 -1.8735 12.7431
# 3 23.8089 38.1285 61.5983 0.0012 3.6435 6.6294
# 4 -2.0990 -8.1692 0.0012 32.2435 -2.3005 -4.1532
# 5 -0.4272 -1.8735 3.6435 -2.3005 26.9942 -2.2074
# 6 9.2516 12.7431 6.6294 -4.1532 -2.2074 35.4365
#
#
#
# Elastic Compliance Matrix: (Units=1/GPa)
#
#
# Indices 1 2 3 4 5 6 
#
# 1 0.013032 -0.003454 -0.002731 -0.000228 0.000180 -0.001665
# 2 -0.003454 0.012336 -0.006193 0.002773 0.001715 -0.001944
# 3 -0.002731 -0.006193 0.021511 -0.002214 -0.003694 -0.001574
# 4 -0.000228 0.002773 -0.002214 0.032404 0.003535 0.003495
# 5 0.000180 0.001715 -0.003694 0.003535 0.038197 0.002821
# 6 -0.001665 -0.001944 -0.001574 0.003495 0.002821 0.030233
#
#
# Mechanical properties :
#
#
# Convention : Reuss Voigt Hill
#
# Bulk Modulus (GPa) = 45.19985 52.75210 48.97597
# Shear Modulus (GPa) = 27.80204 30.17420 28.98812
#
# Velocity S-wave (km/s) = 3.70229 3.85701 3.78044
# Velocity P-wave (km/s) = 6.36871 6.77076 6.57281
#
# Compressibility (1/GPa) = 0.02212397
#
# Stress axis : x y z
#
# Youngs Moduli (GPa) = 76.73173 81.06665 46.48794
#
# Poissons Ratio (x) = 0.27999 0.12695
# Poissons Ratio (y) = 0.26502 0.28789
# Poissons Ratio (z) = 0.20954 0.50203
#
# Static dielectric constant tensor:
#      x y z
#    x 1.746720 -0.004160 -0.012880 
#    y -0.004160 1.766700 -0.022690 
#    z -0.012880 -0.022690 1.775630 
# 
# From -- ./inp_files/338694.got.cif
#   From: 2010.05.17/outbox.cif.g08.bks.cpg/sg2_170_cif.got.tgz:338694.got - 2010.06.03 11:33:40.
