data_PCOD9084311
_publ_section_title
;
Structure prediction by ZEFSAII (Michael W. Deem and Ramdas Pophale) SiO2 
 PCOD9084311
Probable space group: P -1
;
_chemical_formula_sum "Si O2"
_cell_formula_units_Z 16
_cell_length_a 5.601513
_cell_length_b 21.261531
_cell_length_c 7.585111
_cell_angle_alpha 134.061995
_cell_angle_beta 112.767294
_cell_angle_gamma 68.779862
_cell_volume 592.663328
_symmetry_space_group_name_H-M "P -1"
_symmetry_group_IT_number 2
_symmetry_cell_setting 'triclinic'
loop_
_space_group_symop_operation_xyz
x,y,z
-x,-y,-z
loop_
_atom_site_type_symbol
_atom_site_label
_atom_site_fract_x
_atom_site_fract_y
_atom_site_fract_z
Si Si1 0.825415 0.966240 0.231448
Si Si2 0.529717 0.815830 0.999416
Si Si3 0.002520 0.826434 0.731833
Si Si4 0.923179 0.355641 0.396911
Si Si5 0.642380 0.610461 0.619158
Si Si6 0.473209 0.851696 0.450797
Si Si7 0.872605 0.577271 0.986923
Si Si8 0.693709 0.328360 0.887677
O O1 0.710019 0.885200 0.128851
O O2 0.620635 0.053320 0.307627
O O3 0.949509 0.920497 0.002212
O O4 0.000000 0.000000 0.500000
O O5 0.415676 0.849291 0.221231
O O6 0.648733 0.714550 0.865488
O O7 0.314111 0.814093 0.782662
O O8 0.785155 0.829826 0.526609
O O9 0.971263 0.739801 0.674413
O O10 0.661960 0.394808 0.505179
O O11 0.167721 0.407319 0.527657
O O12 0.802536 0.343897 0.145398
O O13 0.761785 0.558493 0.722862
O O14 0.326099 0.774827 0.336559
O O15 0.608088 0.625003 0.099814
O O16 0.103891 0.636039 0.119340
O O17 0.000000 0.500000 0.000000
#
# Coordination Sequence:
#
# PCOD9084311 Si02
#       8
#     2   2   2   2   2   2   2   2
#     4  12  24  41  63  84 127 170 218 272 321 372
#     4  11  22  44  58  85 125 167 215 266 318 380
#     4  11  23  41  59  88 122 169 227 256 326 369
#     4   9  16  35  57  81 116 158 203 250 299 372
#     4   9  17  32  62  80 120 157 202 248 310 375
#     4  12  24  40  62  92 124 171 212 276 314 383
#     4  10  19  34  62  95 125 159 209 263 316 392
#     4  10  20  38  58  91 129 163 211 258 322 387
#
# _framework density 26.996779
#
# number of rings (size 3 to 8) (size 9 to 14) (size 15 to 20)
#    0.000    1.500    6.250    1.125    1.750    0.500 
#    4.500    0.000    0.000    0.000    0.000   33.250 
#    0.000    0.000    0.000    0.000    0.000    0.000 
#
# Total GULP energy -89617.507158 kJ/mol
# GULP energy per Si atom -5601.094197 kJ/mol
# Density = 2.693533 g / cm^3
# Si number density = 26.996779 Si / 1000 Ang^3
#
#
#
# Elastic Constant Matrix: (Units=GPa)
#
#
# Indices 1 2 3 4 5 6 
#
# 1 158.9432 39.1189 29.0779 7.6011 17.8909 -14.2020
# 2 39.1189 118.0688 31.7537 2.9065 0.9849 -20.1813
# 3 29.0779 31.7537 91.1337 -22.7414 12.2480 4.4819
# 4 7.6011 2.9065 -22.7414 58.3370 0.0381 1.9896
# 5 17.8909 0.9849 12.2480 0.0381 40.9164 8.7136
# 6 -14.2020 -20.1813 4.4819 1.9896 8.7136 39.2873
#
#
#
# Elastic Compliance Matrix: (Units=1/GPa)
#
#
# Indices 1 2 3 4 5 6 
#
# 1 0.007789 -0.001369 -0.002185 -0.001906 -0.003401 0.003213
# 2 -0.001369 0.011124 -0.004342 -0.002264 0.000410 0.005738
# 3 -0.002185 -0.004342 0.015419 0.006668 -0.002595 -0.004541
# 4 -0.001906 -0.002264 0.006668 0.020224 -0.000370 -0.003555
# 5 -0.003401 0.000410 -0.002595 -0.000370 0.028175 -0.006953
# 6 0.003213 0.005738 -0.004541 -0.003555 -0.006953 0.031803
#
#
# Mechanical properties :
#
#
# Convention : Reuss Voigt Hill
#
# Bulk Modulus (GPa) = 53.93266 63.11629 58.52448
# Shear Modulus (GPa) = 36.62880 45.58784 41.10832
#
# Velocity S-wave (km/s) = 3.68745 4.11376 3.90643
# Velocity P-wave (km/s) = 6.17661 6.78189 6.48632
#
# Compressibility (1/GPa) = 0.01854164
#
# Stress axis : x y z
#
# Youngs Moduli (GPa) = 128.38297 89.89630 64.85591
#
# Poissons Ratio (x) = 0.12304 0.14170
# Poissons Ratio (y) = 0.17572 0.28158
# Poissons Ratio (z) = 0.28050 0.39029
#
# Static dielectric constant tensor:
#      x y z
#    x 2.291390 -0.116000 -0.114930 
#    y -0.116000 2.144920 0.083250 
#    z -0.114930 0.083250 2.103110 
# 
# From -- ./inp_files/116583.got.cif
#   From: 2010.05.17/outbox.cif.g08.bks.cpg/sg2_59_cif.got.tgz:116583.got - 2010.06.03 11:33:40.
