data_PCOD9084644
_publ_section_title
;
Structure prediction by ZEFSAII (Michael W. Deem and Ramdas Pophale) SiO2 
 PCOD9084644
Probable space group: P -1
;
_chemical_formula_sum "Si O2"
_cell_formula_units_Z 16
_cell_length_a 8.971230
_cell_length_b 16.593419
_cell_length_c 5.310713
_cell_angle_alpha 88.362709
_cell_angle_beta 80.925074
_cell_angle_gamma 130.452181
_cell_volume 584.968746
_symmetry_space_group_name_H-M "P -1"
_symmetry_group_IT_number 2
_symmetry_cell_setting 'triclinic'
loop_
_space_group_symop_operation_xyz
x,y,z
-x,-y,-z
loop_
_atom_site_type_symbol
_atom_site_label
_atom_site_fract_x
_atom_site_fract_y
_atom_site_fract_z
Si Si1 0.715583 0.850362 0.040611
Si Si2 0.219579 0.688238 0.392568
Si Si3 0.504467 0.119543 0.294794
Si Si4 0.261740 0.283986 0.616390
Si Si5 0.874599 0.200119 0.948813
Si Si6 0.255948 0.372466 0.101498
Si Si7 0.907836 0.035944 0.342807
Si Si8 0.856334 0.492513 0.833027
O O1 0.675456 0.782921 0.307692
O O2 0.814881 0.965603 0.119409
O O3 0.554380 0.830829 0.894483
O O4 0.878348 0.855879 0.833525
O O5 0.371688 0.790771 0.524491
O O6 0.150143 0.725436 0.196555
O O7 0.277519 0.624035 0.249754
O O8 0.017741 0.588685 0.593929
O O9 0.295219 0.007118 0.458737
O O10 0.652922 0.106935 0.124995
O O11 0.015279 0.196809 0.726613
O O12 0.320804 0.350039 0.340032
O O13 0.336666 0.365037 0.820352
O O14 0.016146 0.268698 0.143386
O O15 0.271905 0.474571 0.061765
O O16 0.000000 0.000000 0.500000
O O17 0.000000 0.500000 0.000000
#
# Coordination Sequence:
#
# PCOD9084644 Si02
#       8
#     2   2   2   2   2   2   2   2
#     4  10  22  39  62  89 115 159 205 250 302 374
#     4  11  19  31  55  87 123 158 200 251 308 347
#     4  11  20  36  60  89 123 154 200 260 306 354
#     4  10  21  37  61  86 123 166 203 239 311 372
#     4  10  19  35  55  91 119 161 197 251 302 358
#     4  10  20  35  57  87 123 160 204 247 297 361
#     4   9  21  38  62  87 115 150 206 257 300 357
#     4  11  18  30  54  88 122 157 207 252 295 352
#
# _framework density 27.351891999999999
#
# number of rings (size 3 to 8) (size 9 to 14) (size 15 to 20)
#    0.750    1.000    3.750    0.750    5.250    0.000 
#    0.000    0.625    0.000   12.750    0.000    0.000 
#    0.000    0.000    0.000    0.000    0.000    0.000 
#
# Total GULP energy -89321.235806 kJ/mol
# GULP energy per Si atom -5582.577238 kJ/mol
# Density = 2.728964 g / cm^3
# Si number density = 27.351892 Si / 1000 Ang^3
#
#
#
# Elastic Constant Matrix: (Units=GPa)
#
#
# Indices 1 2 3 4 5 6 
#
# 1 87.3535 38.3284 40.7761 -16.5855 16.1189 13.6135
# 2 38.3284 71.7315 18.9395 12.8077 18.1731 17.7981
# 3 40.7761 18.9395 155.9892 -12.6558 43.0096 7.6656
# 4 -16.5855 12.8077 -12.6558 41.3344 6.2432 -4.4429
# 5 16.1189 18.1731 43.0096 6.2432 62.5602 -17.1547
# 6 13.6135 17.7981 7.6656 -4.4429 -17.1547 48.7148
#
#
#
# Elastic Compliance Matrix: (Units=1/GPa)
#
#
# Indices 1 2 3 4 5 6 
#
# 1 0.020157 -0.011645 -0.002599 0.011044 -0.001235 -0.000397
# 2 -0.011645 0.026393 0.001292 -0.012480 -0.007116 -0.010236
# 3 -0.002599 0.001292 0.009290 0.002117 -0.007285 -0.003580
# 4 0.011044 -0.012480 0.002117 0.033959 -0.003212 0.003106
# 5 -0.001235 -0.007116 -0.007285 -0.003212 0.027385 0.013442
# 6 -0.000397 -0.010236 -0.003580 0.003106 0.013442 0.029959
#
#
# Mechanical properties :
#
#
# Convention : Reuss Voigt Hill
#
# Bulk Modulus (GPa) = 33.40501 56.79579 45.10040
# Shear Modulus (GPa) = 27.31874 44.99056 36.15465
#
# Velocity S-wave (km/s) = 3.16379 4.06011 3.63965
# Velocity P-wave (km/s) = 5.05823 6.54135 5.84700
#
# Compressibility (1/GPa) = 0.02993563
#
# Stress axis : x y z
#
# Youngs Moduli (GPa) = 49.60999 37.88878 107.64814
#
# Poissons Ratio (x) = 0.44121 0.27980
# Poissons Ratio (y) = 0.57770 -0.13909
# Poissons Ratio (z) = 0.12895 -0.04895
#
# Static dielectric constant tensor:
#      x y z
#    x 2.187530 -0.011320 -0.101610 
#    y -0.011320 2.195800 -0.062410 
#    z -0.101610 -0.062410 2.267940 
# 
# From -- ./inp_files/82143.got.cif
#   From: 2010.05.17/outbox.cif.g08.bks.cpg/sg2_42_cif.got.tgz:82143.got - 2010.06.03 11:33:40.
