data_PCOD9084626
_publ_section_title
;
Structure prediction by ZEFSAII (Michael W. Deem and Ramdas Pophale) SiO2 
 PCOD9084626
Probable space group: P -1
;
_chemical_formula_sum "Si O2"
_cell_formula_units_Z 16
_cell_length_a 24.806334
_cell_length_b 25.269507
_cell_length_c 9.790278
_cell_angle_alpha 148.489779
_cell_angle_beta 145.779507
_cell_angle_gamma 11.901108
_cell_volume 659.923026
_symmetry_space_group_name_H-M "P -1"
_symmetry_group_IT_number 2
_symmetry_cell_setting 'triclinic'
loop_
_space_group_symop_operation_xyz
x,y,z
-x,-y,-z
loop_
_atom_site_type_symbol
_atom_site_label
_atom_site_fract_x
_atom_site_fract_y
_atom_site_fract_z
Si Si1 0.713317 0.368848 0.811065
Si Si2 0.076535 0.650049 0.424039
Si Si3 0.776755 0.675936 0.819975
Si Si4 0.280218 0.863366 0.809249
Si Si5 0.214517 0.788222 0.100378
Si Si6 0.952930 0.474958 0.173555
Si Si7 0.398893 0.948540 0.082036
Si Si8 0.614435 0.174358 0.472789
O O1 0.445453 0.687575 0.909252
O O2 0.674851 0.289686 0.507213
O O3 0.799426 0.272392 0.935431
O O4 0.964887 0.175552 0.845087
O O5 0.191002 0.473265 0.401442
O O6 0.308223 0.502252 0.563167
O O7 0.064424 0.592058 0.134371
O O8 0.781917 0.982783 0.537811
O O9 0.879506 0.602578 0.723183
O O10 0.000000 0.500000 0.000000
O O11 0.500000 0.000000 0.000000
O O12 0.392598 0.853545 0.951023
O O13 0.217932 0.901695 0.412090
O O14 0.500000 0.500000 0.000000
O O15 0.000000 0.000000 0.000000
O O16 0.648549 0.775508 0.238349
O O17 0.118894 0.277989 0.219251
O O18 0.401672 0.904926 0.835648
#
# Coordination Sequence:
#
# PCOD9084626 Si02
#       8
#     2   2   2   2   2   2   2   2
#     4  10  21  35  51  75  93 129 170 209 262 298
#     4   9  17  27  44  60  90 129 165 205 228 279
#     4  10  16  26  39  61  93 131 167 194 232 287
#     4  10  19  33  54  71 100 125 166 217 246 299
#     4  12  24  38  54  72 101 135 169 220 262 302
#     4   9  17  24  40  64  95 126 162 190 236 291
#     4  10  17  29  45  69  95 129 159 205 240 283
#     4  10  19  32  45  68  91 125 175 203 243 296
#
# _framework density 24.245251
#
# number of rings (size 3 to 8) (size 9 to 14) (size 15 to 20)
#    0.000    2.000    1.250    6.000    0.000    0.000 
#    0.000    0.000    0.000    0.000    0.000    0.000 
#    0.000    0.000    0.000   78.750    0.000    8.750 
#
# Total GULP energy -89130.739531 kJ/mol
# GULP energy per Si atom -5570.671221 kJ/mol
# Density = 2.419007 g / cm^3
# Si number density = 24.245251 Si / 1000 Ang^3
#
#
#
# Elastic Constant Matrix: (Units=GPa)
#
#
# Indices 1 2 3 4 5 6 
#
# 1 111.9076 66.3656 12.2123 -10.7858 17.3468 8.3060
# 2 66.3656 204.4875 20.8018 -13.8034 7.3320 20.0503
# 3 12.2123 20.8018 36.6273 -10.2963 -2.9102 -3.4193
# 4 -10.7858 -13.8034 -10.2963 24.6047 -4.6571 0.7483
# 5 17.3468 7.3320 -2.9102 -4.6571 25.9893 -3.6113
# 6 8.3060 20.0503 -3.4193 0.7483 -3.6113 34.2358
#
#
#
# Elastic Compliance Matrix: (Units=1/GPa)
#
#
# Indices 1 2 3 4 5 6 
#
# 1 0.012696 -0.003229 -0.002957 0.001068 -0.008030 -0.002355
# 2 -0.003229 0.006642 -0.002690 0.001237 -0.000275 -0.003431
# 3 -0.002957 -0.002690 0.035029 0.013545 0.009992 0.006549
# 4 0.001068 0.001237 0.013545 0.049228 0.009314 0.000275
# 5 -0.008030 -0.000275 0.009992 0.009314 0.047807 0.007946
# 6 -0.002355 -0.003431 0.006549 0.000275 0.007946 0.033276
#
#
# Mechanical properties :
#
#
# Convention : Reuss Voigt Hill
#
# Bulk Modulus (GPa) = 27.31098 61.30911 44.31005
# Shear Modulus (GPa) = 23.29563 33.87548 28.58556
#
# Velocity S-wave (km/s) = 3.10309 3.74197 3.43741
# Velocity P-wave (km/s) = 4.91201 6.63413 5.83693
#
# Compressibility (1/GPa) = 0.03661530
#
# Stress axis : x y z
#
# Youngs Moduli (GPa) = 78.76597 150.56768 28.54813
#
# Poissons Ratio (x) = 0.48613 0.08441
# Poissons Ratio (y) = 0.25431 0.07679
# Poissons Ratio (z) = 0.23291 0.40499
#
# Static dielectric constant tensor:
#      x y z
#    x 1.972120 0.036450 0.000350 
#    y 0.036450 1.903990 0.147530 
#    z 0.000350 0.147530 1.999190 
# 
# From -- ./inp_files/477177.got.cif
#   From: 2010.05.17/outbox.cif.g08.bks.cpg/sg2_239_cif.got.tgz:477177.got - 2010.06.03 11:33:40.
