data_PCOD9084968
_publ_section_title
;
Structure prediction by ZEFSAII (Michael W. Deem and Ramdas Pophale) SiO2 
 PCOD9084968
Probable space group: P -1
;
_chemical_formula_sum "Si O2"
_cell_formula_units_Z 16
_cell_length_a 8.541997
_cell_length_b 5.547092
_cell_length_c 29.352279
_cell_angle_alpha 66.520144
_cell_angle_beta 41.259267
_cell_angle_gamma 87.765757
_cell_volume 759.215217
_symmetry_space_group_name_H-M "P -1"
_symmetry_group_IT_number 2
_symmetry_cell_setting 'triclinic'
loop_
_space_group_symop_operation_xyz
x,y,z
-x,-y,-z
loop_
_atom_site_type_symbol
_atom_site_label
_atom_site_fract_x
_atom_site_fract_y
_atom_site_fract_z
Si Si1 0.294988 0.539430 0.812362
Si Si2 0.634094 0.954377 0.401247
Si Si3 0.814765 0.660567 0.525114
Si Si4 0.347841 0.534531 0.960175
Si Si5 0.285203 0.669396 0.068546
Si Si6 0.356797 0.165612 0.369797
Si Si7 0.325643 0.581508 0.578993
Si Si8 0.766382 0.098252 0.114064
O O1 0.511450 0.734257 0.714578
O O2 0.280474 0.739479 0.842804
O O3 0.018188 0.405168 0.855277
O O4 0.331095 0.248276 0.838415
O O5 0.398161 0.763832 0.502687
O O6 0.802143 0.767126 0.372646
O O7 0.502305 0.007427 0.380040
O O8 0.779936 0.260642 0.373097
O O9 0.637710 0.588653 0.614812
O O10 0.608739 0.621837 0.533944
O O11 0.000000 0.500000 0.500000
O O12 0.043980 0.985401 0.446015
O O13 0.614195 0.495590 0.904749
O O14 0.355882 0.796935 0.908531
O O15 0.304755 0.578991 0.019180
O O16 0.084381 0.250080 0.025016
O O17 0.500000 0.000000 0.000000
#
# Coordination Sequence:
#
# PCOD9084968 Si02
#       8
#     2   2   2   2   2   2   2   2
#     4  11  24  38  58  88 124 158 200 246 304 349
#     4   9  17  31  51  76 101 139 173 229 278 335
#     4  10  19  35  58  82 105 151 196 240 292 350
#     4   9  20  36  62  90 121 158 205 238 289 358
#     4  10  19  36  62  90 120 159 199 244 289 358
#     4  10  22  36  56  81 115 149 196 244 295 345
#     4   9  17  30  52  77 103 127 185 228 276 335
#     4  10  22  38  60  90 121 162 196 245 294 352
#
# _framework density 21.074394999999999
#
# number of rings (size 3 to 8) (size 9 to 14) (size 15 to 20)
#    0.000    2.250    2.500    0.000    3.500    1.500 
#    0.000    1.250    0.000    0.000    0.000    0.000 
#    0.000    0.000    0.000    0.000    0.000    0.000 
#
# Total GULP energy -89068.946941 kJ/mol
# GULP energy per Si atom -5566.809184 kJ/mol
# Density = 2.102643 g / cm^3
# Si number density = 21.074395 Si / 1000 Ang^3
#
#
#
# Elastic Constant Matrix: (Units=GPa)
#
#
# Indices 1 2 3 4 5 6 
#
# 1 75.8385 12.1856 15.2033 -1.3440 17.0241 -22.6598
# 2 12.1856 108.8799 3.9566 -0.9916 8.8386 -14.9828
# 3 15.2033 3.9566 49.1798 8.5136 10.3379 -12.4813
# 4 -1.3440 -0.9916 8.5136 14.3731 -2.7204 3.5188
# 5 17.0241 8.8386 10.3379 -2.7204 18.3634 -9.4546
# 6 -22.6598 -14.9828 -12.4813 3.5188 -9.4546 32.0084
#
#
#
# Elastic Compliance Matrix: (Units=1/GPa)
#
#
# Indices 1 2 3 4 5 6 
#
# 1 0.019030 0.000287 -0.000084 -0.003078 -0.013004 0.010071
# 2 0.000287 0.010017 0.001393 -0.001938 -0.003833 0.004516
# 3 -0.000084 0.001393 0.030201 -0.023298 -0.015755 0.010277
# 4 -0.003078 -0.001938 -0.023298 0.090998 0.022368 -0.015568
# 5 -0.013004 -0.003833 -0.015755 0.022368 0.083082 0.004938
# 6 0.010071 0.004516 0.010277 -0.015568 0.004938 0.047662
#
#
# Mechanical properties :
#
#
# Convention : Reuss Voigt Hill
#
# Bulk Modulus (GPa) = 16.01565 32.95434 24.48499
# Shear Modulus (GPa) = 16.74413 26.45249 21.59831
#
# Velocity S-wave (km/s) = 2.82179 3.54672 3.20482
# Velocity P-wave (km/s) = 4.26998 5.69591 5.03369
#
# Compressibility (1/GPa) = 0.06243894
#
# Stress axis : x y z
#
# Youngs Moduli (GPa) = 52.54761 99.83396 33.11202
#
# Poissons Ratio (x) = -0.02862 0.00277
# Poissons Ratio (y) = -0.01506 -0.04612
# Poissons Ratio (z) = 0.00440 -0.13905
#
# Static dielectric constant tensor:
#      x y z
#    x 1.828490 0.170590 -0.053780 
#    y 0.170590 1.891440 0.394730 
#    z -0.053780 0.394730 1.058400 
# 
# From -- ./inp_files/470240.got.cif
#   From: 2010.05.17/outbox.cif.g08.bks.cpg/sg2_236_cif.got.tgz:470240.got - 2010.06.03 11:33:40.
