data_PCOD9084184
_publ_section_title
;
Structure prediction by ZEFSAII (Michael W. Deem and Ramdas Pophale) SiO2 
 PCOD9084184
Probable space group: P -1
;
_chemical_formula_sum "Si O2"
_cell_formula_units_Z 16
_cell_length_a 10.064778
_cell_length_b 22.188316
_cell_length_c 7.246532
_cell_angle_alpha 68.501129
_cell_angle_beta 65.986148
_cell_angle_gamma 25.111644
_cell_volume 627.328122
_symmetry_space_group_name_H-M "P -1"
_symmetry_group_IT_number 2
_symmetry_cell_setting 'triclinic'
loop_
_space_group_symop_operation_xyz
x,y,z
-x,-y,-z
loop_
_atom_site_type_symbol
_atom_site_label
_atom_site_fract_x
_atom_site_fract_y
_atom_site_fract_z
Si Si1 0.348144 0.669034 0.565413
Si Si2 0.148521 0.883364 0.428736
Si Si3 0.237555 0.376970 0.240713
Si Si4 0.632033 0.131998 0.014508
Si Si5 0.058235 0.336041 0.613554
Si Si6 0.161290 0.631531 0.934608
Si Si7 0.488261 0.927299 0.603159
Si Si8 0.637510 0.570155 0.155509
O O1 0.321245 0.752307 0.564459
O O2 0.687831 0.498246 0.593331
O O3 0.106851 0.719900 0.758412
O O4 0.333485 0.681064 0.335599
O O5 0.382617 0.827181 0.218458
O O6 0.000000 0.000000 0.500000
O O7 0.838006 0.971289 0.416455
O O8 0.436703 0.250369 0.139460
O O9 0.210648 0.346795 0.478174
O O10 0.876939 0.517731 0.204783
O O11 0.381178 0.388681 0.080981
O O12 0.534697 0.096725 0.152628
O O13 0.000000 0.000000 0.000000
O O14 0.226256 0.219011 0.511447
O O15 0.071537 0.301029 0.849354
O O16 0.204080 0.560673 0.833264
O O17 0.500000 0.500000 0.000000
O O18 0.500000 0.000000 0.500000
#
# Coordination Sequence:
#
# PCOD9084184 Si02
#       8
#     2   2   2   2   2   2   2   2
#     4  10  21  41  63  89 122 166 208 251 309 374
#     4  11  24  42  64  95 128 165 212 266 317 370
#     4   9  18  35  59  87 113 152 202 249 298 358
#     4   9  19  40  60  89 120 164 212 247 306 383
#     4   9  21  42  59  95 124 157 209 256 312 364
#     4  10  22  38  55  92 126 157 196 257 311 366
#     4  10  23  44  67  91 128 172 209 254 318 387
#     4  10  19  34  61  89 117 153 201 251 307 361
#
# _framework density 25.504995999999998
#
# number of rings (size 3 to 8) (size 9 to 14) (size 15 to 20)
#    0.000    2.250    1.250    0.375    0.000    7.500 
#   13.500    1.250    0.000    0.000    0.000    0.000 
#    0.000    0.000    0.000    0.000    0.000    0.000 
#
# Total GULP energy -89337.578397 kJ/mol
# GULP energy per Si atom -5583.598650 kJ/mol
# Density = 2.544695 g / cm^3
# Si number density = 25.504996 Si / 1000 Ang^3
#
#
#
# Elastic Constant Matrix: (Units=GPa)
#
#
# Indices 1 2 3 4 5 6 
#
# 1 93.1862 37.1051 55.3484 -13.1247 -29.1107 10.4541
# 2 37.1051 136.4422 60.0762 -11.4827 -16.0783 21.5214
# 3 55.3484 60.0762 263.3774 -37.0388 -38.6972 20.6943
# 4 -13.1247 -11.4827 -37.0388 48.5410 9.4125 -14.3334
# 5 -29.1107 -16.0783 -38.6972 9.4125 42.2878 -15.8894
# 6 10.4541 21.5214 20.6943 -14.3334 -15.8894 43.2874
#
#
#
# Elastic Compliance Matrix: (Units=1/GPa)
#
#
# Indices 1 2 3 4 5 6 
#
# 1 0.015288 -0.002766 -0.001253 0.001405 0.008750 0.001959
# 2 -0.002766 0.009138 -0.001443 -0.000598 -0.001030 -0.003762
# 3 -0.001253 -0.001443 0.005175 0.002872 0.002895 0.000560
# 4 0.001405 -0.000598 0.002872 0.025022 0.000441 0.007032
# 5 0.008750 -0.001030 0.002895 0.000441 0.035685 0.010260
# 6 0.001959 -0.003762 0.000560 0.007032 0.010260 0.030326
#
#
# Mechanical properties :
#
#
# Convention : Reuss Voigt Hill
#
# Bulk Modulus (GPa) = 53.53928 88.67393 71.10661
# Shear Modulus (GPa) = 36.28901 49.52163 42.90532
#
# Velocity S-wave (km/s) = 3.77612 4.41119 4.10595
# Velocity P-wave (km/s) = 6.32846 7.79664 7.10060
#
# Compressibility (1/GPa) = 0.01867787
#
# Stress axis : x y z
#
# Youngs Moduli (GPa) = 65.41118 109.43021 193.25215
#
# Poissons Ratio (x) = 0.30264 0.24207
# Poissons Ratio (y) = 0.18090 0.27890
# Poissons Ratio (z) = 0.08194 0.15793
#
# Static dielectric constant tensor:
#      x y z
#    x 2.137260 -0.125670 0.031280 
#    y -0.125670 1.949340 -0.219430 
#    z 0.031280 -0.219430 1.955450 
# 
# From -- ./inp_files/282983.got.cif
#   From: 2010.05.17/outbox.cif.g08.bks.cpg/sg2_142_cif.got.tgz:282983.got - 2010.06.03 11:33:40.
