data_PCOD9084398
_publ_section_title
;
Structure prediction by ZEFSAII (Michael W. Deem and Ramdas Pophale) SiO2 
 PCOD9084398
Probable space group: P -1
;
_chemical_formula_sum "Si O2"
_cell_formula_units_Z 16
_cell_length_a 14.943010
_cell_length_b 14.035249
_cell_length_c 7.917280
_cell_angle_alpha 78.587888
_cell_angle_beta 136.173179
_cell_angle_gamma 135.308975
_cell_volume 616.723082
_symmetry_space_group_name_H-M "P -1"
_symmetry_group_IT_number 2
_symmetry_cell_setting 'triclinic'
loop_
_space_group_symop_operation_xyz
x,y,z
-x,-y,-z
loop_
_atom_site_type_symbol
_atom_site_label
_atom_site_fract_x
_atom_site_fract_y
_atom_site_fract_z
Si Si1 0.834936 0.309045 0.403498
Si Si2 0.272363 0.185252 0.446398
Si Si3 0.028027 0.737234 0.698926
Si Si4 0.630258 0.539722 0.428325
Si Si5 0.578040 0.859449 0.923721
Si Si6 0.678159 0.205477 0.700127
Si Si7 0.742290 0.445088 0.891140
Si Si8 0.799915 0.831976 0.034450
O O1 0.873924 0.251311 0.338408
O O2 0.570292 0.183115 0.111354
O O3 0.000000 0.500000 0.500000
O O4 0.986123 0.369905 0.751261
O O5 0.248263 0.285044 0.406915
O O6 0.546313 0.340557 0.805658
O O7 0.233205 0.138911 0.208375
O O8 0.083434 0.008093 0.363990
O O9 0.755964 0.590822 0.406405
O O10 0.092253 0.706053 0.952678
O O11 0.185697 0.931535 0.862136
O O12 0.680669 0.487224 0.652557
O O13 0.345444 0.359607 0.099626
O O14 0.381616 0.763891 0.549340
O O15 0.669522 0.810106 0.012535
O O16 0.680705 0.295071 0.809965
O O17 0.500000 0.000000 0.500000
#
# Coordination Sequence:
#
# PCOD9084398 Si02
#       8
#     2   2   2   2   2   2   2   2
#     4  12  25  39  60  89 131 175 207 250 315 388
#     4  10  21  39  63  98 127 159 211 267 322 364
#     4  11  23  40  61  90 132 167 208 255 320 380
#     4  11  21  39  68  97 124 162 215 265 320 366
#     4  11  21  40  62  92 125 163 212 261 317 371
#     4  10  21  36  61  97 123 160 205 266 317 369
#     4  11  22  40  64  96 131 164 209 266 313 381
#     4  10  19  34  64  92 126 156 202 264 320 365
#
# _framework density 25.943573000000001
#
# number of rings (size 3 to 8) (size 9 to 14) (size 15 to 20)
#    0.000    1.250    5.000    3.375    0.000    1.000 
#    0.000    3.125    0.000    1.500    0.000    0.000 
#    0.000    0.000    0.000    0.000    0.000    0.000 
#
# Total GULP energy -89148.141394 kJ/mol
# GULP energy per Si atom -5571.758837 kJ/mol
# Density = 2.588452 g / cm^3
# Si number density = 25.943573 Si / 1000 Ang^3
#
#
#
# Elastic Constant Matrix: (Units=GPa)
#
#
# Indices 1 2 3 4 5 6 
#
# 1 124.7044 18.6518 30.4630 30.9260 10.5252 7.8969
# 2 18.6518 59.7502 32.2493 11.6360 6.6243 -4.6404
# 3 30.4630 32.2493 50.6232 28.9475 11.6280 12.2479
# 4 30.9260 11.6360 28.9475 48.2680 20.1321 2.0885
# 5 10.5252 6.6243 11.6280 20.1321 48.2231 16.2846
# 6 7.8969 -4.6404 12.2479 2.0885 16.2846 38.1190
#
#
#
# Elastic Compliance Matrix: (Units=1/GPa)
#
#
# Indices 1 2 3 4 5 6 
#
# 1 0.010047 -0.001330 -0.001939 -0.005445 0.001375 -0.001909
# 2 -0.001330 0.033082 -0.030356 0.013867 -0.008430 0.016898
# 3 -0.001939 -0.030356 0.062904 -0.033161 0.012379 -0.026977
# 4 -0.005445 0.013867 -0.033161 0.047914 -0.019148 0.019026
# 5 0.001375 -0.008430 0.012379 -0.019148 0.032762 -0.018235
# 6 -0.001909 0.016898 -0.026977 0.019026 -0.018235 0.044102
#
#
# Mechanical properties :
#
#
# Convention : Reuss Voigt Hill
#
# Bulk Modulus (GPa) = 25.78455 44.20068 34.99262
# Shear Modulus (GPa) = 16.07775 37.16959 26.62367
#
# Velocity S-wave (km/s) = 2.49212 3.78922 3.20693
# Velocity P-wave (km/s) = 4.27097 6.01818 5.21822
#
# Compressibility (1/GPa) = 0.03878292
#
# Stress axis : x y z
#
# Youngs Moduli (GPa) = 99.53617 30.22770 15.89715
#
# Poissons Ratio (x) = 0.04021 0.03082
# Poissons Ratio (y) = 0.13240 0.48258
# Poissons Ratio (z) = 0.19299 0.91759
#
# Static dielectric constant tensor:
#      x y z
#    x 2.242910 0.110880 -0.108860 
#    y 0.110880 2.088680 -0.047370 
#    z -0.108860 -0.047370 2.283040 
# 
# From -- ./inp_files/315358.got.cif
#   From: 2010.05.17/outbox.cif.g08.bks.cpg/sg2_158_cif.got.tgz:315358.got - 2010.06.03 11:33:40.
