data_PCOD9084000
_publ_section_title
;
Structure prediction by ZEFSAII (Michael W. Deem and Ramdas Pophale) SiO2 
 PCOD9084000
Probable space group: P -1
;
_chemical_formula_sum "Si O2"
_cell_formula_units_Z 14
_cell_length_a 13.069213
_cell_length_b 8.347858
_cell_length_c 5.688792
_cell_angle_alpha 74.392945
_cell_angle_beta 96.049509
_cell_angle_gamma 71.661670
_cell_volume 555.012285
_symmetry_space_group_name_H-M "P -1"
_symmetry_group_IT_number 2
_symmetry_cell_setting 'triclinic'
loop_
_space_group_symop_operation_xyz
x,y,z
-x,-y,-z
loop_
_atom_site_type_symbol
_atom_site_label
_atom_site_fract_x
_atom_site_fract_y
_atom_site_fract_z
Si Si1 0.762511 0.952597 0.575577
Si Si2 0.277080 0.328714 0.630863
Si Si3 0.440620 0.421194 0.318777
Si Si4 0.655998 0.249972 0.130747
Si Si5 0.384945 0.037401 0.084678
Si Si6 0.982837 0.714187 0.919329
Si Si7 0.936877 0.356390 0.533985
O O1 0.779970 0.799543 0.446482
O O2 0.858129 0.856380 0.821282
O O3 0.749528 0.140861 0.381868
O O4 0.642110 0.985983 0.645638
O O5 0.378455 0.320163 0.494905
O O6 0.319146 0.243147 0.925041
O O7 0.191496 0.525215 0.546995
O O8 0.500000 0.500000 0.500000
O O9 0.537610 0.312366 0.209611
O O10 0.350652 0.576030 0.084015
O O11 0.659362 0.101145 0.000790
O O12 0.500000 0.000000 0.000000
O O13 0.031403 0.743506 0.667520
O O14 0.000000 0.500000 0.000000
O O15 0.033994 0.741363 0.169111
O O16 0.000000 0.500000 0.500000
#
# Coordination Sequence:
#
# PCOD9084000 Si02
#       7
#     2   2   2   2   2   2   2
#     4  11  21  35  61  92 119 162 195 259 317 368
#     4  11  22  34  62  90 121 157 210 251 313 368
#     4  11  23  43  59  84 120 170 205 251 301 377
#     4  10  23  39  57  83 121 159 207 247 307 373
#     4  11  21  35  57  90 121 152 201 260 312 368
#     4  10  19  34  59  88 131 155 202 252 321 371
#     4  10  19  36  55  95 124 161 197 262 312 374
#
# _framework density 25.224665999999999
#
# number of rings (size 3 to 8) (size 9 to 14) (size 15 to 20)
#    0.000    1.429    2.857    5.143    2.000    3.429 
#    0.000    0.000    0.000    1.714    0.000    0.000 
#    0.000    0.000    0.000    0.000    0.000    0.000 
#
# Total GULP energy -78212.651767 kJ/mol
# GULP energy per Si atom -5586.617983 kJ/mol
# Density = 2.516725 g / cm^3
# Si number density = 25.224666 Si / 1000 Ang^3
#
#
#
# Elastic Constant Matrix: (Units=GPa)
#
#
# Indices 1 2 3 4 5 6 
#
# 1 35.5117 24.3149 13.7318 -0.9573 -1.9219 -15.8192
# 2 24.3149 88.9521 44.6665 -1.1085 2.8403 -10.8654
# 3 13.7318 44.6665 165.8249 -15.8534 8.2460 -8.6680
# 4 -0.9573 -1.1085 -15.8534 48.6486 -20.5020 -3.3282
# 5 -1.9219 2.8403 8.2460 -20.5020 33.7854 -1.0676
# 6 -15.8192 -10.8654 -8.6680 -3.3282 -1.0676 31.1066
#
#
#
# Elastic Compliance Matrix: (Units=1/GPa)
#
#
# Indices 1 2 3 4 5 6 
#
# 1 0.044238 -0.009916 0.000177 0.004997 0.006966 0.019856
# 2 -0.009916 0.015665 -0.003521 -0.001995 -0.002259 -0.000843
# 3 0.000177 -0.003521 0.007249 0.002367 0.000009 0.001134
# 4 0.004997 -0.001995 0.002367 0.029342 0.017878 0.006257
# 5 0.006966 -0.002259 0.000009 0.017878 0.041223 0.006084
# 6 0.019856 -0.000843 0.001134 0.006257 0.006084 0.043145
#
#
# Mechanical properties :
#
#
# Convention : Reuss Voigt Hill
#
# Bulk Modulus (GPa) = 24.61103 50.63501 37.62302
# Shear Modulus (GPa) = 22.63202 36.54648 29.58925
#
# Velocity S-wave (km/s) = 2.99861 3.81049 3.42867
# Velocity P-wave (km/s) = 4.66549 6.28307 5.53370
#
# Compressibility (1/GPa) = 0.04063219
#
# Stress axis : x y z
#
# Youngs Moduli (GPa) = 22.60510 63.83781 137.94468
#
# Poissons Ratio (x) = 0.63300 -0.02439
# Poissons Ratio (y) = 0.22415 0.48568
# Poissons Ratio (z) = -0.00400 0.22476
#
# Static dielectric constant tensor:
#      x y z
#    x 2.081960 -0.042180 0.146300 
#    y -0.042180 1.999150 -0.070870 
#    z 0.146300 -0.070870 2.181250 
# 
# From -- ./inp_files/26963.got.cif
#   From: 2010.05.17/outbox.cif.g08.bks.cpg/sg2_14_cif.got.tgz:26963.got - 2010.06.03 11:33:40.
