data_PCOD9084587
_publ_section_title
;
Structure prediction by ZEFSAII (Michael W. Deem and Ramdas Pophale) SiO2 
 PCOD9084587
Probable space group: P -1
;
_chemical_formula_sum "Si O2"
_cell_formula_units_Z 16
_cell_length_a 15.466107
_cell_length_b 14.958950
_cell_length_c 8.180936
_cell_angle_alpha 121.231048
_cell_angle_beta 68.270781
_cell_angle_gamma 151.323638
_cell_volume 759.905879
_symmetry_space_group_name_H-M "P -1"
_symmetry_group_IT_number 2
_symmetry_cell_setting 'triclinic'
loop_
_space_group_symop_operation_xyz
x,y,z
-x,-y,-z
loop_
_atom_site_type_symbol
_atom_site_label
_atom_site_fract_x
_atom_site_fract_y
_atom_site_fract_z
Si Si1 0.855044 0.894805 0.279639
Si Si2 0.106229 0.700365 0.385452
Si Si3 0.501090 0.118296 0.548520
Si Si4 0.879506 0.677924 0.466840
Si Si5 0.916845 0.543360 0.705260
Si Si6 0.417722 0.502807 0.683126
Si Si7 0.443702 0.278402 0.890369
Si Si8 0.147716 0.294241 0.102831
O O1 0.728630 0.705060 0.307123
O O2 0.725882 0.842816 0.207889
O O3 0.944866 0.894836 0.097137
O O4 0.984619 0.099415 0.480436
O O5 0.077788 0.547216 0.255754
O O6 0.962731 0.643294 0.356842
O O7 0.073551 0.684543 0.590880
O O8 0.310131 0.932872 0.404652
O O9 0.715293 0.342882 0.563196
O O10 0.464498 0.174374 0.757888
O O11 0.500000 0.000000 0.500000
O O12 0.686117 0.507282 0.353274
O O13 0.873425 0.705383 0.689222
O O14 0.919187 0.661693 0.889359
O O15 0.500000 0.500000 0.500000
O O16 0.558821 0.686798 0.889339
O O17 0.633106 0.505380 0.892338
#
# Coordination Sequence:
#
# PCOD9084587 Si02
#       8
#     2   2   2   2   2   2   2   2
#     4  11  20  34  55  78 107 137 190 229 264 327
#     4   9  16  30  50  80 108 133 185 224 273 321
#     4   9  16  30  54  81 105 135 180 233 272 313
#     4  11  20  33  53  81 110 142 174 230 286 324
#     4   8  16  28  49  79 108 137 170 231 271 316
#     4  11  23  37  51  76 115 152 179 216 286 336
#     4  10  19  35  55  79 105 142 186 228 264 333
#     4   9  18  31  52  79 106 137 183 222 274 322
#
# _framework density 21.055237999999999
#
# number of rings (size 3 to 8) (size 9 to 14) (size 15 to 20)
#    0.000    2.250    1.250    3.750    0.000    0.000 
#    0.000    0.000    0.000   12.000    0.000   30.625 
#    0.000    0.000    0.000    0.000    0.000    0.000 
#
# Total GULP energy -89115.730909 kJ/mol
# GULP energy per Si atom -5569.733182 kJ/mol
# Density = 2.100732 g / cm^3
# Si number density = 21.055238 Si / 1000 Ang^3
#
#
#
# Elastic Constant Matrix: (Units=GPa)
#
#
# Indices 1 2 3 4 5 6 
#
# 1 131.6804 7.0767 37.9817 4.5988 -10.6093 16.7441
# 2 7.0767 50.5045 -0.4870 0.1964 -3.0632 1.3258
# 3 37.9817 -0.4870 39.0580 -1.9306 -3.8025 1.1903
# 4 4.5988 0.1964 -1.9306 21.7924 -0.0867 -4.0413
# 5 -10.6093 -3.0632 -3.8025 -0.0867 29.3850 7.1832
# 6 16.7441 1.3258 1.1903 -4.0413 7.1832 29.3837
#
#
#
# Elastic Compliance Matrix: (Units=1/GPa)
#
#
# Indices 1 2 3 4 5 6 
#
# 1 0.012836 -0.001357 -0.012006 -0.005361 0.005061 -0.008742
# 2 -0.001357 0.020147 0.001794 0.000146 0.002009 -0.000679
# 3 -0.012006 0.001794 0.037367 0.007015 -0.000861 0.006422
# 4 -0.005361 0.000146 0.007015 0.049557 -0.003412 0.010414
# 5 0.005061 0.002009 -0.000861 -0.003412 0.039117 -0.012971
# 6 -0.008742 -0.000679 0.006422 0.010414 -0.012971 0.043388
#
#
# Mechanical properties :
#
#
# Convention : Reuss Voigt Hill
#
# Bulk Modulus (GPa) = 21.18020 34.48732 27.83376
# Shear Modulus (GPa) = 20.72228 27.89033 24.30631
#
# Velocity S-wave (km/s) = 3.14058 3.64349 3.40134
# Velocity P-wave (km/s) = 4.81998 5.84081 5.35477
#
# Compressibility (1/GPa) = 0.04721391
#
# Stress axis : x y z
#
# Youngs Moduli (GPa) = 77.90307 49.63566 26.76142
#
# Poissons Ratio (x) = 0.06736 0.32129
# Poissons Ratio (y) = 0.10573 -0.04802
# Poissons Ratio (z) = 0.93527 -0.08907
#
# Static dielectric constant tensor:
#      x y z
#    x 1.793650 -0.001710 -0.012780 
#    y -0.001710 1.863940 0.027450 
#    z -0.012780 0.027450 1.797950 
# 
# From -- ./inp_files/195645.got.cif
#   From: 2010.05.17/outbox.cif.g08.bks.cpg/sg2_98_cif.got.tgz:195645.got - 2010.06.03 11:33:40.
