data_PCOD9084787
_publ_section_title
;
Structure prediction by ZEFSAII (Michael W. Deem and Ramdas Pophale) SiO2 
 PCOD9084787
Probable space group: P -1
;
_chemical_formula_sum "Si O2"
_cell_formula_units_Z 16
_cell_length_a 11.411601
_cell_length_b 14.192014
_cell_length_c 14.437928
_cell_angle_alpha 144.368214
_cell_angle_beta 146.351237
_cell_angle_gamma 29.190132
_cell_volume 599.009293
_symmetry_space_group_name_H-M "P -1"
_symmetry_group_IT_number 2
_symmetry_cell_setting 'triclinic'
loop_
_space_group_symop_operation_xyz
x,y,z
-x,-y,-z
loop_
_atom_site_type_symbol
_atom_site_label
_atom_site_fract_x
_atom_site_fract_y
_atom_site_fract_z
Si Si1 0.998125 0.946458 0.777342
Si Si2 0.674331 0.421921 0.903917
Si Si3 0.398472 0.218167 0.912529
Si Si4 0.319509 0.237560 0.279663
Si Si5 0.944532 0.359996 0.298381
Si Si6 0.345505 0.240826 0.094655
Si Si7 0.765172 0.286111 0.644790
Si Si8 0.865434 0.185410 0.432993
O O1 0.302159 0.862377 0.926530
O O2 0.925460 0.855836 0.737580
O O3 0.993367 0.847355 0.598203
O O4 0.832840 0.189216 0.856935
O O5 0.691885 0.607957 0.082316
O O6 0.370225 0.523204 0.813436
O O7 0.720615 0.396065 0.801128
O O8 0.228908 0.300204 0.962370
O O9 0.456812 0.006962 0.754298
O O10 0.212362 0.286648 0.143361
O O11 0.483351 0.324337 0.474990
O O12 0.083181 0.314731 0.255287
O O13 0.000000 0.500000 0.500000
O O14 0.562224 0.281208 0.283163
O O15 0.500000 0.000000 0.000000
O O16 0.851245 0.300312 0.607988
O O17 0.992960 0.047921 0.629553
#
# Coordination Sequence:
#
# PCOD9084787 Si02
#       8
#     2   2   2   2   2   2   2   2
#     4   9  20  37  58  79 114 151 182 237 280 322
#     4  10  20  37  59  82 111 149 189 231 280 331
#     4   9  19  37  61  84 109 146 188 229 286 338
#     4  10  19  35  57  80 116 150 182 234 278 327
#     4  11  22  38  55  83 114 150 191 227 276 336
#     4   8  15  31  57  82 109 148 180 224 286 329
#     4   9  16  31  56  80 111 147 179 234 283 318
#     4   8  15  30  53  81 107 144 185 225 279 330
#
# _framework density 26.710771000000001
#
# number of rings (size 3 to 8) (size 9 to 14) (size 15 to 20)
#    0.000    2.750    1.250    0.000    0.000    2.500 
#    2.250    5.000    0.000   69.000    0.000    0.000 
#    0.000    0.000    0.000    0.000    0.000    0.000 
#
# Total GULP energy -89452.052210 kJ/mol
# GULP energy per Si atom -5590.753263 kJ/mol
# Density = 2.664998 g / cm^3
# Si number density = 26.710771 Si / 1000 Ang^3
#
#
#
# Elastic Constant Matrix: (Units=GPa)
#
#
# Indices 1 2 3 4 5 6 
#
# 1 171.3590 52.9494 31.4766 18.5829 -18.2452 4.0809
# 2 52.9494 154.3852 18.8314 23.4786 8.0406 3.3349
# 3 31.4766 18.8314 94.9210 5.9343 -7.2224 16.1263
# 4 18.5829 23.4786 5.9343 32.9642 8.6635 2.4851
# 5 -18.2452 8.0406 -7.2224 8.6635 33.3874 10.8299
# 6 4.0809 3.3349 16.1263 2.4851 10.8299 47.9861
#
#
#
# Elastic Compliance Matrix: (Units=1/GPa)
#
#
# Indices 1 2 3 4 5 6 
#
# 1 0.007866 -0.002205 -0.001241 -0.004133 0.006038 -0.001247
# 2 -0.002205 0.008029 -0.000958 -0.003667 -0.002633 0.000736
# 3 -0.001241 -0.000958 0.012383 -0.001590 0.004220 -0.004859
# 4 -0.004133 -0.003667 -0.001590 0.038672 -0.012381 0.001932
# 5 0.006038 -0.002633 0.004220 -0.012381 0.041401 -0.010451
# 6 -0.001247 0.000736 -0.004859 0.001932 -0.010451 0.024786
#
#
# Mechanical properties :
#
#
# Convention : Reuss Voigt Hill
#
# Bulk Modulus (GPa) = 51.36239 69.68666 60.52453
# Shear Modulus (GPa) = 33.68475 44.02804 38.85639
#
# Velocity S-wave (km/s) = 3.55504 4.06436 3.81820
# Velocity P-wave (km/s) = 6.01015 6.94056 6.49204
#
# Compressibility (1/GPa) = 0.01946950
#
# Stress axis : x y z
#
# Youngs Moduli (GPa) = 127.13016 124.54275 80.75778
#
# Poissons Ratio (x) = 0.27467 0.10023
# Poissons Ratio (y) = 0.28037 0.07734
# Poissons Ratio (z) = 0.15779 0.11928
#
# Static dielectric constant tensor:
#      x y z
#    x 2.062030 0.004380 0.021000 
#    y 0.004380 2.124370 -0.025520 
#    z 0.021000 -0.025520 2.192930 
# 
# From -- ./inp_files/332027.got.cif
#   From: 2010.05.17/outbox.cif.g08.bks.cpg/sg2_167_cif.got.tgz:332027.got - 2010.06.03 11:33:40.
