data_PCOD9084702
_publ_section_title
;
Structure prediction by ZEFSAII (Michael W. Deem and Ramdas Pophale) SiO2 
 PCOD9084702
Probable space group: P -1
;
_chemical_formula_sum "Si O2"
_cell_formula_units_Z 14
_cell_length_a 17.310453
_cell_length_b 6.998450
_cell_length_c 9.460264
_cell_angle_alpha 49.721474
_cell_angle_beta 140.535891
_cell_angle_gamma 118.746920
_cell_volume 555.344266
_symmetry_space_group_name_H-M "P -1"
_symmetry_group_IT_number 2
_symmetry_cell_setting 'triclinic'
loop_
_space_group_symop_operation_xyz
x,y,z
-x,-y,-z
loop_
_atom_site_type_symbol
_atom_site_label
_atom_site_fract_x
_atom_site_fract_y
_atom_site_fract_z
Si Si1 0.865520 0.703426 0.409862
Si Si2 0.231041 0.004772 0.438379
Si Si3 0.295743 0.474977 0.507130
Si Si4 0.270508 0.284870 0.083563
Si Si5 0.868419 0.223369 0.332895
Si Si6 0.462606 0.741925 0.429944
Si Si7 0.495509 0.842701 0.924897
O O1 0.813531 0.509498 0.543120
O O2 0.789485 0.725611 0.148811
O O3 0.005725 0.657834 0.589250
O O4 0.854849 0.972789 0.343381
O O5 0.264111 0.252534 0.458777
O O6 0.353744 0.828137 0.697842
O O7 0.134614 0.864331 0.465219
O O8 0.212045 0.106832 0.204861
O O9 0.342430 0.697415 0.371463
O O10 0.416616 0.392085 0.806287
O O11 0.239426 0.574211 0.945110
O O12 0.414969 0.235197 0.315943
O O13 0.500000 0.500000 0.500000
O O14 0.449494 0.981862 0.198815
O O15 0.500000 0.000000 0.000000
#
# Coordination Sequence:
#
# PCOD9084702 Si02
#       7
#     2   2   2   2   2   2   2
#     4  10  24  41  60  93 120 155 211 247 290 368
#     4   9  19  34  61  92 112 155 212 238 289 374
#     4  10  19  35  56  83 128 154 192 245 298 352
#     4  11  22  40  65  90 119 157 205 251 294 356
#     4  10  22  44  65  80 123 167 193 252 312 335
#     4  11  19  32  61  93 114 160 199 233 304 366
#     4   9  16  29  54  85 113 150 194 235 288 354
#
# _framework density 25.209585000000001
#
# number of rings (size 3 to 8) (size 9 to 14) (size 15 to 20)
#    0.000    2.000    4.286    1.286    4.000    1.143 
#    0.000   15.000    0.000    0.000    0.000    0.000 
#    0.000    0.000    0.000    0.000    0.000    0.000 
#
# Total GULP energy -78459.059125 kJ/mol
# GULP energy per Si atom -5604.218509 kJ/mol
# Density = 2.515221 g / cm^3
# Si number density = 25.209585 Si / 1000 Ang^3
#
#
#
# Elastic Constant Matrix: (Units=GPa)
#
#
# Indices 1 2 3 4 5 6 
#
# 1 186.0085 54.4704 39.5076 -6.8465 -33.3789 41.2733
# 2 54.4704 73.3526 14.8110 2.8761 -13.6127 9.0585
# 3 39.5076 14.8110 67.3543 -0.6993 -26.9764 9.6839
# 4 -6.8465 2.8761 -0.6993 32.0074 1.1015 -7.0092
# 5 -33.3789 -13.6127 -26.9764 1.1015 39.9558 -7.2318
# 6 41.2733 9.0585 9.6839 -7.0092 -7.2318 60.1608
#
#
#
# Elastic Compliance Matrix: (Units=1/GPa)
#
#
# Indices 1 2 3 4 5 6 
#
# 1 0.008983 -0.005090 -0.002082 0.001228 0.003517 -0.004495
# 2 -0.005090 0.017822 -0.000354 -0.002589 0.001793 0.000780
# 3 -0.002082 -0.000354 0.021158 -0.000485 0.012349 -0.000496
# 4 0.001228 -0.002589 -0.000485 0.032478 -0.000472 0.003353
# 5 0.003517 0.001793 0.012349 -0.000472 0.036874 -0.000293
# 6 -0.004495 0.000780 -0.000496 0.003353 -0.000293 0.020024
#
#
# Mechanical properties :
#
#
# Convention : Reuss Voigt Hill
#
# Bulk Modulus (GPa) = 30.38598 60.47703 45.43151
# Shear Modulus (GPa) = 30.60697 40.95322 35.78009
#
# Velocity S-wave (km/s) = 3.48817 4.03489 3.77145
# Velocity P-wave (km/s) = 5.32002 6.76380 6.08488
#
# Compressibility (1/GPa) = 0.03290991
#
# Stress axis : x y z
#
# Youngs Moduli (GPa) = 111.32560 56.10950 47.26328
#
# Poissons Ratio (x) = 0.28562 0.09840
# Poissons Ratio (y) = 0.56669 0.01674
# Poissons Ratio (z) = 0.23178 0.01987
#
# Static dielectric constant tensor:
#      x y z
#    x 2.005640 -0.044190 -0.007050 
#    y -0.044190 1.968850 0.001280 
#    z -0.007050 0.001280 1.899960 
# 
# From -- ./inp_files/307289.got.cif
#   From: 2010.05.17/outbox.cif.g08.bks.cpg/sg2_154_cif.got.tgz:307289.got - 2010.06.03 11:33:40.
