data_PCOD9084848
_publ_section_title
;
Structure prediction by ZEFSAII (Michael W. Deem and Ramdas Pophale) SiO2 
 PCOD9084848
Probable space group: P -1
;
_chemical_formula_sum "Si O2"
_cell_formula_units_Z 16
_cell_length_a 12.801106
_cell_length_b 11.267784
_cell_length_c 14.472464
_cell_angle_alpha 41.625437
_cell_angle_beta 151.343994
_cell_angle_gamma 126.470078
_cell_volume 652.437464
_symmetry_space_group_name_H-M "P -1"
_symmetry_group_IT_number 2
_symmetry_cell_setting 'triclinic'
loop_
_space_group_symop_operation_xyz
x,y,z
-x,-y,-z
loop_
_atom_site_type_symbol
_atom_site_label
_atom_site_fract_x
_atom_site_fract_y
_atom_site_fract_z
Si Si1 0.614256 0.375533 0.581329
Si Si2 0.976927 0.567528 0.666430
Si Si3 0.750696 0.891442 0.181551
Si Si4 0.556285 0.955765 0.293389
Si Si5 0.521498 0.292162 0.369662
Si Si6 0.006618 0.703704 0.311428
Si Si7 0.311200 0.099829 0.181329
Si Si8 0.048713 0.836925 0.705865
O O1 0.500000 0.500000 0.500000
O O2 0.839277 0.434796 0.689432
O O3 0.466146 0.398200 0.359919
O O4 0.616897 0.174953 0.740173
O O5 0.794757 0.741172 0.384250
O O6 0.073580 0.464357 0.706643
O O7 0.117300 0.658916 0.797670
O O8 0.904329 0.791849 0.275225
O O9 0.512921 0.945105 0.915000
O O10 0.812380 0.080452 0.156193
O O11 0.507627 0.095469 0.259685
O O12 0.802457 0.838375 0.554992
O O13 0.728347 0.354466 0.444800
O O14 0.328067 0.261256 0.171274
O O15 0.630437 0.088329 0.609234
O O16 0.914746 0.859309 0.074289
O O17 0.000000 0.000000 0.500000
#
# Coordination Sequence:
#
# PCOD9084848 Si02
#       8
#     2   2   2   2   2   2   2   2
#     4  10  19  37  57  83 117 153 186 239 289 334
#     4  10  21  38  59  85 122 151 189 241 292 336
#     4  10  22  39  62  87 111 160 193 232 287 348
#     4  10  20  38  63  83 115 150 198 234 284 348
#     4   9  18  32  56  82 113 153 187 230 288 338
#     4  10  19  35  57  84 117 143 191 240 284 338
#     4   9  18  33  55  86 111 149 190 233 283 343
#     4  10  21  38  58  84 117 151 193 237 281 342
#
# _framework density 24.523423000000001
#
# number of rings (size 3 to 8) (size 9 to 14) (size 15 to 20)
#    0.000    2.250    1.250    1.500    0.000    3.000 
#    2.250    4.375    0.000   13.500    0.000    0.000 
#    0.000    0.000    0.000    0.000    0.000    0.000 
#
# Total GULP energy -89172.790853 kJ/mol
# GULP energy per Si atom -5573.299428 kJ/mol
# Density = 2.446761 g / cm^3
# Si number density = 24.523423 Si / 1000 Ang^3
#
#
#
# Elastic Constant Matrix: (Units=GPa)
#
#
# Indices 1 2 3 4 5 6 
#
# 1 108.4534 55.9102 6.5048 13.3197 1.2859 -33.0240
# 2 55.9102 116.0713 -0.2141 2.8138 -5.3316 -36.3932
# 3 6.5048 -0.2141 39.7491 9.0759 -15.4916 10.0490
# 4 13.3197 2.8138 9.0759 36.1333 -4.9909 -5.1687
# 5 1.2859 -5.3316 -15.4916 -4.9909 20.9623 -4.1694
# 6 -33.0240 -36.3932 10.0490 -5.1687 -4.1694 48.6423
#
#
#
# Elastic Compliance Matrix: (Units=1/GPa)
#
#
# Indices 1 2 3 4 5 6 
#
# 1 0.014705 -0.005317 -0.005521 -0.003544 -0.005933 0.006261
# 2 -0.005317 0.013698 0.001136 0.002571 0.006705 0.007252
# 3 -0.005521 0.001136 0.040409 -0.005808 0.027212 -0.009531
# 4 -0.003544 0.002571 -0.005808 0.031573 0.004992 0.004501
# 5 -0.005933 0.006705 0.027212 0.004992 0.071475 0.002024
# 6 0.006261 0.007252 -0.009531 0.004501 0.002024 0.032855
#
#
# Mechanical properties :
#
#
# Convention : Reuss Voigt Hill
#
# Bulk Modulus (GPa) = 20.23948 43.18618 31.71283
# Shear Modulus (GPa) = 20.78248 34.61909 27.70079
#
# Velocity S-wave (km/s) = 2.91426 3.76130 3.36455
# Velocity P-wave (km/s) = 4.42662 6.04248 5.29653
#
# Compressibility (1/GPa) = 0.04940837
#
# Stress axis : x y z
#
# Youngs Moduli (GPa) = 68.00608 73.00337 24.74726
#
# Poissons Ratio (x) = 0.38815 0.13663
# Poissons Ratio (y) = 0.36158 -0.02812
# Poissons Ratio (z) = 0.37546 -0.08296
#
# Static dielectric constant tensor:
#      x y z
#    x 2.020350 -0.059020 0.030670 
#    y -0.059020 2.077190 -0.048440 
#    z 0.030670 -0.048440 1.974600 
# 
# From -- ./inp_files/433229.got.cif
#   From: 2010.05.17/outbox.cif.g08.bks.cpg/sg2_217_cif.got.tgz:433229.got - 2010.06.03 11:33:40.
