data_PCOD9084577
_publ_section_title
;
Structure prediction by ZEFSAII (Michael W. Deem and Ramdas Pophale) SiO2 
 PCOD9084577
Probable space group: P -1
;
_chemical_formula_sum "Si O2"
_cell_formula_units_Z 14
_cell_length_a 10.774550
_cell_length_b 12.134320
_cell_length_c 12.465541
_cell_angle_alpha 101.165828
_cell_angle_beta 53.965399
_cell_angle_gamma 57.111525
_cell_volume 724.947964
_symmetry_space_group_name_H-M "P -1"
_symmetry_group_IT_number 2
_symmetry_cell_setting 'triclinic'
loop_
_space_group_symop_operation_xyz
x,y,z
-x,-y,-z
loop_
_atom_site_type_symbol
_atom_site_label
_atom_site_fract_x
_atom_site_fract_y
_atom_site_fract_z
Si Si1 0.306161 0.361785 0.068949
Si Si2 0.549037 0.267497 0.319653
Si Si3 0.022781 0.817936 0.016519
Si Si4 0.409636 0.514502 0.931049
Si Si5 0.831467 0.420674 0.609591
Si Si6 0.745661 0.930088 0.824959
Si Si7 0.917599 0.384431 0.230035
O O1 0.170564 0.512745 0.264770
O O2 0.110351 0.376278 0.144342
O O3 0.357293 0.414726 0.954298
O O4 0.601375 0.135904 0.915641
O O5 0.774138 0.221564 0.158698
O O6 0.321432 0.407548 0.367445
O O7 0.384585 0.402755 0.534770
O O8 0.718205 0.051019 0.207340
O O9 0.138675 0.736383 0.062287
O O10 0.057857 0.678796 0.912676
O O11 0.649310 0.417870 0.715502
O O12 0.500000 0.500000 0.000000
O O13 0.116732 0.207814 0.375742
O O14 0.967640 0.782484 0.778908
O O15 0.500000 0.000000 0.000000
#
# Coordination Sequence:
#
# PCOD9084577 Si02
#       7
#     2   2   2   2   2   2   2
#     4  10  20  34  52  77 110 141 172 212 254 302
#     4   9  19  34  55  77 101 136 170 213 263 302
#     4  10  19  35  55  75 103 134 171 216 259 305
#     4   9  20  38  55  74 102 140 181 212 250 311
#     4   9  18  35  55  76 106 139 174 215 253 301
#     4   9  19  32  52  82 106 133 172 211 259 311
#     4  10  20  32  52  81 106 131 170 215 261 309
#
# _framework density 19.311731000000002
#
# number of rings (size 3 to 8) (size 9 to 14) (size 15 to 20)
#    0.000    2.571    0.000    1.286    0.000    9.714 
#    0.000    3.571    0.000    0.000    0.000    0.000 
#    0.000    0.000    0.000    0.000    0.000    0.000 
#
# Total GULP energy -78025.795968 kJ/mol
# GULP energy per Si atom -5573.271141 kJ/mol
# Density = 1.926778 g / cm^3
# Si number density = 19.311731 Si / 1000 Ang^3
#
#
#
# Elastic Constant Matrix: (Units=GPa)
#
#
# Indices 1 2 3 4 5 6 
#
# 1 32.2724 12.0455 5.6490 -9.0670 10.5989 -3.5222
# 2 12.0455 93.9326 43.8651 -7.2864 -1.8509 6.9030
# 3 5.6490 43.8651 108.8481 14.7776 8.2409 -3.5234
# 4 -9.0670 -7.2864 14.7776 10.3425 0.7380 -1.4848
# 5 10.5989 -1.8509 8.2409 0.7380 19.6966 -6.4247
# 6 -3.5222 6.9030 -3.5234 -1.4848 -6.4247 18.4331
#
#
#
# Elastic Compliance Matrix: (Units=1/GPa)
#
#
# Indices 1 2 3 4 5 6 
#
# 1 0.065858 0.003161 -0.013296 0.081842 -0.031146 0.004595
# 2 0.003161 0.019375 -0.012946 0.033949 0.002459 -0.005535
# 3 -0.013296 -0.012946 0.022322 -0.052317 -0.000757 0.002097
# 4 0.081842 0.033949 -0.052317 0.269793 -0.027404 0.005105
# 5 -0.031146 0.002459 -0.000757 -0.027404 0.074575 0.016768
# 6 0.004595 -0.005535 0.002097 0.005105 0.016768 0.063857
#
#
# Mechanical properties :
#
#
# Convention : Reuss Voigt Hill
#
# Bulk Modulus (GPa) = 16.28867 39.79690 28.04279
# Shear Modulus (GPa) = 8.58504 21.26068 14.92286
#
# Velocity S-wave (km/s) = 2.11072 3.32161 2.78283
# Velocity P-wave (km/s) = 3.79383 5.94669 4.98780
#
# Compressibility (1/GPa) = 0.06139237
#
# Stress axis : x y z
#
# Youngs Moduli (GPa) = 15.18413 51.61278 44.79810
#
# Poissons Ratio (x) = -0.16314 0.59564
# Poissons Ratio (y) = -0.04799 0.57998
# Poissons Ratio (z) = 0.20189 0.66820
#
# Static dielectric constant tensor:
#      x y z
#    x 1.715400 -0.003640 -0.004220 
#    y -0.003640 1.717020 -0.001670 
#    z -0.004220 -0.001670 1.664040 
# 
# From -- ./inp_files/66191.got.cif
#   From: 2010.05.17/outbox.cif.g08.bks.cpg/sg2_34_cif.got.tgz:66191.got - 2010.06.03 11:33:40.
