data_PCOD9084692
_publ_section_title
;
Structure prediction by ZEFSAII (Michael W. Deem and Ramdas Pophale) SiO2 
 PCOD9084692
Probable space group: P -1
;
_chemical_formula_sum "Si O2"
_cell_formula_units_Z 14
_cell_length_a 15.296410
_cell_length_b 7.042139
_cell_length_c 7.637690
_cell_angle_alpha 139.786472
_cell_angle_beta 83.002769
_cell_angle_gamma 98.544401
_cell_volume 525.243634
_symmetry_space_group_name_H-M "P -1"
_symmetry_group_IT_number 2
_symmetry_cell_setting 'triclinic'
loop_
_space_group_symop_operation_xyz
x,y,z
-x,-y,-z
loop_
_atom_site_type_symbol
_atom_site_label
_atom_site_fract_x
_atom_site_fract_y
_atom_site_fract_z
Si Si1 0.407360 0.110191 0.658404
Si Si2 0.314417 0.312889 0.357141
Si Si3 0.956737 0.096639 0.848857
Si Si4 0.121054 0.544931 0.179841
Si Si5 0.872292 0.465971 0.423496
Si Si6 0.593710 0.157364 0.146300
Si Si7 0.683659 0.408826 0.839730
O O1 0.500000 0.000000 0.500000
O O2 0.392306 0.970778 0.755014
O O3 0.334826 0.938690 0.431708
O O4 0.391664 0.451002 0.929372
O O5 0.219372 0.394461 0.502321
O O6 0.390343 0.493300 0.580868
O O7 0.321033 0.447117 0.252103
O O8 0.332759 0.975085 0.086520
O O9 0.945596 0.745304 0.600279
O O10 0.896892 0.223517 0.107624
O O11 0.077866 0.785970 0.243435
O O12 0.053854 0.253280 0.971189
O O13 0.135213 0.630832 0.440232
O O14 0.218386 0.500938 0.053526
O O15 0.500000 0.000000 0.000000
#
# Coordination Sequence:
#
# PCOD9084692 Si02
#       7
#     2   2   2   2   2   2   2
#     4  10  20  37  57  85 114 152 205 252 303 383
#     4   9  19  36  58  81 117 158 203 249 303 386
#     4  11  25  41  67 101 131 170 228 264 319 400
#     4  10  24  44  67  96 136 175 213 276 326 379
#     4  11  23  43  66  95 132 175 218 266 327 380
#     4  10  19  35  56  82 113 155 195 251 319 364
#     4   9  20  37  61  81 118 164 200 246 321 372
#
# _framework density 26.654299999999999
#
# number of rings (size 3 to 8) (size 9 to 14) (size 15 to 20)
#    0.000    2.000    0.000    2.571    0.000    9.143 
#    7.714    0.000    0.000    0.000    0.000    0.000 
#    0.000    0.000    0.000    0.000    0.000    0.000 
#
# Total GULP energy -78463.917275 kJ/mol
# GULP energy per Si atom -5604.565520 kJ/mol
# Density = 2.659363 g / cm^3
# Si number density = 26.654300 Si / 1000 Ang^3
#
#
#
# Elastic Constant Matrix: (Units=GPa)
#
#
# Indices 1 2 3 4 5 6 
#
# 1 145.2355 -8.1256 48.5004 -15.1428 -6.9289 15.9008
# 2 -8.1256 87.9175 19.8786 -20.6306 4.0569 -14.6889
# 3 48.5004 19.8786 137.5245 8.0056 -19.1038 3.7628
# 4 -15.1428 -20.6306 8.0056 41.9036 -5.7281 2.9626
# 5 -6.9289 4.0569 -19.1038 -5.7281 34.6699 -5.4742
# 6 15.9008 -14.6889 3.7628 2.9626 -5.4742 30.3324
#
#
#
# Elastic Compliance Matrix: (Units=1/GPa)
#
#
# Indices 1 2 3 4 5 6 
#
# 1 0.009296 0.002406 -0.003878 0.005520 -0.000250 -0.003811
# 2 0.002406 0.015527 -0.003916 0.008702 -0.001159 0.005685
# 3 -0.003878 -0.003916 0.010097 -0.004654 0.004502 0.000151
# 4 0.005520 0.008702 -0.004654 0.031438 0.002604 -0.000703
# 5 -0.000250 -0.001159 0.004502 0.002604 0.032572 0.004636
# 6 -0.003811 0.005685 0.000151 -0.000703 0.004636 0.038605
#
#
# Mechanical properties :
#
#
# Convention : Reuss Voigt Hill
#
# Bulk Modulus (GPa) = 41.41695 54.57604 47.99650
# Shear Modulus (GPa) = 31.97755 42.07613 37.02684
#
# Velocity S-wave (km/s) = 3.46745 3.97745 3.73117
# Velocity P-wave (km/s) = 5.62167 6.45085 6.05048
#
# Compressibility (1/GPa) = 0.02414470
#
# Stress axis : x y z
#
# Youngs Moduli (GPa) = 107.57492 64.40242 99.03680
#
# Poissons Ratio (x) = -0.15496 0.38406
# Poissons Ratio (y) = -0.25884 0.38783
# Poissons Ratio (z) = 0.41717 0.25220
#
# Static dielectric constant tensor:
#      x y z
#    x 2.126830 0.012490 -0.014010 
#    y 0.012490 2.117970 -0.016050 
#    z -0.014010 -0.016050 2.027850 
# 
# From -- ./inp_files/432982.got.cif
#   From: 2010.05.17/outbox.cif.g08.bks.cpg/sg2_217_cif.got.tgz:432982.got - 2010.06.03 11:33:40.
