data_PCOD9084733
_publ_section_title
;
Structure prediction by ZEFSAII (Michael W. Deem and Ramdas Pophale) SiO2 
 PCOD9084733
Probable space group: P -1
;
_chemical_formula_sum "Si O2"
_cell_formula_units_Z 13
_cell_length_a 9.207325
_cell_length_b 10.224064
_cell_length_c 7.146543
_cell_angle_alpha 105.594244
_cell_angle_beta 127.259890
_cell_angle_gamma 58.658424
_cell_volume 456.256620
_symmetry_space_group_name_H-M "P -1"
_symmetry_group_IT_number 2
_symmetry_cell_setting 'triclinic'
loop_
_space_group_symop_operation_xyz
x,y,z
-x,-y,-z
loop_
_atom_site_type_symbol
_atom_site_label
_atom_site_fract_x
_atom_site_fract_y
_atom_site_fract_z
Si Si1 0.692549 0.618631 0.482516
Si Si2 0.531059 0.836196 0.769000
Si Si3 0.308650 0.601643 0.131572
Si Si4 0.781345 0.199345 0.220011
Si Si5 0.201745 0.163261 0.534516
Si Si6 0.101688 0.124853 0.003635
Si Si7 0.000000 0.500000 0.000000
O O1 0.543116 0.767219 0.546863
O O2 0.548378 0.538472 0.332245
O O3 0.751076 0.693061 0.381981
O O4 0.897613 0.527171 0.722399
O O5 0.399701 0.788379 0.783920
O O6 0.398816 0.019803 0.716296
O O7 0.769759 0.799996 0.973309
O O8 0.214903 0.492599 0.076264
O O9 0.138811 0.759119 0.160409
O O10 0.282170 0.662165 0.922025
O O11 0.991941 0.181148 0.471883
O O12 0.839384 0.042660 0.087046
O O13 0.163516 0.129241 0.272380
#
# Coordination Sequence:
#
# PCOD9084733 Si02
#       7
#     2   2   2   2   2   2   1
#     4  11  22  40  64  87 116 158 204 245 289 350
#     4  11  20  34  58  94 128 153 187 247 306 354
#     4  11  22  40  64  87 116 158 204 245 289 350
#     4  11  20  34  58  94 128 153 187 247 306 354
#     4  10  19  35  56  87 126 155 195 238 291 361
#     4  10  19  35  56  87 126 155 195 238 291 361
#     4  12  22  44  66  84 112 156 224 238 280 348
#
# _framework density 28.492737000000002
#
# number of rings (size 3 to 8) (size 9 to 14) (size 15 to 20)
#    0.000    1.231    4.615    7.846    0.000    0.000 
#    0.000    0.769    0.000    1.846    0.000    0.000 
#    0.000    0.000    0.000    0.000    0.000    0.000 
#
# Total GULP energy -72675.552988 kJ/mol
# GULP energy per Si atom -5590.427153 kJ/mol
# Density = 2.842789 g / cm^3
# Si number density = 28.492737 Si / 1000 Ang^3
#
#
#
# Elastic Constant Matrix: (Units=GPa)
#
#
# Indices 1 2 3 4 5 6 
#
# 1 229.1968 65.4589 35.3275 16.2489 29.7965 34.7214
# 2 65.4589 94.4013 3.9021 11.0576 -3.7324 29.1146
# 3 35.3275 3.9021 77.7510 3.0654 38.6070 4.4628
# 4 16.2489 11.0576 3.0654 30.0735 12.4420 3.4848
# 5 29.7965 -3.7324 38.6070 12.4420 55.2728 8.0864
# 6 34.7214 29.1146 4.4628 3.4848 8.0864 70.2311
#
#
#
# Elastic Compliance Matrix: (Units=1/GPa)
#
#
# Indices 1 2 3 4 5 6 
#
# 1 0.006212 -0.003943 -0.001369 -0.000672 -0.002355 -0.001045
# 2 -0.003943 0.015824 -0.001633 -0.005558 0.006311 -0.004958
# 3 -0.001369 -0.001633 0.020927 0.005414 -0.015432 0.001532
# 4 -0.000672 -0.005558 0.005414 0.040333 -0.013138 0.001804
# 5 -0.002355 0.006311 -0.015432 -0.013138 0.034072 -0.003743
# 6 -0.001045 -0.004958 0.001532 0.001804 -0.003743 0.017055
#
#
# Mechanical properties :
#
#
# Convention : Reuss Voigt Hill
#
# Bulk Modulus (GPa) = 34.39481 67.85847 51.12664
# Shear Modulus (GPa) = 31.64485 50.89286 41.26885
#
# Velocity S-wave (km/s) = 3.33622 4.23089 3.80991
# Velocity P-wave (km/s) = 5.19020 6.90906 6.11037
#
# Compressibility (1/GPa) = 0.02907415
#
# Stress axis : x y z
#
# Youngs Moduli (GPa) = 160.96928 63.19364 47.78542
#
# Poissons Ratio (x) = 0.24919 0.06542
# Poissons Ratio (y) = 0.63473 0.07801
# Poissons Ratio (z) = 0.22037 0.10316
#
# Static dielectric constant tensor:
#      x y z
#    x 2.125180 0.928010 -0.141950 
#    y 0.928010 -13.794350 1.836260 
#    z -0.141950 1.836260 2.039540 
# 
# From -- ./inp_files/170061.got.cif
#   From: 2010.05.17/outbox.cif.g08.bks.cpg/sg2_86_cif.got.tgz:170061.got - 2010.06.03 11:33:40.
