data_PCOD9084545
_publ_section_title
;
Structure prediction by ZEFSAII (Michael W. Deem and Ramdas Pophale) SiO2 
 PCOD9084545
Probable space group: P -1
;
_chemical_formula_sum "Si O2"
_cell_formula_units_Z 16
_cell_length_a 11.209055
_cell_length_b 12.476582
_cell_length_c 8.154891
_cell_angle_alpha 59.619892
_cell_angle_beta 116.615148
_cell_angle_gamma 132.036816
_cell_volume 720.013096
_symmetry_space_group_name_H-M "P -1"
_symmetry_group_IT_number 2
_symmetry_cell_setting 'triclinic'
loop_
_space_group_symop_operation_xyz
x,y,z
-x,-y,-z
loop_
_atom_site_type_symbol
_atom_site_label
_atom_site_fract_x
_atom_site_fract_y
_atom_site_fract_z
Si Si1 0.539365 0.007688 0.825404
Si Si2 0.207497 0.786041 0.692188
Si Si3 0.127047 0.462706 0.361874
Si Si4 0.394175 0.238832 0.048227
Si Si5 0.832361 0.727116 0.933706
Si Si6 0.297777 0.583953 0.717528
Si Si7 0.864184 0.267480 0.927112
Si Si8 0.605467 0.509829 0.710282
O O1 0.375713 0.955895 0.663859
O O2 0.706892 0.172321 0.785935
O O3 0.585610 0.890041 0.903911
O O4 0.500000 0.000000 0.000000
O O5 0.249487 0.689927 0.682201
O O6 0.020665 0.715836 0.582156
O O7 0.186896 0.747327 0.903248
O O8 0.224273 0.521540 0.543973
O O9 0.052964 0.559180 0.206115
O O10 0.257543 0.509503 0.263180
O O11 0.217702 0.190563 0.036249
O O12 0.479209 0.374689 0.860742
O O13 0.508529 0.314027 0.220579
O O14 0.763896 0.564391 0.098947
O O15 0.019894 0.790936 0.970259
O O16 0.724193 0.674186 0.742630
O O17 0.500000 0.500000 0.500000
#
# Coordination Sequence:
#
# PCOD9084545 Si02
#       8
#     2   2   2   2   2   2   2   2
#     4   9  20  38  58  79 110 152 189 223 283 333
#     4  10  19  35  54  81 113 146 184 231 279 322
#     4  12  20  33  60  88 115 142 192 235 272 330
#     4  10  21  38  56  79 119 152 179 228 287 335
#     4  11  20  35  55  82 120 146 184 229 281 336
#     4  10  20  34  55  86 118 148 178 233 288 322
#     4  11  21  35  58  87 110 151 192 229 272 330
#     4  11  21  35  58  89 112 143 189 235 281 329
#
# _framework density 22.221817999999999
#
# number of rings (size 3 to 8) (size 9 to 14) (size 15 to 20)
#    0.000    1.500    2.500    6.750    0.000    0.500 
#    0.000    2.500    0.000    2.250    0.000    0.000 
#    0.000    0.000    0.000    0.000    0.000    0.000 
#
# Total GULP energy -89177.906638 kJ/mol
# GULP energy per Si atom -5573.619165 kJ/mol
# Density = 2.217124 g / cm^3
# Si number density = 22.221818 Si / 1000 Ang^3
#
#
#
# Elastic Constant Matrix: (Units=GPa)
#
#
# Indices 1 2 3 4 5 6 
#
# 1 128.5142 21.8064 25.0104 22.1175 6.9648 -0.0509
# 2 21.8064 71.2323 20.2888 32.8252 -1.4933 11.6668
# 3 25.0104 20.2888 66.5084 25.9038 -0.0873 2.0626
# 4 22.1175 32.8252 25.9038 26.4318 -3.1435 1.6496
# 5 6.9648 -1.4933 -0.0873 -3.1435 17.7233 5.4935
# 6 -0.0509 11.6668 2.0626 1.6496 5.4935 28.2506
#
#
#
# Elastic Compliance Matrix: (Units=1/GPa)
#
#
# Indices 1 2 3 4 5 6 
#
# 1 0.009729 0.002059 0.000234 -0.011708 -0.006038 0.001008
# 2 0.002059 0.042897 0.012724 -0.067172 -0.004771 -0.013791
# 3 0.000234 0.012724 0.028422 -0.044290 -0.005603 -0.003654
# 4 -0.011708 -0.067172 -0.044290 0.176462 0.025136 0.015762
# 5 -0.006038 -0.004771 -0.005603 0.025136 0.066556 -0.012041
# 6 0.001008 -0.013791 -0.003654 0.015762 -0.012041 0.042783
#
#
# Mechanical properties :
#
#
# Convention : Reuss Voigt Hill
#
# Bulk Modulus (GPa) = 9.00238 44.49625 26.74931
# Shear Modulus (GPa) = 13.37457 27.75776 20.56617
#
# Velocity S-wave (km/s) = 2.45596 3.53813 3.04549
# Velocity P-wave (km/s) = 3.47883 6.06286 4.94270
#
# Compressibility (1/GPa) = 0.11108171
#
# Stress axis : x y z
#
# Youngs Moduli (GPa) = 102.78641 23.31144 35.18352
#
# Poissons Ratio (x) = -0.04799 -0.00825
# Poissons Ratio (y) = -0.21159 -0.44766
# Poissons Ratio (z) = -0.02409 -0.29661
#
# Static dielectric constant tensor:
#      x y z
#    x 1.885990 0.040890 0.021150 
#    y 0.040890 1.844910 0.043500 
#    z 0.021150 0.043500 1.823160 
# 
# From -- ./inp_files/257703.got.cif
#   From: 2010.05.17/outbox.cif.g08.bks.cpg/sg2_129_cif.got.tgz:257703.got - 2010.06.03 11:33:40.
