data_PCOD9084831
_publ_section_title
;
Structure prediction by ZEFSAII (Michael W. Deem and Ramdas Pophale) SiO2 
 PCOD9084831
Probable space group: P -1
;
_chemical_formula_sum "Si O2"
_cell_formula_units_Z 14
_cell_length_a 19.292641
_cell_length_b 9.861427
_cell_length_c 21.449382
_cell_angle_alpha 34.901283
_cell_angle_beta 161.683316
_cell_angle_gamma 144.719986
_cell_volume 717.428501
_symmetry_space_group_name_H-M "P -1"
_symmetry_group_IT_number 2
_symmetry_cell_setting 'triclinic'
loop_
_space_group_symop_operation_xyz
x,y,z
-x,-y,-z
loop_
_atom_site_type_symbol
_atom_site_label
_atom_site_fract_x
_atom_site_fract_y
_atom_site_fract_z
Si Si1 0.752508 0.239481 0.216713
Si Si2 0.460343 0.543703 0.267317
Si Si3 0.211124 0.032506 0.212524
Si Si4 0.043246 0.376027 0.648898
Si Si5 0.340413 0.747867 0.538885
Si Si6 0.738315 0.988024 0.095086
Si Si7 0.090327 0.206927 0.414857
O O1 0.824302 0.436051 0.258166
O O2 0.906249 0.305436 0.262050
O O3 0.815795 0.993487 0.389648
O O4 0.484097 0.176547 0.000632
O O5 0.279907 0.289635 0.211419
O O6 0.583197 0.500681 0.322206
O O7 0.680708 0.599207 0.479051
O O8 0.337045 0.765390 0.081530
O O9 0.428877 0.051870 0.346024
O O10 0.197298 0.825766 0.330134
O O11 0.000000 0.000000 0.000000
O O12 0.000000 0.500000 0.500000
O O13 0.800798 0.272349 0.512138
O O14 0.182719 0.169865 0.832084
O O15 0.949892 0.068119 0.290809
#
# Coordination Sequence:
#
# PCOD9084831 Si02
#       7
#     2   2   2   2   2   2   2
#     4  10  20  37  53  80 118 165 209 241 278 356
#     4   9  20  36  62  87 113 151 203 258 294 350
#     4   9  19  40  69  94 108 151 217 261 299 346
#     4  12  23  41  57  89 136 170 189 245 308 366
#     4   9  21  40  62  89 119 156 203 253 298 355
#     4  11  23  34  58  88 121 162 203 242 308 355
#     4  10  19  35  57  83 115 158 207 250 288 343
#
# _framework density 19.514139
#
# number of rings (size 3 to 8) (size 9 to 14) (size 15 to 20)
#    0.857    1.143    2.857    0.857    2.000    1.143 
#    5.143    0.714    0.000    1.714    0.000    0.000 
#    0.000    0.000    0.000    0.000    0.000    0.000 
#
# Total GULP energy -77945.117873 kJ/mol
# GULP energy per Si atom -5567.508419 kJ/mol
# Density = 1.946972 g / cm^3
# Si number density = 19.514139 Si / 1000 Ang^3
#
#
#
# Elastic Constant Matrix: (Units=GPa)
#
#
# Indices 1 2 3 4 5 6 
#
# 1 74.4213 26.5505 23.0953 -8.1076 13.7020 3.6066
# 2 26.5505 97.6097 18.9840 -4.3676 5.8299 -14.8397
# 3 23.0953 18.9840 71.0740 -0.0286 5.5026 -2.7814
# 4 -8.1076 -4.3676 -0.0286 43.4142 -17.8330 2.8323
# 5 13.7020 5.8299 5.5026 -17.8330 25.3672 -2.6263
# 6 3.6066 -14.8397 -2.7814 2.8323 -2.6263 25.8776
#
#
#
# Elastic Compliance Matrix: (Units=1/GPa)
#
#
# Indices 1 2 3 4 5 6 
#
# 1 0.018322 -0.004629 -0.004298 -0.000202 -0.008719 -0.006533
# 2 -0.004629 0.013013 -0.001730 0.000302 0.000924 0.007982
# 3 -0.004298 -0.001730 0.016131 -0.001852 -0.001942 0.001346
# 4 -0.000202 0.000302 -0.001852 0.032667 0.023281 -0.001210
# 5 -0.008719 0.000924 -0.001942 0.023281 0.061244 0.005204
# 6 -0.006533 0.007982 0.001346 -0.001210 0.005204 0.044937
#
#
# Mechanical properties :
#
#
# Convention : Reuss Voigt Hill
#
# Bulk Modulus (GPa) = 38.24073 42.26274 40.25173
# Shear Modulus (GPa) = 23.11107 30.56347 26.83727
#
# Velocity S-wave (km/s) = 3.44513 3.96185 3.71249
# Velocity P-wave (km/s) = 5.95519 6.52938 6.24888
#
# Compressibility (1/GPa) = 0.02615013
#
# Stress axis : x y z
#
# Youngs Moduli (GPa) = 54.57843 76.84916 61.99264
#
# Poissons Ratio (x) = 0.35577 0.26644
# Poissons Ratio (y) = 0.25267 0.10727
# Poissons Ratio (z) = 0.23458 0.13298
#
# Static dielectric constant tensor:
#      x y z
#    x 1.654870 0.012450 0.008580 
#    y 0.012450 1.759280 0.012050 
#    z 0.008580 0.012050 1.717740 
# 
# From -- ./inp_files/599718.got.cif
#   From: 2010.05.17/outbox.cif.g08.bks.cpg/sg2_300_cif.got.tgz:599718.got - 2010.06.03 11:33:40.
