data_PCOD9084057
_publ_section_title
;
Structure prediction by ZEFSAII (Michael W. Deem and Ramdas Pophale) SiO2 
 PCOD9084057
Probable space group: P -1
;
_chemical_formula_sum "Si O2"
_cell_formula_units_Z 16
_cell_length_a 9.143973
_cell_length_b 18.380025
_cell_length_c 14.232902
_cell_angle_alpha 34.567318
_cell_angle_beta 124.248355
_cell_angle_gamma 100.137821
_cell_volume 886.523362
_symmetry_space_group_name_H-M "P -1"
_symmetry_group_IT_number 2
_symmetry_cell_setting 'triclinic'
loop_
_space_group_symop_operation_xyz
x,y,z
-x,-y,-z
loop_
_atom_site_type_symbol
_atom_site_label
_atom_site_fract_x
_atom_site_fract_y
_atom_site_fract_z
Si Si1 0.994373 0.843878 0.267200
Si Si2 0.192959 0.059239 0.374107
Si Si3 0.373269 0.071781 0.612393
Si Si4 0.320416 0.201890 0.122367
Si Si5 0.841245 0.021087 0.217912
Si Si6 0.618305 0.184611 0.669323
Si Si7 0.471710 0.361692 0.622459
Si Si8 0.985135 0.544110 0.557300
O O1 0.223298 0.796029 0.356550
O O2 0.969734 0.898033 0.308624
O O3 0.980796 0.698191 0.404677
O O4 0.787508 0.004443 0.967970
O O5 0.202875 0.129598 0.401968
O O6 0.173061 0.169442 0.165085
O O7 0.444400 0.887147 0.642213
O O8 0.010309 0.030716 0.330702
O O9 0.282133 0.031047 0.709609
O O10 0.436547 0.186399 0.542545
O O11 0.598581 0.905702 0.828708
O O12 0.193952 0.386055 0.854102
O O13 0.661222 0.198610 0.920337
O O14 0.505395 0.310759 0.579737
O O15 0.500000 0.500000 0.500000
O O16 0.235957 0.418920 0.516475
O O17 0.000000 0.500000 0.500000
#
# Coordination Sequence:
#
# PCOD9084057 Si02
#       8
#     2   2   2   2   2   2   2   2
#     4  10  22  34  58  83 112 155 181 241 281 335
#     4   9  20  37  60  83 109 158 194 225 272 334
#     4  10  19  34  60  83 108 145 192 239 267 330
#     4   9  20  36  58  83 111 154 191 223 279 331
#     4  11  20  36  58  87 113 143 196 233 281 334
#     4  10  20  38  55  82 115 148 196 223 287 339
#     4  11  23  35  57  85 118 150 178 237 291 342
#     4  12  22  37  57  88 121 144 186 235 292 332
#
# _framework density 18.048029
#
# number of rings (size 3 to 8) (size 9 to 14) (size 15 to 20)
#    0.750    1.000    0.000    5.625    0.000    4.000 
#    0.000    0.625    0.000    3.750    0.000    0.000 
#    0.000    0.000    0.000    0.000    0.000    0.000 
#
# Total GULP energy -89273.370413 kJ/mol
# GULP energy per Si atom -5579.585651 kJ/mol
# Density = 1.800695 g / cm^3
# Si number density = 18.048029 Si / 1000 Ang^3
#
#
#
# Elastic Constant Matrix: (Units=GPa)
#
#
# Indices 1 2 3 4 5 6 
#
# 1 127.5963 66.9509 22.5878 -12.4808 -16.6925 -12.2773
# 2 66.9509 128.1892 23.3943 -13.4810 -1.4185 0.6133
# 3 22.5878 23.3943 54.5117 -11.9739 -11.9957 -3.0952
# 4 -12.4808 -13.4810 -11.9739 23.8464 3.2899 1.1654
# 5 -16.6925 -1.4185 -11.9957 3.2899 21.8647 -3.5882
# 6 -12.2773 0.6133 -3.0952 1.1654 -3.5882 35.5483
#
#
#
# Elastic Compliance Matrix: (Units=1/GPa)
#
#
# Indices 1 2 3 4 5 6 
#
# 1 0.013502 -0.006866 0.000419 0.001618 0.010810 0.005856
# 2 -0.006866 0.012281 -0.003692 0.002713 -0.007494 -0.003750
# 3 0.000419 -0.003692 0.024664 0.008575 0.012875 0.003374
# 4 0.001618 0.002713 0.008575 0.048825 -0.001309 -0.000474
# 5 0.010810 -0.007494 0.012875 -0.001309 0.062625 0.011348
# 6 0.005856 -0.003750 0.003374 -0.000474 0.011348 0.031673
#
#
# Mechanical properties :
#
#
# Convention : Reuss Voigt Hill
#
# Bulk Modulus (GPa) = 33.14750 59.57368 46.36059
# Shear Modulus (GPa) = 22.33093 29.40951 25.87022
#
# Velocity S-wave (km/s) = 3.52135 4.04110 3.79015
# Velocity P-wave (km/s) = 5.91095 7.40635 6.70050
#
# Compressibility (1/GPa) = 0.03016819
#
# Stress axis : x y z
#
# Youngs Moduli (GPa) = 74.06370 81.42515 40.54498
#
# Poissons Ratio (x) = 0.55911 -0.01698
# Poissons Ratio (y) = 0.50856 0.14968
# Poissons Ratio (z) = -0.03101 0.30059
#
# Static dielectric constant tensor:
#      x y z
#    x 1.611710 -0.010880 0.008060 
#    y -0.010880 1.614500 0.020240 
#    z 0.008060 0.020240 1.606430 
# 
# From -- ./inp_files/299518.got.cif
#   From: 2010.05.17/outbox.cif.g08.bks.cpg/sg2_150_cif.got.tgz:299518.got - 2010.06.03 11:33:40.
