data_PCOD9084590
_publ_section_title
;
Structure prediction by ZEFSAII (Michael W. Deem and Ramdas Pophale) SiO2 
 PCOD9084590
Probable space group: P -1
;
_chemical_formula_sum "Si O2"
_cell_formula_units_Z 16
_cell_length_a 14.207940
_cell_length_b 5.231540
_cell_length_c 16.472551
_cell_angle_alpha 74.748628
_cell_angle_beta 141.941797
_cell_angle_gamma 96.168267
_cell_volume 717.909849
_symmetry_space_group_name_H-M "P -1"
_symmetry_group_IT_number 2
_symmetry_cell_setting 'triclinic'
loop_
_space_group_symop_operation_xyz
x,y,z
-x,-y,-z
loop_
_atom_site_type_symbol
_atom_site_label
_atom_site_fract_x
_atom_site_fract_y
_atom_site_fract_z
Si Si1 0.191476 0.718826 0.162328
Si Si2 0.751948 0.034003 0.565712
Si Si3 0.813107 0.076331 0.284718
Si Si4 0.042412 0.198386 0.134093
Si Si5 0.448418 0.380165 0.584036
Si Si6 0.619345 0.746492 0.277052
Si Si7 0.562910 0.274484 0.997311
Si Si8 0.886301 0.261686 0.486496
O O1 0.095924 0.489090 0.146766
O O2 0.372113 0.618216 0.311812
O O3 0.140967 0.999166 0.151783
O O4 0.131871 0.765564 0.024095
O O5 0.902287 0.945636 0.731657
O O6 0.641548 0.809187 0.515345
O O7 0.653084 0.322264 0.500898
O O8 0.808533 0.060025 0.508687
O O9 0.673363 0.000670 0.250882
O O10 0.934152 0.816510 0.363467
O O11 0.744668 0.220181 0.145063
O O12 0.888222 0.234400 0.391975
O O13 0.456170 0.232506 0.689159
O O14 0.779461 0.539155 0.410806
O O15 0.503061 0.644888 0.142489
O O16 0.500000 0.500000 0.000000
O O17 0.500000 0.000000 0.000000
#
# Coordination Sequence:
#
# PCOD9084590 Si02
#       8
#     2   2   2   2   2   2   2   2
#     4  10  22  41  63  90 114 159 189 235 291 352
#     4  11  23  39  58  90 120 153 191 247 285 347
#     4  10  19  35  55  79 108 155 190 238 279 340
#     4  10  22  41  64  85 123 149 194 236 289 349
#     4  11  23  37  61  88 122 152 194 237 296 342
#     4  10  20  36  55  79 119 150 191 242 284 335
#     4  10  20  34  54  77 105 143 191 232 278 330
#     4  10  20  34  56  79 114 148 194 230 291 330
#
# _framework density 22.286923000000002
#
# number of rings (size 3 to 8) (size 9 to 14) (size 15 to 20)
#    0.000    1.750    2.500    1.875    0.000    4.000 
#    0.000    0.000    0.000    4.500    0.000    0.000 
#    0.000    0.000    0.000    0.000    0.000    0.000 
#
# Total GULP energy -89147.124786 kJ/mol
# GULP energy per Si atom -5571.695299 kJ/mol
# Density = 2.223620 g / cm^3
# Si number density = 22.286923 Si / 1000 Ang^3
#
#
#
# Elastic Constant Matrix: (Units=GPa)
#
#
# Indices 1 2 3 4 5 6 
#
# 1 36.3389 3.0188 11.5422 -1.7411 0.7372 8.8730
# 2 3.0188 94.1004 17.5225 -2.8224 1.8375 -0.3239
# 3 11.5422 17.5225 117.9788 -7.4993 -0.7179 -1.2832
# 4 -1.7411 -2.8224 -7.4993 25.8021 -5.3308 2.1987
# 5 0.7372 1.8375 -0.7179 -5.3308 20.1571 0.0884
# 6 8.8730 -0.3239 -1.2832 2.1987 0.0884 17.8812
#
#
#
# Elastic Compliance Matrix: (Units=1/GPa)
#
#
# Indices 1 2 3 4 5 6 
#
# 1 0.032803 -0.000433 -0.003168 0.002572 -0.000519 -0.016826
# 2 -0.000433 0.010964 -0.001557 0.000510 -0.000905 0.000244
# 3 -0.003168 -0.001557 0.009196 0.002375 0.001205 0.001906
# 4 0.002572 0.000510 0.002375 0.042539 0.011222 -0.006383
# 5 -0.000519 -0.000905 0.001205 0.011222 0.052728 -0.001313
# 6 -0.016826 0.000244 0.001906 -0.006383 -0.001313 0.065207
#
#
# Mechanical properties :
#
#
# Convention : Reuss Voigt Hill
#
# Bulk Modulus (GPa) = 23.44703 34.73170 29.08937
# Shear Modulus (GPa) = 21.01118 27.19039 24.10079
#
# Velocity S-wave (km/s) = 3.07377 3.49666 3.29201
# Velocity P-wave (km/s) = 4.81049 5.64977 5.24694
#
# Compressibility (1/GPa) = 0.04264932
#
# Stress axis : x y z
#
# Youngs Moduli (GPa) = 30.48490 91.20347 108.74028
#
# Poissons Ratio (x) = 0.03951 0.34444
# Poissons Ratio (y) = 0.01320 0.16926
# Poissons Ratio (z) = 0.09656 0.14196
#
# Static dielectric constant tensor:
#      x y z
#    x 1.827920 0.038160 -0.018380 
#    y 0.038160 1.848440 0.025370 
#    z -0.018380 0.025370 1.990660 
# 
# From -- ./inp_files/525709.got.cif
#   From: 2010.05.17/outbox.cif.g08.bks.cpg/sg2_263_cif.got.tgz:525709.got - 2010.06.03 11:33:40.
