data_PCOD9084116
_publ_section_title
;
Structure prediction by ZEFSAII (Michael W. Deem and Ramdas Pophale) SiO2 
 PCOD9084116
Probable space group: P -1
;
_chemical_formula_sum "Si O2"
_cell_formula_units_Z 14
_cell_length_a 9.853824
_cell_length_b 14.348568
_cell_length_c 18.104563
_cell_angle_alpha 33.625637
_cell_angle_beta 129.707912
_cell_angle_gamma 152.630775
_cell_volume 598.632418
_symmetry_space_group_name_H-M "P -1"
_symmetry_group_IT_number 2
_symmetry_cell_setting 'triclinic'
loop_
_space_group_symop_operation_xyz
x,y,z
-x,-y,-z
loop_
_atom_site_type_symbol
_atom_site_label
_atom_site_fract_x
_atom_site_fract_y
_atom_site_fract_z
Si Si1 0.131970 0.247234 0.562897
Si Si2 0.243072 0.796937 0.977074
Si Si3 0.001206 0.292858 0.286589
Si Si4 0.626084 0.737385 0.592909
Si Si5 0.190524 0.320630 0.837885
Si Si6 0.758326 0.709691 0.884345
Si Si7 0.848163 0.385193 0.725403
O O1 0.500000 0.500000 0.500000
O O2 0.093096 0.417631 0.441618
O O3 0.896491 0.002257 0.574809
O O4 0.014206 0.060722 0.719798
O O5 0.966542 0.707755 0.958708
O O6 0.470469 0.042962 0.828216
O O7 0.088341 0.488484 0.121384
O O8 0.500000 0.000000 0.000000
O O9 0.272073 0.364347 0.333255
O O10 0.025878 0.432474 0.274482
O O11 0.679333 0.925394 0.426470
O O12 0.283816 0.447536 0.703812
O O13 0.525000 0.538653 0.847062
O O14 0.027275 0.353698 0.794435
O O15 0.000000 0.000000 0.000000
O O16 0.500000 0.500000 0.000000
#
# Coordination Sequence:
#
# PCOD9084116 Si02
#       7
#     2   2   2   2   2   2   2
#     4  10  20  39  60  92 127 159 213 259 314 380
#     4  10  19  34  60  90 119 158 212 251 305 370
#     4   9  18  35  58  92 117 154 215 249 307 374
#     4   9  20  36  60  89 124 164 200 267 313 367
#     4  11  24  43  61  92 133 166 210 263 323 372
#     4  11  23  39  63  93 127 167 208 266 317 371
#     4  10  20  37  67  88 119 174 206 254 315 385
#
# _framework density 23.386638000000001
#
# number of rings (size 3 to 8) (size 9 to 14) (size 15 to 20)
#    0.000    2.000    1.429    2.571    0.000    7.429 
#    5.143    2.143    0.000    1.714    0.000    0.000 
#    0.000    0.000    0.000    0.000    0.000    0.000 
#
# Total GULP energy -78091.780666 kJ/mol
# GULP energy per Si atom -5577.984333 kJ/mol
# Density = 2.333341 g / cm^3
# Si number density = 23.386638 Si / 1000 Ang^3
#
#
#
# Elastic Constant Matrix: (Units=GPa)
#
#
# Indices 1 2 3 4 5 6 
#
# 1 119.5433 27.7370 67.8078 -5.4179 23.7404 30.1991
# 2 27.7370 83.5613 14.6432 -7.8681 12.6873 15.1754
# 3 67.8078 14.6432 246.9843 -1.4626 8.1367 31.7780
# 4 -5.4179 -7.8681 -1.4626 19.7818 12.0893 -1.2381
# 5 23.7404 12.6873 8.1367 12.0893 47.8871 5.4094
# 6 30.1991 15.1754 31.7780 -1.2381 5.4094 37.2549
#
#
#
# Elastic Compliance Matrix: (Units=1/GPa)
#
#
# Indices 1 2 3 4 5 6 
#
# 1 0.013503 -0.001046 -0.002450 0.006883 -0.006925 -0.007195
# 2 -0.001046 0.014598 0.000183 0.008323 -0.005001 -0.004251
# 3 -0.002450 0.000183 0.005000 -0.000889 0.000824 -0.002503
# 4 0.006883 0.008323 -0.000889 0.069383 -0.022687 -0.002611
# 5 -0.006925 -0.005001 0.000824 -0.022687 0.031038 0.001687
# 6 -0.007195 -0.004251 -0.002503 -0.002611 0.001687 0.036209
#
#
# Mechanical properties :
#
#
# Convention : Reuss Voigt Hill
#
# Bulk Modulus (GPa) = 37.77489 74.49609 56.13549
# Shear Modulus (GPa) = 27.00044 43.64481 35.32262
#
# Velocity S-wave (km/s) = 3.40152 4.32467 3.89057
# Velocity P-wave (km/s) = 5.62268 7.54058 6.65112
#
# Compressibility (1/GPa) = 0.02647261
#
# Stress axis : x y z
#
# Youngs Moduli (GPa) = 74.05931 68.50430 199.98691
#
# Poissons Ratio (x) = 0.07168 0.49005
# Poissons Ratio (y) = 0.07750 -0.03657
# Poissons Ratio (z) = 0.18148 -0.01253
#
# Static dielectric constant tensor:
#      x y z
#    x 1.901970 -0.079980 -0.089350 
#    y -0.079980 1.921410 -0.009670 
#    z -0.089350 -0.009670 2.065350 
# 
# From -- ./inp_files/320885.got.cif
#   From: 2010.05.17/outbox.cif.g08.bks.cpg/sg2_161_cif.got.tgz:320885.got - 2010.06.03 11:33:40.
