data_PCOD9084535
_publ_section_title
;
Structure prediction by ZEFSAII (Michael W. Deem and Ramdas Pophale) SiO2 
 PCOD9084535
Probable space group: P -1
;
_chemical_formula_sum "Si O2"
_cell_formula_units_Z 16
_cell_length_a 15.523958
_cell_length_b 12.449799
_cell_length_c 5.367175
_cell_angle_alpha 85.820794
_cell_angle_beta 125.715290
_cell_angle_gamma 124.488609
_cell_volume 640.674001
_symmetry_space_group_name_H-M "P -1"
_symmetry_group_IT_number 2
_symmetry_cell_setting 'triclinic'
loop_
_space_group_symop_operation_xyz
x,y,z
-x,-y,-z
loop_
_atom_site_type_symbol
_atom_site_label
_atom_site_fract_x
_atom_site_fract_y
_atom_site_fract_z
Si Si1 0.051662 0.127020 0.245278
Si Si2 0.482962 0.059999 0.707928
Si Si3 0.192297 0.031630 0.778794
Si Si4 0.182971 0.853913 0.360908
Si Si5 0.997660 0.401468 0.204531
Si Si6 0.670881 0.620331 0.551364
Si Si7 0.769297 0.329318 0.224754
Si Si8 0.428962 0.326439 0.124171
O O1 0.140352 0.117358 0.599709
O O2 0.167587 0.270232 0.265369
O O3 0.906564 0.061471 0.144237
O O4 0.000000 0.000000 0.000000
O O5 0.500000 0.000000 0.500000
O O6 0.322938 0.990437 0.447818
O O7 0.607932 0.229392 0.895040
O O8 0.500000 0.000000 0.000000
O O9 0.158807 0.919261 0.536192
O O10 0.357856 0.162469 0.051356
O O11 0.225791 0.762257 0.545824
O O12 0.044926 0.730355 0.998730
O O13 0.869952 0.343684 0.182866
O O14 0.146336 0.508589 0.576082
O O15 0.000000 0.500000 0.000000
O O16 0.593287 0.454435 0.423723
O O17 0.638090 0.648176 0.763531
O O18 0.601216 0.648730 0.210518
#
# Coordination Sequence:
#
# PCOD9084535 Si02
#       8
#     2   2   2   2   2   2   2   2
#     4  10  19  35  54  80 107 153 192 242 288 348
#     4  10  19  35  57  84 112 147 190 232 289 349
#     4  10  21  34  55  81 115 144 199 242 295 337
#     4  10  20  34  56  84 115 150 192 246 290 347
#     4   9  17  32  55  81 109 151 193 228 285 350
#     4   9  17  31  56  74 103 137 190 226 282 341
#     4   9  18  33  57  82 110 152 191 233 284 354
#     4   9  17  32  52  80  99 142 180 233 279 344
#
# _framework density 24.973699
#
# number of rings (size 3 to 8) (size 9 to 14) (size 15 to 20)
#    0.000    2.500    2.500    0.000    0.000    1.000 
#    0.000    0.000   11.000    0.000    0.000    0.000 
#    0.000    0.000    0.000    0.000    0.000    0.000 
#
# Total GULP energy -89213.876266 kJ/mol
# GULP energy per Si atom -5575.867267 kJ/mol
# Density = 2.491686 g / cm^3
# Si number density = 24.973699 Si / 1000 Ang^3
#
#
#
# Elastic Constant Matrix: (Units=GPa)
#
#
# Indices 1 2 3 4 5 6 
#
# 1 98.6203 19.8238 62.9054 33.0568 -2.2586 36.8134
# 2 19.8238 127.8876 54.0584 44.1335 5.9537 31.0026
# 3 62.9054 54.0584 169.6865 69.1318 -18.9400 25.6505
# 4 33.0568 44.1335 69.1318 70.7463 6.1937 14.4199
# 5 -2.2586 5.9537 -18.9400 6.1937 45.5190 1.6615
# 6 36.8134 31.0026 25.6505 14.4199 1.6615 35.9704
#
#
#
# Elastic Compliance Matrix: (Units=1/GPa)
#
#
# Indices 1 2 3 4 5 6 
#
# 1 0.021608 0.005433 -0.004644 -0.004516 -0.000165 -0.021667
# 2 0.005433 0.013075 -0.001760 -0.006245 -0.000847 -0.013031
# 3 -0.004644 -0.001760 0.012927 -0.010115 0.006726 0.000796
# 4 -0.004516 -0.006245 -0.010115 0.029543 -0.007845 0.005737
# 5 -0.000165 -0.000847 0.006726 -0.007845 0.026009 -0.001953
# 6 -0.021667 -0.013031 0.000796 0.005737 -0.001953 0.058430
#
#
# Mechanical properties :
#
#
# Convention : Reuss Voigt Hill
#
# Bulk Modulus (GPa) = 21.89773 74.41884 48.15829
# Shear Modulus (GPa) = 27.97094 47.74095 37.85594
#
# Velocity S-wave (km/s) = 3.35029 4.37698 3.89759
# Velocity P-wave (km/s) = 4.87374 7.44363 6.29130
#
# Compressibility (1/GPa) = 0.04566684
#
# Stress axis : x y z
#
# Youngs Moduli (GPa) = 46.27835 76.48349 77.35771
#
# Poissons Ratio (x) = -0.41550 0.35928
# Poissons Ratio (y) = -0.25141 0.13613
# Poissons Ratio (z) = 0.21494 0.13459
#
# Static dielectric constant tensor:
#      x y z
#    x 1.954850 -0.040930 0.082610 
#    y -0.040930 1.992930 -0.024050 
#    z 0.082610 -0.024050 2.129580 
# 
# From -- ./inp_files/97277.got.cif
#   From: 2010.05.17/outbox.cif.g08.bks.cpg/sg2_49_cif.got.tgz:97277.got - 2010.06.03 11:33:40.
