data_PCOD9084899
_publ_section_title
;
Structure prediction by ZEFSAII (Michael W. Deem and Ramdas Pophale) SiO2 
 PCOD9084899
Probable space group: P -1
;
_chemical_formula_sum "Si O2"
_cell_formula_units_Z 16
_cell_length_a 11.331624
_cell_length_b 15.863657
_cell_length_c 9.009196
_cell_angle_alpha 95.218205
_cell_angle_beta 129.055782
_cell_angle_gamma 128.591990
_cell_volume 593.171370
_symmetry_space_group_name_H-M "P -1"
_symmetry_group_IT_number 2
_symmetry_cell_setting 'triclinic'
loop_
_space_group_symop_operation_xyz
x,y,z
-x,-y,-z
loop_
_atom_site_type_symbol
_atom_site_label
_atom_site_fract_x
_atom_site_fract_y
_atom_site_fract_z
Si Si1 0.196128 0.854390 0.350659
Si Si2 0.879389 0.762796 0.814112
Si Si3 0.759560 0.620478 0.418201
Si Si4 0.432797 0.241413 0.601371
Si Si5 0.446178 0.807428 0.583427
Si Si6 0.701518 0.846723 0.059829
Si Si7 0.306160 0.982775 0.772084
Si Si8 0.351138 0.547993 0.933966
O O1 0.182821 0.751211 0.383629
O O2 0.284509 0.954917 0.576561
O O3 0.500000 0.000000 0.500000
O O4 0.910533 0.751156 0.007093
O O5 0.823517 0.653002 0.648846
O O6 0.625860 0.706695 0.546106
O O7 0.216688 0.977252 0.089430
O O8 0.428622 0.498068 0.075835
O O9 0.973378 0.804620 0.564101
O O10 0.863852 0.592236 0.396874
O O11 0.568449 0.236436 0.600018
O O12 0.657393 0.383642 0.935452
O O13 0.077641 0.038011 0.343903
O O14 0.479702 0.750458 0.722784
O O15 0.622281 0.724120 0.067878
O O16 0.603318 0.878731 0.088879
O O17 0.500000 0.000000 0.000000
#
# Coordination Sequence:
#
# PCOD9084899 Si02
#       8
#     2   2   2   2   2   2   2   2
#     4  10  21  33  56  90 116 158 195 245 300 347
#     4   9  17  35  55  84 112 155 193 236 300 346
#     4  10  21  41  59  85 126 156 193 253 299 361
#     4  10  20  36  60  89 123 150 197 256 297 349
#     4  10  19  35  57  88 124 149 196 253 297 348
#     4  11  20  36  60  97 111 153 204 253 294 347
#     4  12  21  38  64  86 123 153 207 249 287 360
#     4  10  22  37  61  90 120 155 197 248 312 347
#
# _framework density 26.973655999999998
#
# number of rings (size 3 to 8) (size 9 to 14) (size 15 to 20)
#    0.000    1.750    5.000    2.625    3.500    1.000 
#    0.000    1.875    0.000    8.250    0.000    0.000 
#    0.000    0.000    0.000    0.000    0.000    0.000 
#
# Total GULP energy -89381.819604 kJ/mol
# GULP energy per Si atom -5586.363725 kJ/mol
# Density = 2.691226 g / cm^3
# Si number density = 26.973656 Si / 1000 Ang^3
#
#
#
# Elastic Constant Matrix: (Units=GPa)
#
#
# Indices 1 2 3 4 5 6 
#
# 1 156.8993 3.7461 47.1763 -15.0533 -52.9076 4.4599
# 2 3.7461 107.8572 28.3496 -24.5370 -6.8700 -6.7924
# 3 47.1763 28.3496 76.6588 -13.3234 -42.9133 -1.3590
# 4 -15.0533 -24.5370 -13.3234 42.8146 5.7764 -5.2283
# 5 -52.9076 -6.8700 -42.9133 5.7764 65.7425 -14.0729
# 6 4.4599 -6.7924 -1.3590 -5.2283 -14.0729 31.7276
#
#
#
# Elastic Compliance Matrix: (Units=1/GPa)
#
#
# Indices 1 2 3 4 5 6 
#
# 1 0.009400 0.001440 -0.002088 0.002871 0.006591 0.002294
# 2 0.001440 0.012003 -0.004319 0.006463 -0.000308 0.003110
# 3 -0.002088 -0.004319 0.025707 0.003621 0.016086 0.008202
# 4 0.002871 0.006463 0.003621 0.029570 0.004461 0.007987
# 5 0.006591 -0.000308 0.016086 0.004461 0.033902 0.015469
# 6 0.002294 0.003110 0.008202 0.007987 0.015469 0.040391
#
#
# Mechanical properties :
#
#
# Convention : Reuss Voigt Hill
#
# Bulk Modulus (GPa) = 26.89983 55.55102 41.22542
# Shear Modulus (GPa) = 28.85192 45.53314 37.19253
#
# Velocity S-wave (km/s) = 3.27407 4.11306 3.71731
# Velocity P-wave (km/s) = 4.92819 6.57233 5.80873
#
# Compressibility (1/GPa) = 0.03717496
#
# Stress axis : x y z
#
# Youngs Moduli (GPa) = 106.38632 83.31058 38.90058
#
# Poissons Ratio (x) = -0.11995 0.08121
# Poissons Ratio (y) = -0.15317 0.16803
# Poissons Ratio (z) = 0.22210 0.35985
#
# Static dielectric constant tensor:
#      x y z
#    x 2.153570 0.082800 0.090740 
#    y 0.082800 2.173310 0.059590 
#    z 0.090740 0.059590 2.322580 
# 
# From -- ./inp_files/279538.got.cif
#   From: 2010.05.17/outbox.cif.g08.bks.cpg/sg2_140_cif.got.tgz:279538.got - 2010.06.03 11:33:40.
