data_PCOD9084143
_publ_section_title
;
Structure prediction by ZEFSAII (Michael W. Deem and Ramdas Pophale) SiO2 
 PCOD9084143
Probable space group: P -1
;
_chemical_formula_sum "Si O2"
_cell_formula_units_Z 15
_cell_length_a 15.979611
_cell_length_b 9.802655
_cell_length_c 24.516646
_cell_angle_alpha 30.845129
_cell_angle_beta 17.863603
_cell_angle_gamma 32.973021
_cell_volume 598.191719
_symmetry_space_group_name_H-M "P -1"
_symmetry_group_IT_number 2
_symmetry_cell_setting 'triclinic'
loop_
_space_group_symop_operation_xyz
x,y,z
-x,-y,-z
loop_
_atom_site_type_symbol
_atom_site_label
_atom_site_fract_x
_atom_site_fract_y
_atom_site_fract_z
Si Si1 0.997797 0.973874 0.389426
Si Si2 0.288470 0.727781 0.026329
Si Si3 0.106477 0.016595 0.145568
Si Si4 0.396186 0.055479 0.448281
Si Si5 0.878538 0.742208 0.188584
Si Si6 0.513006 0.261411 0.660314
Si Si7 0.500000 0.000000 0.000000
Si Si8 0.511195 0.428059 0.723233
O O1 0.211267 0.757772 0.363722
O O2 0.790619 0.840218 0.524280
O O3 0.204510 0.103400 0.177160
O O4 0.799312 0.178591 0.479545
O O5 0.434649 0.975274 0.828582
O O6 0.500000 0.500000 0.000000
O O7 0.125635 0.615315 0.116805
O O8 0.097405 0.854306 0.151059
O O9 0.250164 0.280947 0.952850
O O10 0.811123 0.054941 0.343196
O O11 0.327092 0.870913 0.101955
O O12 0.511596 0.296363 0.324805
O O13 0.635212 0.847995 0.345300
O O14 0.726379 0.621551 0.273847
O O15 0.000000 0.000000 0.000000
O O16 0.533087 0.430943 0.643916
#
# Coordination Sequence:
#
# PCOD9084143 Si02
#       8
#     2   2   2   2   2   2   1   2
#     4   9  17  32  57  91 129 169 213 260 318 380
#     4  10  21  38  63  91 126 167 212 263 323 386
#     4   9  20  37  56  94 130 159 212 263 321 371
#     4  10  20  36  65  91 126 172 214 261 325 389
#     4   9  20  42  64  90 125 172 215 264 323 388
#     4   9  19  36  61  91 128 170 212 268 320 381
#     4   8  16  34  52  82 132 158 196 270 318 352
#     4  10  19  34  60  98 127 166 216 266 316 380
#
# _framework density 25.075574
#
# number of rings (size 3 to 8) (size 9 to 14) (size 15 to 20)
#    0.000    2.667    0.000    0.800    1.867    0.533 
#   12.000    6.000    0.000    1.600    0.000    0.000 
#    0.000    0.000    0.000    0.000    0.000    0.000 
#
# Total GULP energy -83692.665582 kJ/mol
# GULP energy per Si atom -5579.511039 kJ/mol
# Density = 2.501850 g / cm^3
# Si number density = 25.075574 Si / 1000 Ang^3
#
#
#
# Elastic Constant Matrix: (Units=GPa)
#
#
# Indices 1 2 3 4 5 6 
#
# 1 152.9172 57.7649 37.0790 -10.4430 -10.9305 5.9269
# 2 57.7649 67.4409 19.5367 -6.1819 -13.1349 4.3549
# 3 37.0790 19.5367 94.6591 5.0462 20.4883 6.5481
# 4 -10.4430 -6.1819 5.0462 23.7188 10.6860 -13.7087
# 5 -10.9305 -13.1349 20.4883 10.6860 36.8803 10.7813
# 6 5.9269 4.3549 6.5481 -13.7087 10.7813 48.2583
#
#
#
# Elastic Compliance Matrix: (Units=1/GPa)
#
#
# Indices 1 2 3 4 5 6 
#
# 1 0.010375 -0.007612 -0.002894 0.003025 0.000963 0.000450
# 2 -0.007612 0.024583 -0.003986 -0.003414 0.010916 -0.004151
# 3 -0.002894 -0.003986 0.014785 0.000111 -0.010864 0.001168
# 4 0.003025 -0.003414 0.000111 0.070714 -0.028587 0.026396
# 5 0.000963 0.010916 -0.010864 -0.028587 0.051217 -0.019192
# 6 0.000450 -0.004151 0.001168 0.026396 -0.019192 0.032669
#
#
# Mechanical properties :
#
#
# Convention : Reuss Voigt Hill
#
# Bulk Modulus (GPa) = 48.16839 60.41982 54.29411
# Shear Modulus (GPa) = 20.81201 35.14725 27.97963
#
# Velocity S-wave (km/s) = 2.88405 3.74793 3.34400
# Velocity P-wave (km/s) = 5.50829 6.54803 6.05054
#
# Compressibility (1/GPa) = 0.02076050
#
# Stress axis : x y z
#
# Youngs Moduli (GPa) = 96.38908 40.67782 67.63542
#
# Poissons Ratio (x) = 0.30964 0.19572
# Poissons Ratio (y) = 0.73371 0.26957
# Poissons Ratio (z) = 0.27892 0.16213
#
# Static dielectric constant tensor:
#      x y z
#    x 2.025370 -0.098080 0.037290 
#    y -0.098080 2.085020 -0.058770 
#    z 0.037290 -0.058770 1.950960 
# 
# From -- ./inp_files/611595.got.cif
#   From: 2010.05.17/outbox.cif.g08.bks.cpg/sg2_306_cif.got.tgz:611595.got - 2010.06.03 11:33:40.
