data_PCOD9084304
_publ_section_title
;
Structure prediction by ZEFSAII (Michael W. Deem and Ramdas Pophale) SiO2 
 PCOD9084304
Probable space group: P -1
;
_chemical_formula_sum "Si O2"
_cell_formula_units_Z 12
_cell_length_a 5.204141
_cell_length_b 10.667591
_cell_length_c 12.354067
_cell_angle_alpha 82.397570
_cell_angle_beta 46.669876
_cell_angle_gamma 81.931958
_cell_volume 493.336106
_symmetry_space_group_name_H-M "P -1"
_symmetry_group_IT_number 2
_symmetry_cell_setting 'triclinic'
loop_
_space_group_symop_operation_xyz
x,y,z
-x,-y,-z
loop_
_atom_site_type_symbol
_atom_site_label
_atom_site_fract_x
_atom_site_fract_y
_atom_site_fract_z
Si Si1 0.371015 0.338745 0.365513
Si Si2 0.147864 0.077156 0.551668
Si Si3 0.018056 0.460528 0.267410
Si Si4 0.860257 0.061879 0.871104
Si Si5 0.321954 0.394639 0.961977
Si Si6 0.875535 0.185850 0.067634
O O1 0.242118 0.220332 0.481958
O O2 0.047933 0.405625 0.385262
O O3 0.605409 0.273590 0.207370
O O4 0.622845 0.434471 0.342829
O O5 0.914320 0.081440 0.727152
O O6 0.500000 0.000000 0.500000
O O7 0.000000 0.000000 0.500000
O O8 0.275976 0.577471 0.187711
O O9 0.252013 0.392987 0.110665
O O10 0.839974 0.173347 0.951279
O O11 0.133343 0.951112 0.856138
O O12 0.500000 0.000000 0.000000
O O13 0.000000 0.500000 0.000000
O O14 0.232517 0.258102 0.963643
#
# Coordination Sequence:
#
# PCOD9084304 Si02
#       6
#     2   2   2   2   2   2
#     4  11  21  38  62  91 127 164 209 267 314 380
#     4  12  25  42  67  92 127 178 224 260 318 391
#     4  10  20  34  57  95 123 156 210 267 316 363
#     4  11  25  41  62  95 134 171 211 266 331 385
#     4  10  19  34  62  94 124 163 215 268 318 372
#     4  10  22  38  61  92 131 163 210 269 324 371
#
# _framework density 24.324189000000001
#
# number of rings (size 3 to 8) (size 9 to 14) (size 15 to 20)
#    0.000    1.333    5.000    2.000    9.333    0.000 
#    0.000    0.000    0.000    2.000    0.000    0.000 
#    0.000    0.000    0.000    0.000    0.000    0.000 
#
# Total GULP energy -66885.941418 kJ/mol
# GULP energy per Si atom -5573.828451 kJ/mol
# Density = 2.426883 g / cm^3
# Si number density = 24.324189 Si / 1000 Ang^3
#
#
#
# Elastic Constant Matrix: (Units=GPa)
#
#
# Indices 1 2 3 4 5 6 
#
# 1 147.1932 41.8722 65.5320 -4.8436 25.8971 23.4301
# 2 41.8722 79.1017 63.7994 -15.2083 5.1809 24.4190
# 3 65.5320 63.7994 177.0098 -17.0915 22.9243 17.4663
# 4 -4.8436 -15.2083 -17.0915 44.1270 -4.3854 -0.7236
# 5 25.8971 5.1809 22.9243 -4.3854 38.4176 1.7618
# 6 23.4301 24.4190 17.4663 -0.7236 1.7618 49.1125
#
#
#
# Elastic Compliance Matrix: (Units=1/GPa)
#
#
# Indices 1 2 3 4 5 6 
#
# 1 0.009615 -0.002817 -0.001762 -0.001141 -0.005071 -0.002395
# 2 -0.002817 0.022209 -0.006173 0.005181 0.003525 -0.007553
# 3 -0.001762 -0.006173 0.008945 0.000834 -0.003262 0.000858
# 4 -0.001141 0.005181 0.000834 0.024860 0.002505 -0.002052
# 5 -0.005071 0.003525 -0.003262 0.002505 0.031171 0.000745
# 6 -0.002395 -0.007553 0.000858 -0.002052 0.000745 0.024897
#
#
# Mechanical properties :
#
#
# Convention : Reuss Voigt Hill
#
# Bulk Modulus (GPa) = 51.90467 82.85688 67.38078
# Shear Modulus (GPa) = 33.41769 41.80483 37.61126
#
# Velocity S-wave (km/s) = 3.71056 4.15016 3.93650
# Velocity P-wave (km/s) = 6.30418 7.55663 6.95864
#
# Compressibility (1/GPa) = 0.01926609
#
# Stress axis : x y z
#
# Youngs Moduli (GPa) = 104.00139 45.02777 111.79861
#
# Poissons Ratio (x) = 0.12684 0.19694
# Poissons Ratio (y) = 0.29296 0.69010
# Poissons Ratio (z) = 0.18320 0.27794
#
# Static dielectric constant tensor:
#      x y z
#    x 1.931460 -0.154320 -0.035210 
#    y -0.154320 2.029560 0.006280 
#    z -0.035210 0.006280 1.927180 
# 
# From -- ./inp_files/19635.got.cif
#   From: 2010.05.17/outbox.cif.g08.bks.cpg/sg2_10_cif.got.tgz:19635.got - 2010.06.03 11:33:40.
