data_PCOD9084332
_publ_section_title
;
Structure prediction by ZEFSAII (Michael W. Deem and Ramdas Pophale) SiO2 
 PCOD9084332
Probable space group: P -1
;
_chemical_formula_sum "Si O2"
_cell_formula_units_Z 16
_cell_length_a 18.742882
_cell_length_b 14.055389
_cell_length_c 7.987284
_cell_angle_alpha 82.601264
_cell_angle_beta 83.145293
_cell_angle_gamma 19.266990
_cell_volume 688.513756
_symmetry_space_group_name_H-M "P -1"
_symmetry_group_IT_number 2
_symmetry_cell_setting 'triclinic'
loop_
_space_group_symop_operation_xyz
x,y,z
-x,-y,-z
loop_
_atom_site_type_symbol
_atom_site_label
_atom_site_fract_x
_atom_site_fract_y
_atom_site_fract_z
Si Si1 0.796392 0.842236 0.069748
Si Si2 0.592882 0.723881 0.179141
Si Si3 0.145632 0.721782 0.025544
Si Si4 0.812507 0.989898 0.626990
Si Si5 0.415602 0.712425 0.012628
Si Si6 0.369998 0.499289 0.545992
Si Si7 0.146769 0.424837 0.789648
Si Si8 0.989273 0.919492 0.359398
O O1 0.800479 0.752137 0.224704
O O2 0.021105 0.572201 0.968849
O O3 0.614276 0.033012 0.939678
O O4 0.740570 0.019435 0.108197
O O5 0.574490 0.673877 0.350922
O O6 0.647714 0.763466 0.206494
O O7 0.814358 0.407946 0.097185
O O8 0.049117 0.792753 0.200552
O O9 0.376298 0.482104 0.015287
O O10 0.000000 0.000000 0.000000
O O11 0.701053 0.144357 0.804951
O O12 0.602543 0.251493 0.506606
O O13 0.953400 0.897763 0.533864
O O14 0.969369 0.700958 0.660937
O O15 0.500000 0.500000 0.000000
O O16 0.209999 0.698694 0.388792
O O17 0.221385 0.747421 0.661737
#
# Coordination Sequence:
#
# PCOD9084332 Si02
#       8
#     2   2   2   2   2   2   2   2
#     4   9  20  36  54  93 120 151 204 255 291 351
#     4  11  19  37  59  87 121 157 199 250 304 347
#     4  11  22  38  55  89 126 155 195 250 297 366
#     4  11  21  40  57  90 122 160 206 245 297 361
#     4  10  22  35  60  86 127 154 188 249 309 348
#     4  11  21  37  56  84 123 160 200 246 296 361
#     4  10  19  34  63  87 117 155 207 255 291 345
#     4  11  24  36  59  84 127 166 198 241 308 361
#
# _framework density 23.23846
#
# number of rings (size 3 to 8) (size 9 to 14) (size 15 to 20)
#    0.000    1.500    6.250    0.750    7.000    0.000 
#    0.000    0.000    0.000    3.000    0.000    7.875 
#    0.000    0.000    0.000    0.000    0.000    0.000 
#
# Total GULP energy -89119.516132 kJ/mol
# GULP energy per Si atom -5569.969758 kJ/mol
# Density = 2.318557 g / cm^3
# Si number density = 23.238460 Si / 1000 Ang^3
#
#
#
# Elastic Constant Matrix: (Units=GPa)
#
#
# Indices 1 2 3 4 5 6 
#
# 1 102.1249 27.2320 12.1246 -10.5462 -17.3489 11.9541
# 2 27.2320 78.4070 11.9718 -20.6685 -1.4300 3.0328
# 3 12.1246 11.9718 44.7458 4.2458 -15.0934 7.0490
# 4 -10.5462 -20.6685 4.2458 29.1747 2.5885 -4.4388
# 5 -17.3489 -1.4300 -15.0934 2.5885 23.5559 -13.2270
# 6 11.9541 3.0328 7.0490 -4.4388 -13.2270 51.6667
#
#
#
# Elastic Compliance Matrix: (Units=1/GPa)
#
#
# Indices 1 2 3 4 5 6 
#
# 1 0.012454 -0.004112 0.000823 0.000601 0.009188 -0.000348
# 2 -0.004112 0.018936 -0.008190 0.013880 -0.008694 -0.000076
# 3 0.000823 -0.008190 0.033161 -0.012283 0.023050 0.000612
# 4 0.000601 0.013880 -0.012283 0.047372 -0.010627 0.002071
# 5 0.009188 -0.008694 0.023050 -0.010627 0.071758 0.012697
# 6 -0.000348 -0.000076 0.000612 0.002071 0.012697 0.022785
#
#
# Mechanical properties :
#
#
# Convention : Reuss Voigt Hill
#
# Bulk Modulus (GPa) = 24.04254 36.43716 30.23985
# Shear Modulus (GPa) = 20.55167 32.47609 26.51388
#
# Velocity S-wave (km/s) = 2.97708 3.74239 3.38146
# Velocity P-wave (km/s) = 4.71018 5.86410 5.31853
#
# Compressibility (1/GPa) = 0.04159295
#
# Stress axis : x y z
#
# Youngs Moduli (GPa) = 80.29252 52.81001 30.15603
#
# Poissons Ratio (x) = 0.21714 -0.02481
# Poissons Ratio (y) = 0.33014 0.24698
# Poissons Ratio (z) = -0.06605 0.43251
#
# Static dielectric constant tensor:
#      x y z
#    x 1.966330 0.055490 0.044510 
#    y 0.055490 1.969120 -0.055410 
#    z 0.044510 -0.055410 1.945680 
# 
# From -- ./inp_files/347220.got.cif
#   From: 2010.05.17/outbox.cif.g08.bks.cpg/sg2_174_cif.got.tgz:347220.got - 2010.06.03 11:33:40.
