data_PCOD9084100
_publ_section_title
;
Structure prediction by ZEFSAII (Michael W. Deem and Ramdas Pophale) SiO2 
 PCOD9084100
Probable space group: P -1
;
_chemical_formula_sum "Si O2"
_cell_formula_units_Z 16
_cell_length_a 22.035104
_cell_length_b 30.925709
_cell_length_c 9.166288
_cell_angle_alpha 141.613129
_cell_angle_beta 39.777911
_cell_angle_gamma 170.245119
_cell_volume 656.730244
_symmetry_space_group_name_H-M "P -1"
_symmetry_group_IT_number 2
_symmetry_cell_setting 'triclinic'
loop_
_space_group_symop_operation_xyz
x,y,z
-x,-y,-z
loop_
_atom_site_type_symbol
_atom_site_label
_atom_site_fract_x
_atom_site_fract_y
_atom_site_fract_z
Si Si1 0.436118 0.624734 0.617868
Si Si2 0.517889 0.520273 0.194712
Si Si3 0.207742 0.048041 0.434429
Si Si4 0.670044 0.052041 0.392859
Si Si5 0.523278 0.910062 0.610892
Si Si6 0.898601 0.802559 0.632941
Si Si7 0.053380 0.650819 0.997868
Si Si8 0.365991 0.767999 0.948163
O O1 0.494912 0.586575 0.454982
O O2 0.716851 0.849662 0.573123
O O3 0.068283 0.355747 0.498416
O O4 0.328974 0.602198 0.887553
O O5 0.216949 0.265283 0.165571
O O6 0.500000 0.500000 0.000000
O O7 0.901349 0.776314 0.232952
O O8 0.556113 0.245862 0.323620
O O9 0.075455 0.980294 0.657762
O O10 0.500000 0.000000 0.500000
O O11 0.498812 0.899779 0.453785
O O12 0.642675 0.976111 0.117148
O O13 0.785116 0.159630 0.833445
O O14 0.138180 0.659446 0.729923
O O15 0.775808 0.023646 0.490361
O O16 0.500000 0.500000 0.500000
O O17 0.310668 0.795956 0.025061
O O18 0.000000 0.500000 0.000000
#
# Coordination Sequence:
#
# PCOD9084100 Si02
#       8
#     2   2   2   2   2   2   2   2
#     4  11  21  41  65  90 127 162 212 254 316 376
#     4  11  23  43  65  90 119 166 216 262 312 371
#     4  11  23  37  65  91 125 163 208 261 316 367
#     4  11  20  36  60  88 126 166 209 252 307 367
#     4  10  19  36  60  89 127 162 212 254 307 373
#     4  10  21  38  61  91 121 164 210 258 306 369
#     4  10  19  34  60  88 125 163 201 250 310 374
#     4  12  21  37  61  94 128 161 208 252 312 378
#
# _framework density 24.363123000000002
#
# number of rings (size 3 to 8) (size 9 to 14) (size 15 to 20)
#    0.000    1.250    7.500    1.125    0.000    0.000 
#    0.000    1.250    5.500    0.000    0.000    0.000 
#    0.000    0.000    0.000    0.000    0.000    0.000 
#
# Total GULP energy -89093.606120 kJ/mol
# GULP energy per Si atom -5568.350383 kJ/mol
# Density = 2.430767 g / cm^3
# Si number density = 24.363123 Si / 1000 Ang^3
#
#
#
# Elastic Constant Matrix: (Units=GPa)
#
#
# Indices 1 2 3 4 5 6 
#
# 1 107.0078 29.7905 39.3272 -31.8618 18.0402 -12.9823
# 2 29.7905 63.8811 24.4660 -37.7393 9.3851 -19.7850
# 3 39.3272 24.4660 88.1307 -30.5364 19.5391 -17.4935
# 4 -31.8618 -37.7393 -30.5364 35.0227 -10.6616 10.4267
# 5 18.0402 9.3851 19.5391 -10.6616 38.8845 -16.7698
# 6 -12.9823 -19.7850 -17.4935 10.4267 -16.7698 48.8559
#
#
#
# Elastic Compliance Matrix: (Units=1/GPa)
#
#
# Indices 1 2 3 4 5 6 
#
# 1 0.013467 0.001878 -0.001827 0.011856 -0.002388 0.000335
# 2 0.001878 0.051337 0.007548 0.061433 0.005260 0.012686
# 3 -0.001827 0.007548 0.018662 0.020687 -0.003043 0.003794
# 4 0.011856 0.061433 0.020687 0.122431 0.008052 0.012071
# 5 -0.002388 0.005260 -0.003043 0.008052 0.033718 0.010261
# 6 0.000335 0.012686 0.003794 0.012071 0.010261 0.027999
#
#
# Mechanical properties :
#
#
# Convention : Reuss Voigt Hill
#
# Bulk Modulus (GPa) = 10.13537 49.57633 29.85585
# Shear Modulus (GPa) = 17.52514 35.58170 26.55342
#
# Velocity S-wave (km/s) = 2.68494 3.82576 3.30495
# Velocity P-wave (km/s) = 3.71228 6.31731 5.18119
#
# Compressibility (1/GPa) = 0.09866434
#
# Stress axis : x y z
#
# Youngs Moduli (GPa) = 74.25556 19.47926 53.58361
#
# Poissons Ratio (x) = -0.03658 0.09790
# Poissons Ratio (y) = -0.13946 -0.40446
# Poissons Ratio (z) = 0.13567 -0.14703
#
# Static dielectric constant tensor:
#      x y z
#    x 2.577090 0.043600 -0.619440 
#    y 0.043600 2.101040 -0.089490 
#    z -0.619440 -0.089490 2.774310 
# 
# From -- ./inp_files/187879.got.cif
#   From: 2010.05.17/outbox.cif.g08.bks.cpg/sg2_94_cif.got.tgz:187879.got - 2010.06.03 11:33:40.
