data_PCOD9084203
_publ_section_title
;
Structure prediction by ZEFSAII (Michael W. Deem and Ramdas Pophale) SiO2 
 PCOD9084203
Probable space group: P -1
;
_chemical_formula_sum "Si O2"
_cell_formula_units_Z 12
_cell_length_a 12.974000
_cell_length_b 7.643953
_cell_length_c 8.929245
_cell_angle_alpha 96.039049
_cell_angle_beta 56.386463
_cell_angle_gamma 135.976248
_cell_volume 442.052938
_symmetry_space_group_name_H-M "P -1"
_symmetry_group_IT_number 2
_symmetry_cell_setting 'triclinic'
loop_
_space_group_symop_operation_xyz
x,y,z
-x,-y,-z
loop_
_atom_site_type_symbol
_atom_site_label
_atom_site_fract_x
_atom_site_fract_y
_atom_site_fract_z
Si Si1 0.297514 0.778158 0.351299
Si Si2 0.275357 0.723728 0.780842
Si Si3 0.399688 0.349789 0.817726
Si Si4 0.209267 0.272891 0.675942
Si Si5 0.521917 0.773448 0.003534
Si Si6 0.958271 0.289465 0.240039
O O1 0.483876 0.007084 0.345489
O O2 0.362771 0.960178 0.169543
O O3 0.104208 0.652665 0.569881
O O4 0.321156 0.611274 0.244887
O O5 0.190768 0.463850 0.722865
O O6 0.202084 0.821563 0.770362
O O7 0.168787 0.565779 0.012208
O O8 0.242838 0.256605 0.820986
O O9 0.590649 0.521834 0.571417
O O10 0.467323 0.567905 0.906015
O O11 0.334398 0.125094 0.965675
O O12 0.069608 0.946418 0.711465
#
# Coordination Sequence:
#
# PCOD9084203 Si02
#       6
#     2   2   2   2   2   2
#     4  11  20  39  60  83 118 159 192 235 297 344
#     4  11  23  38  60  90 118 151 198 244 288 344
#     4  10  19  34  61  91 114 153 198 238 288 349
#     4  11  19  38  60  87 117 154 193 243 292 339
#     4  10  20  34  59  89 118 153 197 235 289 354
#     4  11  23  38  60  90 118 151 198 244 288 344
#
# _framework density 27.146069000000001
#
# number of rings (size 3 to 8) (size 9 to 14) (size 15 to 20)
#    0.000    1.333    3.333    4.000    0.000    0.000 
#    0.000    3.333    0.000    6.000    0.000    0.000 
#    0.000    0.000    0.000    0.000    0.000    0.000 
#
# Total GULP energy -67018.697205 kJ/mol
# GULP energy per Si atom -5584.891434 kJ/mol
# Density = 2.708428 g / cm^3
# Si number density = 27.146069 Si / 1000 Ang^3
#
#
#
# Elastic Constant Matrix: (Units=GPa)
#
#
# Indices 1 2 3 4 5 6 
#
# 1 68.2124 43.5509 6.9562 3.6778 26.3129 -11.4864
# 2 43.5509 94.1385 32.9196 16.7050 -1.3029 -4.3712
# 3 6.9562 32.9196 157.1642 34.1656 -19.8549 1.1130
# 4 3.6778 16.7050 34.1656 58.8120 2.6759 11.0832
# 5 26.3129 -1.3029 -19.8549 2.6759 45.0971 2.3906
# 6 -11.4864 -4.3712 1.1130 11.0832 2.3906 42.7890
#
#
#
# Elastic Compliance Matrix: (Units=1/GPa)
#
#
# Indices 1 2 3 4 5 6 
#
# 1 0.034726 -0.015898 -0.001648 0.002748 -0.022048 0.008261
# 2 -0.015898 0.019139 -0.001252 -0.003807 0.009601 -0.001830
# 3 -0.001648 -0.001252 0.008314 -0.004618 0.004853 0.000138
# 4 0.002748 -0.003807 -0.004618 0.021735 -0.004777 -0.004894
# 5 -0.022048 0.009601 0.004853 -0.004777 0.038051 -0.005953
# 6 0.008261 -0.001830 0.000138 -0.004894 -0.005953 0.026998
#
#
# Mechanical properties :
#
#
# Convention : Reuss Voigt Hill
#
# Bulk Modulus (GPa) = 40.67905 54.04094 47.36000
# Shear Modulus (GPa) = 25.67353 45.07884 35.37619
#
# Velocity S-wave (km/s) = 3.07865 4.07947 3.61387
# Velocity P-wave (km/s) = 5.25882 6.49154 5.90742
#
# Compressibility (1/GPa) = 0.02458268
#
# Stress axis : x y z
#
# Youngs Moduli (GPa) = 28.79668 52.25038 120.28103
#
# Poissons Ratio (x) = 0.83068 0.19825
# Poissons Ratio (y) = 0.45781 0.15056
# Poissons Ratio (z) = 0.04746 0.06540
#
# Static dielectric constant tensor:
#      x y z
#    x 2.371380 -0.133360 -0.132520 
#    y -0.133360 2.236240 0.071180 
#    z -0.132520 0.071180 2.081230 
# 
# From -- ./inp_files/154746.got.cif
#   From: 2010.05.17/outbox.cif.g08.bks.cpg/sg2_78_cif.got.tgz:154746.got - 2010.06.03 11:33:40.
