data_PCOD9084691
_publ_section_title
;
Structure prediction by ZEFSAII (Michael W. Deem and Ramdas Pophale) SiO2 
 PCOD9084691
Probable space group: P -1
;
_chemical_formula_sum "Si O2"
_cell_formula_units_Z 14
_cell_length_a 6.830639
_cell_length_b 10.803911
_cell_length_c 13.693514
_cell_angle_alpha 64.964784
_cell_angle_beta 72.121135
_cell_angle_gamma 111.736590
_cell_volume 709.755979
_symmetry_space_group_name_H-M "P -1"
_symmetry_group_IT_number 2
_symmetry_cell_setting 'triclinic'
loop_
_space_group_symop_operation_xyz
x,y,z
-x,-y,-z
loop_
_atom_site_type_symbol
_atom_site_label
_atom_site_fract_x
_atom_site_fract_y
_atom_site_fract_z
Si Si1 0.833995 0.759215 0.696331
Si Si2 0.732972 0.120674 0.730481
Si Si3 0.438508 0.663894 0.406824
Si Si4 0.175152 0.142870 0.542229
Si Si5 0.391758 0.736469 0.877702
Si Si6 0.842573 0.612821 0.304394
Si Si7 0.017193 0.552073 0.820880
O O1 0.731828 0.753739 0.606215
O O2 0.626200 0.728871 0.816114
O O3 0.915759 0.636908 0.742583
O O4 0.077355 0.951996 0.603835
O O5 0.639457 0.232024 0.673089
O O6 0.900219 0.205226 0.774043
O O7 0.931061 0.134090 0.617734
O O8 0.508058 0.924314 0.833574
O O9 0.619583 0.774304 0.432478
O O10 0.214566 0.495717 0.551155
O O11 0.606136 0.624604 0.330020
O O12 0.223304 0.686436 0.822101
O O13 0.211970 0.598761 0.030950
O O14 0.873282 0.523510 0.239814
#
# Coordination Sequence:
#
# PCOD9084691 Si02
#       7
#     2   2   2   2   2   2   2
#     4  10  19  35  56  82 112 141 174 224 271 315
#     4  10  20  37  56  80 111 143 175 220 269 317
#     4  10  19  36  56  80 113 141 170 224 272 318
#     4   9  19  32  56  87 109 137 179 214 270 333
#     4  10  23  38  56  79 106 144 189 219 260 319
#     4  10  22  34  55  83 108 140 182 216 267 328
#     4  11  22  38  56  79 109 144 182 225 263 310
#
# _framework density 19.725089000000001
#
# number of rings (size 3 to 8) (size 9 to 14) (size 15 to 20)
#    0.000    2.000    0.000    3.429    0.000    4.000 
#    0.000    6.429    0.000    0.000    0.000    0.000 
#    0.000    0.000    0.000    0.000    0.000    0.000 
#
# Total GULP energy -78215.317567 kJ/mol
# GULP energy per Si atom -5586.808398 kJ/mol
# Density = 1.968019 g / cm^3
# Si number density = 19.725089 Si / 1000 Ang^3
#
#
#
# Elastic Constant Matrix: (Units=GPa)
#
#
# Indices 1 2 3 4 5 6 
#
# 1 54.5848 35.8712 29.9903 -3.3743 -1.2080 -2.1217
# 2 35.8712 87.9878 33.3274 -13.9422 -13.0708 3.9756
# 3 29.9903 33.3274 62.6561 -2.8210 -3.7876 3.5087
# 4 -3.3743 -13.9422 -2.8210 28.8730 0.4454 -8.3608
# 5 -1.2080 -13.0708 -3.7876 0.4454 13.8381 -9.0057
# 6 -2.1217 3.9756 3.5087 -8.3608 -9.0057 25.8271
#
#
#
# Elastic Compliance Matrix: (Units=1/GPa)
#
#
# Indices 1 2 3 4 5 6 
#
# 1 0.030136 -0.010216 -0.009679 -0.001678 -0.008379 0.001898
# 2 -0.010216 0.022674 -0.005679 0.011294 0.024151 0.008520
# 3 -0.009679 -0.005679 0.023585 -0.003014 -0.003008 -0.005149
# 4 -0.001678 0.011294 -0.003014 0.045279 0.021762 0.020779
# 5 -0.008379 0.024151 -0.003008 0.021762 0.122633 0.045808
# 6 0.001898 0.008520 -0.005149 0.020779 0.045808 0.060963
#
#
# Mechanical properties :
#
#
# Convention : Reuss Voigt Hill
#
# Bulk Modulus (GPa) = 39.61008 44.84516 42.22762
# Shear Modulus (GPa) = 13.70490 20.77696 17.24093
#
# Velocity S-wave (km/s) = 2.63876 3.24902 2.95966
# Velocity P-wave (km/s) = 5.42298 6.07118 5.75621
#
# Compressibility (1/GPa) = 0.02524610
#
# Stress axis : x y z
#
# Youngs Moduli (GPa) = 33.18236 44.10396 42.40070
#
# Poissons Ratio (x) = 0.45058 0.41040
# Poissons Ratio (y) = 0.33900 0.24079
# Poissons Ratio (z) = 0.32117 0.25046
#
# Static dielectric constant tensor:
#      x y z
#    x 1.671920 0.022140 -0.025560 
#    y 0.022140 1.724740 -0.013470 
#    z -0.025560 -0.013470 1.667040 
# 
# From -- ./inp_files/481516.got.cif
#   From: 2010.05.17/outbox.cif.g08.bks.cpg/sg2_241_cif.got.tgz:481516.got - 2010.06.03 11:33:40.
