data_PCOD9084870
_publ_section_title
;
Structure prediction by ZEFSAII (Michael W. Deem and Ramdas Pophale) SiO2 
 PCOD9084870
Probable space group: P -1
;
_chemical_formula_sum "Si O2"
_cell_formula_units_Z 14
_cell_length_a 13.115635
_cell_length_b 13.365686
_cell_length_c 13.507313
_cell_angle_alpha 34.356013
_cell_angle_beta 147.646600
_cell_angle_gamma 148.161436
_cell_volume 617.698254
_symmetry_space_group_name_H-M "P -1"
_symmetry_group_IT_number 2
_symmetry_cell_setting 'triclinic'
loop_
_space_group_symop_operation_xyz
x,y,z
-x,-y,-z
loop_
_atom_site_type_symbol
_atom_site_label
_atom_site_fract_x
_atom_site_fract_y
_atom_site_fract_z
Si Si1 0.538266 0.291505 0.600519
Si Si2 0.502501 0.920192 0.956652
Si Si3 0.771688 0.299449 0.262679
Si Si4 0.263899 0.255368 0.602587
Si Si5 0.112881 0.022278 0.360076
Si Si6 0.938510 0.771907 0.033985
Si Si7 0.632601 0.926774 0.741652
O O1 0.385777 0.272155 0.586027
O O2 0.722714 0.527232 0.550554
O O3 0.363507 0.197226 0.445268
O O4 0.621253 0.133059 0.819592
O O5 0.277709 0.786198 0.820793
O O6 0.595452 0.768645 0.174100
O O7 0.500000 0.000000 0.000000
O O8 0.881777 0.540571 0.161669
O O9 0.535848 0.199084 0.205878
O O10 0.889493 0.185575 0.503157
O O11 0.033191 0.050658 0.600352
O O12 0.013971 0.103196 0.131351
O O13 0.728178 0.789385 0.885586
O O14 0.145261 0.882431 0.187391
O O15 0.500000 0.000000 0.500000
#
# Coordination Sequence:
#
# PCOD9084870 Si02
#       7
#     2   2   2   2   2   2   2
#     4   9  20  36  57  83 124 167 214 268 313 373
#     4   9  19  37  61  90 128 169 214 265 315 379
#     4  11  23  42  66  97 133 177 217 270 334 388
#     4  10  19  35  57  86 120 171 217 259 321 373
#     4  11  22  37  59  93 125 164 216 265 318 390
#     4  11  25  44  69  97 132 171 219 272 337 393
#     4  11  24  48  69  97 133 169 219 280 330 398
#
# _framework density 22.664788000000001
#
# number of rings (size 3 to 8) (size 9 to 14) (size 15 to 20)
#    0.000    1.714    1.429    2.571    0.000    4.000 
#    5.143    0.000    0.000   15.429    0.000    0.000 
#    0.000    0.000    0.000    0.000    0.000    0.000 
#
# Total GULP energy -78092.152120 kJ/mol
# GULP energy per Si atom -5578.010866 kJ/mol
# Density = 2.261320 g / cm^3
# Si number density = 22.664788 Si / 1000 Ang^3
#
#
#
# Elastic Constant Matrix: (Units=GPa)
#
#
# Indices 1 2 3 4 5 6 
#
# 1 80.3043 23.2438 19.5556 -1.2830 4.2203 1.4100
# 2 23.2438 103.0958 65.9496 -23.5729 -6.1581 -15.8465
# 3 19.5556 65.9496 163.4830 -4.6293 3.9491 -22.8107
# 4 -1.2830 -23.5729 -4.6293 43.1508 -4.8782 7.5974
# 5 4.2203 -6.1581 3.9491 -4.8782 29.3100 0.4922
# 6 1.4100 -15.8465 -22.8107 7.5974 0.4922 29.1645
#
#
#
# Elastic Compliance Matrix: (Units=1/GPa)
#
#
# Indices 1 2 3 4 5 6 
#
# 1 0.013829 -0.003741 -0.000485 -0.001553 -0.002926 -0.002627
# 2 -0.003741 0.017222 -0.006074 0.008959 0.006427 0.002345
# 3 -0.000485 -0.006074 0.009294 -0.003566 -0.003136 0.004974
# 4 -0.001553 0.008959 -0.003566 0.029494 0.007590 -0.005657
# 5 -0.002926 0.006427 -0.003136 0.007590 0.037600 -0.001431
# 6 -0.002627 0.002345 0.004974 -0.005657 -0.001431 0.041078
#
#
# Mechanical properties :
#
#
# Convention : Reuss Voigt Hill
#
# Bulk Modulus (GPa) = 50.64835 62.70903 56.67869
# Shear Modulus (GPa) = 28.45809 36.20066 32.32937
#
# Velocity S-wave (km/s) = 3.54730 4.00086 3.78089
# Velocity P-wave (km/s) = 6.25883 7.00504 6.64243
#
# Compressibility (1/GPa) = 0.01974398
#
# Stress axis : x y z
#
# Youngs Moduli (GPa) = 72.31346 58.06680 107.59747
#
# Poissons Ratio (x) = 0.21725 0.05215
# Poissons Ratio (y) = 0.27055 0.65355
# Poissons Ratio (z) = 0.03505 0.35270
#
# Static dielectric constant tensor:
#      x y z
#    x 1.958240 0.008890 0.033830 
#    y 0.008890 1.810990 0.024460 
#    z 0.033830 0.024460 1.856700 
# 
# From -- ./inp_files/534178.got.cif
#   From: 2010.05.17/outbox.cif.g08.bks.cpg/sg2_268_cif.got.tgz:534178.got - 2010.06.03 11:33:40.
