data_PCOD9084701
_publ_section_title
;
Structure prediction by ZEFSAII (Michael W. Deem and Ramdas Pophale) SiO2 
 PCOD9084701
Probable space group: P -1
;
_chemical_formula_sum "Si O2"
_cell_formula_units_Z 16
_cell_length_a 9.281160
_cell_length_b 21.281156
_cell_length_c 18.010837
_cell_angle_alpha 18.007919
_cell_angle_beta 127.090751
_cell_angle_gamma 135.080879
_cell_volume 735.133240
_symmetry_space_group_name_H-M "P -1"
_symmetry_group_IT_number 2
_symmetry_cell_setting 'triclinic'
loop_
_space_group_symop_operation_xyz
x,y,z
-x,-y,-z
loop_
_atom_site_type_symbol
_atom_site_label
_atom_site_fract_x
_atom_site_fract_y
_atom_site_fract_z
Si Si1 0.963120 0.688975 0.734076
Si Si2 0.494341 0.555319 0.091420
Si Si3 0.195234 0.681363 0.210709
Si Si4 0.422666 0.147419 0.358354
Si Si5 0.362709 0.954291 0.336878
Si Si6 0.448559 0.247820 0.659399
Si Si7 0.888003 0.606432 0.630759
Si Si8 0.717568 0.342971 0.486966
O O1 0.749972 0.665857 0.724620
O O2 0.929952 0.609028 0.727733
O O3 0.169647 0.959505 0.502553
O O4 0.000000 0.500000 0.000000
O O5 0.658683 0.502008 0.239594
O O6 0.533799 0.641251 0.921769
O O7 0.511184 0.773029 0.901088
O O8 0.389420 0.659596 0.324984
O O9 0.150608 0.611735 0.188322
O O10 0.976381 0.494871 0.396514
O O11 0.277392 0.959158 0.937768
O O12 0.550686 0.186043 0.430823
O O13 0.500000 0.000000 0.500000
O O14 0.373123 0.904512 0.309809
O O15 0.112411 0.835844 0.411723
O O16 0.312555 0.366714 0.472116
O O17 0.598833 0.293861 0.583025
#
# Coordination Sequence:
#
# PCOD9084701 Si02
#       8
#     2   2   2   2   2   2   2   2
#     4  12  20  34  62  90 118 162 201 238 294 349
#     4  11  21  37  59  83 120 161 197 245 291 346
#     4  10  25  42  63  90 121 155 197 255 304 354
#     4  10  19  35  56  83 121 160 197 240 291 343
#     4  10  21  39  59  88 122 160 200 244 292 353
#     4  11  23  43  64  89 121 155 199 251 307 357
#     4  11  21  40  65  89 119 161 203 241 296 366
#     4  11  24  38  63  91 118 155 201 245 302 361
#
# _framework density 21.764761
#
# number of rings (size 3 to 8) (size 9 to 14) (size 15 to 20)
#    0.000    1.250    6.250    1.500    1.750    0.500 
#    0.000    0.625    0.000    8.250    0.000    0.000 
#    0.000    0.000    0.000    0.000    0.000    0.000 
#
# Total GULP energy -89423.567123 kJ/mol
# GULP energy per Si atom -5588.972945 kJ/mol
# Density = 2.171522 g / cm^3
# Si number density = 21.764761 Si / 1000 Ang^3
#
#
#
# Elastic Constant Matrix: (Units=GPa)
#
#
# Indices 1 2 3 4 5 6 
#
# 1 64.6369 32.6928 19.5800 -16.5992 -17.6120 8.5119
# 2 32.6928 72.7712 -1.6736 -4.8533 -4.5584 -0.7234
# 3 19.5800 -1.6736 20.3011 -6.0292 -9.2189 -1.5941
# 4 -16.5992 -4.8533 -6.0292 28.6911 10.7774 -5.4104
# 5 -17.6120 -4.5584 -9.2189 10.7774 32.0071 0.6610
# 6 8.5119 -0.7234 -1.5941 -5.4104 0.6610 40.2953
#
#
#
# Elastic Compliance Matrix: (Units=1/GPa)
#
#
# Indices 1 2 3 4 5 6 
#
# 1 0.041022 -0.018346 -0.036132 0.008712 0.006813 -0.009366
# 2 -0.018346 0.022300 0.018984 -0.001555 -0.001027 0.004835
# 3 -0.036132 0.018984 0.090546 0.000274 0.008573 0.011451
# 4 0.008712 -0.001555 0.000274 0.044396 -0.010386 0.004274
# 5 0.006813 -0.001027 0.008573 -0.010386 0.040878 -0.003184
# 6 -0.009366 0.004835 0.011451 0.004274 -0.003184 0.027961
#
#
# Mechanical properties :
#
#
# Convention : Reuss Voigt Hill
#
# Bulk Modulus (GPa) = 12.06555 28.76748 20.41651
# Shear Modulus (GPa) = 13.67173 27.33936 20.50554
#
# Velocity S-wave (km/s) = 2.50903 3.54804 3.07277
# Velocity P-wave (km/s) = 3.73487 5.48005 4.68936
#
# Compressibility (1/GPa) = 0.08288061
#
# Stress axis : x y z
#
# Youngs Moduli (GPa) = 24.37688 44.84255 11.04415
#
# Poissons Ratio (x) = 0.82267 0.39905
# Poissons Ratio (y) = 0.44721 -0.20966
# Poissons Ratio (z) = 0.88079 -0.85129
#
# Static dielectric constant tensor:
#      x y z
#    x 1.798390 0.014850 -0.002380 
#    y 0.014850 1.862380 -0.020860 
#    z -0.002380 -0.020860 1.792130 
# 
# From -- ./inp_files/562557.got.cif
#   From: 2010.05.17/outbox.cif.g08.bks.cpg/sg2_282_cif.got.tgz:562557.got - 2010.06.03 11:33:40.
