data_PCOD9084105
_publ_section_title
;
Structure prediction by ZEFSAII (Michael W. Deem and Ramdas Pophale) SiO2 
 PCOD9084105
Probable space group: P -1
;
_chemical_formula_sum "Si O2"
_cell_formula_units_Z 16
_cell_length_a 20.053790
_cell_length_b 10.708419
_cell_length_c 5.189748
_cell_angle_alpha 124.209658
_cell_angle_beta 96.248129
_cell_angle_gamma 52.065405
_cell_volume 677.320812
_symmetry_space_group_name_H-M "P -1"
_symmetry_group_IT_number 2
_symmetry_cell_setting 'triclinic'
loop_
_space_group_symop_operation_xyz
x,y,z
-x,-y,-z
loop_
_atom_site_type_symbol
_atom_site_label
_atom_site_fract_x
_atom_site_fract_y
_atom_site_fract_z
Si Si1 0.060444 0.732233 0.475126
Si Si2 0.311094 0.852980 0.622489
Si Si3 0.504106 0.288320 0.465806
Si Si4 0.067858 0.062702 0.839129
Si Si5 0.618016 0.541538 0.883518
Si Si6 0.102740 0.352811 0.270209
Si Si7 0.267112 0.091687 0.385680
Si Si8 0.597072 0.895139 0.302322
O O1 0.994238 0.827723 0.312774
O O2 0.108301 0.492994 0.247506
O O3 0.997525 0.835303 0.821665
O O4 0.107521 0.828873 0.588115
O O5 0.419280 0.705467 0.430719
O O6 0.298347 0.696997 0.390325
O O7 0.261628 0.027711 0.591246
O O8 0.302898 0.918820 0.987701
O O9 0.456753 0.372127 0.270577
O O10 0.567349 0.043405 0.224056
O O11 0.428717 0.397711 0.784822
O O12 0.121056 0.144895 0.968090
O O13 0.648172 0.666565 0.990636
O O14 0.172464 0.284973 0.450302
O O15 0.000000 0.500000 0.500000
O O16 0.342048 0.105541 0.474171
O O17 0.500000 0.000000 0.500000
#
# Coordination Sequence:
#
# PCOD9084105 Si02
#       8
#     2   2   2   2   2   2   2   2
#     4   9  18  34  60  92 117 151 200 253 312 373
#     4  11  22  39  57  87 126 159 200 260 305 370
#     4  10  19  34  60  89 119 158 207 250 302 367
#     4   9  18  34  60  91 120 148 200 258 307 374
#     4  11  20  34  61  89 116 161 206 246 308 365
#     4  10  22  42  68  91 122 170 214 262 325 377
#     4  11  25  41  59  88 127 161 208 255 313 375
#     4   9  20  38  60  89 121 163 201 255 303 367
#
# _framework density 23.622485999999999
#
# number of rings (size 3 to 8) (size 9 to 14) (size 15 to 20)
#    0.000    2.000    0.000    4.500    0.000    7.000 
#    2.250    0.000    5.500    0.000    0.000    0.000 
#    0.000    0.000    0.000    0.000    0.000    0.000 
#
# Total GULP energy -89221.246089 kJ/mol
# GULP energy per Si atom -5576.327881 kJ/mol
# Density = 2.356872 g / cm^3
# Si number density = 23.622486 Si / 1000 Ang^3
#
#
#
# Elastic Constant Matrix: (Units=GPa)
#
#
# Indices 1 2 3 4 5 6 
#
# 1 118.5917 9.7804 74.2726 2.4955 33.3095 7.4479
# 2 9.7804 370.2187 -126.8888 -22.0656 -6.4978 35.6424
# 3 74.2726 -126.8888 188.8311 16.1152 34.9345 8.0923
# 4 2.4955 -22.0656 16.1152 54.9541 20.5515 10.9273
# 5 33.3095 -6.4978 34.9345 20.5515 42.9998 6.1536
# 6 7.4479 35.6424 8.0923 10.9273 6.1536 41.3818
#
#
#
# Elastic Compliance Matrix: (Units=1/GPa)
#
#
# Indices 1 2 3 4 5 6 
#
# 1 0.014874 -0.002699 -0.006438 0.002967 -0.008312 0.001360
# 2 -0.002699 0.004979 0.004675 0.002255 -0.001300 -0.005119
# 3 -0.006438 0.004675 0.011769 0.001069 -0.003676 -0.004905
# 4 0.002967 0.002255 0.001069 0.025293 -0.013869 -0.007301
# 5 -0.008312 -0.001300 -0.003676 -0.013869 0.038941 0.001206
# 6 0.001360 -0.005119 -0.004905 -0.007301 0.001206 0.031037
#
#
# Mechanical properties :
#
#
# Convention : Reuss Voigt Hill
#
# Bulk Modulus (GPa) = 44.05924 65.77443 54.91684
# Shear Modulus (GPa) = 34.87164 75.89897 55.38531
#
# Velocity S-wave (km/s) = 3.84631 5.67448 4.84736
# Velocity P-wave (km/s) = 6.19817 8.41650 7.39103
#
# Compressibility (1/GPa) = 0.02269671
#
# Stress axis : x y z
#
# Youngs Moduli (GPa) = 67.23301 200.83802 84.97229
#
# Poissons Ratio (x) = 0.54214 0.54704
# Poissons Ratio (y) = 0.18149 -0.39724
# Poissons Ratio (z) = 0.43284 -0.93891
#
# Static dielectric constant tensor:
#      x y z
#    x 1.982280 0.046420 0.066870 
#    y 0.046420 1.879960 0.152180 
#    z 0.066870 0.152180 1.957900 
# 
# From -- ./inp_files/123522.got.cif
#   From: 2010.05.17/outbox.cif.g08.bks.cpg/sg2_62_cif.got.tgz:123522.got - 2010.06.03 11:33:40.
