data_PCOD9084223
_publ_section_title
;
Structure prediction by ZEFSAII (Michael W. Deem and Ramdas Pophale) SiO2 
 PCOD9084223
Probable space group: P -1
;
_chemical_formula_sum "Si O2"
_cell_formula_units_Z 16
_cell_length_a 8.921316
_cell_length_b 28.132268
_cell_length_c 28.077029
_cell_angle_alpha 9.827864
_cell_angle_beta 37.768836
_cell_angle_gamma 37.671621
_cell_volume 731.277943
_symmetry_space_group_name_H-M "P -1"
_symmetry_group_IT_number 2
_symmetry_cell_setting 'triclinic'
loop_
_space_group_symop_operation_xyz
x,y,z
-x,-y,-z
loop_
_atom_site_type_symbol
_atom_site_label
_atom_site_fract_x
_atom_site_fract_y
_atom_site_fract_z
Si Si1 0.983751 0.454268 0.493155
Si Si2 0.489809 0.858045 0.328360
Si Si3 0.542391 0.660645 0.668750
Si Si4 0.076775 0.823299 0.364172
Si Si5 0.778121 0.997498 0.949879
Si Si6 0.115306 0.744136 0.756102
Si Si7 0.671896 0.669328 0.161672
Si Si8 0.311875 0.166842 0.162088
O O1 0.247139 0.291703 0.573173
O O2 0.000000 0.500000 0.500000
O O3 0.781662 0.247179 0.739687
O O4 0.903772 0.722630 0.215995
O O5 0.341783 0.594302 0.611676
O O6 0.360492 0.056303 0.205923
O O7 0.528842 0.080722 0.055992
O O8 0.405218 0.678896 0.736681
O O9 0.826105 0.703772 0.559393
O O10 0.413454 0.916456 0.418171
O O11 0.470457 0.404981 0.906852
O O12 0.282966 0.548450 0.589778
O O13 0.073797 0.924126 0.211129
O O14 0.128549 0.104702 0.102519
O O15 0.500000 0.000000 0.000000
O O16 0.980969 0.764541 0.820723
O O17 0.000000 0.000000 0.500000
O O18 0.000000 0.500000 0.000000
#
# Coordination Sequence:
#
# PCOD9084223 Si02
#       8
#     2   2   2   2   2   2   2   2
#     4  12  28  47  72 100 132 170 220 279 340 398
#     4  11  23  41  66  90 128 168 223 266 329 392
#     4  10  19  34  61  93 127 160 207 267 329 388
#     4  11  23  41  66  90 128 168 223 266 329 392
#     4  12  28  47  72 100 132 170 220 279 340 398
#     4   8  16  30  52  89 126 161 198 256 329 386
#     4  10  24  40  64  89 124 174 222 264 320 391
#     4  10  19  34  61  93 127 160 207 267 329 388
#
# _framework density 21.879505000000002
#
# number of rings (size 3 to 8) (size 9 to 14) (size 15 to 20)
#    0.000    1.500    0.000    4.500    5.250    2.000 
#    0.000    0.000    0.000    4.500    0.000    0.000 
#    0.000    0.000    0.000    0.000    0.000    0.000 
#
# Total GULP energy -89075.752125 kJ/mol
# GULP energy per Si atom -5567.234508 kJ/mol
# Density = 2.182971 g / cm^3
# Si number density = 21.879505 Si / 1000 Ang^3
#
#
#
# Elastic Constant Matrix: (Units=GPa)
#
#
# Indices 1 2 3 4 5 6 
#
# 1 119.7362 56.6224 69.5296 -2.2558 -7.6524 1.8831
# 2 56.6224 125.7127 45.4805 6.3639 -2.6870 -6.1353
# 3 69.5296 45.4805 210.9326 -17.1336 0.8819 0.5136
# 4 -2.2558 6.3639 -17.1336 22.4769 1.9574 3.4084
# 5 -7.6524 -2.6870 0.8819 1.9574 54.1751 -8.2690
# 6 1.8831 -6.1353 0.5136 3.4084 -8.2690 0.3653
#
#
#
# Elastic Compliance Matrix: (Units=1/GPa)
#
#
# Indices 1 2 3 4 5 6 
#
# 1 0.011810 -0.003033 -0.003563 -0.003329 0.004019 0.015216
# 2 -0.003033 0.007154 -0.000103 0.003944 -0.006076 -0.038406
# 3 -0.003563 -0.000103 0.006096 0.002376 0.001160 0.012143
# 4 -0.003329 0.003944 0.002376 0.029656 0.012789 0.092862
# 5 0.004019 -0.006076 0.001160 0.012789 0.007722 -0.068938
# 6 0.015216 -0.038406 0.012143 0.092862 -0.068938 -0.429978
#
#
# Mechanical properties :
#
#
# Convention : Reuss Voigt Hill
#
# Bulk Modulus (GPa) = 85.75669 88.84961 87.30315
# Shear Modulus (GPa) = -14.27536 34.38674 10.05569
#
# Velocity S-wave (km/s) = -2.55709 3.96869 2.14614
# Velocity P-wave (km/s) = 5.52827 7.85477 6.79188
#
# Compressibility (1/GPa) = 0.01166090
#
# Stress axis : x y z
#
# Youngs Moduli (GPa) = 84.67408 139.77458 164.03370
#
# Poissons Ratio (x) = 0.42396 0.58449
# Poissons Ratio (y) = 0.25683 0.01698
# Poissons Ratio (z) = 0.30171 0.01446
#
# Static dielectric constant tensor:
#      x y z
#    x 1.822440 -0.008830 0.005250 
#    y -0.008830 1.998820 0.034710 
#    z 0.005250 0.034710 1.775020 
# 
# From -- ./inp_files/617669.got.cif
#   From: 2010.05.17/outbox.cif.g08.bks.cpg/sg2_309_cif.got.tgz:617669.got - 2010.06.03 11:33:40.
