data_PCOD9084498
_publ_section_title
;
Structure prediction by ZEFSAII (Michael W. Deem and Ramdas Pophale) SiO2 
 PCOD9084498
Probable space group: P -1
;
_chemical_formula_sum "Si O2"
_cell_formula_units_Z 16
_cell_length_a 11.188453
_cell_length_b 18.833968
_cell_length_c 11.841320
_cell_angle_alpha 35.218394
_cell_angle_beta 67.174752
_cell_angle_gamma 43.063077
_cell_volume 832.801853
_symmetry_space_group_name_H-M "P -1"
_symmetry_group_IT_number 2
_symmetry_cell_setting 'triclinic'
loop_
_space_group_symop_operation_xyz
x,y,z
-x,-y,-z
loop_
_atom_site_type_symbol
_atom_site_label
_atom_site_fract_x
_atom_site_fract_y
_atom_site_fract_z
Si Si1 0.650950 0.505765 0.955907
Si Si2 0.394879 0.839486 0.446514
Si Si3 0.673100 0.852180 0.032574
Si Si4 0.569786 0.566822 0.526178
Si Si5 0.041584 0.874845 0.799525
Si Si6 0.572685 0.304827 0.995047
Si Si7 0.406801 0.844380 0.044252
Si Si8 0.037682 0.231640 0.816007
O O1 0.555342 0.686768 0.682569
O O2 0.500000 0.500000 0.000000
O O3 0.623854 0.559943 0.025981
O O4 0.860423 0.302176 0.087347
O O5 0.496480 0.718147 0.450811
O O6 0.342381 0.021107 0.212239
O O7 0.178862 0.924478 0.431555
O O8 0.606063 0.779290 0.087981
O O9 0.881479 0.713156 0.210090
O O10 0.500000 0.000000 0.000000
O O11 0.550016 0.450421 0.746377
O O12 0.433652 0.698132 0.296254
O O13 0.810902 0.410885 0.616165
O O14 0.981624 0.859938 0.961991
O O15 0.222641 0.835641 0.817953
O O16 0.600617 0.181273 0.050862
O O17 0.207023 0.063403 0.881541
#
# Coordination Sequence:
#
# PCOD9084498 Si02
#       8
#     2   2   2   2   2   2   2   2
#     4  10  19  35  53  80 106 134 178 217 253 307
#     4  11  18  35  57  81 101 133 183 219 257 295
#     4   9  18  34  55  77 105 138 171 219 256 303
#     4  11  19  34  56  81 103 136 174 218 265 304
#     4   9  18  33  55  80 102 136 173 218 260 298
#     4  10  22  36  51  79 112 141 165 213 265 316
#     4  11  21  38  50  77 117 136 168 211 266 320
#     4   9  18  33  54  82  99 135 178 214 262 297
#
# _framework density 19.212254000000001
#
# number of rings (size 3 to 8) (size 9 to 14) (size 15 to 20)
#    0.000    2.000    7.500    0.375    0.000    4.500 
#    2.250    0.625    0.000    3.000    0.000    0.000 
#    0.000    0.000    0.000    0.000    0.000    0.000 
#
# Total GULP energy -89129.431311 kJ/mol
# GULP energy per Si atom -5570.589457 kJ/mol
# Density = 1.916853 g / cm^3
# Si number density = 19.212254 Si / 1000 Ang^3
#
#
#
# Elastic Constant Matrix: (Units=GPa)
#
#
# Indices 1 2 3 4 5 6 
#
# 1 35.8960 32.9027 10.7182 -4.7700 3.6543 17.5905
# 2 32.9027 114.1929 22.9028 -10.2677 10.4969 28.8466
# 3 10.7182 22.9028 69.7587 -5.6172 7.1130 3.8006
# 4 -4.7700 -10.2677 -5.6172 25.4681 -5.6599 -0.3284
# 5 3.6543 10.4969 7.1130 -5.6599 21.3120 1.2637
# 6 17.5905 28.8466 3.8006 -0.3284 1.2637 22.8237
#
#
#
# Elastic Compliance Matrix: (Units=1/GPa)
#
#
# Indices 1 2 3 4 5 6 
#
# 1 0.049811 -0.005089 -0.003675 0.005747 -0.001433 -0.031184
# 2 -0.005089 0.015078 -0.002708 0.003482 -0.003870 -0.014419
# 3 -0.003675 -0.002708 0.016006 0.001061 -0.003321 0.003788
# 4 0.005747 0.003482 0.001061 0.043893 0.009129 -0.008881
# 5 -0.001433 -0.003870 -0.003321 0.009129 0.052383 0.003780
# 6 -0.031184 -0.014419 0.003788 -0.008881 0.003780 0.085104
#
#
# Mechanical properties :
#
#
# Convention : Reuss Voigt Hill
#
# Bulk Modulus (GPa) = 17.25561 39.21057 28.23309
# Shear Modulus (GPa) = 16.41837 24.14235 20.28036
#
# Velocity S-wave (km/s) = 2.92649 3.54872 3.25252
# Velocity P-wave (km/s) = 4.51887 6.10284 5.36958
#
# Compressibility (1/GPa) = 0.05795218
#
# Stress axis : x y z
#
# Youngs Moduli (GPa) = 20.07575 66.32196 62.47493
#
# Poissons Ratio (x) = 0.33754 0.22957
# Poissons Ratio (y) = 0.10217 0.16916
# Poissons Ratio (z) = 0.07377 0.17958
#
# Static dielectric constant tensor:
#      x y z
#    x 1.713480 -0.025260 0.002310 
#    y -0.025260 1.699200 0.017810 
#    z 0.002310 0.017810 1.724680 
# 
# From -- ./inp_files/431112.got.cif
#   From: 2010.05.17/outbox.cif.g08.bks.cpg/sg2_216_cif.got.tgz:431112.got - 2010.06.03 11:33:40.
