data_PCOD9084201
_publ_section_title
;
Structure prediction by ZEFSAII (Michael W. Deem and Ramdas Pophale) SiO2 
 PCOD9084201
Probable space group: P -1
;
_chemical_formula_sum "Si O2"
_cell_formula_units_Z 16
_cell_length_a 12.497811
_cell_length_b 11.538732
_cell_length_c 12.762278
_cell_angle_alpha 68.410410
_cell_angle_beta 36.016574
_cell_angle_gamma 44.144032
_cell_volume 644.353702
_symmetry_space_group_name_H-M "P -1"
_symmetry_group_IT_number 2
_symmetry_cell_setting 'triclinic'
loop_
_space_group_symop_operation_xyz
x,y,z
-x,-y,-z
loop_
_atom_site_type_symbol
_atom_site_label
_atom_site_fract_x
_atom_site_fract_y
_atom_site_fract_z
Si Si1 0.819521 0.199845 0.517903
Si Si2 0.315216 0.817327 0.604203
Si Si3 0.941485 0.568298 0.146205
Si Si4 0.203084 0.204249 0.128953
Si Si5 0.572774 0.481804 0.777784
Si Si6 0.855010 0.877992 0.029501
Si Si7 0.976176 0.246583 0.733418
Si Si8 0.720507 0.679401 0.591585
O O1 0.749989 0.189371 0.461515
O O2 0.560155 0.382149 0.733147
O O3 0.986644 0.241720 0.359464
O O4 0.000000 0.000000 0.500000
O O5 0.652697 0.653729 0.387255
O O6 0.132271 0.820406 0.821169
O O7 0.182837 0.022269 0.659850
O O8 0.172266 0.368949 0.096253
O O9 0.894573 0.741321 0.122278
O O10 0.000000 0.500000 0.000000
O O11 0.167435 0.172100 0.050441
O O12 0.500000 0.000000 0.000000
O O13 0.839204 0.313846 0.701703
O O14 0.614021 0.600969 0.665488
O O15 0.292933 0.623575 0.022169
O O16 0.561585 0.108260 0.204625
O O17 0.150500 0.282216 0.597307
O O18 0.000000 0.500000 0.500000
#
# Coordination Sequence:
#
# PCOD9084201 Si02
#       8
#     2   2   2   2   2   2   2   2
#     4  11  24  38  63  98 143 177 209 290 351 380
#     4  11  21  40  66  98 135 173 234 269 336 417
#     4  10  23  42  67  97 134 181 225 275 338 409
#     4  10  25  41  64  99 136 170 221 281 341 411
#     4  10  21  37  55  95 138 176 228 275 333 391
#     4  10  21  39  65 101 131 182 225 276 331 393
#     4  10  19  34  61  90 131 179 233 274 321 405
#     4  10  20  32  62  93 128 178 232 274 315 388
#
# _framework density 24.831083
#
# number of rings (size 3 to 8) (size 9 to 14) (size 15 to 20)
#    0.000    1.750    3.750    0.000    7.000    4.500 
#    0.000    0.000    0.000    1.500    0.000    0.000 
#    0.000    0.000    0.000    0.000    0.000    0.000 
#
# Total GULP energy -89553.393630 kJ/mol
# GULP energy per Si atom -5597.087102 kJ/mol
# Density = 2.477457 g / cm^3
# Si number density = 24.831083 Si / 1000 Ang^3
#
#
#
# Elastic Constant Matrix: (Units=GPa)
#
#
# Indices 1 2 3 4 5 6 
#
# 1 50.8122 36.5446 35.1257 -8.5096 -3.5292 2.6883
# 2 36.5446 213.4062 94.3979 -11.9113 -2.2001 17.9902
# 3 35.1257 94.3979 160.3134 -10.8590 -9.2339 8.2744
# 4 -8.5096 -11.9113 -10.8590 56.5385 7.5289 -1.1054
# 5 -3.5292 -2.2001 -9.2339 7.5289 36.3219 4.9376
# 6 2.6883 17.9902 8.2744 -1.1054 4.9376 39.3691
#
#
#
# Elastic Compliance Matrix: (Units=1/GPa)
#
#
# Indices 1 2 3 4 5 6 
#
# 1 0.024436 -0.002405 -0.003744 0.002354 0.000763 0.000188
# 2 -0.002405 0.006783 -0.003353 0.000444 -0.000474 -0.002159
# 3 -0.003744 -0.003353 0.009169 0.000250 0.001760 -0.000353
# 4 0.002354 0.000444 0.000250 0.018677 -0.003629 0.000563
# 5 0.000763 -0.000474 0.001760 -0.003629 0.029318 -0.003985
# 6 0.000188 -0.002159 -0.000353 0.000563 -0.003985 0.026964
#
#
# Mechanical properties :
#
#
# Convention : Reuss Voigt Hill
#
# Bulk Modulus (GPa) = 46.76494 84.07425 65.41959
# Shear Modulus (GPa) = 35.34120 43.67680 39.50900
#
# Velocity S-wave (km/s) = 3.77671 4.19854 3.99320
# Velocity P-wave (km/s) = 6.15566 7.57863 6.90391
#
# Compressibility (1/GPa) = 0.02138354
#
# Stress axis : x y z
#
# Youngs Moduli (GPa) = 40.92406 147.43564 109.06435
#
# Poissons Ratio (x) = 0.35455 0.40836
# Poissons Ratio (y) = 0.09841 0.36566
# Poissons Ratio (z) = 0.15323 0.49431
#
# Static dielectric constant tensor:
#      x y z
#    x 2.342590 -0.245660 0.647450 
#    y -0.245660 2.058810 -0.420140 
#    z 0.647450 -0.420140 3.338800 
# 
# From -- ./inp_files/532448.got.cif
#   From: 2010.05.17/outbox.cif.g08.bks.cpg/sg2_267_cif.got.tgz:532448.got - 2010.06.03 11:33:40.
