data_PCOD9084159
_publ_section_title
;
Structure prediction by ZEFSAII (Michael W. Deem and Ramdas Pophale) SiO2 
 PCOD9084159
Probable space group: P -1
;
_chemical_formula_sum "Si O2"
_cell_formula_units_Z 14
_cell_length_a 9.741184
_cell_length_b 11.763850
_cell_length_c 9.990285
_cell_angle_alpha 92.640307
_cell_angle_beta 39.938884
_cell_angle_gamma 79.170071
_cell_volume 688.254499
_symmetry_space_group_name_H-M "P -1"
_symmetry_group_IT_number 2
_symmetry_cell_setting 'triclinic'
loop_
_space_group_symop_operation_xyz
x,y,z
-x,-y,-z
loop_
_atom_site_type_symbol
_atom_site_label
_atom_site_fract_x
_atom_site_fract_y
_atom_site_fract_z
Si Si1 0.149151 0.708050 0.084484
Si Si2 0.766441 0.892182 0.652158
Si Si3 0.936852 0.606321 0.443476
Si Si4 0.090975 0.958391 0.223284
Si Si5 0.487237 0.386056 0.424894
Si Si6 0.333348 0.999622 0.828883
Si Si7 0.626544 0.815013 0.378058
O O1 0.220976 0.811797 0.110400
O O2 0.141405 0.605221 0.189339
O O3 0.883420 0.770599 0.243040
O O4 0.300460 0.665759 0.837655
O O5 0.857412 0.745379 0.568959
O O6 0.499170 0.942462 0.826631
O O7 0.860554 0.953970 0.463358
O O8 0.839899 0.948792 0.729893
O O9 0.732218 0.593703 0.505313
O O10 0.000000 0.500000 0.500000
O O11 0.095084 0.001864 0.069644
O O12 0.500000 0.500000 0.500000
O O13 0.463861 0.295261 0.552621
O O14 0.447377 0.910699 0.616395
O O15 0.348098 0.126249 0.777930
#
# Coordination Sequence:
#
# PCOD9084159 Si02
#       7
#     2   2   2   2   2   2   2
#     4  10  20  42  63  82 124 158 194 250 309 347
#     4  10  20  38  58  88 123 152 196 243 299 361
#     4  10  22  43  62  89 122 158 204 254 292 349
#     4  10  19  34  61  86 114 158 189 240 303 359
#     4  11  23  44  63  85 120 164 206 247 296 361
#     4  11  19  36  58  87 121 153 190 243 303 355
#     4  10  22  36  59  89 119 156 196 247 297 357
#
# _framework density 20.341313
#
# number of rings (size 3 to 8) (size 9 to 14) (size 15 to 20)
#    0.000    1.714    5.714    0.429    0.000    4.571 
#   12.857    0.000    0.000    0.000    0.000    0.000 
#    0.000    0.000    0.000    0.000    0.000    0.000 
#
# Total GULP energy -77939.340702 kJ/mol
# GULP energy per Si atom -5567.095764 kJ/mol
# Density = 2.029502 g / cm^3
# Si number density = 20.341313 Si / 1000 Ang^3
#
#
#
# Elastic Constant Matrix: (Units=GPa)
#
#
# Indices 1 2 3 4 5 6 
#
# 1 53.2940 47.4115 23.1929 0.8693 3.7821 16.3364
# 2 47.4115 158.9304 58.5270 -35.0735 6.2534 18.3283
# 3 23.1929 58.5270 117.5146 -33.7002 1.4301 6.9662
# 4 0.8693 -35.0735 -33.7002 40.8974 0.9894 11.2876
# 5 3.7821 6.2534 1.4301 0.9894 12.6278 1.8200
# 6 16.3364 18.3283 6.9662 11.2876 1.8200 39.4484
#
#
#
# Elastic Compliance Matrix: (Units=1/GPa)
#
#
# Indices 1 2 3 4 5 6 
#
# 1 0.030652 -0.009404 -0.004212 -0.010928 -0.002566 -0.004335
# 2 -0.009404 0.012764 -0.000672 0.012121 -0.003626 -0.005218
# 3 -0.004212 -0.000672 0.013124 0.011295 -0.000276 -0.003481
# 4 -0.010928 0.012121 0.011295 0.049188 -0.005423 -0.016925
# 5 -0.002566 -0.003626 -0.000276 -0.005423 0.082130 0.000558
# 6 -0.004335 -0.005218 -0.003481 -0.016925 0.000558 0.035001
#
#
# Mechanical properties :
#
#
# Convention : Reuss Voigt Hill
#
# Bulk Modulus (GPa) = 35.75779 65.33354 50.54567
# Shear Modulus (GPa) = 19.17504 31.96856 25.57180
#
# Velocity S-wave (km/s) = 3.07362 3.96865 3.54946
# Velocity P-wave (km/s) = 5.49665 7.29305 6.45763
#
# Compressibility (1/GPa) = 0.02796593
#
# Stress axis : x y z
#
# Youngs Moduli (GPa) = 32.62470 78.34550 76.19477
#
# Poissons Ratio (x) = 0.73673 0.32091
# Poissons Ratio (y) = 0.30679 0.05118
# Poissons Ratio (z) = 0.13740 0.05262
#
# Static dielectric constant tensor:
#      x y z
#    x 1.732040 -0.013520 -0.015770 
#    y -0.013520 1.754760 -0.030080 
#    z -0.015770 -0.030080 1.772670 
# 
# From -- ./inp_files/187210.got.cif
#   From: 2010.05.17/outbox.cif.g08.bks.cpg/sg2_94_cif.got.tgz:187210.got - 2010.06.03 11:33:40.
