data_PCOD9084406
_publ_section_title
;
Structure prediction by ZEFSAII (Michael W. Deem and Ramdas Pophale) SiO2 
 PCOD9084406
Probable space group: P -1
;
_chemical_formula_sum "Si O2"
_cell_formula_units_Z 14
_cell_length_a 10.582157
_cell_length_b 15.916185
_cell_length_c 12.375815
_cell_angle_alpha 23.941873
_cell_angle_beta 49.245573
_cell_angle_gamma 57.707620
_cell_volume 627.423628
_symmetry_space_group_name_H-M "P -1"
_symmetry_group_IT_number 2
_symmetry_cell_setting 'triclinic'
loop_
_space_group_symop_operation_xyz
x,y,z
-x,-y,-z
loop_
_atom_site_type_symbol
_atom_site_label
_atom_site_fract_x
_atom_site_fract_y
_atom_site_fract_z
Si Si1 0.124408 0.075977 0.697301
Si Si2 0.218652 0.707228 0.565492
Si Si3 0.826997 0.545092 0.905459
Si Si4 0.249066 0.121899 0.202346
Si Si5 0.960736 0.176635 0.163571
Si Si6 0.401249 0.658535 0.309427
Si Si7 0.103038 0.688799 0.295280
O O1 0.238305 0.268487 0.340013
O O2 0.018645 0.205564 0.681512
O O3 0.014725 0.913322 0.862534
O O4 0.198268 0.901717 0.928743
O O5 0.331566 0.759761 0.334324
O O6 0.023016 0.637064 0.721387
O O7 0.237368 0.920288 0.370120
O O8 0.258850 0.543288 0.828536
O O9 0.846955 0.353539 0.037728
O O10 0.135886 0.256439 0.038690
O O11 0.143223 0.029555 0.473831
O O12 0.446930 0.210469 0.000836
O O13 0.500000 0.500000 0.500000
O O14 0.237715 0.592030 0.403390
O O15 0.000000 0.500000 0.500000
#
# Coordination Sequence:
#
# PCOD9084406 Si02
#       7
#     2   2   2   2   2   2   2
#     4  11  22  40  71  88 129 174 220 265 311 404
#     4  10  20  36  59  97 134 164 213 271 326 374
#     4  10  19  34  64  97 127 165 221 265 313 383
#     4  10  21  36  62  97 135 166 212 273 331 371
#     4  10  20  37  66  99 126 171 218 264 320 395
#     4  12  25  39  64  98 133 167 213 283 322 375
#     4  11  26  46  65  96 130 175 220 259 330 393
#
# _framework density 22.313472000000001
#
# number of rings (size 3 to 8) (size 9 to 14) (size 15 to 20)
#    0.000    1.429    2.857    2.143    6.000    0.000 
#    2.571    0.714    0.000    2.571    0.000    0.000 
#    0.000    0.000    0.000    0.000    0.000    0.000 
#
# Total GULP energy -78015.908346 kJ/mol
# GULP energy per Si atom -5572.564882 kJ/mol
# Density = 2.226269 g / cm^3
# Si number density = 22.313472 Si / 1000 Ang^3
#
#
#
# Elastic Constant Matrix: (Units=GPa)
#
#
# Indices 1 2 3 4 5 6 
#
# 1 85.8615 38.9083 40.0489 -8.9378 13.6665 3.1112
# 2 38.9083 119.3619 17.2676 -6.6965 -14.9360 22.0702
# 3 40.0489 17.2676 72.6164 -7.8312 20.9603 -10.0110
# 4 -8.9378 -6.6965 -7.8312 31.9875 -5.8672 -2.9414
# 5 13.6665 -14.9360 20.9603 -5.8672 40.4059 -4.3191
# 6 3.1112 22.0702 -10.0110 -2.9414 -4.3191 25.2685
#
#
#
# Elastic Compliance Matrix: (Units=1/GPa)
#
#
# Indices 1 2 3 4 5 6 
#
# 1 0.018417 -0.004993 -0.007905 0.001297 -0.003953 -0.001563
# 2 -0.004993 0.013849 -0.004363 0.000810 0.007932 -0.011760
# 3 -0.007905 -0.004363 0.023971 0.002154 -0.009685 0.012876
# 4 0.001297 0.000810 0.002154 0.033495 0.004097 0.004586
# 5 -0.003953 0.007932 -0.009685 0.004097 0.034214 -0.003953
# 6 -0.001563 -0.011760 0.012876 0.004586 -0.003953 0.054998
#
#
# Mechanical properties :
#
#
# Convention : Reuss Voigt Hill
#
# Bulk Modulus (GPa) = 46.04871 52.25437 49.15154
# Shear Modulus (GPa) = 22.65492 31.64005 27.14749
#
# Velocity S-wave (km/s) = 3.18984 3.76969 3.49182
# Velocity P-wave (km/s) = 5.85224 6.51280 6.19134
#
# Compressibility (1/GPa) = 0.02171613
#
# Stress axis : x y z
#
# Youngs Moduli (GPa) = 54.29789 72.20838 41.71732
#
# Poissons Ratio (x) = 0.36051 0.32976
# Poissons Ratio (y) = 0.27109 0.18201
# Poissons Ratio (z) = 0.42920 0.31504
#
# Static dielectric constant tensor:
#      x y z
#    x 1.872300 -0.014330 0.082040 
#    y -0.014330 1.930880 0.050090 
#    z 0.082040 0.050090 1.984870 
# 
# From -- ./inp_files/398030.got.cif
#   From: 2010.05.17/outbox.cif.g08.bks.cpg/sg2_200_cif.got.tgz:398030.got - 2010.06.03 11:33:40.
