data_PCOD9084997
_publ_section_title
;
Structure prediction by ZEFSAII (Michael W. Deem and Ramdas Pophale) SiO2 
 PCOD9084997
Probable space group: P -1
;
_chemical_formula_sum "Si O2"
_cell_formula_units_Z 16
_cell_length_a 10.790546
_cell_length_b 8.067681
_cell_length_c 12.112501
_cell_angle_alpha 105.463119
_cell_angle_beta 49.251505
_cell_angle_gamma 119.252726
_cell_volume 694.769969
_symmetry_space_group_name_H-M "P -1"
_symmetry_group_IT_number 2
_symmetry_cell_setting 'triclinic'
loop_
_space_group_symop_operation_xyz
x,y,z
-x,-y,-z
loop_
_atom_site_type_symbol
_atom_site_label
_atom_site_fract_x
_atom_site_fract_y
_atom_site_fract_z
Si Si1 0.134577 0.459765 0.833148
Si Si2 0.477522 0.475827 0.847285
Si Si3 0.765817 0.487042 0.845035
Si Si4 0.070126 0.173237 0.628971
Si Si5 0.120929 0.715371 0.424077
Si Si6 0.108139 0.866736 0.676495
Si Si7 0.199139 0.127726 0.859287
Si Si8 0.524850 0.637374 0.612596
O O1 0.064814 0.347803 0.736952
O O2 0.182553 0.302352 0.837776
O O3 0.329270 0.642492 0.735379
O O4 0.000000 0.500000 0.000000
O O5 0.644409 0.550411 0.846439
O O6 0.360563 0.245093 0.870699
O O7 0.547675 0.546589 0.697876
O O8 0.337154 0.556071 0.987206
O O9 0.762186 0.310478 0.746976
O O10 0.961514 0.664776 0.773250
O O11 0.276616 0.201179 0.496582
O O12 0.989816 0.188292 0.559826
O O13 0.997038 0.981425 0.710869
O O14 0.203238 0.818823 0.508770
O O15 0.000000 0.500000 0.500000
O O16 0.231318 0.997274 0.725375
O O17 0.000000 0.000000 0.000000
O O18 0.500000 0.500000 0.500000
#
# Coordination Sequence:
#
# PCOD9084997 Si02
#       8
#     2   2   2   2   2   2   2   2
#     4   9  20  33  56  86 116 151 196 239 291 351
#     4  10  20  36  60  83 121 154 197 240 306 354
#     4  10  21  37  60  89 114 157 200 245 289 364
#     4  10  20  35  59  83 119 154 194 245 295 349
#     4  10  21  34  56  84 113 151 205 233 284 351
#     4  10  20  37  58  86 115 153 196 242 298 352
#     4  10  19  35  58  83 112 148 194 237 296 343
#     4   9  18  34  54  83 117 157 193 231 296 359
#
# _framework density 23.029205999999999
#
# number of rings (size 3 to 8) (size 9 to 14) (size 15 to 20)
#    0.000    2.250    1.250    2.625    3.500    0.000 
#    0.000    1.875    0.000    5.250    0.000    0.000 
#    0.000    0.000    0.000    0.000    0.000    0.000 
#
# Total GULP energy -89112.290024 kJ/mol
# GULP energy per Si atom -5569.518126 kJ/mol
# Density = 2.297679 g / cm^3
# Si number density = 23.029206 Si / 1000 Ang^3
#
#
#
# Elastic Constant Matrix: (Units=GPa)
#
#
# Indices 1 2 3 4 5 6 
#
# 1 27.1482 -2.2426 11.1458 1.1287 3.4956 5.6830
# 2 -2.2426 73.1615 26.4505 9.5613 -5.7314 5.6691
# 3 11.1458 26.4505 132.0293 25.0860 1.5557 16.7254
# 4 1.1287 9.5613 25.0860 37.3225 0.9543 11.0170
# 5 3.4956 -5.7314 1.5557 0.9543 35.4585 1.2917
# 6 5.6830 5.6691 16.7254 11.0170 1.2917 32.4252
#
#
#
# Elastic Compliance Matrix: (Units=1/GPa)
#
#
# Indices 1 2 3 4 5 6 
#
# 1 0.040116 0.002408 -0.003496 0.002481 -0.003247 -0.006362
# 2 0.002408 0.015273 -0.002801 -0.001834 0.002444 -0.001122
# 3 -0.003496 -0.002801 0.009663 -0.005025 -0.000318 -0.002162
# 4 0.002481 -0.001834 -0.005025 0.033174 -0.000894 -0.008758
# 5 -0.003247 0.002444 -0.000318 -0.000894 0.028975 -0.000545
# 6 -0.006362 -0.001122 -0.002162 -0.008758 -0.000545 0.036264
#
#
# Mechanical properties :
#
#
# Convention : Reuss Voigt Hill
#
# Bulk Modulus (GPa) = 17.46025 33.67183 25.56604
# Shear Modulus (GPa) = 26.26955 34.17358 30.22157
#
# Velocity S-wave (km/s) = 3.38110 3.85635 3.62652
# Velocity P-wave (km/s) = 4.77919 5.87211 5.35361
#
# Compressibility (1/GPa) = 0.05727295
#
# Stress axis : x y z
#
# Youngs Moduli (GPa) = 24.92776 65.47478 103.48953
#
# Poissons Ratio (x) = -0.15767 0.36182
# Poissons Ratio (y) = -0.06003 0.28991
# Poissons Ratio (z) = 0.08715 0.18341
#
# Static dielectric constant tensor:
#      x y z
#    x 1.936760 0.075740 -0.032200 
#    y 0.075740 1.739080 0.093810 
#    z -0.032200 0.093810 1.892880 
# 
# From -- ./inp_files/353464.got.cif
#   From: 2010.05.17/outbox.cif.g08.bks.cpg/sg2_177_cif.got.tgz:353464.got - 2010.06.03 11:33:40.
