data_PCOD9084371
_publ_section_title
;
Structure prediction by ZEFSAII (Michael W. Deem and Ramdas Pophale) SiO2 
 PCOD9084371
Probable space group: P -1
;
_chemical_formula_sum "Si O2"
_cell_formula_units_Z 16
_cell_length_a 11.600976
_cell_length_b 16.270126
_cell_length_c 7.997414
_cell_angle_alpha 128.959012
_cell_angle_beta 55.781273
_cell_angle_gamma 148.647212
_cell_volume 609.523295
_symmetry_space_group_name_H-M "P -1"
_symmetry_group_IT_number 2
_symmetry_cell_setting 'triclinic'
loop_
_space_group_symop_operation_xyz
x,y,z
-x,-y,-z
loop_
_atom_site_type_symbol
_atom_site_label
_atom_site_fract_x
_atom_site_fract_y
_atom_site_fract_z
Si Si1 0.507874 0.973311 0.722859
Si Si2 0.320210 0.742693 0.256335
Si Si3 0.639122 0.743528 0.023788
Si Si4 0.352190 0.456601 0.410547
Si Si5 0.076102 0.776315 0.959550
Si Si6 0.090815 0.461254 0.499994
Si Si7 0.004036 0.198121 0.620865
Si Si8 0.931481 0.981680 0.767424
O O1 0.575050 0.132820 0.824387
O O2 0.737979 0.047559 0.645115
O O3 0.390668 0.853616 0.502669
O O4 0.314235 0.858017 0.871458
O O5 0.056021 0.594945 0.290165
O O6 0.426227 0.691987 0.135677
O O7 0.594613 0.593566 0.844173
O O8 0.812167 0.867778 0.189019
O O9 0.775914 0.858490 0.893164
O O10 0.500000 0.500000 0.500000
O O11 0.333517 0.567306 0.505658
O O12 0.105629 0.293225 0.482904
O O13 0.961137 0.668918 0.747605
O O14 0.938053 0.688467 0.130640
O O15 0.120372 0.927862 0.110887
O O16 0.000000 0.500000 0.500000
O O17 0.093157 0.131276 0.483739
#
# Coordination Sequence:
#
# PCOD9084371 Si02
#       8
#     2   2   2   2   2   2   2   2
#     4  10  19  34  63  96 133 160 206 261 342 399
#     4  10  19  36  65  95 122 169 214 269 325 396
#     4  10  19  36  65  95 122 169 214 269 325 396
#     4  11  25  47  67  91 130 184 233 270 318 392
#     4  11  22  39  63 101 136 166 209 280 335 396
#     4  11  25  47  67  91 130 184 233 270 318 392
#     4  11  22  39  63 101 136 166 209 280 335 396
#     4  10  19  34  63  96 133 160 206 261 342 399
#
# _framework density 26.250022999999999
#
# number of rings (size 3 to 8) (size 9 to 14) (size 15 to 20)
#    0.000    1.500    5.000    0.750    0.000    1.000 
#    4.500    5.000    0.000    0.000    0.000    0.000 
#    0.000    0.000    0.000    0.000    0.000    0.000 
#
# Total GULP energy -89298.376956 kJ/mol
# GULP energy per Si atom -5581.148560 kJ/mol
# Density = 2.619028 g / cm^3
# Si number density = 26.250023 Si / 1000 Ang^3
#
#
#
# Elastic Constant Matrix: (Units=GPa)
#
#
# Indices 1 2 3 4 5 6 
#
# 1 137.5232 3.6298 27.9604 -0.0960 -38.4749 13.1627
# 2 3.6298 20.7156 12.7745 0.8710 -5.7062 3.1199
# 3 27.9604 12.7745 131.2755 -18.4189 -16.2355 4.0868
# 4 -0.0960 0.8710 -18.4189 19.9277 1.8242 -0.4352
# 5 -38.4749 -5.7062 -16.2355 1.8242 51.5726 -8.4038
# 6 13.1627 3.1199 4.0868 -0.4352 -8.4038 32.2133
#
#
#
# Elastic Compliance Matrix: (Units=1/GPa)
#
#
# Indices 1 2 3 4 5 6 
#
# 1 0.009598 0.001540 -0.001621 -0.002166 0.006541 -0.002188
# 2 0.001540 0.054026 -0.006049 -0.008477 0.004881 -0.003936
# 3 -0.001621 -0.006049 0.009981 0.009399 0.000991 0.000367
# 4 -0.002166 -0.008477 0.009399 0.059391 -0.001547 0.000912
# 5 0.006541 0.004881 0.000991 -0.001547 0.025734 0.003421
# 6 -0.002188 -0.003936 0.000367 0.000912 0.003421 0.033177
#
#
# Mechanical properties :
#
#
# Convention : Reuss Voigt Hill
#
# Bulk Modulus (GPa) = 16.30071 42.02709 29.16390
# Shear Modulus (GPa) = 22.26024 37.08603 29.67314
#
# Velocity S-wave (km/s) = 2.91522 3.76280 3.36580
# Velocity P-wave (km/s) = 4.18982 5.90959 5.12240
#
# Compressibility (1/GPa) = 0.06134702
#
# Stress axis : x y z
#
# Youngs Moduli (GPa) = 104.18539 18.50946 100.18669
#
# Poissons Ratio (x) = -0.02851 0.16241
# Poissons Ratio (y) = -0.16046 0.60599
# Poissons Ratio (z) = 0.16889 0.11196
#
# Static dielectric constant tensor:
#      x y z
#    x 2.235660 -0.091780 0.084090 
#    y -0.091780 2.208100 -0.004790 
#    z 0.084090 -0.004790 2.051310 
# 
# From -- ./inp_files/279790.got.cif
#   From: 2010.05.17/outbox.cif.g08.bks.cpg/sg2_140_cif.got.tgz:279790.got - 2010.06.03 11:33:40.
