data_PCOD9084067
_publ_section_title
;
Structure prediction by ZEFSAII (Michael W. Deem and Ramdas Pophale) SiO2 
 PCOD9084067
Probable space group: P -1
;
_chemical_formula_sum "Si O2"
_cell_formula_units_Z 16
_cell_length_a 11.466141
_cell_length_b 9.215967
_cell_length_c 13.213857
_cell_angle_alpha 43.249715
_cell_angle_beta 61.260862
_cell_angle_gamma 71.912089
_cell_volume 837.045627
_symmetry_space_group_name_H-M "P -1"
_symmetry_group_IT_number 2
_symmetry_cell_setting 'triclinic'
loop_
_space_group_symop_operation_xyz
x,y,z
-x,-y,-z
loop_
_atom_site_type_symbol
_atom_site_label
_atom_site_fract_x
_atom_site_fract_y
_atom_site_fract_z
Si Si1 0.535781 0.068633 0.837222
Si Si2 0.245252 0.675240 0.654403
Si Si3 0.042774 0.331951 0.174680
Si Si4 0.636011 0.965396 0.267710
Si Si5 0.155186 0.769579 0.853132
Si Si6 0.525449 0.535449 0.641106
Si Si7 0.542043 0.645414 0.811497
Si Si8 0.248382 0.085859 0.311581
O O1 0.411000 0.049159 0.821644
O O2 0.582755 0.317661 0.692320
O O3 0.649099 0.925449 0.818814
O O4 0.500000 0.000000 0.000000
O O5 0.250146 0.787124 0.706060
O O6 0.370421 0.534555 0.670902
O O7 0.091905 0.581806 0.765234
O O8 0.253854 0.858443 0.475724
O O9 0.105781 0.149642 0.303262
O O10 0.989927 0.234663 0.138398
O O11 0.151502 0.528398 0.018079
O O12 0.597598 0.745603 0.453620
O O13 0.786819 0.056993 0.180856
O O14 0.545303 0.149309 0.253870
O O15 0.530227 0.544954 0.756494
O O16 0.691628 0.738892 0.724171
O O17 0.500000 0.500000 0.000000
#
# Coordination Sequence:
#
# PCOD9084067 Si02
#       8
#     2   2   2   2   2   2   2   2
#     4  11  26  37  56  86 121 156 184 237 301 349
#     4  10  19  34  60  85 111 147 190 236 279 333
#     4   9  20  35  57  90 115 146 190 241 285 330
#     4  11  20  37  58  85 114 149 196 237 288 342
#     4   9  19  34  59  90 109 145 189 242 286 330
#     4  12  21  38  58  87 119 148 193 236 291 352
#     4  11  20  31  56  86 116 146 185 239 290 331
#     4  11  21  36  56  85 117 150 191 234 288 341
#
# _framework density 19.114847999999999
#
# number of rings (size 3 to 8) (size 9 to 14) (size 15 to 20)
#    0.750    0.750    3.750    4.125    1.750    0.000 
#    0.000    0.000    0.000    5.250    0.000    0.000 
#    0.000    0.000    0.000    0.000    0.000    0.000 
#
# Total GULP energy -89093.261538 kJ/mol
# GULP energy per Si atom -5568.328846 kJ/mol
# Density = 1.907134 g / cm^3
# Si number density = 19.114848 Si / 1000 Ang^3
#
#
#
# Elastic Constant Matrix: (Units=GPa)
#
#
# Indices 1 2 3 4 5 6 
#
# 1 80.3733 26.9340 29.5889 -6.6503 3.8398 8.1851
# 2 26.9340 59.4554 18.8071 -9.8076 -0.0754 14.5763
# 3 29.5889 18.8071 88.5692 4.8063 2.1224 13.6638
# 4 -6.6503 -9.8076 4.8063 24.4143 0.5903 2.7525
# 5 3.8398 -0.0754 2.1224 0.5903 19.7008 -1.8164
# 6 8.1851 14.5763 13.6638 2.7525 -1.8164 23.2034
#
#
#
# Elastic Compliance Matrix: (Units=1/GPa)
#
#
# Indices 1 2 3 4 5 6 
#
# 1 0.016289 -0.005368 -0.004344 0.003253 -0.002864 -0.000426
# 2 -0.005368 0.025025 -0.001934 0.010552 -0.000253 -0.013960
# 3 -0.004344 -0.001934 0.014206 -0.004144 -0.001047 -0.005209
# 4 0.003253 0.010552 -0.004144 0.048234 -0.002631 -0.011263
# 5 -0.002864 -0.000253 -0.001047 -0.002631 0.052077 0.006175
# 6 -0.000426 -0.013960 -0.005209 -0.011263 0.006175 0.056904
#
#
# Mechanical properties :
#
#
# Convention : Reuss Voigt Hill
#
# Bulk Modulus (GPa) = 31.02717 42.11752 36.57235
# Shear Modulus (GPa) = 20.26174 23.66824 21.96499
#
# Velocity S-wave (km/s) = 3.25930 3.52264 3.39352
# Velocity P-wave (km/s) = 5.51645 6.21507 5.87615
#
# Compressibility (1/GPa) = 0.03222982
#
# Stress axis : x y z
#
# Youngs Moduli (GPa) = 61.38944 39.95950 70.39235
#
# Poissons Ratio (x) = 0.21448 0.30581
# Poissons Ratio (y) = 0.32951 0.13611
# Poissons Ratio (z) = 0.26670 0.07727
#
# Static dielectric constant tensor:
#      x y z
#    x 1.732330 0.025830 -0.001680 
#    y 0.025830 1.650970 0.008090 
#    z -0.001680 0.008090 1.715440 
# 
# From -- ./inp_files/414079.got.cif
#   From: 2010.05.17/outbox.cif.g08.bks.cpg/sg2_208_cif.got.tgz:414079.got - 2010.06.03 11:33:40.
