data_PCOD9084349
_publ_section_title
;
Structure prediction by ZEFSAII (Michael W. Deem and Ramdas Pophale) SiO2 
 PCOD9084349
Probable space group: P -1
;
_chemical_formula_sum "Si O2"
_cell_formula_units_Z 14
_cell_length_a 8.208311
_cell_length_b 9.976508
_cell_length_c 11.322394
_cell_angle_alpha 66.325064
_cell_angle_beta 45.427602
_cell_angle_gamma 71.693218
_cell_volume 604.169503
_symmetry_space_group_name_H-M "P -1"
_symmetry_group_IT_number 2
_symmetry_cell_setting 'triclinic'
loop_
_space_group_symop_operation_xyz
x,y,z
-x,-y,-z
loop_
_atom_site_type_symbol
_atom_site_label
_atom_site_fract_x
_atom_site_fract_y
_atom_site_fract_z
Si Si1 0.817398 0.561818 0.711084
Si Si2 0.996652 0.193971 0.993542
Si Si3 0.320721 0.542490 0.918493
Si Si4 0.906740 0.234271 0.747136
Si Si5 0.612968 0.788547 0.043879
Si Si6 0.239583 0.975433 0.643485
Si Si7 0.971514 0.847394 0.637102
O O1 0.570633 0.611145 0.762869
O O2 0.917341 0.408518 0.658425
O O3 0.968653 0.700163 0.612282
O O4 0.741008 0.504622 0.899959
O O5 0.953787 0.213864 0.870418
O O6 0.248986 0.156133 0.932203
O O7 0.883178 0.344836 0.054433
O O8 0.839881 0.072958 0.170269
O O9 0.355069 0.386801 0.894082
O O10 0.096426 0.124932 0.632941
O O11 0.656583 0.184302 0.851829
O O12 0.747621 0.840727 0.839513
O O13 0.500000 0.000000 0.500000
O O14 0.174799 0.851014 0.627694
O O15 0.000000 0.000000 0.500000
#
# Coordination Sequence:
#
# PCOD9084349 Si02
#       7
#     2   2   2   2   2   2   2
#     4   8  16  33  61  89 113 160 204 241 299 352
#     4  10  19  34  63  91 121 156 200 247 301 357
#     4   8  14  29  59  92 121 147 195 257 294 349
#     4  10  21  42  65  88 124 153 202 265 296 348
#     4   9  19  35  61  97 118 154 207 248 299 354
#     4  11  26  41  56  90 125 163 199 245 312 368
#     4  10  21  37  60  88 125 163 195 241 299 367
#
# _framework density 23.172304
#
# number of rings (size 3 to 8) (size 9 to 14) (size 15 to 20)
#    0.000    2.571    0.000    3.429    4.000    3.429 
#    2.571    1.429    0.000    0.000    0.000    0.000 
#    0.000    0.000    0.000    0.000    0.000    0.000 
#
# Total GULP energy -78103.793838 kJ/mol
# GULP energy per Si atom -5578.842417 kJ/mol
# Density = 2.311956 g / cm^3
# Si number density = 23.172304 Si / 1000 Ang^3
#
#
#
# Elastic Constant Matrix: (Units=GPa)
#
#
# Indices 1 2 3 4 5 6 
#
# 1 145.9725 57.5388 66.1239 4.6972 -24.2537 -4.8482
# 2 57.5388 124.1159 45.2828 -6.0616 -28.3950 1.9656
# 3 66.1239 45.2828 97.2792 -27.5479 -24.5261 -4.2174
# 4 4.6972 -6.0616 -27.5479 27.2573 -8.9551 -4.6168
# 5 -24.2537 -28.3950 -24.5261 -8.9551 47.6472 -3.0268
# 6 -4.8482 1.9656 -4.2174 -4.6168 -3.0268 37.6624
#
#
#
# Elastic Compliance Matrix: (Units=1/GPa)
#
#
# Indices 1 2 3 4 5 6 
#
# 1 0.016517 -0.003900 -0.019779 -0.027513 -0.009524 -0.004023
# 2 -0.003900 0.011348 0.000608 0.005883 0.006208 0.000194
# 3 -0.019779 0.000608 0.050225 0.066277 0.029464 0.013539
# 4 -0.027513 0.005883 0.066277 0.129973 0.049536 0.023487
# 5 -0.009524 0.006208 0.029464 0.049536 0.045043 0.011442
# 6 -0.004023 0.000194 0.013539 0.023487 0.011442 0.031338
#
#
# Mechanical properties :
#
#
# Convention : Reuss Voigt Hill
#
# Bulk Modulus (GPa) = 31.30024 78.36207 54.83116
# Shear Modulus (GPa) = 14.65273 35.74152 25.19713
#
# Velocity S-wave (km/s) = 2.51736 3.93163 3.30112
# Velocity P-wave (km/s) = 4.68897 7.38247 6.18414
#
# Compressibility (1/GPa) = 0.03194864
#
# Stress axis : x y z
#
# Youngs Moduli (GPa) = 60.54546 88.12466 19.91047
#
# Poissons Ratio (x) = 0.34366 0.39380
# Poissons Ratio (y) = 0.23611 -0.01211
# Poissons Ratio (z) = 1.19750 -0.05359
#
# Static dielectric constant tensor:
#      x y z
#    x 2.016180 0.091640 0.092890 
#    y 0.091640 2.003940 0.015330 
#    z 0.092890 0.015330 1.917510 
# 
# From -- ./inp_files/497594.got.cif
#   From: 2010.05.17/outbox.cif.g08.bks.cpg/sg2_249_cif.got.tgz:497594.got - 2010.06.03 11:33:40.
