data_PCOD9084756
_publ_section_title
;
Structure prediction by ZEFSAII (Michael W. Deem and Ramdas Pophale) SiO2 
 PCOD9084756
Probable space group: P -1
;
_chemical_formula_sum "Si O2"
_cell_formula_units_Z 16
_cell_length_a 8.250473
_cell_length_b 14.904620
_cell_length_c 9.363749
_cell_angle_alpha 135.459214
_cell_angle_beta 97.302044
_cell_angle_gamma 62.455832
_cell_volume 677.086600
_symmetry_space_group_name_H-M "P -1"
_symmetry_group_IT_number 2
_symmetry_cell_setting 'triclinic'
loop_
_space_group_symop_operation_xyz
x,y,z
-x,-y,-z
loop_
_atom_site_type_symbol
_atom_site_label
_atom_site_fract_x
_atom_site_fract_y
_atom_site_fract_z
Si Si1 0.506936 0.508849 0.271822
Si Si2 0.151912 0.325880 0.835863
Si Si3 0.433497 0.882326 0.349739
Si Si4 0.928875 0.246878 0.926168
Si Si5 0.851489 0.902592 0.652954
Si Si6 0.211163 0.814338 0.440954
Si Si7 0.294237 0.428800 0.381522
Si Si8 0.097410 0.249117 0.226601
O O1 0.360229 0.638649 0.294630
O O2 0.402893 0.436950 0.263387
O O3 0.570761 0.585483 0.486724
O O4 0.709100 0.385200 0.082934
O O5 0.371440 0.280208 0.820067
O O6 0.141750 0.229323 0.594207
O O7 0.078431 0.287001 0.924771
O O8 0.000000 0.500000 0.000000
O O9 0.327955 0.890026 0.493422
O O10 0.500000 0.000000 0.500000
O O11 0.300598 0.938155 0.257823
O O12 0.905703 0.164256 0.694621
O O13 0.017275 0.189418 0.026544
O O14 0.815042 0.870387 0.770908
O O15 0.060709 0.878222 0.625016
O O16 0.238837 0.302936 0.247957
O O17 0.093152 0.593805 0.559338
#
# Coordination Sequence:
#
# PCOD9084756 Si02
#       8
#     2   2   2   2   2   2   2   2
#     4  10  19  35  56  94 126 161 201 254 319 359
#     4  10  22  38  61  94 124 158 205 263 312 356
#     4  10  23  41  64  91 121 162 216 255 305 374
#     4  10  23  35  55  89 129 161 198 259 317 366
#     4  10  22  40  63  90 122 169 209 248 307 374
#     4  11  21  38  61  89 123 161 205 263 312 364
#     4   9  20  32  57  87 130 158 209 255 299 364
#     4  10  20  37  58  88 126 170 207 249 305 376
#
# _framework density 23.630655000000001
#
# number of rings (size 3 to 8) (size 9 to 14) (size 15 to 20)
#    0.000    2.000    1.250    1.500    8.750    2.000 
#    0.000    1.250    0.000    0.000    0.000    0.000 
#    0.000    0.000    0.000    0.000    0.000    0.000 
#
# Total GULP energy -89416.350065 kJ/mol
# GULP energy per Si atom -5588.521879 kJ/mol
# Density = 2.357687 g / cm^3
# Si number density = 23.630655 Si / 1000 Ang^3
#
#
#
# Elastic Constant Matrix: (Units=GPa)
#
#
# Indices 1 2 3 4 5 6 
#
# 1 112.2853 38.0495 13.2746 -7.9116 -13.4970 7.8404
# 2 38.0495 137.8602 32.2053 -8.6357 -5.5288 -3.7580
# 3 13.2746 32.2053 56.4834 -6.5593 8.8702 -3.7012
# 4 -7.9116 -8.6357 -6.5593 33.6205 -1.3978 -11.8889
# 5 -13.4970 -5.5288 8.8702 -1.3978 21.8793 4.3251
# 6 7.8404 -3.7580 -3.7012 -11.8889 4.3251 34.0795
#
#
#
# Elastic Compliance Matrix: (Units=1/GPa)
#
#
# Indices 1 2 3 4 5 6 
#
# 1 0.011331 -0.002178 -0.002972 0.000432 0.008482 -0.004095
# 2 -0.002178 0.009252 -0.004982 0.001402 0.002886 0.001103
# 3 -0.002972 -0.004982 0.024320 0.004327 -0.013870 0.006045
# 4 0.000432 0.001402 0.004327 0.035636 -0.001455 0.013142
# 5 0.008482 0.002886 -0.013870 -0.001455 0.059408 -0.011187
# 6 -0.004095 0.001103 0.006045 0.013142 -0.011187 0.037068
#
#
# Mechanical properties :
#
#
# Convention : Reuss Voigt Hill
#
# Bulk Modulus (GPa) = 40.58200 52.63198 46.60699
# Shear Modulus (GPa) = 24.33195 32.78916 28.56056
#
# Velocity S-wave (km/s) = 3.21234 3.72905 3.48030
# Velocity P-wave (km/s) = 5.56503 6.39235 5.99299
#
# Compressibility (1/GPa) = 0.02464146
#
# Stress axis : x y z
#
# Youngs Moduli (GPa) = 88.25341 108.08308 41.11864
#
# Poissons Ratio (x) = 0.23537 0.12219
# Poissons Ratio (y) = 0.19218 0.20484
# Poissons Ratio (z) = 0.26225 0.53843
#
# Static dielectric constant tensor:
#      x y z
#    x 2.014450 0.027990 -0.057450 
#    y 0.027990 1.907140 -0.030380 
#    z -0.057450 -0.030380 2.048520 
# 
# From -- ./inp_files/208710.got.cif
#   From: 2010.05.17/outbox.cif.g08.bks.cpg/sg2_105_cif.got.tgz:208710.got - 2010.06.03 11:33:40.
