data_PCOD9084975
_publ_section_title
;
Structure prediction by ZEFSAII (Michael W. Deem and Ramdas Pophale) SiO2 
 PCOD9084975
Probable space group: P -1
;
_chemical_formula_sum "Si O2"
_cell_formula_units_Z 14
_cell_length_a 14.432290
_cell_length_b 12.340990
_cell_length_c 11.354612
_cell_angle_alpha 64.359545
_cell_angle_beta 149.380655
_cell_angle_gamma 134.503290
_cell_volume 648.700509
_symmetry_space_group_name_H-M "P -1"
_symmetry_group_IT_number 2
_symmetry_cell_setting 'triclinic'
loop_
_space_group_symop_operation_xyz
x,y,z
-x,-y,-z
loop_
_atom_site_type_symbol
_atom_site_label
_atom_site_fract_x
_atom_site_fract_y
_atom_site_fract_z
Si Si1 0.227702 0.803005 0.430625
Si Si2 0.107371 0.595721 0.746233
Si Si3 0.785565 0.080980 0.886031
Si Si4 0.353325 0.318191 0.487243
Si Si5 0.124596 0.306211 0.708271
Si Si6 0.774706 0.318812 0.904028
Si Si7 0.440861 0.351064 0.843614
O O1 0.201822 0.879386 0.255925
O O2 0.036682 0.599481 0.301186
O O3 0.129243 0.828324 0.425498
O O4 0.518223 0.885832 0.711315
O O5 0.942314 0.604370 0.479607
O O6 0.142406 0.670680 0.876784
O O7 0.385443 0.688117 0.951755
O O8 0.734255 0.181664 0.849675
O O9 0.060913 0.165618 0.192686
O O10 0.500000 0.500000 0.500000
O O11 0.524188 0.283961 0.657456
O O12 0.358465 0.336197 0.626061
O O13 0.208698 0.246207 0.733985
O O14 0.365522 0.451806 0.989902
O O15 0.000000 0.500000 0.000000
#
# Coordination Sequence:
#
# PCOD9084975 Si02
#       7
#     2   2   2   2   2   2   2
#     4  10  21  38  57  81 120 149 180 233 284 333
#     4  10  19  37  60  84 107 147 191 230 272 329
#     4  11  22  39  56  84 119 146 180 237 288 324
#     4  11  20  34  58  84 110 145 192 233 275 328
#     4  10  19  35  58  82 109 151 191 224 275 332
#     4  11  20  36  60  85 107 143 194 228 272 333
#     4   9  19  32  53  85 109 136 193 233 267 320
#
# _framework density 21.581609
#
# number of rings (size 3 to 8) (size 9 to 14) (size 15 to 20)
#    0.000    1.714    2.857    4.286    0.000    0.000 
#    0.000   11.429    0.000    6.000    0.000    0.000 
#    0.000    0.000    0.000    0.000    0.000    0.000 
#
# Total GULP energy -78216.047164 kJ/mol
# GULP energy per Si atom -5586.860512 kJ/mol
# Density = 2.153249 g / cm^3
# Si number density = 21.581609 Si / 1000 Ang^3
#
#
#
# Elastic Constant Matrix: (Units=GPa)
#
#
# Indices 1 2 3 4 5 6 
#
# 1 132.9755 18.4261 41.0695 -3.0088 14.6636 33.2498
# 2 18.4261 16.4326 8.2790 0.6495 5.2850 13.7489
# 3 41.0695 8.2790 141.8833 0.5797 7.3911 29.9400
# 4 -3.0088 0.6495 0.5797 14.9875 6.5102 3.9986
# 5 14.6636 5.2850 7.3911 6.5102 30.8129 1.5317
# 6 33.2498 13.7489 29.9400 3.9986 1.5317 26.8930
#
#
#
# Elastic Compliance Matrix: (Units=1/GPa)
#
#
# Indices 1 2 3 4 5 6 
#
# 1 0.012959 0.004267 0.000644 0.011444 -0.008470 -0.020140
# 2 0.004267 0.132817 0.011105 0.031162 -0.029661 -0.088485
# 3 0.000644 0.011105 0.010408 0.006478 -0.005145 -0.018731
# 4 0.011444 0.031162 0.006478 0.093501 -0.029639 -0.049507
# 5 -0.008470 -0.029661 -0.005145 -0.029639 0.047425 0.033071
# 6 -0.020140 -0.088485 -0.018731 -0.049507 0.033071 0.133653
#
#
# Mechanical properties :
#
#
# Convention : Reuss Voigt Hill
#
# Bulk Modulus (GPa) = 5.31305 47.42673 26.36989
# Shear Modulus (GPa) = 10.83498 29.43981 20.13739
#
# Velocity S-wave (km/s) = 2.24307 3.69740 3.05795
# Velocity P-wave (km/s) = 3.02914 6.34436 4.97125
#
# Compressibility (1/GPa) = 0.18821575
#
# Stress axis : x y z
#
# Youngs Moduli (GPa) = 77.16777 7.52918 96.08256
#
# Poissons Ratio (x) = -0.03213 -0.06191
# Poissons Ratio (y) = -0.32930 -1.06696
# Poissons Ratio (z) = -0.04973 -0.08361
#
# Static dielectric constant tensor:
#      x y z
#    x 1.809550 0.024990 0.012230 
#    y 0.024990 1.805750 0.057460 
#    z 0.012230 0.057460 1.844690 
# 
# From -- ./inp_files/449819.got.cif
#   From: 2010.05.17/outbox.cif.g08.bks.cpg/sg2_225_cif.got.tgz:449819.got - 2010.06.03 11:33:40.
