data_PCOD9084469
_publ_section_title
;
Structure prediction by ZEFSAII (Michael W. Deem and Ramdas Pophale) SiO2 
 PCOD9084469
Probable space group: P -1
;
_chemical_formula_sum "Si O2"
_cell_formula_units_Z 16
_cell_length_a 17.897241
_cell_length_b 10.283179
_cell_length_c 18.261872
_cell_angle_alpha 141.850404
_cell_angle_beta 25.051874
_cell_angle_gamma 125.269676
_cell_volume 752.973904
_symmetry_space_group_name_H-M "P -1"
_symmetry_group_IT_number 2
_symmetry_cell_setting 'triclinic'
loop_
_space_group_symop_operation_xyz
x,y,z
-x,-y,-z
loop_
_atom_site_type_symbol
_atom_site_label
_atom_site_fract_x
_atom_site_fract_y
_atom_site_fract_z
Si Si1 0.331055 0.890597 0.180731
Si Si2 0.859284 0.342837 0.558719
Si Si3 0.124726 0.321548 0.195972
Si Si4 0.336462 0.403320 0.926742
Si Si5 0.696313 0.992543 0.909163
Si Si6 0.163918 0.095613 0.571620
Si Si7 0.687066 0.457629 0.158662
Si Si8 0.488905 0.104360 0.380556
O O1 0.253565 0.997390 0.216162
O O2 0.178063 0.047901 0.451143
O O3 0.374783 0.613356 0.017961
O O4 0.534790 0.904134 0.018619
O O5 0.910474 0.380762 0.447336
O O6 0.771929 0.575789 0.792896
O O7 0.090911 0.176801 0.313175
O O8 0.766152 0.172528 0.575693
O O9 0.130056 0.439768 0.166359
O O10 0.283054 0.031442 0.917229
O O11 0.327421 0.431936 0.860527
O O12 0.494237 0.121704 0.685898
O O13 0.606002 0.268754 0.140602
O O14 0.319746 0.170900 0.497985
O O15 0.930388 0.291422 0.887069
O O16 0.568891 0.668120 0.415962
#
# Coordination Sequence:
#
# PCOD9084469 Si02
#       8
#     2   2   2   2   2   2   2   2
#     4  10  19  36  55  87 108 142 183 229 289 316
#     4  10  19  35  51  87 112 139 185 228 282 322
#     4   9  20  33  56  81 110 145 177 229 274 327
#     4   9  20  35  62  81 106 147 179 232 269 328
#     4   9  21  34  57  79 116 143 180 232 271 331
#     4  11  21  33  59  80 113 144 182 235 269 321
#     4  10  21  38  57  81 112 148 190 216 268 330
#     4  10  21  37  55  84 110 152 181 220 273 328
#
# _framework density 21.249078000000001
#
# number of rings (size 3 to 8) (size 9 to 14) (size 15 to 20)
#    0.750    1.500    1.250    1.500    1.750    5.500 
#    0.000    6.875    0.000    0.750    0.000    0.000 
#    0.000    0.000    0.000    0.000    0.000    0.000 
#
# Total GULP energy -89270.214913 kJ/mol
# GULP energy per Si atom -5579.388432 kJ/mol
# Density = 2.120071 g / cm^3
# Si number density = 21.249078 Si / 1000 Ang^3
#
#
#
# Elastic Constant Matrix: (Units=GPa)
#
#
# Indices 1 2 3 4 5 6 
#
# 1 33.4274 3.9999 15.6461 9.4617 11.1423 3.7856
# 2 3.9999 50.0899 17.2826 -1.9262 13.4074 -5.1981
# 3 15.6461 17.2826 139.4628 19.9594 29.8654 4.4691
# 4 9.4617 -1.9262 19.9594 29.0645 0.9431 4.0411
# 5 11.1423 13.4074 29.8654 0.9431 35.4632 2.8937
# 6 3.7856 -5.1981 4.4691 4.0411 2.8937 21.0128
#
#
#
# Elastic Compliance Matrix: (Units=1/GPa)
#
#
# Indices 1 2 3 4 5 6 
#
# 1 0.037202 -0.000848 -0.000034 -0.011343 -0.010773 -0.003240
# 2 -0.000848 0.023523 -0.001693 0.002282 -0.007831 0.006971
# 3 -0.000034 -0.001693 0.009960 -0.006667 -0.007543 -0.000210
# 4 -0.011343 0.002282 -0.006667 0.043326 0.007600 -0.005353
# 5 -0.010773 -0.007831 -0.007543 0.007600 0.041144 -0.005520
# 6 -0.003240 0.006971 -0.000210 -0.005353 -0.005520 0.051733
#
#
# Mechanical properties :
#
#
# Convention : Reuss Voigt Hill
#
# Bulk Modulus (GPa) = 15.25903 32.98192 24.12048
# Shear Modulus (GPa) = 21.37824 29.51153 25.44489
#
# Velocity S-wave (km/s) = 3.17531 3.73076 3.46419
# Velocity P-wave (km/s) = 4.54314 5.84066 5.23228
#
# Compressibility (1/GPa) = 0.06553495
#
# Stress axis : x y z
#
# Youngs Moduli (GPa) = 26.88053 42.51116 100.40030
#
# Poissons Ratio (x) = 0.03603 0.00345
# Poissons Ratio (y) = 0.02278 0.16999
# Poissons Ratio (z) = 0.00092 0.07198
#
# Static dielectric constant tensor:
#      x y z
#    x 1.784720 -0.040500 -0.026690 
#    y -0.040500 1.806800 -0.004520 
#    z -0.026690 -0.004520 1.772830 
# 
# From -- ./inp_files/305029.got.cif
#   From: 2010.05.17/outbox.cif.g08.bks.cpg/sg2_153_cif.got.tgz:305029.got - 2010.06.03 11:33:40.
