data_PCOD9084647
_publ_section_title
;
Structure prediction by ZEFSAII (Michael W. Deem and Ramdas Pophale) SiO2 
 PCOD9084647
Probable space group: P -1
;
_chemical_formula_sum "Si O2"
_cell_formula_units_Z 16
_cell_length_a 14.726318
_cell_length_b 11.823695
_cell_length_c 14.334192
_cell_angle_alpha 146.575081
_cell_angle_beta 144.721368
_cell_angle_gamma 28.109874
_cell_volume 616.075312
_symmetry_space_group_name_H-M "P -1"
_symmetry_group_IT_number 2
_symmetry_cell_setting 'triclinic'
loop_
_space_group_symop_operation_xyz
x,y,z
-x,-y,-z
loop_
_atom_site_type_symbol
_atom_site_label
_atom_site_fract_x
_atom_site_fract_y
_atom_site_fract_z
Si Si1 0.916260 0.372979 0.132870
Si Si2 0.430473 0.054823 0.766499
Si Si3 0.909445 0.009031 0.594101
Si Si4 0.326849 0.114576 0.334480
Si Si5 0.470390 0.374676 0.732835
Si Si6 0.092233 0.820876 0.812154
Si Si7 0.350874 0.636849 0.619947
Si Si8 0.660505 0.600697 0.748542
O O1 0.113278 0.352127 0.272891
O O2 0.704110 0.639049 0.108206
O O3 0.906861 0.337317 0.210998
O O4 0.988101 0.113600 0.960948
O O5 0.265059 0.002639 0.596389
O O6 0.508181 0.010489 0.694954
O O7 0.627313 0.860298 0.863840
O O8 0.828797 0.312315 0.736037
O O9 0.970028 0.870846 0.650698
O O10 0.118570 0.846180 0.599473
O O11 0.351430 0.256879 0.536212
O O12 0.338872 0.873402 0.221977
O O13 0.327138 0.644377 0.855522
O O14 0.478832 0.443645 0.681553
O O15 0.472209 0.732515 0.751828
O O16 0.358641 0.489348 0.432519
#
# Coordination Sequence:
#
# PCOD9084647 Si02
#       8
#     2   2   2   2   2   2   2   2
#     4  11  25  42  59  85 131 168 198 250 299 368
#     4  12  23  39  62  99 122 154 206 252 310 361
#     4  11  22  37  66  89 123 156 203 258 297 356
#     4  11  23  37  63  94 124 155 198 260 311 353
#     4  10  20  38  62  95 121 149 208 249 307 354
#     4  10  24  43  59  89 123 169 208 237 307 366
#     4  10  19  35  55  94 121 156 188 252 304 358
#     4  11  21  35  60  94 125 153 201 247 310 361
#
# _framework density 25.970849999999999
#
# number of rings (size 3 to 8) (size 9 to 14) (size 15 to 20)
#    0.000    1.250    5.000    1.875    5.250    1.500 
#    0.000    0.625    0.000    3.750    0.000    0.000 
#    0.000    0.000    0.000    0.000    0.000    0.000 
#
# Total GULP energy -89329.929455 kJ/mol
# GULP energy per Si atom -5583.120591 kJ/mol
# Density = 2.591174 g / cm^3
# Si number density = 25.970850 Si / 1000 Ang^3
#
#
#
# Elastic Constant Matrix: (Units=GPa)
#
#
# Indices 1 2 3 4 5 6 
#
# 1 107.0639 40.5072 18.6248 3.8229 -25.9928 -1.1820
# 2 40.5072 127.0746 26.0955 23.0399 1.0040 12.9275
# 3 18.6248 26.0955 50.0678 13.2494 -14.3804 -11.4102
# 4 3.8229 23.0399 13.2494 30.7523 -3.7896 0.1199
# 5 -25.9928 1.0040 -14.3804 -3.7896 19.1070 -0.1358
# 6 -1.1820 12.9275 -11.4102 0.1199 -0.1358 55.8881
#
#
#
# Elastic Compliance Matrix: (Units=1/GPa)
#
#
# Indices 1 2 3 4 5 6 
#
# 1 0.019655 -0.009315 0.006457 0.005838 0.033273 0.003957
# 2 -0.009315 0.015259 -0.010056 -0.008730 -0.022815 -0.005816
# 3 0.006457 -0.010056 0.036703 -0.004675 0.036081 0.010054
# 4 0.005838 -0.008730 -0.004675 0.041971 0.013215 0.001130
# 5 0.033273 -0.022815 0.036081 0.013215 0.128673 0.013632
# 6 0.003957 -0.005816 0.010054 0.001130 0.013632 0.021405
#
#
# Mechanical properties :
#
#
# Convention : Reuss Voigt Hill
#
# Bulk Modulus (GPa) = 21.83936 50.51792 36.17864
# Shear Modulus (GPa) = 16.40654 34.41473 25.41063
#
# Velocity S-wave (km/s) = 2.51615 3.64418 3.13138
# Velocity P-wave (km/s) = 4.10716 6.09924 5.19950
#
# Compressibility (1/GPa) = 0.04578889
#
# Stress axis : x y z
#
# Youngs Moduli (GPa) = 50.87887 65.53672 27.24545
#
# Poissons Ratio (x) = 0.61049 -0.17593
# Poissons Ratio (y) = 0.47395 0.27397
# Poissons Ratio (z) = -0.32853 0.65902
#
# Static dielectric constant tensor:
#      x y z
#    x 2.023950 0.020550 0.075470 
#    y 0.020550 2.180050 0.015130 
#    z 0.075470 0.015130 2.102880 
# 
# From -- ./inp_files/532731.got.cif
#   From: 2010.05.17/outbox.cif.g08.bks.cpg/sg2_267_cif.got.tgz:532731.got - 2010.06.03 11:33:40.
