data_PCOD9084204
_publ_section_title
;
Structure prediction by ZEFSAII (Michael W. Deem and Ramdas Pophale) SiO2 
 PCOD9084204
Probable space group: P -1
;
_chemical_formula_sum "Si O2"
_cell_formula_units_Z 15
_cell_length_a 9.576506
_cell_length_b 14.455678
_cell_length_c 8.163183
_cell_angle_alpha 113.716529
_cell_angle_beta 132.895473
_cell_angle_gamma 42.002250
_cell_volume 541.474881
_symmetry_space_group_name_H-M "P -1"
_symmetry_group_IT_number 2
_symmetry_cell_setting 'triclinic'
loop_
_space_group_symop_operation_xyz
x,y,z
-x,-y,-z
loop_
_atom_site_type_symbol
_atom_site_label
_atom_site_fract_x
_atom_site_fract_y
_atom_site_fract_z
Si Si1 0.125202 0.168244 0.098191
Si Si2 0.010820 0.596327 0.975467
Si Si3 0.785546 0.205783 0.294886
Si Si4 0.692513 0.625803 0.219844
Si Si5 0.330744 0.767946 0.422249
Si Si6 0.237226 0.967288 0.265897
Si Si7 0.132571 0.621189 0.651551
Si Si8 0.500000 0.500000 0.500000
O O1 0.330796 0.018550 0.249935
O O2 0.939738 0.278603 0.180420
O O3 0.213400 0.235640 0.118530
O O4 0.946915 0.168094 0.833514
O O5 0.245546 0.573174 0.226097
O O6 0.090564 0.519598 0.812555
O O7 0.000000 0.500000 0.000000
O O8 0.738573 0.170007 0.404050
O O9 0.768681 0.337103 0.385015
O O10 0.077884 0.073726 0.367092
O O11 0.558574 0.262692 0.020326
O O12 0.651074 0.546649 0.255591
O O13 0.861705 0.663727 0.416893
O O14 0.526373 0.606984 0.519120
O O15 0.421822 0.813134 0.384529
O O16 0.000000 0.000000 0.000000
#
# Coordination Sequence:
#
# PCOD9084204 Si02
#       8
#     2   2   2   2   2   2   2   1
#     4   8  18  36  55  79 116 157 193 233 293 351
#     4  10  20  33  56  86 121 153 191 244 296 343
#     4  11  20  35  63  87 114 156 201 249 293 347
#     4  10  20  35  54  87 121 157 201 236 298 358
#     4  10  19  34  61  91 116 152 202 244 296 355
#     4   9  19  38  60  84 118 162 201 241 297 361
#     4   9  20  36  54  82 126 156 187 244 295 355
#     4  10  20  36  54  90 122 142 186 246 304 346
#
# _framework density 27.702117999999999
#
# number of rings (size 3 to 8) (size 9 to 14) (size 15 to 20)
#    0.000    2.400    1.333    0.800    3.733    0.000 
#    2.400    0.000    0.000   24.800    0.000    0.000 
#    0.000    0.000    0.000    0.000    0.000    0.000 
#
# Total GULP energy -83560.768253 kJ/mol
# GULP energy per Si atom -5570.717884 kJ/mol
# Density = 2.763907 g / cm^3
# Si number density = 27.702118 Si / 1000 Ang^3
#
#
#
# Elastic Constant Matrix: (Units=GPa)
#
#
# Indices 1 2 3 4 5 6 
#
# 1 102.8221 30.9948 30.0345 -18.7478 -19.8224 48.7970
# 2 30.9948 142.1213 1.7157 -40.7257 -10.8502 46.8765
# 3 30.0345 1.7157 168.4696 -3.3727 18.8935 11.2367
# 4 -18.7478 -40.7257 -3.3727 37.4152 14.6942 -22.5159
# 5 -19.8224 -10.8502 18.8935 14.6942 48.2086 -13.4306
# 6 48.7970 46.8765 11.2367 -22.5159 -13.4306 49.5223
#
#
#
# Elastic Compliance Matrix: (Units=1/GPa)
#
#
# Indices 1 2 3 4 5 6 
#
# 1 0.020635 0.002419 -0.002836 -0.002209 0.004771 -0.021690
# 2 0.002419 0.012559 0.000600 0.009342 -0.002263 -0.010775
# 3 -0.002836 0.000600 0.006918 0.001663 -0.004171 0.000282
# 4 -0.002209 0.009342 0.001663 0.046986 -0.010590 0.011447
# 5 0.004771 -0.002263 -0.004171 -0.010590 0.027333 0.000984
# 6 -0.021690 -0.010775 0.000282 0.011447 0.000984 0.057172
#
#
# Mechanical properties :
#
#
# Convention : Reuss Voigt Hill
#
# Bulk Modulus (GPa) = 24.70405 59.87814 42.29109
# Shear Modulus (GPa) = 27.06658 50.40709 38.73683
#
# Velocity S-wave (km/s) = 3.12918 4.27032 3.74349
# Velocity P-wave (km/s) = 4.68965 6.78057 5.82962
#
# Compressibility (1/GPa) = 0.04047919
#
# Stress axis : x y z
#
# Youngs Moduli (GPa) = 48.46062 79.62112 144.56083
#
# Poissons Ratio (x) = -0.19263 0.40999
# Poissons Ratio (y) = -0.11724 -0.08678
# Poissons Ratio (z) = 0.13744 -0.04779
#
# Static dielectric constant tensor:
#      x y z
#    x 3.481690 0.662260 -0.382120 
#    y 0.662260 2.425290 -0.132690 
#    z -0.382120 -0.132690 2.174180 
# 
# From -- ./inp_files/198427.got.cif
#   From: 2010.05.17/outbox.cif.g08.bks.cpg/sg2_100_cif.got.tgz:198427.got - 2010.06.03 11:33:40.
