data_PCOD9084510
_publ_section_title
;
Structure prediction by ZEFSAII (Michael W. Deem and Ramdas Pophale) SiO2 
 PCOD9084510
Probable space group: P -1
;
_chemical_formula_sum "Si O2"
_cell_formula_units_Z 16
_cell_length_a 8.253820
_cell_length_b 9.008840
_cell_length_c 12.117653
_cell_angle_alpha 121.651543
_cell_angle_beta 92.940354
_cell_angle_gamma 86.436672
_cell_volume 765.344060
_symmetry_space_group_name_H-M "P -1"
_symmetry_group_IT_number 2
_symmetry_cell_setting 'triclinic'
loop_
_space_group_symop_operation_xyz
x,y,z
-x,-y,-z
loop_
_atom_site_type_symbol
_atom_site_label
_atom_site_fract_x
_atom_site_fract_y
_atom_site_fract_z
Si Si1 0.954944 0.325886 0.866090
Si Si2 0.745860 0.974780 0.509767
Si Si3 0.548051 0.690126 0.030403
Si Si4 0.050212 0.210907 0.194103
Si Si5 0.735978 0.526188 0.786474
Si Si6 0.519188 0.756340 0.303784
Si Si7 0.932228 0.038666 0.337547
Si Si8 0.218466 0.836382 0.010280
O O1 0.876039 0.385644 0.772155
O O2 0.815521 0.247036 0.904756
O O3 0.075697 0.159927 0.786832
O O4 0.000000 0.500000 0.000000
O O5 0.674019 0.792256 0.398427
O O6 0.903173 0.955206 0.583001
O O7 0.610661 0.088023 0.613438
O O8 0.790853 0.070249 0.433765
O O9 0.564830 0.776460 0.184368
O O10 0.500000 0.500000 0.000000
O O11 0.700328 0.654537 0.940921
O O12 0.409068 0.788308 0.988771
O O13 0.180955 0.360871 0.259987
O O14 0.957410 0.164926 0.284973
O O15 0.907073 0.245795 0.112351
O O16 0.157226 0.037410 0.093816
O O17 0.571070 0.420001 0.733884
#
# Coordination Sequence:
#
# PCOD9084510 Si02
#       8
#     2   2   2   2   2   2   2   2
#     4  11  19  32  62  90 120 151 199 248 294 354
#     4  10  21  39  65  81 112 160 223 250 281 339
#     4  10  20  34  60  91 122 150 198 244 296 363
#     4  10  22  36  58  85 133 158 189 244 311 364
#     4  11  21  36  58  95 126 153 187 248 313 366
#     4  10  20  37  59  90 115 154 204 259 286 343
#     4  10  22  41  61  88 113 163 208 251 290 350
#     4  10  19  35  53  87 125 164 190 229 306 373
#
# _framework density 20.905631
#
# number of rings (size 3 to 8) (size 9 to 14) (size 15 to 20)
#    0.000    1.750    5.000    0.750    1.750    0.500 
#    0.000    3.750    0.000    0.000    0.000    0.000 
#    0.000    0.000    0.000    0.000    0.000    0.000 
#
# Total GULP energy -89135.179226 kJ/mol
# GULP energy per Si atom -5570.948702 kJ/mol
# Density = 2.085805 g / cm^3
# Si number density = 20.905631 Si / 1000 Ang^3
#
#
#
# Elastic Constant Matrix: (Units=GPa)
#
#
# Indices 1 2 3 4 5 6 
#
# 1 65.5910 21.4668 21.4652 1.5490 10.9571 6.8974
# 2 21.4668 78.4620 13.5957 -6.2756 6.5917 16.9894
# 3 21.4652 13.5957 79.2205 0.9244 7.7944 12.8103
# 4 1.5490 -6.2756 0.9244 18.1115 11.7302 -0.2646
# 5 10.9571 6.5917 7.7944 11.7302 36.8865 0.1617
# 6 6.8974 16.9894 12.8103 -0.2646 0.1617 31.8945
#
#
#
# Elastic Compliance Matrix: (Units=1/GPa)
#
#
# Indices 1 2 3 4 5 6 
#
# 1 0.018523 -0.004030 -0.003899 -0.000281 -0.003868 -0.000276
# 2 -0.004030 0.016677 -0.000156 0.008976 -0.004570 -0.007852
# 3 -0.003899 -0.000156 0.014713 0.000866 -0.002177 -0.004965
# 4 -0.000281 0.008976 0.000866 0.074722 -0.025447 -0.004320
# 5 -0.003868 -0.004570 -0.002177 -0.025447 0.037612 0.003743
# 6 -0.000276 -0.007852 -0.004965 -0.004320 0.003743 0.037535
#
#
# Mechanical properties :
#
#
# Convention : Reuss Voigt Hill
#
# Bulk Modulus (GPa) = 29.63510 37.36987 33.50248
# Shear Modulus (GPa) = 22.00739 28.49488 25.25114
#
# Velocity S-wave (km/s) = 3.24806 3.69592 3.47920
# Velocity P-wave (km/s) = 5.31723 6.01061 5.67452
#
# Compressibility (1/GPa) = 0.03374377
#
# Stress axis : x y z
#
# Youngs Moduli (GPa) = 53.98823 59.96446 67.96693
#
# Poissons Ratio (x) = 0.24165 0.26499
# Poissons Ratio (y) = 0.21757 0.01057
# Poissons Ratio (z) = 0.21049 0.00933
#
# Static dielectric constant tensor:
#      x y z
#    x 1.810430 0.009490 0.032450 
#    y 0.009490 1.750950 0.039050 
#    z 0.032450 0.039050 1.832720 
# 
# From -- ./inp_files/180344.got.cif
#   From: 2010.05.17/outbox.cif.g08.bks.cpg/sg2_91_cif.got.tgz:180344.got - 2010.06.03 11:33:40.
