data_PCOD9084670
_publ_section_title
;
Structure prediction by ZEFSAII (Michael W. Deem and Ramdas Pophale) SiO2 
 PCOD9084670
Probable space group: P -1
;
_chemical_formula_sum "Si O2"
_cell_formula_units_Z 16
_cell_length_a 20.299387
_cell_length_b 14.757626
_cell_length_c 8.946058
_cell_angle_alpha 81.618085
_cell_angle_beta 92.058063
_cell_angle_gamma 21.625334
_cell_volume 862.381293
_symmetry_space_group_name_H-M "P -1"
_symmetry_group_IT_number 2
_symmetry_cell_setting 'triclinic'
loop_
_space_group_symop_operation_xyz
x,y,z
-x,-y,-z
loop_
_atom_site_type_symbol
_atom_site_label
_atom_site_fract_x
_atom_site_fract_y
_atom_site_fract_z
Si Si1 0.761386 0.810994 0.386100
Si Si2 0.725694 0.320065 0.143573
Si Si3 0.517435 0.308668 0.247629
Si Si4 0.665371 0.282302 0.435242
Si Si5 0.630588 0.799066 0.199235
Si Si6 0.177898 0.665929 0.346480
Si Si7 0.509654 0.888284 0.460143
Si Si8 0.125363 0.702388 0.677767
O O1 0.705984 0.792016 0.292238
O O2 0.000000 0.500000 0.500000
O O3 0.646195 0.052736 0.258810
O O4 0.666799 0.933505 0.515937
O O5 0.634259 0.392317 0.266572
O O6 0.779970 0.354027 0.180114
O O7 0.581086 0.509714 0.944111
O O8 0.944341 0.985913 0.208488
O O9 0.660767 0.188163 0.381478
O O10 0.331729 0.523025 0.291979
O O11 0.500000 0.500000 0.500000
O O12 0.883115 0.020330 0.584520
O O13 0.494294 0.920160 0.275621
O O14 0.801096 0.498971 0.250380
O O15 0.500000 0.000000 0.000000
O O16 0.275006 0.437507 0.396775
O O17 0.183872 0.668324 0.527367
O O18 0.500000 0.000000 0.500000
#
# Coordination Sequence:
#
# PCOD9084670 Si02
#       8
#     2   2   2   2   2   2   2   2
#     4  10  20  36  55  77 106 141 174 210 262 320
#     4  11  21  35  54  81 106 135 176 221 260 303
#     4  11  21  35  55  81 107 134 172 224 266 301
#     4  11  22  37  53  75 108 144 173 205 258 324
#     4  10  19  35  56  80 103 132 176 225 259 297
#     4   9  18  33  55  75 102 138 175 211 256 313
#     4   8  17  33  53  75 101 138 177 209 253 313
#     4  10  20  36  56  76 103 142 178 209 256 319
#
# _framework density 18.553277999999999
#
# number of rings (size 3 to 8) (size 9 to 14) (size 15 to 20)
#    0.000    2.000    0.000    5.250    0.000    1.000 
#    0.000    1.875    0.000    0.000    0.000    0.000 
#    0.000    0.000    0.000    0.000    0.000    0.000 
#
# Total GULP energy -89117.966241 kJ/mol
# GULP energy per Si atom -5569.872890 kJ/mol
# Density = 1.851105 g / cm^3
# Si number density = 18.553278 Si / 1000 Ang^3
#
#
#
# Elastic Constant Matrix: (Units=GPa)
#
#
# Indices 1 2 3 4 5 6 
#
# 1 74.4800 30.5473 23.3627 -2.1229 -2.9639 13.2358
# 2 30.5473 103.1465 30.3208 -11.6715 -7.9539 4.3180
# 3 23.3627 30.3208 80.9442 -10.3795 -11.5929 -5.1806
# 4 -2.1229 -11.6715 -10.3795 17.2804 4.6332 -4.7443
# 5 -2.9639 -7.9539 -11.5929 4.6332 29.8603 -0.1614
# 6 13.2358 4.3180 -5.1806 -4.7443 -0.1614 30.7403
#
#
#
# Elastic Compliance Matrix: (Units=1/GPa)
#
#
# Indices 1 2 3 4 5 6 
#
# 1 0.018163 -0.004226 -0.005068 -0.006034 -0.000403 -0.009014
# 2 -0.004226 0.012428 -0.002446 0.006324 0.000964 0.000643
# 3 -0.005068 -0.002446 0.016850 0.008593 0.004090 0.006713
# 4 -0.006034 0.006324 0.008593 0.072282 -0.006716 0.014278
# 5 -0.000403 0.000964 0.004090 -0.006716 0.036336 -0.000118
# 6 -0.009014 0.000643 0.006713 0.014278 -0.000118 0.039656
#
#
# Mechanical properties :
#
#
# Convention : Reuss Voigt Hill
#
# Bulk Modulus (GPa) = 41.73041 47.44803 44.58922
# Shear Modulus (GPa) = 22.00885 27.19887 24.60386
#
# Velocity S-wave (km/s) = 3.44794 3.83298 3.64554
# Velocity P-wave (km/s) = 6.19613 6.72446 6.46570
#
# Compressibility (1/GPa) = 0.02396334
#
# Stress axis : x y z
#
# Youngs Moduli (GPa) = 55.05653 80.46068 59.34580
#
# Poissons Ratio (x) = 0.34001 0.30075
# Poissons Ratio (y) = 0.23266 0.14514
# Poissons Ratio (z) = 0.27901 0.19679
#
# Static dielectric constant tensor:
#      x y z
#    x 1.677740 0.008360 -0.043910 
#    y 0.008360 1.684000 0.018120 
#    z -0.043910 0.018120 1.625940 
# 
# From -- ./inp_files/188392.got.cif
#   From: 2010.05.17/outbox.cif.g08.bks.cpg/sg2_95_cif.got.tgz:188392.got - 2010.06.03 11:33:40.
