data_PCOD9084655
_publ_section_title
;
Structure prediction by ZEFSAII (Michael W. Deem and Ramdas Pophale) SiO2 
 PCOD9084655
Probable space group: P -1
;
_chemical_formula_sum "Si O2"
_cell_formula_units_Z 12
_cell_length_a 10.730551
_cell_length_b 8.428050
_cell_length_c 10.445487
_cell_angle_alpha 137.851095
_cell_angle_beta 120.972542
_cell_angle_gamma 88.269307
_cell_volume 430.434061
_symmetry_space_group_name_H-M "P -1"
_symmetry_group_IT_number 2
_symmetry_cell_setting 'triclinic'
loop_
_space_group_symop_operation_xyz
x,y,z
-x,-y,-z
loop_
_atom_site_type_symbol
_atom_site_label
_atom_site_fract_x
_atom_site_fract_y
_atom_site_fract_z
Si Si1 0.034302 0.017988 0.202724
Si Si2 0.472750 0.826566 0.076773
Si Si3 0.621698 0.421045 0.578165
Si Si4 0.082805 0.674256 0.823588
Si Si5 0.989587 0.708338 0.220673
Si Si6 0.432028 0.577607 0.176724
O O1 0.822873 0.720088 0.893707
O O2 0.133877 0.938200 0.109876
O O3 0.092130 0.013265 0.375351
O O4 0.027476 0.283100 0.314856
O O5 0.517471 0.765815 0.205885
O O6 0.607099 0.178750 0.336416
O O7 0.270620 0.740105 0.916682
O O8 0.505822 0.630096 0.891560
O O9 0.500000 0.500000 0.500000
O O10 0.538333 0.265534 0.579189
O O11 0.973194 0.372448 0.670754
O O12 0.786015 0.610842 0.073044
O O13 0.000000 0.500000 0.000000
#
# Coordination Sequence:
#
# PCOD9084655 Si02
#       6
#     2   2   2   2   2   2
#     4   9  17  30  49  76 101 136 177 212 261 311
#     4  10  19  35  56  78 105 138 177 221 265 312
#     4  11  20  33  52  80 107 137 175 219 265 311
#     4   9  16  30  52  72 103 138 172 215 260 315
#     4   8  15  29  50  74  98 133 175 211 255 310
#     4   9  20  34  54  79 105 139 177 217 267 317
#
# _framework density 27.878837000000001
#
# number of rings (size 3 to 8) (size 9 to 14) (size 15 to 20)
#    0.000    2.667    1.667    0.500    0.000    0.667 
#    0.000    0.000    0.000   34.000    0.000    0.000 
#    0.000    0.000    0.000    0.000    0.000    0.000 
#
# Total GULP energy -67137.105815 kJ/mol
# GULP energy per Si atom -5594.758818 kJ/mol
# Density = 2.781538 g / cm^3
# Si number density = 27.878837 Si / 1000 Ang^3
#
#
#
# Elastic Constant Matrix: (Units=GPa)
#
#
# Indices 1 2 3 4 5 6 
#
# 1 138.0995 45.2595 41.3006 1.1023 5.4809 -57.3951
# 2 45.2595 214.7394 33.0281 7.0016 1.3998 -16.5428
# 3 41.3006 33.0281 83.6656 5.9725 -9.2287 -19.6261
# 4 1.1023 7.0016 5.9725 31.7579 -22.6683 -7.1056
# 5 5.4809 1.3998 -9.2287 -22.6683 37.6511 8.9980
# 6 -57.3951 -16.5428 -19.6261 -7.1056 8.9980 60.1441
#
#
#
# Elastic Compliance Matrix: (Units=1/GPa)
#
#
# Indices 1 2 3 4 5 6 
#
# 1 0.014775 -0.001322 -0.004362 -0.001687 -0.007344 0.013212
# 2 -0.001322 0.005214 -0.001505 -0.001933 -0.001455 -0.000330
# 3 -0.004362 -0.001505 0.015122 0.001339 0.005269 -0.000272
# 4 -0.001687 -0.001933 0.001339 0.056413 0.034664 -0.000225
# 5 -0.007344 -0.001455 0.005269 0.034664 0.052087 -0.009386
# 6 0.013212 -0.000330 -0.000272 -0.000225 -0.009386 0.030433
#
#
# Mechanical properties :
#
#
# Convention : Reuss Voigt Hill
#
# Bulk Modulus (GPa) = 48.23663 75.07567 61.65615
# Shear Modulus (GPa) = 25.59724 47.03837 36.31781
#
# Velocity S-wave (km/s) = 3.03340 4.11206 3.61321
# Velocity P-wave (km/s) = 5.44137 7.03798 6.29053
#
# Compressibility (1/GPa) = 0.02073113
#
# Stress axis : x y z
#
# Youngs Moduli (GPa) = 67.68217 191.78399 66.13087
#
# Poissons Ratio (x) = 0.25363 0.28845
# Poissons Ratio (y) = 0.08951 0.09956
# Poissons Ratio (z) = 0.29522 0.28872
#
# Static dielectric constant tensor:
#      x y z
#    x 2.152350 0.073410 0.001410 
#    y 0.073410 2.227370 0.014850 
#    z 0.001410 0.014850 2.108920 
# 
# From -- ./inp_files/26948.got.cif
#   From: 2010.05.17/outbox.cif.g08.bks.cpg/sg2_14_cif.got.tgz:26948.got - 2010.06.03 11:33:40.
