data_PCOD9084783
_publ_section_title
;
Structure prediction by ZEFSAII (Michael W. Deem and Ramdas Pophale) SiO2 
 PCOD9084783
Probable space group: P -1
;
_chemical_formula_sum "Si O2"
_cell_formula_units_Z 16
_cell_length_a 12.256850
_cell_length_b 10.231497
_cell_length_c 10.362913
_cell_angle_alpha 40.908896
_cell_angle_beta 52.394324
_cell_angle_gamma 66.566704
_cell_volume 669.145536
_symmetry_space_group_name_H-M "P -1"
_symmetry_group_IT_number 2
_symmetry_cell_setting 'triclinic'
loop_
_space_group_symop_operation_xyz
x,y,z
-x,-y,-z
loop_
_atom_site_type_symbol
_atom_site_label
_atom_site_fract_x
_atom_site_fract_y
_atom_site_fract_z
Si Si1 0.706201 0.693764 0.467672
Si Si2 0.235947 0.751358 0.319301
Si Si3 0.298382 0.935764 0.495193
Si Si4 0.216129 0.354765 0.156616
Si Si5 0.959634 0.217036 0.323613
Si Si6 0.574983 0.980676 0.170160
Si Si7 0.426984 0.747434 0.777468
Si Si8 0.970656 0.716234 0.406913
O O1 0.724739 0.465392 0.588878
O O2 0.578063 0.695584 0.659956
O O3 0.853525 0.792749 0.345776
O O4 0.666902 0.818863 0.280664
O O5 0.152900 0.728643 0.530194
O O6 0.121487 0.827162 0.245834
O O7 0.366518 0.916400 0.079010
O O8 0.141593 0.824785 0.694444
O O9 0.366711 0.909574 0.605137
O O10 0.287003 0.152310 0.276544
O O11 0.419597 0.864071 0.372561
O O12 0.105164 0.330325 0.368957
O O13 0.110233 0.350234 0.113753
O O14 0.323705 0.547079 0.966803
O O15 0.000000 0.000000 0.500000
O O16 0.579603 0.161619 0.141526
O O17 0.000000 0.500000 0.500000
#
# Coordination Sequence:
#
# PCOD9084783 Si02
#       8
#     2   2   2   2   2   2   2   2
#     4  10  20  35  53  84 121 148 182 226 277 338
#     4  10  21  37  57  81 111 150 189 230 279 327
#     4  10  21  38  57  81 114 147 187 233 272 329
#     4  10  19  35  57  80 108 146 189 229 274 327
#     4   9  21  42  61  79 109 150 194 235 275 327
#     4  11  22  35  57  88 117 146 183 228 282 337
#     4  11  21  34  58  88 115 149 184 223 282 338
#     4   9  17  31  50  74 110 144 175 222 272 325
#
# _framework density 23.911090999999999
#
# number of rings (size 3 to 8) (size 9 to 14) (size 15 to 20)
#    0.000    2.000    0.000    5.250    0.000    3.000 
#    0.000   16.250    0.000    0.000    0.000    0.000 
#    0.000    0.000    0.000    0.000    0.000    0.000 
#
# Total GULP energy -89190.722389 kJ/mol
# GULP energy per Si atom -5574.420149 kJ/mol
# Density = 2.385667 g / cm^3
# Si number density = 23.911091 Si / 1000 Ang^3
#
#
#
# Elastic Constant Matrix: (Units=GPa)
#
#
# Indices 1 2 3 4 5 6 
#
# 1 136.9349 30.6029 6.1239 -2.1742 -23.1627 -22.3776
# 2 30.6029 86.5804 18.0010 2.2705 -1.5191 -31.2082
# 3 6.1239 18.0010 60.0647 -14.4625 -13.1696 -5.7234
# 4 -2.1742 2.2705 -14.4625 24.7106 11.6519 -2.4385
# 5 -23.1627 -1.5191 -13.1696 11.6519 25.0617 9.2025
# 6 -22.3776 -31.2082 -5.7234 -2.4385 9.2025 22.5280
#
#
#
# Elastic Compliance Matrix: (Units=1/GPa)
#
#
# Indices 1 2 3 4 5 6 
#
# 1 0.009897 -0.003151 0.001737 -0.002738 0.010684 0.001247
# 2 -0.003151 0.033267 -0.008380 0.011684 -0.030808 0.054676
# 3 0.001737 -0.008380 0.022744 0.007388 0.012739 -0.008510
# 4 -0.002738 0.011684 0.007388 0.068781 -0.045042 0.041187
# 5 0.010684 -0.030808 0.012739 -0.045042 0.103435 -0.075957
# 6 0.001247 0.054676 -0.008510 0.041187 -0.075957 0.154695
#
#
# Mechanical properties :
#
#
# Convention : Reuss Voigt Hill
#
# Bulk Modulus (GPa) = 21.58860 43.67061 32.62960
# Shear Modulus (GPa) = 11.68645 29.71689 20.70167
#
# Velocity S-wave (km/s) = 2.21316 3.52917 2.94560
# Velocity P-wave (km/s) = 3.94703 5.90848 5.02440
#
# Compressibility (1/GPa) = 0.04632075
#
# Stress axis : x y z
#
# Youngs Moduli (GPa) = 101.04491 30.05975 43.96703
#
# Poissons Ratio (x) = 0.09471 -0.07638
# Poissons Ratio (y) = 0.31835 0.36846
# Poissons Ratio (z) = -0.17555 0.25191
#
# Static dielectric constant tensor:
#      x y z
#    x 2.132890 0.130780 -0.044940 
#    y 0.130780 1.901780 -0.021460 
#    z -0.044940 -0.021460 1.920150 
# 
# From -- ./inp_files/424913.got.cif
#   From: 2010.05.17/outbox.cif.g08.bks.cpg/sg2_213_cif.got.tgz:424913.got - 2010.06.03 11:33:40.
