data_PCOD9084576
_publ_section_title
;
Structure prediction by ZEFSAII (Michael W. Deem and Ramdas Pophale) SiO2 
 PCOD9084576
Probable space group: P -1
;
_chemical_formula_sum "Si O2"
_cell_formula_units_Z 14
_cell_length_a 19.492263
_cell_length_b 12.720429
_cell_length_c 16.318278
_cell_angle_alpha 25.972485
_cell_angle_beta 151.080484
_cell_angle_gamma 152.320927
_cell_volume 758.207989
_symmetry_space_group_name_H-M "P -1"
_symmetry_group_IT_number 2
_symmetry_cell_setting 'triclinic'
loop_
_space_group_symop_operation_xyz
x,y,z
-x,-y,-z
loop_
_atom_site_type_symbol
_atom_site_label
_atom_site_fract_x
_atom_site_fract_y
_atom_site_fract_z
Si Si1 0.268570 0.796431 0.983151
Si Si2 0.579439 0.663876 0.658078
Si Si3 0.425366 0.062373 0.212610
Si Si4 0.831704 0.818331 0.683849
Si Si5 0.520547 0.550705 0.859765
Si Si6 0.187403 0.094156 0.825893
Si Si7 0.604990 0.869277 0.274694
O O1 0.174132 0.475986 0.121760
O O2 0.193511 0.952544 0.846694
O O3 0.453236 0.892553 0.137428
O O4 0.291498 0.883266 0.851179
O O5 0.751199 0.820213 0.684659
O O6 0.590604 0.589753 0.815374
O O7 0.478786 0.394994 0.686515
O O8 0.488055 0.844368 0.433600
O O9 0.419987 0.178965 0.214536
O O10 0.256537 0.965513 0.057404
O O11 0.541547 0.328168 0.093302
O O12 0.712997 0.832196 0.481654
O O13 0.012051 0.042781 0.700541
O O14 0.326280 0.404253 0.749927
#
# Coordination Sequence:
#
# PCOD9084576 Si02
#       7
#     2   2   2   2   2   2   2
#     4  10  19  35  55  74 110 145 178 201 254 321
#     4  11  19  35  58  78 102 140 179 215 254 313
#     4   9  19  37  62  74  99 139 183 216 257 312
#     4  11  23  32  51  85 112 134 172 217 264 304
#     4   9  20  37  60  76  98 139 187 211 256 319
#     4  10  19  38  52  78 112 135 170 223 262 303
#     4  10  20  34  54  81 105 143 179 207 249 322
#
# _framework density 18.464590999999999
#
# number of rings (size 3 to 8) (size 9 to 14) (size 15 to 20)
#    0.857    1.143    1.429    4.286    0.000    0.571 
#    2.571    1.429    0.000    0.000    0.000    0.000 
#    0.000    0.000    0.000    0.000    0.000    0.000 
#
# Total GULP energy -78056.392154 kJ/mol
# GULP energy per Si atom -5575.456582 kJ/mol
# Density = 1.842256 g / cm^3
# Si number density = 18.464591 Si / 1000 Ang^3
#
#
#
# Elastic Constant Matrix: (Units=GPa)
#
#
# Indices 1 2 3 4 5 6 
#
# 1 90.6317 21.0268 16.4158 16.8644 -11.6473 5.8666
# 2 21.0268 19.6098 -4.1692 0.3484 -2.2271 7.8005
# 3 16.4158 -4.1692 40.1619 -8.1467 -3.3218 -0.6960
# 4 16.8644 0.3484 -8.1467 14.8325 -0.3586 2.9586
# 5 -11.6473 -2.2271 -3.3218 -0.3586 19.4335 -1.9422
# 6 5.8666 7.8005 -0.6960 2.9586 -1.9422 20.5617
#
#
#
# Elastic Compliance Matrix: (Units=1/GPa)
#
#
# Indices 1 2 3 4 5 6 
#
# 1 0.053358 -0.073578 -0.045615 -0.088672 0.016660 0.025478
# 2 -0.073578 0.164403 0.071173 0.130312 -0.016613 -0.059287
# 3 -0.045615 0.071173 0.068628 0.092832 -0.008318 -0.025806
# 4 -0.088672 0.130312 0.092832 0.226734 -0.023742 -0.055861
# 5 0.016660 -0.016613 -0.008318 -0.023742 0.058701 0.010228
# 6 0.025478 -0.059287 -0.025806 -0.055861 0.010228 0.071987
#
#
# Mechanical properties :
#
#
# Convention : Reuss Voigt Hill
#
# Bulk Modulus (GPa) = 5.25356 24.10561 14.67958
# Shear Modulus (GPa) = 6.22432 18.77422 12.49927
#
# Velocity S-wave (km/s) = 1.83801 3.19214 2.60461
# Velocity P-wave (km/s) = 2.71215 5.16427 4.12465
#
# Compressibility (1/GPa) = 0.19034699
#
# Stress axis : x y z
#
# Youngs Moduli (GPa) = 18.74139 6.08262 14.57138
#
# Poissons Ratio (x) = 0.44755 0.66467
# Poissons Ratio (y) = 1.37896 -1.03709
# Poissons Ratio (z) = 0.85489 -0.43292
#
# Static dielectric constant tensor:
#      x y z
#    x 1.647140 0.005280 -0.020380 
#    y 0.005280 1.632370 -0.020070 
#    z -0.020380 -0.020070 1.647760 
# 
# From -- ./inp_files/201769.got.cif
#   From: 2010.05.17/outbox.cif.g08.bks.cpg/sg2_101_cif.got.tgz:201769.got - 2010.06.03 11:33:40.
