data_PCOD9084991
_publ_section_title
;
Structure prediction by ZEFSAII (Michael W. Deem and Ramdas Pophale) SiO2 
 PCOD9084991
Probable space group: P -1
;
_chemical_formula_sum "Si O2"
_cell_formula_units_Z 14
_cell_length_a 9.716183
_cell_length_b 14.479225
_cell_length_c 7.410213
_cell_angle_alpha 147.325632
_cell_angle_beta 66.554060
_cell_angle_gamma 109.428384
_cell_volume 516.329559
_symmetry_space_group_name_H-M "P -1"
_symmetry_group_IT_number 2
_symmetry_cell_setting 'triclinic'
loop_
_space_group_symop_operation_xyz
x,y,z
-x,-y,-z
loop_
_atom_site_type_symbol
_atom_site_label
_atom_site_fract_x
_atom_site_fract_y
_atom_site_fract_z
Si Si1 0.119484 0.067498 0.904515
Si Si2 0.126540 0.525598 0.223303
Si Si3 0.812802 0.359569 0.012962
Si Si4 0.412511 0.332120 0.835979
Si Si5 0.618315 0.012301 0.149735
Si Si6 0.646964 0.672472 0.720427
Si Si7 0.152368 0.838160 0.999838
O O1 0.182380 0.251430 0.235586
O O2 0.017260 0.092616 0.824670
O O3 0.276871 0.968861 0.693139
O O4 0.000000 0.000000 0.000000
O O5 0.158391 0.634677 0.205381
O O6 0.245276 0.369799 0.916110
O O7 0.152676 0.655371 0.589411
O O8 0.966245 0.439381 0.145192
O O9 0.670626 0.483087 0.325022
O O10 0.798339 0.194973 0.876511
O O11 0.494400 0.158064 0.450576
O O12 0.500000 0.500000 0.000000
O O13 0.405451 0.325399 0.044463
O O14 0.731959 0.044277 0.977925
O O15 0.566909 0.815206 0.873139
#
# Coordination Sequence:
#
# PCOD9084991 Si02
#       7
#     2   2   2   2   2   2   2
#     4   8  17  30  59  85 109 153 191 237 292 339
#     4  11  22  35  61  89 119 145 201 246 284 347
#     4  11  22  36  61  91 114 150 198 245 294 335
#     4  12  21  36  59  88 117 158 198 234 288 350
#     4   9  20  34  59  85 115 152 198 234 286 355
#     4  10  19  35  58  82 118 153 190 241 287 342
#     4  11  17  39  62  84 115 156 193 241 292 337
#
# _framework density 27.114464999999999
#
# number of rings (size 3 to 8) (size 9 to 14) (size 15 to 20)
#    0.857    0.857    4.286    1.714    0.000    0.000 
#    0.000    3.571    3.143    9.429    0.000    0.000 
#    0.000    0.000    0.000    0.000    0.000    0.000 
#
# Total GULP energy -78352.586541 kJ/mol
# GULP energy per Si atom -5596.613324 kJ/mol
# Density = 2.705275 g / cm^3
# Si number density = 27.114465 Si / 1000 Ang^3
#
#
#
# Elastic Constant Matrix: (Units=GPa)
#
#
# Indices 1 2 3 4 5 6 
#
# 1 128.1267 31.5928 50.1368 10.8596 -23.5520 -31.9890
# 2 31.5928 199.7726 43.6224 4.4924 -7.8516 -36.9465
# 3 50.1368 43.6224 93.6333 27.5297 -39.0179 -23.6294
# 4 10.8596 4.4924 27.5297 42.6734 -16.9330 1.4755
# 5 -23.5520 -7.8516 -39.0179 -16.9330 35.8831 1.3326
# 6 -31.9890 -36.9465 -23.6294 1.4755 1.3326 39.9245
#
#
#
# Elastic Compliance Matrix: (Units=1/GPa)
#
#
# Indices 1 2 3 4 5 6 
#
# 1 0.011509 0.000356 -0.002326 0.000202 0.004901 0.008003
# 2 0.000356 0.006310 -0.002515 0.000237 -0.001181 0.004667
# 3 -0.002326 -0.002515 0.029344 -0.008441 0.025378 0.012642
# 4 0.000202 0.000237 -0.008441 0.031410 0.006050 -0.005977
# 5 0.004901 -0.001181 0.025378 0.006050 0.060698 0.015604
# 6 0.008003 0.004667 0.012642 -0.005977 0.015604 0.042961
#
#
# Mechanical properties :
#
#
# Convention : Reuss Voigt Hill
#
# Bulk Modulus (GPa) = 26.18193 74.69295 50.43744
# Shear Modulus (GPa) = 24.51792 43.44157 33.97975
#
# Velocity S-wave (km/s) = 3.01032 4.00703 3.54389
# Velocity P-wave (km/s) = 4.66473 7.00111 5.94875
#
# Compressibility (1/GPa) = 0.03819428
#
# Stress axis : x y z
#
# Youngs Moduli (GPa) = 86.88815 158.48359 34.07798
#
# Poissons Ratio (x) = -0.05643 0.07927
# Poissons Ratio (y) = -0.03094 0.08569
# Poissons Ratio (z) = 0.20210 0.39852
#
# Static dielectric constant tensor:
#      x y z
#    x 2.149160 0.014720 0.031830 
#    y 0.014720 2.118760 0.064660 
#    z 0.031830 0.064660 2.198170 
# 
# From -- ./inp_files/269218.got.cif
#   From: 2010.05.17/outbox.cif.g08.bks.cpg/sg2_135_cif.got.tgz:269218.got - 2010.06.03 11:33:40.
