data_PCOD9084650
_publ_section_title
;
Structure prediction by ZEFSAII (Michael W. Deem and Ramdas Pophale) SiO2 
 PCOD9084650
Probable space group: P -1
;
_chemical_formula_sum "Si O2"
_cell_formula_units_Z 16
_cell_length_a 8.807132
_cell_length_b 8.120099
_cell_length_c 17.789486
_cell_angle_alpha 35.555129
_cell_angle_beta 65.918025
_cell_angle_gamma 68.142826
_cell_volume 673.433578
_symmetry_space_group_name_H-M "P -1"
_symmetry_group_IT_number 2
_symmetry_cell_setting 'triclinic'
loop_
_space_group_symop_operation_xyz
x,y,z
-x,-y,-z
loop_
_atom_site_type_symbol
_atom_site_label
_atom_site_fract_x
_atom_site_fract_y
_atom_site_fract_z
Si Si1 0.885742 0.349871 0.190760
Si Si2 0.170674 0.786981 0.424609
Si Si3 0.915105 0.408371 0.336038
Si Si4 0.182939 0.106055 0.917495
Si Si5 0.727760 0.492524 0.704338
Si Si6 0.763467 0.871700 0.846392
Si Si7 0.523620 0.271968 0.947865
Si Si8 0.788490 0.794109 0.437085
O O1 0.935659 0.296877 0.288864
O O2 0.808063 0.671606 0.096455
O O3 0.052783 0.290465 0.130953
O O4 0.762682 0.105345 0.291386
O O5 0.157013 0.802637 0.511209
O O6 0.245796 0.465020 0.513720
O O7 0.987888 0.775742 0.425361
O O8 0.264432 0.021248 0.273825
O O9 0.805926 0.702793 0.230452
O O10 0.093050 0.476401 0.306458
O O11 0.316272 0.844100 0.992566
O O12 0.000000 0.000000 0.000000
O O13 0.698535 0.724170 0.558788
O O14 0.749430 0.177374 0.778715
O O15 0.585701 0.500154 0.792863
O O16 0.629958 0.684035 0.980984
O O17 0.500000 0.000000 0.000000
#
# Coordination Sequence:
#
# PCOD9084650 Si02
#       8
#     2   2   2   2   2   2   2   2
#     4   9  18  30  51  80 103 127 170 226 250 291
#     4   8  14  27  47  76 103 135 162 211 258 305
#     4   9  17  28  52  73 101 133 170 206 258 302
#     4  10  20  36  52  76 106 139 170 212 260 309
#     4   9  16  30  51  76 101 139 170 207 253 308
#     4   9  18  31  52  80 104 129 174 218 250 296
#     4  10  19  35  56  73 102 144 178 199 254 324
#     4   8  14  26  48  77 106 121 173 220 248 283
#
# _framework density 23.758838999999998
#
# number of rings (size 3 to 8) (size 9 to 14) (size 15 to 20)
#    0.750    2.250    1.250    2.250    0.000    4.500 
#    0.000    5.625    0.000    6.750    0.000    0.000 
#    0.000    0.000    0.000    0.000    0.000    0.000 
#
# Total GULP energy -89181.023639 kJ/mol
# GULP energy per Si atom -5573.813977 kJ/mol
# Density = 2.370476 g / cm^3
# Si number density = 23.758839 Si / 1000 Ang^3
#
#
#
# Elastic Constant Matrix: (Units=GPa)
#
#
# Indices 1 2 3 4 5 6 
#
# 1 31.1436 11.5128 18.5534 13.3653 7.3180 -11.4071
# 2 11.5128 69.7334 43.0444 11.1616 0.4199 -14.5321
# 3 18.5534 43.0444 135.1061 42.3967 -12.8101 -33.1347
# 4 13.3653 11.1616 42.3967 41.1348 -1.5892 -2.5096
# 5 7.3180 0.4199 -12.8101 -1.5892 14.7395 0.0524
# 6 -11.4071 -14.5321 -33.1347 -2.5096 0.0524 21.1186
#
#
#
# Elastic Compliance Matrix: (Units=1/GPa)
#
#
# Indices 1 2 3 4 5 6 
#
# 1 0.060046 -0.002139 0.007998 -0.025695 -0.025714 0.040522
# 2 -0.002139 0.018679 -0.006108 0.001888 -0.004584 0.002351
# 3 0.007998 -0.006108 0.029001 -0.027545 0.018288 0.042301
# 4 -0.025695 0.001888 -0.027545 0.057360 -0.004877 -0.048968
# 5 -0.025714 -0.004584 0.018288 -0.004877 0.096072 0.010831
# 6 0.040522 0.002351 0.042301 -0.048968 0.010831 0.131379
#
#
# Mechanical properties :
#
#
# Convention : Reuss Voigt Hill
#
# Bulk Modulus (GPa) = 9.32578 42.46716 25.89647
# Shear Modulus (GPa) = 11.66106 26.25673 18.95890
#
# Velocity S-wave (km/s) = 2.21783 3.32796 2.82791
# Velocity P-wave (km/s) = 3.23914 5.71666 4.64609
#
# Compressibility (1/GPa) = 0.10722968
#
# Stress axis : x y z
#
# Youngs Moduli (GPa) = 16.65386 53.53620 34.48156
#
# Poissons Ratio (x) = 0.11449 -0.27580
# Poissons Ratio (y) = 0.03561 0.21061
# Poissons Ratio (z) = -0.13320 0.32700
#
# Static dielectric constant tensor:
#      x y z
#    x 1.972520 -0.026200 0.057790 
#    y -0.026200 1.995240 -0.051720 
#    z 0.057790 -0.051720 1.997630 
# 
# From -- ./inp_files/593112.got.cif
#   From: 2010.05.17/outbox.cif.g08.bks.cpg/sg2_297_cif.got.tgz:593112.got - 2010.06.03 11:33:40.
