data_PCOD9084333
_publ_section_title
;
Structure prediction by ZEFSAII (Michael W. Deem and Ramdas Pophale) SiO2 
 PCOD9084333
Probable space group: P -1
;
_chemical_formula_sum "Si O2"
_cell_formula_units_Z 14
_cell_length_a 5.283478
_cell_length_b 29.745853
_cell_length_c 9.920707
_cell_angle_alpha 148.574229
_cell_angle_beta 135.477875
_cell_angle_gamma 44.537814
_cell_volume 546.284769
_symmetry_space_group_name_H-M "P -1"
_symmetry_group_IT_number 2
_symmetry_cell_setting 'triclinic'
loop_
_space_group_symop_operation_xyz
x,y,z
-x,-y,-z
loop_
_atom_site_type_symbol
_atom_site_label
_atom_site_fract_x
_atom_site_fract_y
_atom_site_fract_z
Si Si1 0.838661 0.876708 0.094537
Si Si2 0.747574 0.645718 0.804937
Si Si3 0.545556 0.505736 0.693796
Si Si4 0.869313 0.188281 0.247873
Si Si5 0.294217 0.057882 0.280123
Si Si6 0.196389 0.333296 0.807533
Si Si7 0.950565 0.199469 0.743363
O O1 0.062597 0.828098 0.926338
O O2 0.478410 0.840835 0.898357
O O3 0.073319 0.851101 0.255686
O O4 0.675505 0.981522 0.263646
O O5 0.442261 0.594874 0.514188
O O6 0.153385 0.570559 0.765468
O O7 0.685689 0.674973 0.011300
O O8 0.817759 0.727228 0.956622
O O9 0.500000 0.500000 0.500000
O O10 0.840017 0.563235 0.978598
O O11 0.238007 0.119038 0.281973
O O12 0.865107 0.288443 0.545393
O O13 0.160914 0.125436 0.526941
O O14 0.000000 0.000000 0.000000
O O15 0.560049 0.263262 0.698348
#
# Coordination Sequence:
#
# PCOD9084333 Si02
#       7
#     2   2   2   2   2   2   2
#     4  11  26  40  60  89 128 164 204 257 313 361
#     4   9  17  32  57  88 120 148 202 250 302 353
#     4   8  16  30  54  93 116 149 192 261 289 354
#     4  11  23  42  62  88 122 166 209 253 303 366
#     4  10  21  42  62  87 119 162 213 256 299 359
#     4  10  19  34  63  87 118 157 209 249 299 359
#     4  11  22  38  60  91 123 161 203 256 312 362
#
# _framework density 25.627656999999999
#
# number of rings (size 3 to 8) (size 9 to 14) (size 15 to 20)
#    0.000    2.000    1.429    2.571    4.000    1.143 
#    0.000    4.286    0.000    1.714    0.000    0.000 
#    0.000    0.000    0.000    0.000    0.000    0.000 
#
# Total GULP energy -78299.796899 kJ/mol
# GULP energy per Si atom -5592.842636 kJ/mol
# Density = 2.556933 g / cm^3
# Si number density = 25.627657 Si / 1000 Ang^3
#
#
#
# Elastic Constant Matrix: (Units=GPa)
#
#
# Indices 1 2 3 4 5 6 
#
# 1 87.6016 2.4159 30.9330 2.2701 6.4049 11.7576
# 2 2.4159 89.4005 14.1429 5.3910 7.1374 30.4412
# 3 30.9330 14.1429 130.0184 25.9896 18.8585 14.3627
# 4 2.2701 5.3910 25.9896 36.1804 9.1224 9.4984
# 5 6.4049 7.1374 18.8585 9.1224 54.6001 7.7073
# 6 11.7576 30.4412 14.3627 9.4984 7.7073 43.0418
#
#
#
# Elastic Compliance Matrix: (Units=1/GPa)
#
#
# Indices 1 2 3 4 5 6 
#
# 1 0.013015 0.001380 -0.003238 0.002443 -0.000445 -0.003910
# 2 0.001380 0.014948 -0.000955 0.001339 -0.000480 -0.010840
# 3 -0.003238 -0.000955 0.010136 -0.006438 -0.001912 -0.000059
# 4 0.002443 0.001339 -0.006438 0.034392 -0.003066 -0.006506
# 5 -0.000445 -0.000480 -0.001912 -0.003066 0.019854 -0.001780
# 6 -0.003910 -0.010840 -0.000059 -0.006506 -0.001780 0.033742
#
#
# Mechanical properties :
#
#
# Convention : Reuss Voigt Hill
#
# Bulk Modulus (GPa) = 30.79478 44.66710 37.73094
# Shear Modulus (GPa) = 35.07841 44.06635 39.57238
#
# Velocity S-wave (km/s) = 3.70371 4.15117 3.93380
# Velocity P-wave (km/s) = 5.50747 6.35951 5.94876
#
# Compressibility (1/GPa) = 0.03247303
#
# Stress axis : x y z
#
# Youngs Moduli (GPa) = 76.83577 66.89876 98.65467
#
# Poissons Ratio (x) = -0.09234 0.31947
# Poissons Ratio (y) = -0.10605 0.09421
# Poissons Ratio (z) = 0.24882 0.06388
#
# Static dielectric constant tensor:
#      x y z
#    x 2.065180 -0.004640 0.058390 
#    y -0.004640 2.046680 -0.007570 
#    z 0.058390 -0.007570 2.093040 
# 
# From -- ./inp_files/37601.got.cif
#   From: 2010.05.17/outbox.cif.g08.bks.cpg/sg2_19_cif.got.tgz:37601.got - 2010.06.03 11:33:40.
