data_PCOD9084330
_publ_section_title
;
Structure prediction by ZEFSAII (Michael W. Deem and Ramdas Pophale) SiO2 
 PCOD9084330
Probable space group: P -1
;
_chemical_formula_sum "Si O2"
_cell_formula_units_Z 16
_cell_length_a 13.931992
_cell_length_b 27.746421
_cell_length_c 8.704670
_cell_angle_alpha 36.566836
_cell_angle_beta 44.632805
_cell_angle_gamma 21.027854
_cell_volume 707.832806
_symmetry_space_group_name_H-M "P -1"
_symmetry_group_IT_number 2
_symmetry_cell_setting 'triclinic'
loop_
_space_group_symop_operation_xyz
x,y,z
-x,-y,-z
loop_
_atom_site_type_symbol
_atom_site_label
_atom_site_fract_x
_atom_site_fract_y
_atom_site_fract_z
Si Si1 0.098149 0.988550 0.149326
Si Si2 0.214222 0.572913 0.694167
Si Si3 0.206108 0.718373 0.101085
Si Si4 0.930753 0.602123 0.143852
Si Si5 0.423652 0.245714 0.571542
Si Si6 0.720458 0.952866 0.814569
Si Si7 0.775327 0.014290 0.306952
Si Si8 0.279980 0.386428 0.898616
O O1 0.016079 0.947008 0.270772
O O2 0.336779 0.847583 0.354624
O O3 0.868927 0.152932 0.086061
O O4 0.188102 0.004177 0.870847
O O5 0.130766 0.694394 0.384468
O O6 0.465627 0.458982 0.817128
O O7 0.319566 0.455348 0.743795
O O8 0.961327 0.661488 0.842941
O O9 0.006166 0.801938 0.970401
O O10 0.237275 0.412448 0.295017
O O11 0.786231 0.695595 0.228522
O O12 0.770988 0.607261 0.238368
O O13 0.570647 0.112878 0.624452
O O14 0.761359 0.941695 0.613183
O O15 0.500000 0.000000 0.000000
O O16 0.515097 0.204863 0.140522
O O17 0.000000 0.500000 0.000000
#
# Coordination Sequence:
#
# PCOD9084330 Si02
#       8
#     2   2   2   2   2   2   2   2
#     4  10  22  40  63  87 120 154 201 243 293 355
#     4  10  21  38  62  84 121 154 201 237 297 352
#     4  10  23  39  59  90 115 159 196 242 295 353
#     4  10  21  36  63  87 119 154 195 250 290 343
#     4  10  22  39  59  92 115 152 202 241 297 344
#     4  11  26  39  60  87 123 157 194 243 299 352
#     4  11  22  40  63  89 118 155 199 244 299 348
#     4  10  19  34  63  87 113 155 195 248 288 344
#
# _framework density 22.604208
#
# number of rings (size 3 to 8) (size 9 to 14) (size 15 to 20)
#    0.000    1.750    2.500    1.500    7.000    2.000 
#    0.000    2.500    0.000    2.250    0.000    0.000 
#    0.000    0.000    0.000    0.000    0.000    0.000 
#
# Total GULP energy -89247.748625 kJ/mol
# GULP energy per Si atom -5577.984289 kJ/mol
# Density = 2.255276 g / cm^3
# Si number density = 22.604208 Si / 1000 Ang^3
#
#
#
# Elastic Constant Matrix: (Units=GPa)
#
#
# Indices 1 2 3 4 5 6 
#
# 1 53.3109 -0.2825 18.1618 -7.5952 15.0083 -14.4961
# 2 -0.2825 38.1607 6.8492 -3.8037 4.3183 1.5005
# 3 18.1618 6.8492 86.0284 0.9535 11.4382 -12.3660
# 4 -7.5952 -3.8037 0.9535 44.0588 -8.0156 2.8836
# 5 15.0083 4.3183 11.4382 -8.0156 28.1051 0.5965
# 6 -14.4961 1.5005 -12.3660 2.8836 0.5965 23.4017
#
#
#
# Elastic Compliance Matrix: (Units=1/GPa)
#
#
# Indices 1 2 3 4 5 6 
#
# 1 0.028173 0.001650 -0.001768 0.001301 -0.014560 0.016623
# 2 0.001650 0.027344 -0.002410 0.002218 -0.003422 -0.002191
# 3 -0.001768 -0.002410 0.013866 -0.002184 -0.005096 0.006786
# 4 0.001301 0.002218 -0.002184 0.024670 0.006968 -0.003708
# 5 -0.014560 -0.003422 -0.005096 0.006968 0.048231 -0.013581
# 6 0.016623 -0.002191 0.006786 -0.003708 -0.013581 0.057558
#
#
# Mechanical properties :
#
#
# Convention : Reuss Voigt Hill
#
# Bulk Modulus (GPa) = 15.54549 25.21743 20.38146
# Shear Modulus (GPa) = 22.09041 29.29790 25.69416
#
# Velocity S-wave (km/s) = 3.12952 3.60408 3.37515
# Velocity P-wave (km/s) = 4.46663 5.33849 4.92190
#
# Compressibility (1/GPa) = 0.06432732
#
# Stress axis : x y z
#
# Youngs Moduli (GPa) = 35.49450 36.57080 72.11718
#
# Poissons Ratio (x) = -0.06033 0.12752
# Poissons Ratio (y) = -0.05855 0.17378
# Poissons Ratio (z) = 0.06276 0.08813
#
# Static dielectric constant tensor:
#      x y z
#    x 1.961670 -0.007390 0.017970 
#    y -0.007390 1.886500 0.035590 
#    z 0.017970 0.035590 1.847460 
# 
# From -- ./inp_files/320925.got.cif
#   From: 2010.05.17/outbox.cif.g08.bks.cpg/sg2_161_cif.got.tgz:320925.got - 2010.06.03 11:33:40.
