data_PCOD9084757
_publ_section_title
;
Structure prediction by ZEFSAII (Michael W. Deem and Ramdas Pophale) SiO2 
 PCOD9084757
Probable space group: P -1
;
_chemical_formula_sum "Si O2"
_cell_formula_units_Z 12
_cell_length_a 11.773271
_cell_length_b 21.289347
_cell_length_c 5.148858
_cell_angle_alpha 105.280175
_cell_angle_beta 85.263546
_cell_angle_gamma 29.902506
_cell_volume 473.344371
_symmetry_space_group_name_H-M "P -1"
_symmetry_group_IT_number 2
_symmetry_cell_setting 'triclinic'
loop_
_space_group_symop_operation_xyz
x,y,z
-x,-y,-z
loop_
_atom_site_type_symbol
_atom_site_label
_atom_site_fract_x
_atom_site_fract_y
_atom_site_fract_z
Si Si1 0.330197 0.294072 0.243179
Si Si2 0.938985 0.397204 0.650948
Si Si3 0.693152 0.915624 0.621434
Si Si4 0.430930 0.608830 0.711728
Si Si5 0.090173 0.825119 0.510730
Si Si6 0.541257 0.249741 0.659302
O O1 0.237785 0.273939 0.359591
O O2 0.518865 0.230793 0.359843
O O3 0.000000 0.500000 0.500000
O O4 0.487931 0.223474 0.861412
O O5 0.025819 0.282896 0.639468
O O6 0.732060 0.491555 0.543227
O O7 0.741606 0.551004 0.029095
O O8 0.800769 0.933670 0.636329
O O9 0.500000 0.000000 0.500000
O O10 0.500000 0.000000 0.000000
O O11 0.500000 0.500000 0.500000
O O12 0.193260 0.761297 0.718513
O O13 0.312539 0.674294 0.097542
O O14 0.163391 0.862225 0.484826
#
# Coordination Sequence:
#
# PCOD9084757 Si02
#       6
#     2   2   2   2   2   2
#     4  10  19  35  56  95 123 147 185 238 317 373
#     4  10  22  38  63  89 128 154 194 249 301 360
#     4  12  28  42  59  84 122 171 210 241 286 349
#     4  11  21  34  61  92 118 151 189 246 319 357
#     4  11  22  40  59  88 123 150 202 250 302 360
#     4  10  21  35  63  93 117 149 186 251 316 359
#
# _framework density 25.351521999999999
#
# number of rings (size 3 to 8) (size 9 to 14) (size 15 to 20)
#    0.000    1.333    1.667    6.500    2.333    5.333 
#    0.000    0.000    0.000    6.000    0.000    0.000 
#    0.000    0.000    0.000    0.000    0.000    0.000 
#
# Total GULP energy -67156.496946 kJ/mol
# GULP energy per Si atom -5596.374745 kJ/mol
# Density = 2.529382 g / cm^3
# Si number density = 25.351522 Si / 1000 Ang^3
#
#
#
# Elastic Constant Matrix: (Units=GPa)
#
#
# Indices 1 2 3 4 5 6 
#
# 1 155.9848 48.5563 11.6646 1.4740 -34.9614 -27.2479
# 2 48.5563 112.3493 29.3146 -13.2518 -2.2618 -18.5187
# 3 11.6646 29.3146 68.1900 -5.7607 -16.4438 -8.3688
# 4 1.4740 -13.2518 -5.7607 41.3579 -2.1310 6.5197
# 5 -34.9614 -2.2618 -16.4438 -2.1310 32.8551 -1.3904
# 6 -27.2479 -18.5187 -8.3688 6.5197 -1.3904 56.5405
#
#
#
# Elastic Compliance Matrix: (Units=1/GPa)
#
#
# Indices 1 2 3 4 5 6 
#
# 1 0.011934 -0.005309 0.004258 -0.001600 0.014581 0.005186
# 2 -0.005309 0.013083 -0.006278 0.003071 -0.007681 0.000254
# 3 0.004258 -0.006278 0.020650 0.000946 0.014636 0.003303
# 4 -0.001600 0.003071 0.000946 0.025788 0.000546 -0.002585
# 5 0.014581 -0.007681 0.014636 0.000546 0.053119 0.007920
# 6 0.005186 0.000254 0.003303 -0.002585 0.007920 0.021251
#
#
# Mechanical properties :
#
#
# Convention : Reuss Voigt Hill
#
# Bulk Modulus (GPa) = 32.24805 57.28838 44.76821
# Shear Modulus (GPa) = 29.27089 42.61660 35.94375
#
# Velocity S-wave (km/s) = 3.40163 4.10448 3.76947
# Velocity P-wave (km/s) = 5.30811 6.71632 6.05331
#
# Compressibility (1/GPa) = 0.03100963
#
# Stress axis : x y z
#
# Youngs Moduli (GPa) = 83.79315 76.43531 48.42642
#
# Poissons Ratio (x) = 0.40582 -0.20622
# Poissons Ratio (y) = 0.44488 0.30401
# Poissons Ratio (z) = -0.35682 0.47984
#
# Static dielectric constant tensor:
#      x y z
#    x 2.023130 0.033790 0.007910 
#    y 0.033790 2.013190 0.070680 
#    z 0.007910 0.070680 2.068740 
# 
# From -- ./inp_files/83684.got.cif
#   From: 2010.05.17/outbox.cif.g08.bks.cpg/sg2_42_cif.got.tgz:83684.got - 2010.06.03 11:33:40.
