data_PCOD9084994
_publ_section_title
;
Structure prediction by ZEFSAII (Michael W. Deem and Ramdas Pophale) SiO2 
 PCOD9084994
Probable space group: P -1
;
_chemical_formula_sum "Si O2"
_cell_formula_units_Z 16
_cell_length_a 23.191128
_cell_length_b 10.777788
_cell_length_c 11.881677
_cell_angle_alpha 35.835653
_cell_angle_beta 42.485198
_cell_angle_gamma 23.134787
_cell_volume 682.714073
_symmetry_space_group_name_H-M "P -1"
_symmetry_group_IT_number 2
_symmetry_cell_setting 'triclinic'
loop_
_space_group_symop_operation_xyz
x,y,z
-x,-y,-z
loop_
_atom_site_type_symbol
_atom_site_label
_atom_site_fract_x
_atom_site_fract_y
_atom_site_fract_z
Si Si1 0.095360 0.198197 0.397110
Si Si2 0.398353 0.532690 0.878412
Si Si3 0.106624 0.407690 0.002795
Si Si4 0.048323 0.906685 0.369411
Si Si5 0.414208 0.438464 0.415606
Si Si6 0.730771 0.077597 0.433971
Si Si7 0.671714 0.355501 0.844279
Si Si8 0.531555 0.080733 0.727226
O O1 0.958796 0.315466 0.502183
O O2 0.241336 0.786126 0.438264
O O3 0.139658 0.163345 0.485471
O O4 0.074088 0.420157 0.169916
O O5 0.371855 0.608397 0.993498
O O6 0.442919 0.196985 0.048585
O O7 0.523241 0.452082 0.725705
O O8 0.261693 0.874285 0.743983
O O9 0.074813 0.713980 0.799956
O O10 0.000000 0.500000 0.000000
O O11 0.261664 0.997359 0.045570
O O12 0.199718 0.727128 0.272905
O O13 0.000000 0.000000 0.500000
O O14 0.436121 0.357743 0.311443
O O15 0.497469 0.115679 0.618141
O O16 0.666574 0.971023 0.620339
O O17 0.606709 0.502233 0.337465
#
# Coordination Sequence:
#
# PCOD9084994 Si02
#       8
#     2   2   2   2   2   2   2   2
#     4  10  19  35  58  83 105 138 188 227 258 316
#     4  11  21  36  53  81 115 147 177 217 277 321
#     4   9  18  34  56  80 105 136 175 224 270 309
#     4  11  19  37  59  83 106 139 182 222 268 324
#     4   9  19  35  52  82 113 139 178 223 268 324
#     4   9  20  36  54  78 110 143 188 225 255 316
#     4  10  21  36  53  83 117 140 175 225 272 328
#     4   9  19  36  57  76 107 148 189 222 259 315
#
# _framework density 23.435873000000001
#
# number of rings (size 3 to 8) (size 9 to 14) (size 15 to 20)
#    0.000    2.250    3.750    1.500    0.000    5.500 
#    4.500    0.625    0.000    3.750    0.000    0.000 
#    0.000    0.000    0.000    0.000    0.000    0.000 
#
# Total GULP energy -89333.991571 kJ/mol
# GULP energy per Si atom -5583.374473 kJ/mol
# Density = 2.338253 g / cm^3
# Si number density = 23.435873 Si / 1000 Ang^3
#
#
#
# Elastic Constant Matrix: (Units=GPa)
#
#
# Indices 1 2 3 4 5 6 
#
# 1 116.4414 19.0716 55.9591 -4.1622 29.2147 -8.1430
# 2 19.0716 48.1307 30.4916 6.7674 -1.6469 10.2697
# 3 55.9591 30.4916 174.4996 -14.1564 10.2860 -7.5059
# 4 -4.1622 6.7674 -14.1564 29.6470 -2.4409 -3.1993
# 5 29.2147 -1.6469 10.2860 -2.4409 50.5653 1.1822
# 6 -8.1430 10.2697 -7.5059 -3.1993 1.1822 22.6574
#
#
#
# Elastic Compliance Matrix: (Units=1/GPa)
#
#
# Indices 1 2 3 4 5 6 
#
# 1 0.013064 -0.005917 -0.002218 0.002314 -0.007350 0.007352
# 2 -0.005917 0.033932 -0.006403 -0.013522 0.005684 -0.021833
# 3 -0.002218 -0.006403 0.008294 0.005685 -0.000472 0.005680
# 4 0.002314 -0.013522 0.005685 0.041342 -0.001283 0.014748
# 5 -0.007350 0.005684 -0.000472 -0.001283 0.024402 -0.006829
# 6 0.007352 -0.021833 0.005680 0.014748 -0.006829 0.060995
#
#
# Mechanical properties :
#
#
# Convention : Reuss Voigt Hill
#
# Bulk Modulus (GPa) = 38.14740 61.12403 49.63572
# Shear Modulus (GPa) = 22.74357 36.14390 29.44374
#
# Velocity S-wave (km/s) = 3.11860 3.93141 3.54835
# Velocity P-wave (km/s) = 5.41112 6.83710 6.16548
#
# Compressibility (1/GPa) = 0.02621410
#
# Stress axis : x y z
#
# Youngs Moduli (GPa) = 76.54600 29.47080 120.56585
#
# Poissons Ratio (x) = 0.17437 0.26746
# Poissons Ratio (y) = 0.45291 0.77197
# Poissons Ratio (z) = 0.16981 0.18870
#
# Static dielectric constant tensor:
#      x y z
#    x 1.950200 0.052190 0.042040 
#    y 0.052190 1.965490 -0.013850 
#    z 0.042040 -0.013850 1.880020 
# 
# From -- ./inp_files/436066.got.cif
#   From: 2010.05.17/outbox.cif.g08.bks.cpg/sg2_219_cif.got.tgz:436066.got - 2010.06.03 11:33:40.
