data_PCOD9084730
_publ_section_title
;
Structure prediction by ZEFSAII (Michael W. Deem and Ramdas Pophale) SiO2 
 PCOD9084730
Probable space group: P -1
;
_chemical_formula_sum "Si O2"
_cell_formula_units_Z 12
_cell_length_a 14.865948
_cell_length_b 24.589626
_cell_length_c 5.280416
_cell_angle_alpha 77.182585
_cell_angle_beta 102.944112
_cell_angle_gamma 161.110604
_cell_volume 608.722598
_symmetry_space_group_name_H-M "P -1"
_symmetry_group_IT_number 2
_symmetry_cell_setting 'triclinic'
loop_
_space_group_symop_operation_xyz
x,y,z
-x,-y,-z
loop_
_atom_site_type_symbol
_atom_site_label
_atom_site_fract_x
_atom_site_fract_y
_atom_site_fract_z
Si Si1 0.027310 0.419864 0.137489
Si Si2 0.167912 0.039493 0.582540
Si Si3 0.304595 0.885376 0.745770
Si Si4 0.805536 0.058745 0.444387
Si Si5 0.447580 0.127342 0.016046
Si Si6 0.760452 0.410150 0.409229
O O1 0.876671 0.274048 0.199994
O O2 0.209365 0.534198 0.380803
O O3 0.768996 0.316627 0.083259
O O4 0.188477 0.524358 0.874503
O O5 0.275952 0.085005 0.885078
O O6 0.454806 0.209106 0.431092
O O7 0.016413 0.895995 0.542408
O O8 0.000000 0.000000 0.500000
O O9 0.109680 0.829555 0.663880
O O10 0.500000 0.000000 0.500000
O O11 0.500000 0.000000 0.000000
O O12 0.573732 0.916791 0.223184
O O13 0.690777 0.986123 0.729396
O O14 0.000000 0.500000 0.500000
#
# Coordination Sequence:
#
# PCOD9084730 Si02
#       6
#     2   2   2   2   2   2
#     4  12  22  36  57  91 123 157 189 238 319 343
#     4  10  24  41  62  86 118 161 204 241 295 357
#     4  12  20  34  59  87 124 154 197 246 291 360
#     4  10  20  36  55  88 113 152 198 245 286 339
#     4  10  19  35  56  87 114 148 195 234 296 341
#     4  12  24  37  60  86 128 153 190 251 299 358
#
# _framework density 19.713414
#
# number of rings (size 3 to 8) (size 9 to 14) (size 15 to 20)
#    1.000    0.000    5.000    3.500    2.333    0.667 
#    0.000    0.000    0.000    2.000    0.000    0.000 
#    0.000    0.000    0.000    0.000    0.000    0.000 
#
# Total GULP energy -66860.011940 kJ/mol
# GULP energy per Si atom -5571.667662 kJ/mol
# Density = 1.966855 g / cm^3
# Si number density = 19.713414 Si / 1000 Ang^3
#
#
#
# Elastic Constant Matrix: (Units=GPa)
#
#
# Indices 1 2 3 4 5 6 
#
# 1 124.6700 27.9854 38.9172 -6.7415 35.4589 -14.0785
# 2 27.9854 41.2349 29.7042 -9.7155 5.4922 -21.4133
# 3 38.9172 29.7042 167.1766 -14.6447 -4.6851 -22.0350
# 4 -6.7415 -9.7155 -14.6447 22.3423 -5.7178 4.4221
# 5 35.4589 5.4922 -4.6851 -5.7178 34.9436 0.8583
# 6 -14.0785 -21.4133 -22.0350 4.4221 0.8583 33.8251
#
#
#
# Elastic Compliance Matrix: (Units=1/GPa)
#
#
# Indices 1 2 3 4 5 6 
#
# 1 0.014397 -0.006108 -0.002895 -0.004217 -0.014756 0.001165
# 2 -0.006108 0.044603 -0.002521 0.011483 0.000175 0.022547
# 3 -0.002895 -0.002521 0.007819 0.004117 0.005016 0.001627
# 4 -0.004217 0.011483 0.004117 0.054046 0.011850 0.000830
# 5 -0.014756 0.000175 0.005016 0.011850 0.046310 -0.005487
# 6 0.001165 0.022547 0.001627 0.000830 -0.005487 0.045413
#
#
# Mechanical properties :
#
#
# Convention : Reuss Voigt Hill
#
# Bulk Modulus (GPa) = 22.84652 58.47724 40.66188
# Shear Modulus (GPa) = 19.98189 33.98717 26.98453
#
# Velocity S-wave (km/s) = 3.18719 4.15669 3.70380
# Velocity P-wave (km/s) = 5.01585 7.26399 6.24196
#
# Compressibility (1/GPa) = 0.04377034
#
# Stress axis : x y z
#
# Youngs Moduli (GPa) = 69.46128 22.41989 127.88744
#
# Poissons Ratio (x) = 0.13695 0.37029
# Poissons Ratio (y) = 0.42429 0.32236
# Poissons Ratio (z) = 0.20112 0.05651
#
# Static dielectric constant tensor:
#      x y z
#    x 1.811380 -0.034630 -0.021450 
#    y -0.034630 1.670810 0.018010 
#    z -0.021450 0.018010 1.736990 
# 
# From -- ./inp_files/98781.got.cif
#   From: 2010.05.17/outbox.cif.g08.bks.cpg/sg2_50_cif.got.tgz:98781.got - 2010.06.03 11:33:40.
