data_PCOD9084821
_publ_section_title
;
Structure prediction by ZEFSAII (Michael W. Deem and Ramdas Pophale) SiO2 
 PCOD9084821
Probable space group: P -1
;
_chemical_formula_sum "Si O2"
_cell_formula_units_Z 16
_cell_length_a 6.990740
_cell_length_b 9.300757
_cell_length_c 23.601095
_cell_angle_alpha 56.199276
_cell_angle_beta 142.992982
_cell_angle_gamma 128.157016
_cell_volume 719.834159
_symmetry_space_group_name_H-M "P -1"
_symmetry_group_IT_number 2
_symmetry_cell_setting 'triclinic'
loop_
_space_group_symop_operation_xyz
x,y,z
-x,-y,-z
loop_
_atom_site_type_symbol
_atom_site_label
_atom_site_fract_x
_atom_site_fract_y
_atom_site_fract_z
Si Si1 0.147655 0.719110 0.334768
Si Si2 0.782608 0.459753 0.400766
Si Si3 0.782834 0.367938 0.264824
Si Si4 0.881718 0.005752 0.166208
Si Si5 0.815568 0.628204 0.788886
Si Si6 0.812993 0.228714 0.899049
Si Si7 0.890049 0.787746 0.533651
Si Si8 0.260368 0.111158 0.116740
O O1 0.498155 0.706932 0.442181
O O2 0.902723 0.638279 0.348393
O O3 0.015212 0.582459 0.279732
O O4 0.151593 0.919564 0.274904
O O5 0.376532 0.386638 0.313666
O O6 0.000000 0.500000 0.500000
O O7 0.903566 0.304632 0.435763
O O8 0.468563 0.363312 0.233435
O O9 0.598574 0.263700 0.188460
O O10 0.003459 0.256541 0.369534
O O11 0.890902 0.182398 0.166766
O O12 0.988978 0.062294 0.115053
O O13 0.521798 0.845171 0.124390
O O14 0.892150 0.441371 0.856418
O O15 0.725733 0.085471 0.857308
O O16 0.115730 0.197292 0.012252
O O17 0.000000 0.000000 0.500000
#
# Coordination Sequence:
#
# PCOD9084821 Si02
#       8
#     2   2   2   2   2   2   2   2
#     4  10  19  39  62  87 123 159 207 246 299 375
#     4  10  20  36  57  87 121 157 197 252 306 349
#     4   9  18  37  58  87 117 162 202 243 310 358
#     4  11  21  43  65  91 121 170 204 248 319 363
#     4   9  20  39  62  87 127 160 205 257 303 373
#     4  11  22  46  60  94 130 154 208 270 299 365
#     4  10  19  35  57  82 120 160 201 243 294 368
#     4  10  24  40  67  91 122 164 208 254 315 368
#
# _framework density 22.227340000000002
#
# number of rings (size 3 to 8) (size 9 to 14) (size 15 to 20)
#    0.000    2.250    2.500    4.125    0.000    4.000 
#    9.000    2.500    0.000    0.000    0.000    0.000 
#    0.000    0.000    0.000    0.000    0.000    0.000 
#
# Total GULP energy -89291.829251 kJ/mol
# GULP energy per Si atom -5580.739328 kJ/mol
# Density = 2.217675 g / cm^3
# Si number density = 22.227340 Si / 1000 Ang^3
#
#
#
# Elastic Constant Matrix: (Units=GPa)
#
#
# Indices 1 2 3 4 5 6 
#
# 1 43.8269 24.3139 9.7143 1.9938 -12.3293 -13.3701
# 2 24.3139 127.1047 58.6952 -2.4064 -13.5063 -3.7645
# 3 9.7143 58.6952 112.1929 0.8965 -1.8907 -14.5193
# 4 1.9938 -2.4064 0.8965 41.8875 -4.3852 -1.0221
# 5 -12.3293 -13.5063 -1.8907 -4.3852 29.8766 7.4402
# 6 -13.3701 -3.7645 -14.5193 -1.0221 7.4402 22.3437
#
#
#
# Elastic Compliance Matrix: (Units=1/GPa)
#
#
# Indices 1 2 3 4 5 6 
#
# 1 0.033282 -0.006616 0.003115 -0.000931 0.006138 0.018739
# 2 -0.006616 0.012667 -0.007007 0.001496 0.004736 -0.007886
# 3 0.003115 -0.007007 0.013648 -0.000983 -0.003849 0.010789
# 4 -0.000931 0.001496 -0.000983 0.024426 0.004113 -0.001196
# 5 0.006138 0.004736 -0.003849 0.004113 0.041401 -0.011629
# 6 0.018739 -0.007886 0.010789 -0.001196 -0.011629 0.065468
#
#
# Mechanical properties :
#
#
# Convention : Reuss Voigt Hill
#
# Bulk Modulus (GPa) = 25.91791 52.06348 38.99069
# Shear Modulus (GPa) = 22.24517 31.51497 26.88007
#
# Velocity S-wave (km/s) = 3.16698 3.76952 3.48131
# Velocity P-wave (km/s) = 5.00587 6.51304 5.80854
#
# Compressibility (1/GPa) = 0.03858336
#
# Stress axis : x y z
#
# Youngs Moduli (GPa) = 30.04597 78.94776 73.26884
#
# Poissons Ratio (x) = 0.52228 -0.22825
# Poissons Ratio (y) = 0.19877 0.51337
# Poissons Ratio (z) = -0.09360 0.55316
#
# Static dielectric constant tensor:
#      x y z
#    x 1.945600 0.038840 0.027390 
#    y 0.038840 1.813880 0.127610 
#    z 0.027390 0.127610 1.616930 
# 
# From -- ./inp_files/217816.got.cif
#   From: 2010.05.17/outbox.cif.g08.bks.cpg/sg2_109_cif.got.tgz:217816.got - 2010.06.03 11:33:40.
