data_PCOD9084784
_publ_section_title
;
Structure prediction by ZEFSAII (Michael W. Deem and Ramdas Pophale) SiO2 
 PCOD9084784
Probable space group: P -1
;
_chemical_formula_sum "Si O2"
_cell_formula_units_Z 16
_cell_length_a 11.816405
_cell_length_b 9.334599
_cell_length_c 14.116614
_cell_angle_alpha 46.301375
_cell_angle_beta 76.307795
_cell_angle_gamma 114.165397
_cell_volume 632.872007
_symmetry_space_group_name_H-M "P -1"
_symmetry_group_IT_number 2
_symmetry_cell_setting 'triclinic'
loop_
_space_group_symop_operation_xyz
x,y,z
-x,-y,-z
loop_
_atom_site_type_symbol
_atom_site_label
_atom_site_fract_x
_atom_site_fract_y
_atom_site_fract_z
Si Si1 0.133874 0.440631 0.663745
Si Si2 0.211757 0.738036 0.224097
Si Si3 0.068144 0.451044 0.872761
Si Si4 0.548167 0.182599 0.310296
Si Si5 0.261846 0.422248 0.478369
Si Si6 0.296247 0.154120 0.434613
Si Si7 0.705000 0.190004 0.050377
Si Si8 0.589055 0.457805 0.930250
O O1 0.062006 0.304211 0.847611
O O2 0.144730 0.267145 0.671718
O O3 0.979487 0.384276 0.676375
O O4 0.358907 0.853104 0.433655
O O5 0.180657 0.489720 0.398688
O O6 0.256281 0.761958 0.093424
O O7 0.405441 0.111274 0.063299
O O8 0.224617 0.575569 0.858583
O O9 0.859846 0.251909 0.039701
O O10 0.159748 0.777312 0.655864
O O11 0.512884 0.360897 0.266277
O O12 0.500000 0.000000 0.500000
O O13 0.277728 0.254657 0.486332
O O14 0.489651 0.793884 0.287527
O O15 0.252435 0.222913 0.319336
O O16 0.691956 0.406056 0.979331
O O17 0.500000 0.500000 0.000000
#
# Coordination Sequence:
#
# PCOD9084784 Si02
#       8
#     2   2   2   2   2   2   2   2
#     4   9  19  33  59  78 102 151 185 217 268 331
#     4  10  19  36  51  79 119 150 172 215 279 335
#     4   9  21  40  60  75 108 150 191 222 271 323
#     4   8  18  39  57  76 105 148 186 231 267 316
#     4  11  19  33  54  84 115 139 181 224 275 329
#     4  10  19  35  57  80 110 144 182 228 271 322
#     4  10  20  38  55  79 118 151 169 223 283 324
#     4  11  22  33  55  85 120 142 176 226 277 327
#
# _framework density 25.281573000000002
#
# number of rings (size 3 to 8) (size 9 to 14) (size 15 to 20)
#    0.000    2.500    2.500    1.125    7.000    1.500 
#    2.250    6.875    2.750    0.000    0.000    0.000 
#    0.000    0.000    0.000    0.000    0.000    0.000 
#
# Total GULP energy -89382.050081 kJ/mol
# GULP energy per Si atom -5586.378130 kJ/mol
# Density = 2.522403 g / cm^3
# Si number density = 25.281573 Si / 1000 Ang^3
#
#
#
# Elastic Constant Matrix: (Units=GPa)
#
#
# Indices 1 2 3 4 5 6 
#
# 1 120.6089 51.5248 45.4416 -12.0103 -40.4980 5.2275
# 2 51.5248 151.6322 38.5674 27.7186 -14.9682 -39.5383
# 3 45.4416 38.5674 38.4575 6.9268 -14.1906 4.7936
# 4 -12.0103 27.7186 6.9268 29.8995 -5.1355 -2.5395
# 5 -40.4980 -14.9682 -14.1906 -5.1355 50.8280 -4.3028
# 6 5.2275 -39.5383 4.7936 -2.5395 -4.3028 39.5609
#
#
#
# Elastic Compliance Matrix: (Units=1/GPa)
#
#
# Indices 1 2 3 4 5 6 
#
# 1 0.030640 -0.009604 -0.024686 0.029273 0.017064 -0.006921
# 2 -0.009604 0.022121 -0.011680 -0.020484 -0.004523 0.022986
# 3 -0.024686 -0.011680 0.069899 -0.018083 -0.007013 -0.018805
# 4 0.029273 -0.020484 -0.018083 0.070142 0.018002 -0.015688
# 5 0.017064 -0.004523 -0.007013 0.018002 0.031688 -0.001323
# 6 -0.006921 0.022986 -0.018805 -0.015688 -0.001323 0.050292
#
#
# Mechanical properties :
#
#
# Convention : Reuss Voigt Hill
#
# Bulk Modulus (GPa) = 32.55341 64.64070 48.59705
# Shear Modulus (GPa) = 13.26390 35.73533 24.49961
#
# Velocity S-wave (km/s) = 2.29300 3.76372 3.11637
# Velocity P-wave (km/s) = 4.46260 6.67168 5.67565
#
# Compressibility (1/GPa) = 0.03071875
#
# Stress axis : x y z
#
# Youngs Moduli (GPa) = 32.63711 45.20630 14.30630
#
# Poissons Ratio (x) = 0.43416 0.35317
# Poissons Ratio (y) = 0.31344 0.16710
# Poissons Ratio (z) = 0.80569 0.52803
#
# Static dielectric constant tensor:
#      x y z
#    x 2.062460 -0.031270 -0.039230 
#    y -0.031270 2.079290 0.055360 
#    z -0.039230 0.055360 2.079700 
# 
# From -- ./inp_files/566542.got.cif
#   From: 2010.05.17/outbox.cif.g08.bks.cpg/sg2_284_cif.got.tgz:566542.got - 2010.06.03 11:33:40.
