data_PCOD9084158
_publ_section_title
;
Structure prediction by ZEFSAII (Michael W. Deem and Ramdas Pophale) SiO2 
 PCOD9084158
Probable space group: P -1
;
_chemical_formula_sum "Si O2"
_cell_formula_units_Z 14
_cell_length_a 9.434821
_cell_length_b 8.897661
_cell_length_c 9.388554
_cell_angle_alpha 95.573958
_cell_angle_beta 84.532511
_cell_angle_gamma 104.042029
_cell_volume 758.880148
_symmetry_space_group_name_H-M "P -1"
_symmetry_group_IT_number 2
_symmetry_cell_setting 'triclinic'
loop_
_space_group_symop_operation_xyz
x,y,z
-x,-y,-z
loop_
_atom_site_type_symbol
_atom_site_label
_atom_site_fract_x
_atom_site_fract_y
_atom_site_fract_z
Si Si1 0.008128 0.917644 0.644906
Si Si2 0.463641 0.165513 0.485908
Si Si3 0.683997 0.747553 0.760112
Si Si4 0.424453 0.329074 0.934231
Si Si5 0.198692 0.221372 0.709237
Si Si6 0.662964 0.377243 0.695016
Si Si7 0.956289 0.337816 0.566993
O O1 0.083798 0.784313 0.570682
O O2 0.848848 0.840702 0.715236
O O3 0.099620 0.052893 0.747516
O O4 0.000000 0.000000 0.500000
O O5 0.425812 0.193592 0.329750
O O6 0.318678 0.181757 0.586861
O O7 0.590542 0.305060 0.547748
O O8 0.500000 0.000000 0.500000
O O9 0.675202 0.562771 0.717784
O O10 0.636903 0.766552 0.928555
O O11 0.288714 0.317924 0.838085
O O12 0.553179 0.291592 0.820933
O O13 0.500000 0.500000 0.000000
O O14 0.092485 0.306895 0.641192
O O15 0.820070 0.337854 0.681923
O O16 0.000000 0.500000 0.500000
#
# Coordination Sequence:
#
# PCOD9084158 Si02
#       7
#     2   2   2   2   2   2   2
#     4  10  19  34  61  85 121 146 196 244 296 330
#     4  11  21  36  63  89 116 154 198 247 294 341
#     4  11  20  39  61  86 117 159 198 241 291 351
#     4   9  22  41  61  81 121 160 196 239 293 352
#     4  10  21  39  59  87 120 156 190 244 299 343
#     4  10  21  37  61  90 119 152 197 243 292 349
#     4  11  19  34  63  94 115 148 197 245 292 346
#
# _framework density 18.448236999999999
#
# number of rings (size 3 to 8) (size 9 to 14) (size 15 to 20)
#    0.000    1.714    4.286    1.286    2.000    2.857 
#    0.000    5.714    6.286    0.000    0.000    0.000 
#    0.000    0.000    0.000    0.000    0.000    0.000 
#
# Total GULP energy -78000.961605 kJ/mol
# GULP energy per Si atom -5571.497258 kJ/mol
# Density = 1.840625 g / cm^3
# Si number density = 18.448237 Si / 1000 Ang^3
#
#
#
# Elastic Constant Matrix: (Units=GPa)
#
#
# Indices 1 2 3 4 5 6 
#
# 1 134.3154 44.9064 59.7944 -4.7511 0.1475 -6.0765
# 2 44.9064 90.6938 25.2221 1.2845 9.1037 5.2221
# 3 59.7944 25.2221 108.1166 -10.5618 4.2707 2.4849
# 4 -4.7511 1.2845 -10.5618 25.0985 12.8256 2.5270
# 5 0.1475 9.1037 4.2707 12.8256 31.4070 -0.3198
# 6 -6.0765 5.2221 2.4849 2.5270 -0.3198 37.3149
#
#
#
# Elastic Compliance Matrix: (Units=1/GPa)
#
#
# Indices 1 2 3 4 5 6 
#
# 1 0.011581 -0.004584 -0.005679 -0.001682 0.002764 0.003043
# 2 -0.004584 0.013995 -0.000427 0.000709 -0.004294 -0.002761
# 3 -0.005679 -0.000427 0.013429 0.007198 -0.004638 -0.002286
# 4 -0.001682 0.000709 0.007198 0.055131 -0.023739 -0.004789
# 5 0.002764 -0.004294 -0.004638 -0.023739 0.043431 0.003340
# 6 0.003043 -0.002761 -0.002286 -0.004789 0.003340 0.028186
#
#
# Mechanical properties :
#
#
# Convention : Reuss Voigt Hill
#
# Bulk Modulus (GPa) = 56.74063 65.88572 61.31317
# Shear Modulus (GPa) = 25.90581 32.31094 29.10837
#
# Velocity S-wave (km/s) = 3.75139 4.18956 3.97651
# Velocity P-wave (km/s) = 7.04183 7.69380 7.37502
#
# Compressibility (1/GPa) = 0.01762406
#
# Stress axis : x y z
#
# Youngs Moduli (GPa) = 86.34812 71.45609 74.46700
#
# Poissons Ratio (x) = 0.32754 0.42290
# Poissons Ratio (y) = 0.39580 0.03182
# Poissons Ratio (z) = 0.49038 0.03053
#
# Static dielectric constant tensor:
#      x y z
#    x 1.660390 0.033570 -0.011220 
#    y 0.033570 1.666080 0.019140 
#    z -0.011220 0.019140 1.652750 
# 
# From -- ./inp_files/154016.got.cif
#   From: 2010.05.17/outbox.cif.g08.bks.cpg/sg2_78_cif.got.tgz:154016.got - 2010.06.03 11:33:40.
