data_PCOD9084348
_publ_section_title
;
Structure prediction by ZEFSAII (Michael W. Deem and Ramdas Pophale) SiO2 
 PCOD9084348
Probable space group: P -1
;
_chemical_formula_sum "Si O2"
_cell_formula_units_Z 14
_cell_length_a 15.723877
_cell_length_b 9.426641
_cell_length_c 9.337113
_cell_angle_alpha 130.028200
_cell_angle_beta 28.997688
_cell_angle_gamma 123.387643
_cell_volume 513.460770
_symmetry_space_group_name_H-M "P -1"
_symmetry_group_IT_number 2
_symmetry_cell_setting 'triclinic'
loop_
_space_group_symop_operation_xyz
x,y,z
-x,-y,-z
loop_
_atom_site_type_symbol
_atom_site_label
_atom_site_fract_x
_atom_site_fract_y
_atom_site_fract_z
Si Si1 0.666384 0.096788 0.389240
Si Si2 0.465713 0.050747 0.247881
Si Si3 0.801551 0.735643 0.029524
Si Si4 0.495177 0.540737 0.199914
Si Si5 0.781324 0.669427 0.426335
Si Si6 0.851607 0.064902 0.651639
Si Si7 0.013373 0.552508 0.262785
O O1 0.658813 0.294982 0.457639
O O2 0.500000 0.000000 0.500000
O O3 0.614525 0.112709 0.644197
O O4 0.821426 0.938919 0.059763
O O5 0.336783 0.215680 0.604521
O O6 0.665642 0.083963 0.020199
O O7 0.500000 0.000000 0.000000
O O8 0.681920 0.613890 0.023459
O O9 0.969855 0.622915 0.768544
O O10 0.423172 0.377163 0.296054
O O11 0.500000 0.500000 0.000000
O O12 0.871743 0.528824 0.091426
O O13 0.832935 0.882534 0.461010
O O14 0.845360 0.628541 0.470428
O O15 0.901957 0.272253 0.669349
O O16 0.000000 0.000000 0.500000
#
# Coordination Sequence:
#
# PCOD9084348 Si02
#       7
#     2   2   2   2   2   2   2
#     4   8  19  37  56  83 120 154 193 237 296 359
#     4  10  19  34  63  91 118 148 203 257 291 351
#     4   9  21  38  59  87 121 154 205 249 302 356
#     4  11  21  38  60  85 121 164 205 243 300 369
#     4  10  22  38  60  90 118 160 204 244 308 373
#     4  10  21  35  54  86 122 157 194 245 305 357
#     4  10  21  40  60  86 126 154 195 262 310 351
#
# _framework density 27.265961000000001
#
# number of rings (size 3 to 8) (size 9 to 14) (size 15 to 20)
#    0.857    1.429    0.000    2.571    0.000    4.571 
#    0.000    1.429    0.000    1.714    0.000    0.000 
#    0.000    0.000    0.000    0.000    0.000    0.000 
#
# Total GULP energy -78097.447538 kJ/mol
# GULP energy per Si atom -5578.389110 kJ/mol
# Density = 2.720390 g / cm^3
# Si number density = 27.265961 Si / 1000 Ang^3
#
#
#
# Elastic Constant Matrix: (Units=GPa)
#
#
# Indices 1 2 3 4 5 6 
#
# 1 108.7361 9.6917 30.9418 12.9188 16.6400 -1.1722
# 2 9.6917 115.8378 15.3917 30.4245 4.3090 -8.9604
# 3 30.9418 15.3917 92.0494 22.6851 8.4533 -1.5514
# 4 12.9188 30.4245 22.6851 40.7356 -6.5364 -6.3566
# 5 16.6400 4.3090 8.4533 -6.5364 67.6644 18.5697
# 6 -1.1722 -8.9604 -1.5514 -6.3566 18.5697 39.9439
#
#
#
# Elastic Compliance Matrix: (Units=1/GPa)
#
#
# Indices 1 2 3 4 5 6 
#
# 1 0.010691 0.000287 -0.002786 -0.002320 -0.002861 0.001231
# 2 0.000287 0.011068 0.000420 -0.008613 -0.002260 0.002188
# 3 -0.002786 0.000420 0.013705 -0.007319 -0.001823 0.000228
# 4 -0.002320 -0.008613 -0.007319 0.036815 0.005283 0.001118
# 5 -0.002861 -0.002260 -0.001823 0.005283 0.018701 -0.008515
# 6 0.001231 0.002188 0.000228 0.001118 -0.008515 0.029708
#
#
# Mechanical properties :
#
#
# Convention : Reuss Voigt Hill
#
# Bulk Modulus (GPa) = 31.94398 47.63040 39.78719
# Shear Modulus (GPa) = 36.95967 47.04198 42.00083
#
# Velocity S-wave (km/s) = 3.68574 4.15818 3.92907
# Velocity P-wave (km/s) = 5.46388 6.36873 5.93358
#
# Compressibility (1/GPa) = 0.03130481
#
# Stress axis : x y z
#
# Youngs Moduli (GPa) = 93.53998 90.34715 72.96517
#
# Poissons Ratio (x) = -0.02591 0.20330
# Poissons Ratio (y) = -0.02682 -0.03064
# Poissons Ratio (z) = 0.26063 -0.03793
#
# Static dielectric constant tensor:
#      x y z
#    x 2.330990 -0.014380 -0.050490 
#    y -0.014380 2.140650 0.065060 
#    z -0.050490 0.065060 2.160560 
# 
# From -- ./inp_files/464871.got.cif
#   From: 2010.05.17/outbox.cif.g08.bks.cpg/sg2_233_cif.got.tgz:464871.got - 2010.06.03 11:33:40.
