data_PCOD9084141
_publ_section_title
;
Structure prediction by ZEFSAII (Michael W. Deem and Ramdas Pophale) SiO2 
 PCOD9084141
Probable space group: P -1
;
_chemical_formula_sum "Si O2"
_cell_formula_units_Z 16
_cell_length_a 11.353742
_cell_length_b 10.992247
_cell_length_c 8.991243
_cell_angle_alpha 51.578013
_cell_angle_beta 61.511282
_cell_angle_gamma 50.323308
_cell_volume 670.625912
_symmetry_space_group_name_H-M "P -1"
_symmetry_group_IT_number 2
_symmetry_cell_setting 'triclinic'
loop_
_space_group_symop_operation_xyz
x,y,z
-x,-y,-z
loop_
_atom_site_type_symbol
_atom_site_label
_atom_site_fract_x
_atom_site_fract_y
_atom_site_fract_z
Si Si1 0.743580 0.418253 0.353118
Si Si2 0.933486 0.688261 0.306066
Si Si3 0.865066 0.512385 0.918965
Si Si4 0.845643 0.208822 0.738967
Si Si5 0.487822 0.719297 0.483573
Si Si6 0.684136 0.981119 0.075272
Si Si7 0.649716 0.883656 0.844307
Si Si8 0.617392 0.536427 0.815536
O O1 0.848585 0.261737 0.525796
O O2 0.630838 0.597376 0.379476
O O3 0.626597 0.362223 0.392560
O O4 0.838197 0.449000 0.142915
O O5 0.756113 0.841286 0.274099
O O6 0.000000 0.500000 0.500000
O O7 0.979438 0.617794 0.161726
O O8 0.015640 0.791368 0.252478
O O9 0.806705 0.721831 0.809615
O O10 0.744713 0.514626 0.870385
O O11 0.697572 0.382195 0.762009
O O12 0.801763 0.055252 0.911868
O O13 0.540173 0.710658 0.628440
O O14 0.393857 0.921816 0.333782
O O15 0.503325 0.131568 0.092169
O O16 0.669822 0.889263 0.003883
O O17 0.500000 0.500000 0.000000
#
# Coordination Sequence:
#
# PCOD9084141 Si02
#       8
#     2   2   2   2   2   2   2   2
#     4  10  19  37  67  97 130 173 226 265 333 393
#     4  11  28  49  67  94 135 185 220 269 340 402
#     4  11  24  42  64  98 135 177 219 275 330 400
#     4  10  22  42  69  93 127 181 225 268 328 398
#     4  10  20  35  62  99 140 172 210 279 332 392
#     4  11  23  44  70  99 136 174 223 273 333 392
#     4  11  24  39  69 107 134 166 223 284 327 378
#     4  10  19  34  60  97 136 171 219 269 335 392
#
# _framework density 23.858308000000001
#
# number of rings (size 3 to 8) (size 9 to 14) (size 15 to 20)
#    0.000    1.500    2.500    2.625    8.750    1.000 
#    2.250    1.875    0.000    0.000    0.000    0.000 
#    0.000    0.000    0.000    0.000    0.000    0.000 
#
# Total GULP energy -89392.522136 kJ/mol
# GULP energy per Si atom -5587.032634 kJ/mol
# Density = 2.380401 g / cm^3
# Si number density = 23.858308 Si / 1000 Ang^3
#
#
#
# Elastic Constant Matrix: (Units=GPa)
#
#
# Indices 1 2 3 4 5 6 
#
# 1 118.8760 15.4811 47.0251 -14.6693 14.8518 -2.5099
# 2 15.4811 46.0841 26.6567 -2.4260 0.4072 -0.3067
# 3 47.0251 26.6567 144.0096 -11.7800 17.3546 1.0733
# 4 -14.6693 -2.4260 -11.7800 38.6043 1.8423 -1.9399
# 5 14.8518 0.4072 17.3546 1.8423 38.1423 -7.0750
# 6 -2.5099 -0.3067 1.0733 -1.9399 -7.0750 27.3990
#
#
#
# Elastic Compliance Matrix: (Units=1/GPa)
#
#
# Indices 1 2 3 4 5 6 
#
# 1 0.010404 -0.001892 -0.002423 0.003263 -0.002996 0.000484
# 2 -0.001892 0.024801 -0.004345 -0.000567 0.002647 0.000918
# 3 -0.002423 -0.004345 0.009109 0.001682 -0.003498 -0.001412
# 4 0.003263 -0.000567 0.001682 0.027840 -0.003116 0.001393
# 5 -0.002996 0.002647 -0.003498 -0.003116 0.030498 0.007547
# 6 0.000484 0.000918 -0.001412 0.001393 0.007547 0.038655
#
#
# Mechanical properties :
#
#
# Convention : Reuss Voigt Hill
#
# Bulk Modulus (GPa) = 37.04466 54.14396 45.59431
# Shear Modulus (GPa) = 29.82839 35.48290 32.65565
#
# Velocity S-wave (km/s) = 3.53970 3.86065 3.70365
# Velocity P-wave (km/s) = 5.68037 6.52810 6.11893
#
# Compressibility (1/GPa) = 0.02699444
#
# Stress axis : x y z
#
# Youngs Moduli (GPa) = 96.11572 40.32043 109.78123
#
# Poissons Ratio (x) = 0.07629 0.26597
# Poissons Ratio (y) = 0.18187 0.47700
# Poissons Ratio (z) = 0.23286 0.17519
#
# Static dielectric constant tensor:
#      x y z
#    x 1.945140 -0.033140 0.006700 
#    y -0.033140 1.934880 -0.030550 
#    z 0.006700 -0.030550 1.999000 
# 
# From -- ./inp_files/261584.got.cif
#   From: 2010.05.17/outbox.cif.g08.bks.cpg/sg2_131_cif.got.tgz:261584.got - 2010.06.03 11:33:40.
