data_PCOD9084215
_publ_section_title
;
Structure prediction by ZEFSAII (Michael W. Deem and Ramdas Pophale) SiO2 
 PCOD9084215
Probable space group: P -1
;
_chemical_formula_sum "Si O2"
_cell_formula_units_Z 16
_cell_length_a 15.282207
_cell_length_b 18.796148
_cell_length_c 7.512982
_cell_angle_alpha 118.093916
_cell_angle_beta 72.807704
_cell_angle_gamma 156.624034
_cell_volume 695.381781
_symmetry_space_group_name_H-M "P -1"
_symmetry_group_IT_number 2
_symmetry_cell_setting 'triclinic'
loop_
_space_group_symop_operation_xyz
x,y,z
-x,-y,-z
loop_
_atom_site_type_symbol
_atom_site_label
_atom_site_fract_x
_atom_site_fract_y
_atom_site_fract_z
Si Si1 0.695829 0.089869 0.111855
Si Si2 0.098589 0.829935 0.559648
Si Si3 0.455836 0.738403 0.743671
Si Si4 0.815403 0.451502 0.640314
Si Si5 0.569921 0.452411 0.528173
Si Si6 0.273796 0.255412 0.138040
Si Si7 0.437968 0.002118 0.369988
Si Si8 0.500648 0.716943 0.099416
O O1 0.809849 0.136368 0.271374
O O2 0.472818 0.964372 0.152309
O O3 0.910012 0.324084 0.209564
O O4 0.617021 0.949669 0.875605
O O5 0.822981 0.631605 0.495951
O O6 0.186160 0.841311 0.364744
O O7 0.260892 0.041927 0.698375
O O8 0.216576 0.563190 0.570767
O O9 0.540557 0.726132 0.575088
O O10 0.441595 0.705714 0.923725
O O11 0.649973 0.240418 0.526986
O O12 0.701331 0.428400 0.806119
O O13 0.372229 0.326231 0.363783
O O14 0.662514 0.599527 0.774171
O O15 0.432421 0.321598 0.009266
O O16 0.000000 0.000000 0.000000
O O17 0.500000 0.000000 0.500000
#
# Coordination Sequence:
#
# PCOD9084215 Si02
#       8
#     2   2   2   2   2   2   2   2
#     4  10  20  38  60  87 124 167 206 257 306 359
#     4   9  16  35  62  84 125 165 199 257 306 362
#     4  10  22  39  61  88 124 166 210 250 309 367
#     4  11  21  40  65  88 125 165 206 259 308 366
#     4  10  19  34  61  92 119 165 204 248 317 360
#     4  10  19  34  61  93 124 156 208 258 303 376
#     4   9  20  37  63  92 125 161 207 259 307 358
#     4   9  20  38  61  93 122 161 209 254 311 368
#
# _framework density 23.008941
#
# number of rings (size 3 to 8) (size 9 to 14) (size 15 to 20)
#    0.000    2.250    2.500    1.125    0.000    0.500 
#    9.000    1.250    5.500    3.750    0.000    0.000 
#    0.000    0.000    0.000    0.000    0.000    0.000 
#
# Total GULP energy -89117.516863 kJ/mol
# GULP energy per Si atom -5569.844804 kJ/mol
# Density = 2.295657 g / cm^3
# Si number density = 23.008941 Si / 1000 Ang^3
#
#
#
# Elastic Constant Matrix: (Units=GPa)
#
#
# Indices 1 2 3 4 5 6 
#
# 1 73.3350 28.0758 51.8294 3.4192 -27.8015 11.0468
# 2 28.0758 71.5400 41.9101 5.1442 4.0152 21.1242
# 3 51.8294 41.9101 112.7443 15.1512 -4.6885 5.0615
# 4 3.4192 5.1442 15.1512 41.1787 0.0280 0.1012
# 5 -27.8015 4.0152 -4.6885 0.0280 48.7635 3.2279
# 6 11.0468 21.1242 5.0615 0.1012 3.2279 22.2758
#
#
#
# Elastic Compliance Matrix: (Units=1/GPa)
#
#
# Indices 1 2 3 4 5 6 
#
# 1 0.032821 -0.002312 -0.013165 0.002429 0.018549 -0.013792
# 2 -0.002312 0.025798 -0.007671 -0.000154 -0.002778 -0.021172
# 3 -0.013165 -0.007671 0.017650 -0.004465 -0.005880 0.010665
# 4 0.002429 -0.000154 -0.004465 0.025745 0.000973 -0.000302
# 5 0.018549 -0.002778 -0.005880 0.000973 0.031392 -0.009781
# 6 -0.013792 -0.021172 0.010665 -0.000302 -0.009781 0.070804
#
#
# Mechanical properties :
#
#
# Convention : Reuss Voigt Hill
#
# Bulk Modulus (GPa) = 33.36276 55.69443 44.52860
# Shear Modulus (GPa) = 19.19406 31.49721 25.34563
#
# Velocity S-wave (km/s) = 2.89139 3.70389 3.32257
# Velocity P-wave (km/s) = 5.06737 6.52303 5.84072
#
# Compressibility (1/GPa) = 0.02997354
#
# Stress axis : x y z
#
# Youngs Moduli (GPa) = 30.46797 38.76259 56.65749
#
# Poissons Ratio (x) = 0.08961 0.74588
# Poissons Ratio (y) = 0.07043 0.43465
# Poissons Ratio (z) = 0.40110 0.29737
#
# Static dielectric constant tensor:
#      x y z
#    x 1.973960 -0.057770 0.002610 
#    y -0.057770 1.866490 -0.046480 
#    z 0.002610 -0.046480 1.967700 
# 
# From -- ./inp_files/338507.got.cif
#   From: 2010.05.17/outbox.cif.g08.bks.cpg/sg2_170_cif.got.tgz:338507.got - 2010.06.03 11:33:40.
