data_PCOD9084412
_publ_section_title
;
Structure prediction by ZEFSAII (Michael W. Deem and Ramdas Pophale) SiO2 
 PCOD9084412
Probable space group: P -1
;
_chemical_formula_sum "Si O2"
_cell_formula_units_Z 14
_cell_length_a 19.979545
_cell_length_b 8.344478
_cell_length_c 13.327503
_cell_angle_alpha 28.773793
_cell_angle_beta 32.356353
_cell_angle_gamma 45.716577
_cell_volume 564.658464
_symmetry_space_group_name_H-M "P -1"
_symmetry_group_IT_number 2
_symmetry_cell_setting 'triclinic'
loop_
_space_group_symop_operation_xyz
x,y,z
-x,-y,-z
loop_
_atom_site_type_symbol
_atom_site_label
_atom_site_fract_x
_atom_site_fract_y
_atom_site_fract_z
Si Si1 0.494038 0.770099 0.234143
Si Si2 0.817519 0.906827 0.592573
Si Si3 0.956931 0.021526 0.878611
Si Si4 0.218090 0.205647 0.088524
Si Si5 0.748531 0.612277 0.266125
Si Si6 0.868372 0.571344 0.425648
Si Si7 0.628477 0.730498 0.754416
O O1 0.402256 0.417529 0.525311
O O2 0.428137 0.945256 0.312093
O O3 0.500000 0.000000 0.000000
O O4 0.633490 0.736838 0.106840
O O5 0.841121 0.734720 0.762274
O O6 0.769768 0.262633 0.482681
O O7 0.945369 0.032117 0.301977
O O8 0.711754 0.684683 0.776787
O O9 0.819389 0.948699 0.042959
O O10 0.937337 0.751827 0.141970
O O11 0.030615 0.357256 0.651477
O O12 0.174694 0.819696 0.323730
O O13 0.199009 0.409355 0.901343
O O14 0.741870 0.731802 0.528441
O O15 0.500000 0.500000 0.000000
#
# Coordination Sequence:
#
# PCOD9084412 Si02
#       7
#     2   2   2   2   2   2   2
#     4  11  20  40  65  87 119 158 194 248 300 352
#     4  10  22  40  61  88 119 159 201 249 292 354
#     4  10  21  41  61  86 123 162 204 239 300 355
#     4  12  22  38  64  91 120 155 203 248 301 348
#     4  11  23  36  63  91 121 154 203 250 292 355
#     4  10  21  37  64  87 119 166 195 243 301 357
#     4  10  19  34  65  87 113 158 198 236 304 357
#
# _framework density 24.793748000000001
#
# number of rings (size 3 to 8) (size 9 to 14) (size 15 to 20)
#    0.000    1.429    5.714    0.857    0.000    1.143 
#    0.000    0.000   15.714    5.143    0.000    0.000 
#    0.000    0.000    0.000    0.000    0.000    0.000 
#
# Total GULP energy -78136.571779 kJ/mol
# GULP energy per Si atom -5581.183699 kJ/mol
# Density = 2.473732 g / cm^3
# Si number density = 24.793748 Si / 1000 Ang^3
#
#
#
# Elastic Constant Matrix: (Units=GPa)
#
#
# Indices 1 2 3 4 5 6 
#
# 1 121.4993 22.1018 70.4402 -15.2912 -24.4724 37.0009
# 2 22.1018 57.2974 48.0479 11.8419 -28.5923 -0.0390
# 3 70.4402 48.0479 148.7273 12.5101 -36.6431 18.4151
# 4 -15.2912 11.8419 12.5101 28.9073 13.9374 -5.6154
# 5 -24.4724 -28.5923 -36.6431 13.9374 71.2759 -7.5046
# 6 37.0009 -0.0390 18.4151 -5.6154 -7.5046 38.0090
#
#
#
# Elastic Compliance Matrix: (Units=1/GPa)
#
#
# Indices 1 2 3 4 5 6 
#
# 1 0.018920 -0.006233 -0.007671 0.015400 -0.004359 -0.013294
# 2 -0.006233 0.035038 -0.003784 -0.021769 0.015036 0.007689
# 3 -0.007671 -0.003784 0.013702 -0.010820 0.005031 0.000220
# 4 0.015400 -0.021769 -0.010820 0.066301 -0.022436 -0.004406
# 5 -0.004359 0.015036 0.005031 -0.022436 0.025921 0.003624
# 6 -0.013294 0.007689 0.000220 -0.004406 0.003624 0.039217
#
#
# Mechanical properties :
#
#
# Convention : Reuss Voigt Hill
#
# Bulk Modulus (GPa) = 30.97394 67.63376 49.30385
# Shear Modulus (GPa) = 20.38873 40.10070 30.24472
#
# Velocity S-wave (km/s) = 2.87075 4.02602 3.49643
# Velocity P-wave (km/s) = 4.84851 6.99639 6.01903
#
# Compressibility (1/GPa) = 0.03228520
#
# Stress axis : x y z
#
# Youngs Moduli (GPa) = 52.85417 28.54077 72.98427
#
# Poissons Ratio (x) = 0.17789 0.55983
# Poissons Ratio (y) = 0.32942 0.27615
# Poissons Ratio (z) = 0.40542 0.10799
#
# Static dielectric constant tensor:
#      x y z
#    x 2.046400 0.032750 -0.004880 
#    y 0.032750 1.958160 0.021000 
#    z -0.004880 0.021000 1.971300 
# 
# From -- ./inp_files/255577.got.cif
#   From: 2010.05.17/outbox.cif.g08.bks.cpg/sg2_128_cif.got.tgz:255577.got - 2010.06.03 11:33:40.
