data_PCOD9084478
_publ_section_title
;
Structure prediction by ZEFSAII (Michael W. Deem and Ramdas Pophale) SiO2 
 PCOD9084478
Probable space group: P -1
;
_chemical_formula_sum "Si O2"
_cell_formula_units_Z 16
_cell_length_a 12.027977
_cell_length_b 8.991088
_cell_length_c 14.181851
_cell_angle_alpha 57.392833
_cell_angle_beta 140.603953
_cell_angle_gamma 124.482464
_cell_volume 787.167019
_symmetry_space_group_name_H-M "P -1"
_symmetry_group_IT_number 2
_symmetry_cell_setting 'triclinic'
loop_
_space_group_symop_operation_xyz
x,y,z
-x,-y,-z
loop_
_atom_site_type_symbol
_atom_site_label
_atom_site_fract_x
_atom_site_fract_y
_atom_site_fract_z
Si Si1 0.475609 0.224518 0.234106
Si Si2 0.710142 0.169434 0.689190
Si Si3 0.734581 0.054587 0.351300
Si Si4 0.413896 0.531174 0.603779
Si Si5 0.624457 0.249003 0.816695
Si Si6 0.917868 0.440484 0.068035
Si Si7 0.091356 0.203720 0.946069
Si Si8 0.914672 0.755148 0.603857
O O1 0.649520 0.190272 0.308248
O O2 0.538538 0.400673 0.281969
O O3 0.393405 0.045948 0.308208
O O4 0.301407 0.217074 0.054183
O O5 0.600584 0.295800 0.526230
O O6 0.718313 0.212580 0.793035
O O7 0.915624 0.216366 0.765533
O O8 0.891220 0.157098 0.347848
O O9 0.557357 0.917150 0.234566
O O10 0.823979 0.917380 0.515554
O O11 0.564216 0.435134 0.699857
O O12 0.222323 0.377205 0.514164
O O13 0.741962 0.276906 0.979001
O O14 0.878170 0.618219 0.027673
O O15 0.050623 0.365118 0.246071
O O16 0.000000 0.500000 0.000000
O O17 0.000000 0.000000 0.000000
#
# Coordination Sequence:
#
# PCOD9084478 Si02
#       8
#     2   2   2   2   2   2   2   2
#     4  10  21  35  56  82 116 150 186 238 284 345
#     4  10  19  35  52  84 117 155 184 229 292 339
#     4   9  22  44  58  81 111 156 199 235 285 329
#     4  11  19  33  56  84 114 148 193 239 282 338
#     4  10  20  34  58  81 115 149 193 238 277 338
#     4  12  21  37  61  92 113 149 191 234 287 343
#     4  10  20  36  54  80 126 152 174 230 294 345
#     4  10  22  41  63  78 115 153 195 243 278 335
#
# _framework density 20.326055
#
# number of rings (size 3 to 8) (size 9 to 14) (size 15 to 20)
#    0.000    1.750    3.750    0.750    0.000    3.000 
#    4.500    0.625    0.000    0.000    0.000    0.000 
#    0.000    0.000    0.000    0.000    0.000    0.000 
#
# Total GULP energy -89130.920890 kJ/mol
# GULP energy per Si atom -5570.682556 kJ/mol
# Density = 2.027979 g / cm^3
# Si number density = 20.326055 Si / 1000 Ang^3
#
#
#
# Elastic Constant Matrix: (Units=GPa)
#
#
# Indices 1 2 3 4 5 6 
#
# 1 62.5051 23.8810 34.8134 0.8785 29.2422 -4.2566
# 2 23.8810 60.9236 26.2633 5.5067 2.3109 -10.0432
# 3 34.8134 26.2633 64.5171 10.7369 18.5759 -9.4431
# 4 0.8785 5.5067 10.7369 32.5754 -0.8113 9.3783
# 5 29.2422 2.3109 18.5759 -0.8113 26.1469 -1.1250
# 6 -4.2566 -10.0432 -9.4431 9.3783 -1.1250 27.3674
#
#
#
# Elastic Compliance Matrix: (Units=1/GPa)
#
#
# Indices 1 2 3 4 5 6 
#
# 1 0.046637 -0.014318 -0.007245 0.003435 -0.045792 -0.003560
# 2 -0.014318 0.025527 -0.006457 -0.003298 0.018535 0.006805
# 3 -0.007245 -0.006457 0.028702 -0.011284 -0.011647 0.009795
# 4 0.003435 -0.003298 -0.011284 0.040231 0.004933 -0.018153
# 5 -0.045792 0.018535 -0.011647 0.004933 0.096158 -0.002077
# 6 -0.003560 0.006805 0.009795 -0.018153 -0.002077 0.047999
#
#
# Mechanical properties :
#
#
# Convention : Reuss Voigt Hill
#
# Bulk Modulus (GPa) = 22.30841 39.76237 31.03539
# Shear Modulus (GPa) = 14.03566 24.08382 19.05974
#
# Velocity S-wave (km/s) = 2.63064 3.44593 3.06551
# Velocity P-wave (km/s) = 4.49734 5.95293 5.27558
#
# Compressibility (1/GPa) = 0.04482614
#
# Stress axis : x y z
#
# Youngs Moduli (GPa) = 21.44239 39.17453 34.84019
#
# Poissons Ratio (x) = 0.56090 0.25241
# Poissons Ratio (y) = 0.30701 0.22496
# Poissons Ratio (z) = 0.15535 0.25295
#
# Static dielectric constant tensor:
#      x y z
#    x 1.725440 0.015670 0.048210 
#    y 0.015670 1.772320 0.026270 
#    z 0.048210 0.026270 1.789400 
# 
# From -- ./inp_files/177776.got.cif
#   From: 2010.05.17/outbox.cif.g08.bks.cpg/sg2_89_cif.got.tgz:177776.got - 2010.06.03 11:33:40.
