data_PCOD9084856
_publ_section_title
;
Structure prediction by ZEFSAII (Michael W. Deem and Ramdas Pophale) SiO2 
 PCOD9084856
Probable space group: P -1
;
_chemical_formula_sum "Si O2"
_cell_formula_units_Z 16
_cell_length_a 8.501858
_cell_length_b 16.683798
_cell_length_c 9.256030
_cell_angle_alpha 125.970607
_cell_angle_beta 56.083906
_cell_angle_gamma 87.987007
_cell_volume 741.993030
_symmetry_space_group_name_H-M "P -1"
_symmetry_group_IT_number 2
_symmetry_cell_setting 'triclinic'
loop_
_space_group_symop_operation_xyz
x,y,z
-x,-y,-z
loop_
_atom_site_type_symbol
_atom_site_label
_atom_site_fract_x
_atom_site_fract_y
_atom_site_fract_z
Si Si1 0.969080 0.210084 0.552061
Si Si2 0.933063 0.632894 0.143171
Si Si3 0.274334 0.622781 0.727978
Si Si4 0.582740 0.001978 0.768176
Si Si5 0.196761 0.033804 0.678925
Si Si6 0.920843 0.218327 0.243452
Si Si7 0.737483 0.169402 0.887797
Si Si8 0.581106 0.144453 0.379687
O O1 0.950286 0.218845 0.399037
O O2 0.793006 0.198039 0.730080
O O3 0.979654 0.318893 0.723749
O O4 0.205435 0.094283 0.350754
O O5 0.666617 0.734945 0.367840
O O6 0.000000 0.500000 0.000000
O O7 0.070713 0.632236 0.932482
O O8 0.500000 0.500000 0.500000
O O9 0.201903 0.654889 0.633304
O O10 0.326141 0.716624 0.866823
O O11 0.647502 0.969607 0.531563
O O12 0.412720 0.958541 0.826911
O O13 0.566888 0.124553 0.926516
O O14 0.972562 0.069559 0.738995
O O15 0.317121 0.913042 0.577060
O O16 0.127921 0.134760 0.941450
O O17 0.760355 0.169355 0.251949
#
# Coordination Sequence:
#
# PCOD9084856 Si02
#       8
#     2   2   2   2   2   2   2   2
#     4   9  19  36  60  86 117 157 195 234 289 357
#     4  10  22  44  65  84 113 154 200 245 291 347
#     4  10  22  42  64  84 112 157 199 242 296 350
#     4  10  19  35  57  85 119 159 197 236 285 346
#     4  10  20  35  56  83 120 158 194 235 286 347
#     4  11  21  37  59  89 121 155 194 238 290 352
#     4   9  18  36  60  83 116 159 198 234 283 359
#     4  11  21  33  58  90 119 153 193 242 291 340
#
# _framework density 21.563544
#
# number of rings (size 3 to 8) (size 9 to 14) (size 15 to 20)
#    0.000    2.000    0.000    6.750    0.000    1.000 
#    0.000   18.750    0.000    9.000    0.000    0.000 
#    0.000    0.000    0.000    0.000    0.000    0.000 
#
# Total GULP energy -89288.488045 kJ/mol
# GULP energy per Si atom -5580.530503 kJ/mol
# Density = 2.151446 g / cm^3
# Si number density = 21.563544 Si / 1000 Ang^3
#
#
#
# Elastic Constant Matrix: (Units=GPa)
#
#
# Indices 1 2 3 4 5 6 
#
# 1 72.7438 61.3648 35.4201 1.6666 14.9151 5.3810
# 2 61.3648 164.9709 64.2647 1.3915 25.2776 -22.3627
# 3 35.4201 64.2647 83.3560 4.6771 8.3452 -11.1774
# 4 1.6666 1.3915 4.6771 48.0192 -4.6235 13.4856
# 5 14.9151 25.2776 8.3452 -4.6235 28.6974 5.1073
# 6 5.3810 -22.3627 -11.1774 13.4856 5.1073 46.9194
#
#
#
# Elastic Compliance Matrix: (Units=1/GPa)
#
#
# Indices 1 2 3 4 5 6 
#
# 1 0.023587 -0.007431 -0.005179 0.001828 -0.002538 -0.007729
# 2 -0.007431 0.012977 -0.004924 -0.002483 -0.007859 0.007433
# 3 -0.005179 -0.004924 0.018489 -0.002321 0.000702 0.003242
# 4 0.001828 -0.002483 -0.002321 0.024555 0.007618 -0.009833
# 5 -0.002538 -0.007859 0.000702 0.007618 0.045977 -0.010482
# 6 -0.007729 0.007433 0.003242 -0.009833 -0.010482 0.030482
#
#
# Mechanical properties :
#
#
# Convention : Reuss Voigt Hill
#
# Bulk Modulus (GPa) = 50.03810 71.46332 60.75071
# Shear Modulus (GPa) = 25.27870 35.39526 30.33698
#
# Velocity S-wave (km/s) = 3.42758 4.05586 3.75489
# Velocity P-wave (km/s) = 6.23857 7.42604 6.85806
#
# Compressibility (1/GPa) = 0.01998477
#
# Stress axis : x y z
#
# Youngs Moduli (GPa) = 42.39599 77.06111 54.08742
#
# Poissons Ratio (x) = 0.57262 0.28011
# Poissons Ratio (y) = 0.31503 0.26634
# Poissons Ratio (z) = 0.21956 0.37947
#
# Static dielectric constant tensor:
#      x y z
#    x 1.870410 0.017400 -0.021300 
#    y 0.017400 1.836500 -0.048510 
#    z -0.021300 -0.048510 1.842980 
# 
# From -- ./inp_files/208627.got.cif
#   From: 2010.05.17/outbox.cif.g08.bks.cpg/sg2_105_cif.got.tgz:208627.got - 2010.06.03 11:33:40.
