data_PCOD9084328
_publ_section_title
;
Structure prediction by ZEFSAII (Michael W. Deem and Ramdas Pophale) SiO2 
 PCOD9084328
Probable space group: P -1
;
_chemical_formula_sum "Si O2"
_cell_formula_units_Z 16
_cell_length_a 16.892406
_cell_length_b 10.064356
_cell_length_c 7.906151
_cell_angle_alpha 60.192716
_cell_angle_beta 112.432721
_cell_angle_gamma 66.820246
_cell_volume 739.918441
_symmetry_space_group_name_H-M "P -1"
_symmetry_group_IT_number 2
_symmetry_cell_setting 'triclinic'
loop_
_space_group_symop_operation_xyz
x,y,z
-x,-y,-z
loop_
_atom_site_type_symbol
_atom_site_label
_atom_site_fract_x
_atom_site_fract_y
_atom_site_fract_z
Si Si1 0.368049 0.023797 0.189530
Si Si2 0.760037 0.411921 0.896267
Si Si3 0.404231 0.130678 0.683153
Si Si4 0.629712 0.121397 0.349541
Si Si5 0.196796 0.524649 0.732955
Si Si6 0.327911 0.751517 0.239863
Si Si7 0.638220 0.424907 0.270217
Si Si8 0.946299 0.982172 0.130006
O O1 0.497490 0.947702 0.333338
O O2 0.347521 0.985932 0.383765
O O3 0.373168 0.864534 0.179154
O O4 0.257315 0.283772 0.890008
O O5 0.702352 0.603916 0.590737
O O6 0.674558 0.369111 0.836805
O O7 0.766565 0.480024 0.041039
O O8 0.895546 0.175903 0.097869
O O9 0.343803 0.043742 0.659947
O O10 0.500000 0.000000 0.000000
O O11 0.690959 0.209056 0.348789
O O12 0.483765 0.350952 0.061530
O O13 0.263322 0.568232 0.647805
O O14 0.050983 0.736733 0.448608
O O15 0.395533 0.590069 0.560161
O O16 0.181823 0.943419 0.056570
O O17 0.000000 0.000000 0.000000
#
# Coordination Sequence:
#
# PCOD9084328 Si02
#       8
#     2   2   2   2   2   2   2   2
#     4  11  23  38  63  91 123 159 192 248 304 356
#     4  10  23  38  59  93 118 155 201 246 295 351
#     4  12  23  36  61  91 129 153 198 241 306 357
#     4  10  20  37  55  91 121 155 196 238 296 365
#     4  12  20  38  68  85 120 157 204 244 300 350
#     4   9  22  41  57  92 118 158 205 240 299 352
#     4  10  19  34  63  85 118 161 197 233 296 364
#     4  10  22  41  66  83 115 163 210 243 293 352
#
# _framework density 21.624006000000001
#
# number of rings (size 3 to 8) (size 9 to 14) (size 15 to 20)
#    0.750    0.750    3.750    2.250    1.750    2.000 
#    0.000    0.000    0.000    1.500    0.000    0.000 
#    0.000    0.000    0.000    0.000    0.000    0.000 
#
# Total GULP energy -89295.866886 kJ/mol
# GULP energy per Si atom -5580.991680 kJ/mol
# Density = 2.157479 g / cm^3
# Si number density = 21.624006 Si / 1000 Ang^3
#
#
#
# Elastic Constant Matrix: (Units=GPa)
#
#
# Indices 1 2 3 4 5 6 
#
# 1 47.4761 15.0507 25.5210 -9.0111 -9.1888 8.8650
# 2 15.0507 74.5575 14.1751 -6.1630 -12.6902 23.9615
# 3 25.5210 14.1751 119.3698 -22.1406 -2.0882 10.5569
# 4 -9.0111 -6.1630 -22.1406 40.8310 -0.6228 -2.7106
# 5 -9.1888 -12.6902 -2.0882 -0.6228 30.3563 -6.5925
# 6 8.8650 23.9615 10.5569 -2.7106 -6.5925 32.1599
#
#
#
# Elastic Compliance Matrix: (Units=1/GPa)
#
#
# Indices 1 2 3 4 5 6 
#
# 1 0.026472 -0.002372 -0.004494 0.002975 0.006224 -0.002528
# 2 -0.002372 0.018739 -0.000304 0.001401 0.004480 -0.012172
# 3 -0.004494 -0.000304 0.010334 0.004432 -0.001070 -0.001773
# 4 0.002975 0.001401 0.004432 0.027762 0.002248 -0.000518
# 5 0.006224 0.004480 -0.001070 0.002248 0.037355 0.003144
# 6 -0.002528 -0.012172 -0.001773 -0.000518 0.003144 0.042044
#
#
# Mechanical properties :
#
#
# Convention : Reuss Voigt Hill
#
# Bulk Modulus (GPa) = 24.26727 38.98855 31.62791
# Shear Modulus (GPa) = 26.20815 33.11322 29.66068
#
# Velocity S-wave (km/s) = 3.48515 3.91745 3.70760
# Velocity P-wave (km/s) = 5.23849 6.20735 5.74339
#
# Compressibility (1/GPa) = 0.04120776
#
# Stress axis : x y z
#
# Youngs Moduli (GPa) = 37.77555 53.36394 96.76488
#
# Poissons Ratio (x) = 0.12656 0.43485
# Poissons Ratio (y) = 0.08959 0.02937
# Poissons Ratio (z) = 0.16976 0.01620
#
# Static dielectric constant tensor:
#      x y z
#    x 1.789950 -0.005750 -0.021660 
#    y -0.005750 1.880270 0.021900 
#    z -0.021660 0.021900 1.779780 
# 
# From -- ./inp_files/217295.got.cif
#   From: 2010.05.17/outbox.cif.g08.bks.cpg/sg2_109_cif.got.tgz:217295.got - 2010.06.03 11:33:40.
