data_PCOD9084671
_publ_section_title
;
Structure prediction by ZEFSAII (Michael W. Deem and Ramdas Pophale) SiO2 
 PCOD9084671
Probable space group: P -1
;
_chemical_formula_sum "Si O2"
_cell_formula_units_Z 16
_cell_length_a 10.999382
_cell_length_b 18.428783
_cell_length_c 12.836265
_cell_angle_alpha 146.613737
_cell_angle_beta 34.375004
_cell_angle_gamma 148.982020
_cell_volume 680.292268
_symmetry_space_group_name_H-M "P -1"
_symmetry_group_IT_number 2
_symmetry_cell_setting 'triclinic'
loop_
_space_group_symop_operation_xyz
x,y,z
-x,-y,-z
loop_
_atom_site_type_symbol
_atom_site_label
_atom_site_fract_x
_atom_site_fract_y
_atom_site_fract_z
Si Si1 0.754394 0.110658 0.022263
Si Si2 0.398825 0.904732 0.189077
Si Si3 0.067560 0.854285 0.642422
Si Si4 0.094512 0.111476 0.420174
Si Si5 0.368753 0.383777 0.205571
Si Si6 0.483713 0.804621 0.235896
Si Si7 0.749781 0.424337 0.158141
Si Si8 0.675280 0.374490 0.380417
O O1 0.827319 0.287069 0.176323
O O2 0.654490 0.052353 0.140237
O O3 0.500000 0.000000 0.000000
O O4 0.932447 0.052047 0.785092
O O5 0.433209 0.856912 0.221977
O O6 0.151169 0.916908 0.376968
O O7 0.347133 0.757797 0.981910
O O8 0.250182 0.787174 0.444985
O O9 0.916593 0.812158 0.589590
O O10 0.869552 0.785155 0.793226
O O11 0.255318 0.041527 0.727949
O O12 0.371810 0.234913 0.421101
O O13 0.559323 0.440970 0.238947
O O14 0.293179 0.511190 0.411069
O O15 0.497601 0.345171 0.974772
O O16 0.765895 0.470883 0.322374
O O17 0.000000 0.500000 0.000000
#
# Coordination Sequence:
#
# PCOD9084671 Si02
#       8
#     2   2   2   2   2   2   2   2
#     4  10  20  37  49  75 112 147 193 213 251 321
#     4  10  19  35  56  80 106 143 182 225 268 316
#     4  10  19  37  59  81 110 136 182 227 278 326
#     4  10  19  35  57  78 106 148 181 222 268 316
#     4  11  21  33  53  79 112 144 170 218 284 324
#     4   9  21  35  57  87 105 137 179 233 275 322
#     4  11  21  33  52  80 114 145 175 223 275 327
#     4  11  22  35  51  79 116 150 176 219 266 330
#
# _framework density 23.519302
#
# number of rings (size 3 to 8) (size 9 to 14) (size 15 to 20)
#    0.000    1.750    3.750    2.250    5.250    2.000 
#    2.250    0.000    0.000    3.000    0.000    5.250 
#    0.000    0.000    0.000    0.000    0.000    0.000 
#
# Total GULP energy -89354.310323 kJ/mol
# GULP energy per Si atom -5584.644395 kJ/mol
# Density = 2.346577 g / cm^3
# Si number density = 23.519302 Si / 1000 Ang^3
#
#
#
# Elastic Constant Matrix: (Units=GPa)
#
#
# Indices 1 2 3 4 5 6 
#
# 1 9.1712 4.5046 -1.8733 -0.1026 -3.4957 1.4220
# 2 4.5046 41.3157 10.0153 6.2563 -5.3591 1.6257
# 3 -1.8733 10.0153 154.7089 22.7149 -13.1489 -3.0636
# 4 -0.1026 6.2563 22.7149 42.2961 -7.0640 -2.5848
# 5 -3.4957 -5.3591 -13.1489 -7.0640 22.1055 -0.5595
# 6 1.4220 1.6257 -3.0636 -2.5848 -0.5595 19.0758
#
#
#
# Elastic Compliance Matrix: (Units=1/GPa)
#
#
# Indices 1 2 3 4 5 6 
#
# 1 0.124150 -0.012024 0.003350 0.003136 0.019543 -0.006694
# 2 -0.012024 0.026706 -0.001236 -0.002956 0.002845 -0.001895
# 3 0.003350 -0.001236 0.007365 -0.003113 0.003634 0.000723
# 4 0.003136 -0.002956 -0.003113 0.027080 0.006667 0.003383
# 5 0.019543 0.002845 0.003634 0.006667 0.053344 0.001352
# 6 -0.006694 -0.001895 0.000723 0.003383 0.001352 0.053697
#
#
# Mechanical properties :
#
#
# Convention : Reuss Voigt Hill
#
# Bulk Modulus (GPa) = 7.22551 25.60987 16.41769
# Shear Modulus (GPa) = 13.95497 29.53211 21.74354
#
# Velocity S-wave (km/s) = 2.43850 3.54737 3.04385
# Velocity P-wave (km/s) = 3.31771 5.26222 4.39876
#
# Compressibility (1/GPa) = 0.13839854
#
# Stress axis : x y z
#
# Youngs Moduli (GPa) = 8.05479 37.44509 135.78492
#
# Poissons Ratio (x) = 0.45025 -0.45484
# Poissons Ratio (y) = 0.09685 0.16785
# Poissons Ratio (z) = -0.02698 0.04629
#
# Static dielectric constant tensor:
#      x y z
#    x 1.945160 0.009360 0.003960 
#    y 0.009360 1.917630 0.023540 
#    z 0.003960 0.023540 1.952580 
# 
# From -- ./inp_files/423410.got.cif
#   From: 2010.05.17/outbox.cif.g08.bks.cpg/sg2_212_cif.got.tgz:423410.got - 2010.06.03 11:33:40.
