data_PCOD9084901
_publ_section_title
;
Structure prediction by ZEFSAII (Michael W. Deem and Ramdas Pophale) SiO2 
 PCOD9084901
Probable space group: P -1
;
_chemical_formula_sum "Si O2"
_cell_formula_units_Z 16
_cell_length_a 8.998308
_cell_length_b 18.801267
_cell_length_c 7.325992
_cell_angle_alpha 42.380860
_cell_angle_beta 72.911326
_cell_angle_gamma 55.737056
_cell_volume 673.685790
_symmetry_space_group_name_H-M "P -1"
_symmetry_group_IT_number 2
_symmetry_cell_setting 'triclinic'
loop_
_space_group_symop_operation_xyz
x,y,z
-x,-y,-z
loop_
_atom_site_type_symbol
_atom_site_label
_atom_site_fract_x
_atom_site_fract_y
_atom_site_fract_z
Si Si1 0.821289 0.004677 0.137070
Si Si2 0.658646 0.865346 0.270696
Si Si3 0.082369 0.605549 0.917011
Si Si4 0.596925 0.209503 0.548382
Si Si5 0.942433 0.614935 0.552182
Si Si6 0.762718 0.342159 0.780743
Si Si7 0.446994 0.564868 0.680772
Si Si8 0.031239 0.845530 0.668391
O O1 0.791208 0.897144 0.271188
O O2 0.861468 0.971496 0.401739
O O3 0.653605 0.129352 0.868955
O O4 0.000000 0.000000 0.000000
O O5 0.533683 0.813943 0.488020
O O6 0.779321 0.754547 0.291723
O O7 0.500000 0.000000 0.000000
O O8 0.279251 0.564522 0.836964
O O9 0.017271 0.731326 0.812686
O O10 0.956572 0.628760 0.740659
O O11 0.081358 0.500689 0.237852
O O12 0.506526 0.351300 0.373542
O O13 0.787379 0.166757 0.460078
O O14 0.125383 0.594317 0.436192
O O15 0.616859 0.428584 0.824670
O O16 0.640973 0.357964 0.620637
O O17 0.908478 0.199609 0.059848
#
# Coordination Sequence:
#
# PCOD9084901 Si02
#       8
#     2   2   2   2   2   2   2   2
#     4   9  18  36  61  86 112 145 199 247 281 335
#     4  10  20  36  61  89 110 146 200 246 280 335
#     4   9  19  34  61  80 112 154 204 232 280 345
#     4   9  20  35  64  82 111 155 206 236 279 342
#     4  10  20  36  56  87 115 153 188 245 290 343
#     4  10  22  35  57  83 130 148 191 238 309 335
#     4   9  20  40  55  84 119 160 193 239 285 352
#     4  10  19  35  57  89 111 157 193 244 282 351
#
# _framework density 23.749943999999999
#
# number of rings (size 3 to 8) (size 9 to 14) (size 15 to 20)
#    0.000    2.500    1.250    0.000    5.250    1.500 
#    0.000    0.625    0.000    1.500    0.000    0.000 
#    0.000    0.000    0.000    0.000    0.000    0.000 
#
# Total GULP energy -89191.077318 kJ/mol
# GULP energy per Si atom -5574.442332 kJ/mol
# Density = 2.369589 g / cm^3
# Si number density = 23.749944 Si / 1000 Ang^3
#
#
#
# Elastic Constant Matrix: (Units=GPa)
#
#
# Indices 1 2 3 4 5 6 
#
# 1 112.0966 8.8687 36.2623 -13.6224 -17.9328 14.3486
# 2 8.8687 30.2653 12.4443 -8.6834 -7.7813 6.3646
# 3 36.2623 12.4443 119.8469 -5.7877 15.4764 8.8954
# 4 -13.6224 -8.6834 -5.7877 27.5348 9.7575 0.0854
# 5 -17.9328 -7.7813 15.4764 9.7575 55.6017 -5.7521
# 6 14.3486 6.3646 8.8954 0.0854 -5.7521 25.3451
#
#
#
# Elastic Compliance Matrix: (Units=1/GPa)
#
#
# Indices 1 2 3 4 5 6 
#
# 1 0.011700 0.001198 -0.003587 0.004110 0.003718 -0.004835
# 2 0.001198 0.040363 -0.003953 0.010983 0.004331 -0.008481
# 3 -0.003587 -0.003953 0.010681 0.001022 -0.005057 -0.001876
# 4 0.004110 0.010983 0.001022 0.044136 -0.005884 -0.006927
# 5 0.003718 0.004331 -0.005057 -0.005884 0.022617 0.003735
# 6 -0.004835 -0.008481 -0.001876 -0.006927 0.003735 0.045852
#
#
# Mechanical properties :
#
#
# Convention : Reuss Voigt Hill
#
# Bulk Modulus (GPa) = 19.97573 41.92882 30.95227
# Shear Modulus (GPa) = 24.42363 35.33856 29.88110
#
# Velocity S-wave (km/s) = 3.21029 3.86157 3.55090
# Velocity P-wave (km/s) = 4.70855 6.12984 5.46559
#
# Compressibility (1/GPa) = 0.05006075
#
# Stress axis : x y z
#
# Youngs Moduli (GPa) = 85.47254 24.77489 93.62026
#
# Poissons Ratio (x) = -0.02969 0.33584
# Poissons Ratio (y) = -0.10244 0.37010
# Poissons Ratio (z) = 0.30661 0.09794
#
# Static dielectric constant tensor:
#      x y z
#    x 1.986700 0.017840 0.069450 
#    y 0.017840 1.903270 0.010240 
#    z 0.069450 0.010240 1.993480 
# 
# From -- ./inp_files/218965.got.cif
#   From: 2010.05.17/outbox.cif.g08.bks.cpg/sg2_110_cif.got.tgz:218965.got - 2010.06.03 11:33:40.
