data_PCOD9084242
_publ_section_title
;
Structure prediction by ZEFSAII (Michael W. Deem and Ramdas Pophale) SiO2 
 PCOD9084242
Probable space group: P -1
;
_chemical_formula_sum "Si O2"
_cell_formula_units_Z 15
_cell_length_a 18.310393
_cell_length_b 9.924319
_cell_length_c 21.688535
_cell_angle_alpha 37.201747
_cell_angle_beta 161.524502
_cell_angle_gamma 140.741011
_cell_volume 751.494967
_symmetry_space_group_name_H-M "P -1"
_symmetry_group_IT_number 2
_symmetry_cell_setting 'triclinic'
loop_
_space_group_symop_operation_xyz
x,y,z
-x,-y,-z
loop_
_atom_site_type_symbol
_atom_site_label
_atom_site_fract_x
_atom_site_fract_y
_atom_site_fract_z
Si Si1 0.173085 0.602749 0.548457
Si Si2 0.770153 0.608306 0.800406
Si Si3 0.469453 0.003331 0.705742
Si Si4 0.500000 0.500000 0.500000
Si Si5 0.090859 0.179919 0.423932
Si Si6 0.046315 0.024282 0.830158
Si Si7 0.707055 0.786291 0.298606
Si Si8 0.797992 0.275599 0.047636
O O1 0.360244 0.787251 0.660368
O O2 0.285037 0.404978 0.675937
O O3 0.000000 0.500000 0.500000
O O4 0.028170 0.737321 0.335023
O O5 0.576718 0.528110 0.625061
O O6 0.737640 0.495342 0.882163
O O7 0.845636 0.871564 0.761335
O O8 0.000000 0.500000 0.000000
O O9 0.487331 0.226066 0.597313
O O10 0.290971 0.049567 0.600762
O O11 0.717764 0.968368 0.945522
O O12 0.192578 0.290771 0.527305
O O13 0.988342 0.328187 0.234191
O O14 0.878015 0.999747 0.337543
O O15 0.092536 0.891131 0.851873
O O16 0.444589 0.837759 0.080382
#
# Coordination Sequence:
#
# PCOD9084242 Si02
#       8
#     2   2   2   1   2   2   2   2
#     4  12  25  44  62  94 134 166 209 272 321 378
#     4  10  19  34  61  99 123 155 218 271 300 373
#     4  12  22  38  67  99 123 169 215 263 316 379
#     4  12  18  34  66  96 126 160 214 262 314 364
#     4  11  22  40  65  91 125 167 220 261 316 386
#     4  11  22  38  64  97 129 163 217 260 316 378
#     4  11  24  41  62  92 129 166 212 267 326 375
#     4  11  20  38  65  93 121 166 215 264 316 377
#
# _framework density 19.960214000000001
#
# number of rings (size 3 to 8) (size 9 to 14) (size 15 to 20)
#    0.000    0.800    8.000    1.200    0.000    1.600 
#    0.000    0.667    0.000    1.600    0.000    0.000 
#    0.000    0.000    0.000    0.000    0.000    0.000 
#
# Total GULP energy -83539.966339 kJ/mol
# GULP energy per Si atom -5569.331089 kJ/mol
# Density = 1.991478 g / cm^3
# Si number density = 19.960214 Si / 1000 Ang^3
#
#
#
# Elastic Constant Matrix: (Units=GPa)
#
#
# Indices 1 2 3 4 5 6 
#
# 1 50.0716 8.5892 15.5995 6.9199 -17.1036 -10.3872
# 2 8.5892 69.9354 12.6206 15.1989 -11.3090 -1.6822
# 3 15.5995 12.6206 73.6837 22.8394 -26.3737 3.2127
# 4 6.9199 15.1989 22.8394 30.1144 -3.1449 -8.7433
# 5 -17.1036 -11.3090 -26.3737 -3.1449 38.9005 3.0541
# 6 -10.3872 -1.6822 3.2127 -8.7433 3.0541 26.8250
#
#
#
# Elastic Compliance Matrix: (Units=1/GPa)
#
#
# Indices 1 2 3 4 5 6 
#
# 1 0.025815 -0.001163 -0.002782 0.000379 0.008417 0.009422
# 2 -0.001163 0.017229 0.003186 -0.011421 0.006061 -0.004164
# 3 -0.002782 0.003186 0.028412 -0.024817 0.018093 -0.014429
# 4 0.000379 -0.011421 -0.024817 0.063181 -0.016827 0.024912
# 5 0.008417 0.006061 0.018093 -0.016827 0.042773 -0.008882
# 6 0.009422 -0.004164 -0.014429 0.024912 -0.008882 0.051525
#
#
# Mechanical properties :
#
#
# Convention : Reuss Voigt Hill
#
# Bulk Modulus (GPa) = 14.29817 29.70104 21.99961
# Shear Modulus (GPa) = 19.70328 29.62672 24.66500
#
# Velocity S-wave (km/s) = 3.14527 3.85683 3.51908
# Velocity P-wave (km/s) = 4.51322 5.89457 5.24953
#
# Compressibility (1/GPa) = 0.06993901
#
# Stress axis : x y z
#
# Youngs Moduli (GPa) = 38.73754 58.04233 35.19613
#
# Poissons Ratio (x) = 0.06752 0.09790
# Poissons Ratio (y) = 0.04506 -0.11215
# Poissons Ratio (z) = 0.10775 -0.18495
#
# Static dielectric constant tensor:
#      x y z
#    x 1.750290 0.058510 -0.023480 
#    y 0.058510 1.709270 0.014030 
#    z -0.023480 0.014030 1.722320 
# 
# From -- ./inp_files/307349.got.cif
#   From: 2010.05.17/outbox.cif.g08.bks.cpg/sg2_154_cif.got.tgz:307349.got - 2010.06.03 11:33:40.
