data_PCOD9084364
_publ_section_title
;
Structure prediction by ZEFSAII (Michael W. Deem and Ramdas Pophale) SiO2 
 PCOD9084364
Probable space group: P -1
;
_chemical_formula_sum "Si O2"
_cell_formula_units_Z 13
_cell_length_a 8.798767
_cell_length_b 10.551898
_cell_length_c 9.960974
_cell_angle_alpha 87.066497
_cell_angle_beta 125.384928
_cell_angle_gamma 128.930871
_cell_volume 510.277907
_symmetry_space_group_name_H-M "P -1"
_symmetry_group_IT_number 2
_symmetry_cell_setting 'triclinic'
loop_
_space_group_symop_operation_xyz
x,y,z
-x,-y,-z
loop_
_atom_site_type_symbol
_atom_site_label
_atom_site_fract_x
_atom_site_fract_y
_atom_site_fract_z
Si Si1 0.866487 0.700634 0.678229
Si Si2 0.464945 0.024433 0.326713
Si Si3 0.005909 0.856163 0.473516
Si Si4 0.500000 0.000000 0.000000
Si Si5 0.302249 0.213122 0.176350
Si Si6 0.100018 0.577341 0.895652
Si Si7 0.126792 0.306533 0.879278
O O1 0.814662 0.696093 0.495425
O O2 0.861086 0.548894 0.716638
O O3 0.707079 0.713265 0.694496
O O4 0.185899 0.899649 0.856168
O O5 0.693159 0.060965 0.361269
O O6 0.495757 0.187237 0.295925
O O7 0.500000 0.000000 0.500000
O O8 0.368717 0.795792 0.992469
O O9 0.927314 0.791116 0.283122
O O10 0.000000 0.000000 0.500000
O O11 0.348203 0.338400 0.075123
O O12 0.000000 0.000000 0.000000
O O13 0.153832 0.468909 0.861901
O O14 0.000000 0.500000 0.000000
O O15 0.145741 0.832547 0.155793
#
# Coordination Sequence:
#
# PCOD9084364 Si02
#       7
#     2   2   2   1   2   2   2
#     4  10  21  37  64  94 134 178 225 284 340 409
#     4   9  20  36  63  94 134 184 229 279 348 421
#     4  11  23  40  63  98 142 182 223 295 357 407
#     4   8  22  36  64 104 130 182 228 290 344 408
#     4  10  19  34  63  94 132 180 237 277 337 417
#     4  10  20  38  68 101 142 180 237 289 345 414
#     4  10  20  38  63  98 137 184 229 285 342 425
#
# _framework density 25.476313000000001
#
# number of rings (size 3 to 8) (size 9 to 14) (size 15 to 20)
#    0.923    1.231    1.538    2.769    6.462    0.615 
#    0.000    0.000    0.000   30.462    0.000    0.000 
#    0.000    0.000    0.000    0.000    0.000    0.000 
#
# Total GULP energy -72404.587204 kJ/mol
# GULP energy per Si atom -5569.583631 kJ/mol
# Density = 2.541833 g / cm^3
# Si number density = 25.476313 Si / 1000 Ang^3
#
#
#
# Elastic Constant Matrix: (Units=GPa)
#
#
# Indices 1 2 3 4 5 6 
#
# 1 163.1813 84.6159 64.7103 0.7133 -6.3439 -34.4034
# 2 84.6159 185.9250 72.3701 -32.9371 -4.7205 -38.7824
# 3 64.7103 72.3701 109.1317 -20.7677 -20.9991 -35.5142
# 4 0.7133 -32.9371 -20.7677 39.1740 -3.1726 14.3009
# 5 -6.3439 -4.7205 -20.9991 -3.1726 49.2206 4.3768
# 6 -34.4034 -38.7824 -35.5142 14.3009 4.3768 56.5196
#
#
#
# Elastic Compliance Matrix: (Units=1/GPa)
#
#
# Indices 1 2 3 4 5 6 
#
# 1 0.010310 -0.003630 -0.004352 -0.006722 -0.001565 0.002873
# 2 -0.003630 0.009338 -0.002611 0.006123 -0.000384 0.001038
# 3 -0.004352 -0.002611 0.017315 0.005983 0.006569 0.004417
# 4 -0.006722 0.006123 0.005983 0.036489 0.005138 -0.005761
# 5 -0.001565 -0.000384 0.006569 0.005138 0.023228 -0.000187
# 6 0.002873 0.001038 0.004417 -0.005761 -0.000187 0.024401
#
#
# Mechanical properties :
#
#
# Convention : Reuss Voigt Hill
#
# Bulk Modulus (GPa) = 63.37931 100.18117 81.78024
# Shear Modulus (GPa) = 33.89193 44.75229 39.32211
#
# Velocity S-wave (km/s) = 3.65133 4.19576 3.93297
# Velocity P-wave (km/s) = 6.53514 7.92976 7.26599
#
# Compressibility (1/GPa) = 0.01577802
#
# Stress axis : x y z
#
# Youngs Moduli (GPa) = 96.99051 107.08536 57.75267
#
# Poissons Ratio (x) = 0.38868 0.25134
# Poissons Ratio (y) = 0.35204 0.15081
# Poissons Ratio (z) = 0.42210 0.27963
#
# Static dielectric constant tensor:
#      x y z
#    x 2.321430 -0.069310 -0.041310 
#    y -0.069310 2.029530 0.048670 
#    z -0.041310 0.048670 2.167350 
# 
# From -- ./inp_files/163574.got.cif
#   From: 2010.05.17/outbox.cif.g08.bks.cpg/sg2_82_cif.got.tgz:163574.got - 2010.06.03 11:33:40.
