data_PCOD9084617
_publ_section_title
;
Structure prediction by ZEFSAII (Michael W. Deem and Ramdas Pophale) SiO2 
 PCOD9084617
Probable space group: P -1
;
_chemical_formula_sum "Si O2"
_cell_formula_units_Z 14
_cell_length_a 14.714265
_cell_length_b 26.586247
_cell_length_c 12.557442
_cell_angle_alpha 22.562877
_cell_angle_beta 29.118019
_cell_angle_gamma 19.508896
_cell_volume 629.270592
_symmetry_space_group_name_H-M "P -1"
_symmetry_group_IT_number 2
_symmetry_cell_setting 'triclinic'
loop_
_space_group_symop_operation_xyz
x,y,z
-x,-y,-z
loop_
_atom_site_type_symbol
_atom_site_label
_atom_site_fract_x
_atom_site_fract_y
_atom_site_fract_z
Si Si1 0.073931 0.785113 0.319516
Si Si2 0.035052 0.835581 0.009648
Si Si3 0.319651 0.497544 0.010580
Si Si4 0.387598 0.158745 0.632526
Si Si5 0.299877 0.467279 0.848656
Si Si6 0.047317 0.078584 0.392084
Si Si7 0.550229 0.079586 0.384052
O O1 0.098999 0.627914 0.654353
O O2 0.386439 0.668023 0.239935
O O3 0.997447 0.828366 0.188714
O O4 0.855552 0.968891 0.258317
O O5 0.845598 0.832520 0.142888
O O6 0.355404 0.649386 0.022222
O O7 0.984150 0.014082 0.683710
O O8 0.252942 0.552272 0.846769
O O9 0.271542 0.367905 0.340391
O O10 0.146361 0.696572 0.857442
O O11 0.639448 0.034225 0.699705
O O12 0.533701 0.052621 0.576846
O O13 0.315614 0.306139 0.167979
O O14 0.000000 0.000000 0.500000
O O15 0.500000 0.000000 0.500000
#
# Coordination Sequence:
#
# PCOD9084617 Si02
#       7
#     2   2   2   2   2   2   2
#     4  10  19  35  55  83 120 164 203 236 285 351
#     4  10  22  40  63  92 126 159 207 253 305 365
#     4   9  21  42  62  87 126 163 200 254 308 364
#     4  10  22  42  61  94 129 161 204 252 301 362
#     4   9  20  34  55  83 118 163 203 233 290 357
#     4  11  25  45  68  90 116 158 208 263 323 370
#     4  11  20  34  55  87 126 163 190 238 287 345
#
# _framework density 22.247979999999998
#
# number of rings (size 3 to 8) (size 9 to 14) (size 15 to 20)
#    0.000    2.000    1.429    2.143    0.000    8.000 
#    2.571    1.429    0.000    0.000    0.000    0.000 
#    0.000    0.000    0.000    0.000    0.000    0.000 
#
# Total GULP energy -78088.351127 kJ/mol
# GULP energy per Si atom -5577.739366 kJ/mol
# Density = 2.219734 g / cm^3
# Si number density = 22.247980 Si / 1000 Ang^3
#
#
#
# Elastic Constant Matrix: (Units=GPa)
#
#
# Indices 1 2 3 4 5 6 
#
# 1 87.4445 20.9152 18.4946 -0.3190 -23.0931 -10.3730
# 2 20.9152 50.1071 34.7159 -3.0726 -18.6802 -4.6528
# 3 18.4946 34.7159 74.4170 -15.0150 -21.5755 -2.6632
# 4 -0.3190 -3.0726 -15.0150 43.2712 -0.9630 -15.5562
# 5 -23.0931 -18.6802 -21.5755 -0.9630 33.8541 10.6342
# 6 -10.3730 -4.6528 -2.6632 -15.5562 10.6342 28.4680
#
#
#
# Elastic Compliance Matrix: (Units=1/GPa)
#
#
# Indices 1 2 3 4 5 6 
#
# 1 0.014415 -0.003171 0.000407 0.001107 0.007574 0.002548
# 2 -0.003171 0.032874 -0.012689 -0.002398 0.008249 -0.001361
# 3 0.000407 -0.012689 0.023153 0.007911 0.007731 0.001675
# 4 0.001107 -0.002398 0.007911 0.032373 -0.000452 0.018610
# 5 0.007574 0.008249 0.007731 -0.000452 0.048411 -0.013500
# 6 0.002548 -0.001361 0.001675 0.018610 -0.013500 0.051202
#
#
# Mechanical properties :
#
#
# Convention : Reuss Voigt Hill
#
# Bulk Modulus (GPa) = 25.29271 40.02443 32.65857
# Shear Modulus (GPa) = 20.28297 30.30819 25.29558
#
# Velocity S-wave (km/s) = 3.02267 3.69492 3.37558
# Velocity P-wave (km/s) = 4.85544 6.01934 5.46845
#
# Compressibility (1/GPa) = 0.03953708
#
# Stress axis : x y z
#
# Youngs Moduli (GPa) = 69.37452 30.41928 43.19028
#
# Poissons Ratio (x) = 0.09646 -0.01759
# Poissons Ratio (y) = 0.21998 0.54803
# Poissons Ratio (z) = -0.02825 0.38598
#
# Static dielectric constant tensor:
#      x y z
#    x 1.854760 -0.004140 0.005360 
#    y -0.004140 1.841480 0.078580 
#    z 0.005360 0.078580 2.016240 
# 
# From -- ./inp_files/535591.got.cif
#   From: 2010.05.17/outbox.cif.g08.bks.cpg/sg2_268_cif.got.tgz:535591.got - 2010.06.03 11:33:40.
