data_PCOD9084019
_publ_section_title
;
Structure prediction by ZEFSAII (Michael W. Deem and Ramdas Pophale) SiO2 
 PCOD9084019
Probable space group: P -1
;
_chemical_formula_sum "Si O2"
_cell_formula_units_Z 16
_cell_length_a 21.996667
_cell_length_b 9.321619
_cell_length_c 10.069787
_cell_angle_alpha 40.686613
_cell_angle_beta 33.966372
_cell_angle_gamma 34.214359
_cell_volume 631.168081
_symmetry_space_group_name_H-M "P -1"
_symmetry_group_IT_number 2
_symmetry_cell_setting 'triclinic'
loop_
_space_group_symop_operation_xyz
x,y,z
-x,-y,-z
loop_
_atom_site_type_symbol
_atom_site_label
_atom_site_fract_x
_atom_site_fract_y
_atom_site_fract_z
Si Si1 0.040113 0.531275 0.677456
Si Si2 0.518172 0.234246 0.255619
Si Si3 0.821736 0.083551 0.161418
Si Si4 0.216892 0.228045 0.916357
Si Si5 0.653336 0.969134 0.707874
Si Si6 0.296737 0.363244 0.401527
Si Si7 0.848046 0.530182 0.862660
Si Si8 0.548270 0.488874 0.270655
O O1 0.962703 0.581217 0.644829
O O2 0.094773 0.220629 0.819854
O O3 0.927025 0.713951 0.856671
O O4 0.840339 0.432904 0.563476
O O5 0.414171 0.386651 0.220201
O O6 0.494339 0.398177 0.315541
O O7 0.500000 0.000000 0.500000
O O8 0.668152 0.069673 0.057024
O O9 0.702133 0.278412 0.143004
O O10 0.747520 0.076568 0.432795
O O11 0.891523 0.237225 0.953540
O O12 0.244040 0.315421 0.667260
O O13 0.214926 0.398126 0.925105
O O14 0.644653 0.876814 0.639990
O O15 0.737315 0.729829 0.822777
O O16 0.517302 0.201995 0.848651
O O17 0.500000 0.500000 0.500000
#
# Coordination Sequence:
#
# PCOD9084019 Si02
#       8
#     2   2   2   2   2   2   2   2
#     4   9  20  37  63  94 123 170 213 259 316 382
#     4  10  19  34  59  90 126 164 209 258 315 377
#     4  10  20  37  63  93 126 167 209 266 315 376
#     4   9  20  34  61  90 124 167 208 257 316 380
#     4  10  23  40  62  96 126 168 214 264 312 385
#     4  10  20  36  63  90 125 169 207 255 323 374
#     4  10  23  38  64  94 130 163 216 263 319 372
#     4  10  21  35  61  92 124 162 217 257 307 381
#
# _framework density 25.349827000000001
#
# number of rings (size 3 to 8) (size 9 to 14) (size 15 to 20)
#    0.750    1.500    0.000    5.250    8.750    2.500 
#    0.000    0.625    5.500    1.500    0.000    0.000 
#    0.000    0.000    0.000    0.000    0.000    0.000 
#
# Total GULP energy -89275.670727 kJ/mol
# GULP energy per Si atom -5579.729420 kJ/mol
# Density = 2.529213 g / cm^3
# Si number density = 25.349827 Si / 1000 Ang^3
#
#
#
# Elastic Constant Matrix: (Units=GPa)
#
#
# Indices 1 2 3 4 5 6 
#
# 1 165.3566 50.5504 29.7981 19.1840 17.1499 -2.7445
# 2 50.5504 135.3620 23.5610 15.6056 -1.3473 -15.0601
# 3 29.7981 23.5610 94.7547 13.2590 7.4969 -0.2132
# 4 19.1840 15.6056 13.2590 41.9242 -6.2047 -4.9968
# 5 17.1499 -1.3473 7.4969 -6.2047 30.3662 12.7218
# 6 -2.7445 -15.0601 -0.2132 -4.9968 12.7218 44.5186
#
#
#
# Elastic Compliance Matrix: (Units=1/GPa)
#
#
# Indices 1 2 3 4 5 6 
#
# 1 0.007876 -0.002364 -0.001039 -0.003076 -0.005279 0.000844
# 2 -0.002364 0.008954 -0.001335 -0.001423 0.000719 0.002511
# 3 -0.001039 -0.001335 0.011912 -0.003247 -0.003104 0.000064
# 4 -0.003076 -0.001423 -0.003247 0.028038 0.008149 0.000132
# 5 -0.005279 0.000719 -0.003104 0.008149 0.043206 -0.011529
# 6 0.000844 0.002511 0.000064 0.000132 -0.011529 0.026674
#
#
# Mechanical properties :
#
#
# Convention : Reuss Voigt Hill
#
# Bulk Modulus (GPa) = 51.90724 67.03247 59.46985
# Shear Modulus (GPa) = 35.07347 42.79938 38.93642
#
# Velocity S-wave (km/s) = 3.72368 4.11341 3.92339
# Velocity P-wave (km/s) = 6.24568 7.00433 6.63586
#
# Compressibility (1/GPa) = 0.01926514
#
# Stress axis : x y z
#
# Youngs Moduli (GPa) = 126.96982 111.68739 83.94731
#
# Poissons Ratio (x) = 0.26408 0.08722
# Poissons Ratio (y) = 0.30021 0.11206
# Poissons Ratio (z) = 0.13191 0.14909
#
# Static dielectric constant tensor:
#      x y z
#    x 2.111310 -0.059890 -0.079730 
#    y -0.059890 2.026730 -0.025750 
#    z -0.079730 -0.025750 2.075920 
# 
# From -- ./inp_files/341728.got.cif
#   From: 2010.05.17/outbox.cif.g08.bks.cpg/sg2_171_cif.got.tgz:341728.got - 2010.06.03 11:33:40.
