data_PCOD9084029
_publ_section_title
;
Structure prediction by ZEFSAII (Michael W. Deem and Ramdas Pophale) SiO2 
 PCOD9084029
Probable space group: P -1
;
_chemical_formula_sum "Si O2"
_cell_formula_units_Z 16
_cell_length_a 14.943050
_cell_length_b 19.323843
_cell_length_c 11.563631
_cell_angle_alpha 150.314341
_cell_angle_beta 149.358700
_cell_angle_gamma 30.580377
_cell_volume 752.851065
_symmetry_space_group_name_H-M "P -1"
_symmetry_group_IT_number 2
_symmetry_cell_setting 'triclinic'
loop_
_space_group_symop_operation_xyz
x,y,z
-x,-y,-z
loop_
_atom_site_type_symbol
_atom_site_label
_atom_site_fract_x
_atom_site_fract_y
_atom_site_fract_z
Si Si1 0.812396 0.852368 0.613383
Si Si2 0.446483 0.081385 0.381078
Si Si3 0.181720 0.401195 0.259285
Si Si4 0.658300 0.825881 0.089890
Si Si5 0.804092 0.518118 0.126585
Si Si6 0.654573 0.568020 0.267666
Si Si7 0.515549 0.365781 0.235744
Si Si8 0.930698 0.259763 0.463877
O O1 0.748474 0.906110 0.751986
O O2 0.819812 0.680694 0.371099
O O3 0.006092 0.821929 0.711226
O O4 0.630516 0.971991 0.507542
O O5 0.435680 0.251747 0.610515
O O6 0.495345 0.999635 0.191890
O O7 0.321137 0.249473 0.122114
O O8 0.263068 0.431885 0.514221
O O9 0.131644 0.554865 0.349428
O O10 0.978873 0.398933 0.068237
O O11 0.598234 0.721661 0.958760
O O12 0.872967 0.807785 0.338415
O O13 0.811314 0.475089 0.206326
O O14 0.595916 0.555374 0.892365
O O15 0.500000 0.500000 0.000000
O O16 0.500000 0.500000 0.500000
O O17 0.741668 0.252578 0.295381
#
# Coordination Sequence:
#
# PCOD9084029 Si02
#       8
#     2   2   2   2   2   2   2   2
#     4   8  16  35  61  82 115 151 193 247 292 341
#     4   9  18  37  62  80 120 161 192 239 307 343
#     4  11  20  37  59  87 120 160 196 238 299 351
#     4  11  21  38  60  89 128 152 191 251 298 359
#     4  10  20  38  62  86 117 156 200 248 293 345
#     4  11  24  38  59  87 116 161 207 245 281 359
#     4  12  20  31  60  96 123 151 189 247 304 349
#     4  10  19  34  59  92 121 152 200 244 298 344
#
# _framework density 21.252542999999999
#
# number of rings (size 3 to 8) (size 9 to 14) (size 15 to 20)
#    0.000    1.750    5.000    2.250    0.000    0.500 
#    0.000    0.625   19.250    0.750    0.000    0.000 
#    0.000    0.000    0.000    0.000    0.000    0.000 
#
# Total GULP energy -89254.362487 kJ/mol
# GULP energy per Si atom -5578.397655 kJ/mol
# Density = 2.120417 g / cm^3
# Si number density = 21.252543 Si / 1000 Ang^3
#
#
#
# Elastic Constant Matrix: (Units=GPa)
#
#
# Indices 1 2 3 4 5 6 
#
# 1 100.2921 30.9899 23.5389 -0.0893 -12.7512 -28.5211
# 2 30.9899 39.2766 15.0573 7.5213 -4.9498 -24.4465
# 3 23.5389 15.0573 59.5691 -6.1260 -8.8325 -9.8932
# 4 -0.0893 7.5213 -6.1260 33.9736 -6.8966 -2.3507
# 5 -12.7512 -4.9498 -8.8325 -6.8966 28.2407 2.1114
# 6 -28.5211 -24.4465 -9.8932 -2.3507 2.1114 36.5582
#
#
#
# Elastic Compliance Matrix: (Units=1/GPa)
#
#
# Indices 1 2 3 4 5 6 
#
# 1 0.015100 -0.006984 -0.002101 0.002689 0.005114 0.006419
# 2 -0.006984 0.052750 -0.007383 -0.011356 -0.001020 0.027156
# 3 -0.002101 -0.007383 0.020900 0.006548 0.005956 -0.000843
# 4 0.002689 -0.011356 0.006548 0.035020 0.009977 -0.002048
# 5 0.005114 -0.001020 0.005956 0.009977 0.041603 0.003158
# 6 0.006419 0.027156 -0.000843 -0.002048 0.003158 0.049979
#
#
# Mechanical properties :
#
#
# Convention : Reuss Voigt Hill
#
# Bulk Modulus (GPa) = 17.91629 37.58999 27.75314
# Shear Modulus (GPa) = 18.73417 28.39128 23.56272
#
# Velocity S-wave (km/s) = 2.97223 3.65896 3.33333
# Velocity P-wave (km/s) = 4.49748 5.96459 5.28222
#
# Compressibility (1/GPa) = 0.05581511
#
# Stress axis : x y z
#
# Youngs Moduli (GPa) = 66.22535 18.95744 47.84668
#
# Poissons Ratio (x) = 0.13240 0.10051
# Poissons Ratio (y) = 0.46251 0.35325
# Poissons Ratio (z) = 0.13911 0.13996
#
# Static dielectric constant tensor:
#      x y z
#    x 1.836860 -0.040980 -0.020590 
#    y -0.040980 1.790910 -0.001640 
#    z -0.020590 -0.001640 1.770920 
# 
# From -- ./inp_files/457794.got.cif
#   From: 2010.05.17/outbox.cif.g08.bks.cpg/sg2_229_cif.got.tgz:457794.got - 2010.06.03 11:33:40.
