data_PCOD9084551
_publ_section_title
;
Structure prediction by ZEFSAII (Michael W. Deem and Ramdas Pophale) SiO2 
 PCOD9084551
Probable space group: P -1
;
_chemical_formula_sum "Si O2"
_cell_formula_units_Z 14
_cell_length_a 12.980374
_cell_length_b 15.717547
_cell_length_c 9.840751
_cell_angle_alpha 56.120974
_cell_angle_beta 134.661178
_cell_angle_gamma 152.811527
_cell_volume 638.136304
_symmetry_space_group_name_H-M "P -1"
_symmetry_group_IT_number 2
_symmetry_cell_setting 'triclinic'
loop_
_space_group_symop_operation_xyz
x,y,z
-x,-y,-z
loop_
_atom_site_type_symbol
_atom_site_label
_atom_site_fract_x
_atom_site_fract_y
_atom_site_fract_z
Si Si1 0.621985 0.305620 0.869157
Si Si2 0.299119 0.720205 0.554029
Si Si3 0.499847 0.320617 0.439307
Si Si4 0.538013 0.002812 0.726489
Si Si5 0.974521 0.762215 0.508096
Si Si6 0.065322 0.027792 0.695231
Si Si7 0.097339 0.732596 0.919180
O O1 0.557971 0.296573 0.659065
O O2 0.834176 0.518418 0.923011
O O3 0.358294 0.154595 0.849573
O O4 0.756701 0.274359 0.019105
O O5 0.450897 0.729349 0.591584
O O6 0.464121 0.850769 0.724803
O O7 0.000000 0.500000 0.500000
O O8 0.295300 0.825103 0.374776
O O9 0.719458 0.540366 0.434237
O O10 0.193561 0.177520 0.292104
O O11 0.248522 0.884251 0.587833
O O12 0.707800 0.109781 0.925994
O O13 0.926614 0.851193 0.350464
O O14 0.018276 0.771241 0.702697
O O15 0.000000 0.000000 0.500000
#
# Coordination Sequence:
#
# PCOD9084551 Si02
#       7
#     2   2   2   2   2   2   2
#     4   9  19  35  58  84 124 153 182 239 292 343
#     4  11  21  35  56  83 117 154 195 244 280 329
#     4  10  19  35  54  82 116 147 197 234 281 335
#     4  11  21  34  56  86 116 150 194 238 290 337
#     4  11  21  35  60  88 118 151 186 238 293 350
#     4  10  20  36  55  84 121 154 188 230 290 345
#     4  10  20  35  58  90 121 148 186 238 297 348
#
# _framework density 21.938886
#
# number of rings (size 3 to 8) (size 9 to 14) (size 15 to 20)
#    0.000    1.714    4.286    1.286    0.000    5.143 
#    0.000    1.429    0.000    0.857    0.000   13.000 
#    0.000    0.000    0.000    0.000    0.000    0.000 
#
# Total GULP energy -78291.996902 kJ/mol
# GULP energy per Si atom -5592.285493 kJ/mol
# Density = 2.188895 g / cm^3
# Si number density = 21.938886 Si / 1000 Ang^3
#
#
#
# Elastic Constant Matrix: (Units=GPa)
#
#
# Indices 1 2 3 4 5 6 
#
# 1 102.9150 61.4545 21.9557 32.0393 -7.6395 9.7335
# 2 61.4545 179.8703 46.9693 33.1542 -3.2868 14.5986
# 3 21.9557 46.9693 34.7262 13.2715 -0.1466 -1.3739
# 4 32.0393 33.1542 13.2715 33.0960 -3.3332 6.2666
# 5 -7.6395 -3.2868 -0.1466 -3.3332 26.7324 12.1474
# 6 9.7335 14.5986 -1.3739 6.2666 12.1474 38.4065
#
#
#
# Elastic Compliance Matrix: (Units=1/GPa)
#
#
# Indices 1 2 3 4 5 6 
#
# 1 0.015591 -0.002367 -0.002633 -0.010758 0.004018 -0.002661
# 2 -0.002367 0.010154 -0.011495 -0.002326 0.002002 -0.003925
# 3 -0.002633 -0.011495 0.049722 -0.008694 -0.007846 0.010715
# 4 -0.010758 -0.002326 -0.008694 0.048186 0.005458 -0.006289
# 5 0.004018 0.002002 -0.007846 0.005458 0.047625 -0.018014
# 6 -0.002661 -0.003925 0.010715 -0.006289 -0.018014 0.035311
#
#
# Mechanical properties :
#
#
# Convention : Reuss Voigt Hill
#
# Bulk Modulus (GPa) = 23.54202 64.25230 43.89716
# Shear Modulus (GPa) = 19.70538 32.12246 25.91392
#
# Velocity S-wave (km/s) = 3.00024 3.83061 3.44057
# Velocity P-wave (km/s) = 4.77032 6.99395 5.98629
#
# Compressibility (1/GPa) = 0.04247725
#
# Stress axis : x y z
#
# Youngs Moduli (GPa) = 64.14017 98.48555 20.11164
#
# Poissons Ratio (x) = 0.23311 0.05295
# Poissons Ratio (y) = 0.15182 0.23118
# Poissons Ratio (z) = 0.16888 1.13209
#
# Static dielectric constant tensor:
#      x y z
#    x 1.808360 0.006320 -0.001240 
#    y 0.006320 1.828600 -0.010440 
#    z -0.001240 -0.010440 1.827600 
# 
# From -- ./inp_files/431402.got.cif
#   From: 2010.05.17/outbox.cif.g08.bks.cpg/sg2_216_cif.got.tgz:431402.got - 2010.06.03 11:33:40.
