data_PCOD9084217
_publ_section_title
;
Structure prediction by ZEFSAII (Michael W. Deem and Ramdas Pophale) SiO2 
 PCOD9084217
Probable space group: P -1
;
_chemical_formula_sum "Si O2"
_cell_formula_units_Z 16
_cell_length_a 8.745901
_cell_length_b 7.703847
_cell_length_c 13.575069
_cell_angle_alpha 124.274198
_cell_angle_beta 117.973693
_cell_angle_gamma 87.663092
_cell_volume 635.476154
_symmetry_space_group_name_H-M "P -1"
_symmetry_group_IT_number 2
_symmetry_cell_setting 'triclinic'
loop_
_space_group_symop_operation_xyz
x,y,z
-x,-y,-z
loop_
_atom_site_type_symbol
_atom_site_label
_atom_site_fract_x
_atom_site_fract_y
_atom_site_fract_z
Si Si1 0.282499 0.081635 0.182757
Si Si2 0.757312 0.255679 0.709170
Si Si3 0.091910 0.182563 0.668551
Si Si4 0.436857 0.239663 0.470275
Si Si5 0.171361 0.486792 0.484960
Si Si6 0.344504 0.941978 0.766156
Si Si7 0.040818 0.280856 0.040923
Si Si8 0.859740 0.337694 0.204112
O O1 0.390011 0.273286 0.353155
O O2 0.439137 0.986006 0.156744
O O3 0.191066 0.179433 0.098279
O O4 0.104085 0.907746 0.125697
O O5 0.628700 0.316043 0.606705
O O6 0.844041 0.470048 0.872431
O O7 0.925440 0.202677 0.691128
O O8 0.622462 0.027624 0.635492
O O9 0.179557 0.427536 0.728987
O O10 0.238693 0.110462 0.754618
O O11 0.000000 0.000000 0.500000
O O12 0.292931 0.339945 0.512913
O O13 0.281105 0.743325 0.603373
O O14 0.000000 0.500000 0.500000
O O15 0.062402 0.379223 0.321784
O O16 0.275459 0.838166 0.820089
O O17 0.900369 0.296054 0.090343
#
# Coordination Sequence:
#
# PCOD9084217 Si02
#       8
#     2   2   2   2   2   2   2   2
#     4  11  24  41  64  92 123 171 216 258 315 383
#     4  10  23  39  61  96 127 165 206 270 318 373
#     4  11  21  36  60  93 131 164 206 259 323 381
#     4  11  22  38  65  95 130 160 214 263 318 381
#     4  10  19  34  61  92 121 159 203 254 320 372
#     4  11  23  38  63  96 128 167 210 266 316 376
#     4  10  23  44  63  87 127 169 216 259 320 378
#     4  10  21  39  63  88 128 167 209 262 318 374
#
# _framework density 25.177972
#
# number of rings (size 3 to 8) (size 9 to 14) (size 15 to 20)
#    0.000    1.500    2.500    3.000    3.500    2.000 
#    2.250    2.500    0.000    0.000    0.000    0.000 
#    0.000    0.000    0.000    0.000    0.000    0.000 
#
# Total GULP energy -89297.076468 kJ/mol
# GULP energy per Si atom -5581.067279 kJ/mol
# Density = 2.512067 g / cm^3
# Si number density = 25.177972 Si / 1000 Ang^3
#
#
#
# Elastic Constant Matrix: (Units=GPa)
#
#
# Indices 1 2 3 4 5 6 
#
# 1 98.4352 43.8941 14.7027 -15.6816 28.4085 -21.7784
# 2 43.8941 154.5944 3.2264 5.3667 21.9398 -23.1217
# 3 14.7027 3.2264 92.2303 -9.4089 24.8276 -16.0538
# 4 -15.6816 5.3667 -9.4089 35.5584 -6.0968 5.8787
# 5 28.4085 21.9398 24.8276 -6.0968 46.8268 -8.9477
# 6 -21.7784 -23.1217 -16.0538 5.8787 -8.9477 42.4015
#
#
#
# Elastic Compliance Matrix: (Units=1/GPa)
#
#
# Indices 1 2 3 4 5 6 
#
# 1 0.015078 -0.002894 0.000802 0.005441 -0.006686 0.004305
# 2 -0.002894 0.008226 0.001089 -0.003203 -0.002455 0.003337
# 3 0.000802 0.001089 0.013536 0.001830 -0.007098 0.004379
# 4 0.005441 -0.003203 0.001830 0.032063 0.000925 -0.002509
# 5 -0.006686 -0.002455 -0.007098 0.000925 0.030214 -0.001213
# 6 0.004305 0.003337 0.004379 -0.002509 -0.001213 0.029365
#
#
# Mechanical properties :
#
#
# Convention : Reuss Voigt Hill
#
# Bulk Modulus (GPa) = 28.70818 52.10070 40.40444
# Shear Modulus (GPa) = 35.18608 43.85313 39.51961
#
# Velocity S-wave (km/s) = 3.74236 4.17793 3.96613
# Velocity P-wave (km/s) = 5.48640 6.63410 6.08736
#
# Compressibility (1/GPa) = 0.03483327
#
# Stress axis : x y z
#
# Youngs Moduli (GPa) = 66.31961 121.56137 73.87585
#
# Poissons Ratio (x) = 0.35182 -0.05922
# Poissons Ratio (y) = 0.19194 -0.08043
# Poissons Ratio (z) = -0.05316 -0.13234
#
# Static dielectric constant tensor:
#      x y z
#    x 2.102600 0.077260 -0.064010 
#    y 0.077260 2.129040 0.010850 
#    z -0.064010 0.010850 2.152770 
# 
# From -- ./inp_files/556627.got.cif
#   From: 2010.05.17/outbox.cif.g08.bks.cpg/sg2_279_cif.got.tgz:556627.got - 2010.06.03 11:33:40.
