data_PCOD9084082
_publ_section_title
;
Structure prediction by ZEFSAII (Michael W. Deem and Ramdas Pophale) SiO2 
 PCOD9084082
Probable space group: P -1
;
_chemical_formula_sum "Si O2"
_cell_formula_units_Z 15
_cell_length_a 14.306238
_cell_length_b 7.174842
_cell_length_c 6.942527
_cell_angle_alpha 96.722218
_cell_angle_beta 58.583445
_cell_angle_gamma 121.687318
_cell_volume 505.288616
_symmetry_space_group_name_H-M "P -1"
_symmetry_group_IT_number 2
_symmetry_cell_setting 'triclinic'
loop_
_space_group_symop_operation_xyz
x,y,z
-x,-y,-z
loop_
_atom_site_type_symbol
_atom_site_label
_atom_site_fract_x
_atom_site_fract_y
_atom_site_fract_z
Si Si1 0.480176 0.331248 0.713570
Si Si2 0.888089 0.116631 0.781125
Si Si3 0.825992 0.728024 0.558303
Si Si4 0.760114 0.257119 0.479355
Si Si5 0.687095 0.342614 0.189762
Si Si6 0.197872 0.172641 0.833408
Si Si7 0.000000 0.500000 0.500000
Si Si8 0.463218 0.198839 0.143077
O O1 0.535741 0.583107 0.759588
O O2 0.574021 0.322717 0.456568
O O3 0.342078 0.235016 0.744691
O O4 0.458285 0.197156 0.917325
O O5 0.871541 0.314097 0.763036
O O6 0.031599 0.230180 0.534397
O O7 0.800030 0.870306 0.751592
O O8 0.900650 0.054462 0.974912
O O9 0.744879 0.462371 0.588346
O O10 0.828996 0.832836 0.362951
O O11 0.742640 0.240422 0.264410
O O12 0.907427 0.350985 0.397227
O O13 0.654306 0.023797 0.659609
O O14 0.794733 0.605552 0.076066
O O15 0.599368 0.242818 0.083244
#
# Coordination Sequence:
#
# PCOD9084082 Si02
#       8
#     2   2   2   2   2   2   1   2
#     4  10  22  36  58  88 116 153 196 234 288 345
#     4  10  20  39  62  83 116 155 192 237 291 340
#     4   9  21  38  59  86 114 152 195 239 285 343
#     4  10  21  37  58  85 117 150 192 241 289 340
#     4  10  22  38  57  87 117 153 196 235 284 344
#     4  10  19  34  60  87 114 151 193 235 283 346
#     4  10  22  38  60  90 114 146 194 240 290 344
#     4  10  20  38  59  84 117 155 191 236 288 341
#
# _framework density 29.686005000000002
#
# number of rings (size 3 to 8) (size 9 to 14) (size 15 to 20)
#    0.000    2.133    0.000    3.200    0.000   11.200 
#    0.000    3.333    0.000   11.200    0.000    0.000 
#    0.000    0.000    0.000    0.000    0.000    0.000 
#
# Total GULP energy -83902.517778 kJ/mol
# GULP energy per Si atom -5593.501185 kJ/mol
# Density = 2.961844 g / cm^3
# Si number density = 29.686005 Si / 1000 Ang^3
#
#
#
# Elastic Constant Matrix: (Units=GPa)
#
#
# Indices 1 2 3 4 5 6 
#
# 1 125.1054 37.1046 34.2061 12.8876 25.1616 31.2839
# 2 37.1046 109.2422 28.3181 -14.4632 19.0986 -26.6970
# 3 34.2061 28.3181 163.6482 -13.8125 63.2639 -2.8012
# 4 12.8876 -14.4632 -13.8125 52.2402 4.9650 12.4813
# 5 25.1616 19.0986 63.2639 4.9650 65.7653 1.9570
# 6 31.2839 -26.6970 -2.8012 12.4813 1.9570 71.4122
#
#
#
# Elastic Compliance Matrix: (Units=1/GPa)
#
#
# Indices 1 2 3 4 5 6 
#
# 1 0.012485 -0.005809 -0.001573 -0.003303 -0.001116 -0.007095
# 2 -0.005809 0.013743 0.000255 0.003851 -0.002515 0.007088
# 3 -0.001573 0.000255 0.010622 0.004035 -0.010017 0.000770
# 4 -0.003303 0.003851 0.004035 0.022796 -0.005434 -0.000790
# 5 -0.001116 -0.002515 -0.010017 -0.005434 0.026428 -0.000619
# 6 -0.007095 0.007088 0.000770 -0.000790 -0.000619 0.019947
#
#
# Mechanical properties :
#
#
# Convention : Reuss Voigt Hill
#
# Bulk Modulus (GPa) = 44.25802 66.36150 55.30976
# Shear Modulus (GPa) = 39.12177 57.77467 48.44822
#
# Velocity S-wave (km/s) = 3.63416 4.41635 4.04421
# Velocity P-wave (km/s) = 5.70531 6.95763 6.36236
#
# Compressibility (1/GPa) = 0.02259478
#
# Stress axis : x y z
#
# Youngs Moduli (GPa) = 80.09535 72.76560 94.14621
#
# Poissons Ratio (x) = 0.42269 0.14813
# Poissons Ratio (y) = 0.46527 -0.02399
# Poissons Ratio (z) = 0.12602 -0.01854
#
# Static dielectric constant tensor:
#      x y z
#    x 1.696110 0.498070 -0.264410 
#    y 0.498070 1.864220 0.210210 
#    z -0.264410 0.210210 2.306850 
# 
# From -- ./inp_files/164125.got.cif
#   From: 2010.05.17/outbox.cif.g08.bks.cpg/sg2_83_cif.got.tgz:164125.got - 2010.06.03 11:33:40.
