data_PCOD9084630
_publ_section_title
;
Structure prediction by ZEFSAII (Michael W. Deem and Ramdas Pophale) SiO2 
 PCOD9084630
Probable space group: P -1
;
_chemical_formula_sum "Si O2"
_cell_formula_units_Z 12
_cell_length_a 11.132938
_cell_length_b 7.473113
_cell_length_c 9.392312
_cell_angle_alpha 96.768928
_cell_angle_beta 40.790140
_cell_angle_gamma 75.019568
_cell_volume 427.962067
_symmetry_space_group_name_H-M "P -1"
_symmetry_group_IT_number 2
_symmetry_cell_setting 'triclinic'
loop_
_space_group_symop_operation_xyz
x,y,z
-x,-y,-z
loop_
_atom_site_type_symbol
_atom_site_label
_atom_site_fract_x
_atom_site_fract_y
_atom_site_fract_z
Si Si1 0.929480 0.975803 0.402151
Si Si2 0.391290 0.881200 0.931941
Si Si3 0.005859 0.532866 0.322738
Si Si4 0.223131 0.184264 0.894784
Si Si5 0.505388 0.680285 0.103931
Si Si6 0.514486 0.702886 0.533934
O O1 0.888453 0.783454 0.419284
O O2 0.149853 0.924368 0.123411
O O3 0.000000 0.000000 0.500000
O O4 0.703592 0.195078 0.594660
O O5 0.556151 0.689817 0.665762
O O6 0.379649 0.079789 0.883855
O O7 0.456782 0.839118 0.029889
O O8 0.000000 0.500000 0.500000
O O9 0.006686 0.367004 0.190401
O O10 0.255373 0.463351 0.063011
O O11 0.304943 0.288008 0.719111
O O12 0.296848 0.950990 0.735451
O O13 0.500000 0.500000 0.000000
O O14 0.500000 0.500000 0.500000
#
# Coordination Sequence:
#
# PCOD9084630 Si02
#       6
#     2   2   2   2   2   2
#     4  10  19  35  55  86 123 165 204 242 304 374
#     4   9  18  36  59  88 123 158 211 248 307 371
#     4  12  23  37  61  92 130 163 202 260 315 368
#     4   9  21  35  59  95 119 161 215 252 311 365
#     4  11  22  35  60  92 129 166 204 251 312 379
#     4   9  18  36  63  89 119 165 214 255 303 368
#
# _framework density 28.039868999999999
#
# number of rings (size 3 to 8) (size 9 to 14) (size 15 to 20)
#    1.000    1.000    3.333    3.000    0.000    2.667 
#    0.000    0.000    0.000    2.000    8.667    0.000 
#    0.000    0.000    0.000    0.000    0.000    0.000 
#
# Total GULP energy -66830.814284 kJ/mol
# GULP energy per Si atom -5569.234524 kJ/mol
# Density = 2.797605 g / cm^3
# Si number density = 28.039869 Si / 1000 Ang^3
#
#
#
# Elastic Constant Matrix: (Units=GPa)
#
#
# Indices 1 2 3 4 5 6 
#
# 1 51.3003 20.2640 35.0865 -1.5647 9.4409 4.2156
# 2 20.2640 167.1884 62.1673 25.9121 9.0886 11.0489
# 3 35.0865 62.1673 212.6964 17.9135 15.3695 -2.3238
# 4 -1.5647 25.9121 17.9135 64.2891 -6.6734 12.1263
# 5 9.4409 9.0886 15.3695 -6.6734 59.1275 8.5714
# 6 4.2156 11.0489 -2.3238 12.1263 8.5714 36.7133
#
#
#
# Elastic Compliance Matrix: (Units=1/GPa)
#
#
# Indices 1 2 3 4 5 6 
#
# 1 0.023143 -0.001627 -0.003450 0.002511 -0.001862 -0.002781
# 2 -0.001627 0.007255 -0.001631 -0.002336 -0.000520 -0.001207
# 3 -0.003450 -0.001631 0.005997 -0.001621 -0.001244 0.002092
# 4 0.002511 -0.002336 -0.001621 0.018619 0.003444 -0.006642
# 5 -0.001862 -0.000520 -0.001244 0.003444 0.018759 -0.005226
# 6 -0.002781 -0.001207 0.002092 -0.006642 -0.005226 0.031467
#
#
# Mechanical properties :
#
#
# Convention : Reuss Voigt Hill
#
# Bulk Modulus (GPa) = 43.51648 74.02454 58.77051
# Shear Modulus (GPa) = 39.58395 52.93713 46.26054
#
# Velocity S-wave (km/s) = 3.76134 4.34974 4.06620
# Velocity P-wave (km/s) = 5.86658 7.18916 6.56128
#
# Compressibility (1/GPa) = 0.02297980
#
# Stress axis : x y z
#
# Youngs Moduli (GPa) = 43.21034 137.83706 166.76218
#
# Poissons Ratio (x) = 0.22420 0.57526
# Poissons Ratio (y) = 0.07028 0.27200
# Poissons Ratio (z) = 0.14906 0.22482
#
# Static dielectric constant tensor:
#      x y z
#    x 3.011560 0.149590 0.022030 
#    y 0.149590 2.395760 0.079150 
#    z 0.022030 0.079150 2.314900 
# 
# From -- ./inp_files/461294.got.cif
#   From: 2010.05.17/outbox.cif.g08.bks.cpg/sg2_231_cif.got.tgz:461294.got - 2010.06.03 11:33:40.
