data_PCOD9084554
_publ_section_title
;
Structure prediction by ZEFSAII (Michael W. Deem and Ramdas Pophale) SiO2 
 PCOD9084554
Probable space group: P -1
;
_chemical_formula_sum "Si O2"
_cell_formula_units_Z 16
_cell_length_a 13.534581
_cell_length_b 8.622609
_cell_length_c 8.662731
_cell_angle_alpha 105.208597
_cell_angle_beta 111.747777
_cell_angle_gamma 41.688825
_cell_volume 624.354633
_symmetry_space_group_name_H-M "P -1"
_symmetry_group_IT_number 2
_symmetry_cell_setting 'triclinic'
loop_
_space_group_symop_operation_xyz
x,y,z
-x,-y,-z
loop_
_atom_site_type_symbol
_atom_site_label
_atom_site_fract_x
_atom_site_fract_y
_atom_site_fract_z
Si Si1 0.362643 0.059955 0.516867
Si Si2 0.755265 0.285184 0.686513
Si Si3 0.324082 0.308662 0.864764
Si Si4 0.412873 0.702407 0.654010
Si Si5 0.339212 0.986279 0.986341
Si Si6 0.935764 0.205037 0.288797
Si Si7 0.930747 0.477971 0.595393
Si Si8 0.045013 0.176898 0.850751
O O1 0.315927 0.202254 0.684133
O O2 0.218809 0.258922 0.377422
O O3 0.500000 0.000000 0.500000
O O4 0.406701 0.836013 0.541652
O O5 0.592969 0.466123 0.729559
O O6 0.689693 0.329635 0.484790
O O7 0.862824 0.323030 0.800582
O O8 0.883110 0.003816 0.706719
O O9 0.175150 0.585052 0.841247
O O10 0.330945 0.184336 0.984669
O O11 0.486050 0.222887 0.905961
O O12 0.347924 0.868968 0.804816
O O13 0.187686 0.085896 0.012632
O O14 0.914025 0.319837 0.467640
O O15 0.896510 0.061203 0.234359
O O16 0.000000 0.500000 0.500000
O O17 0.036094 0.331298 0.763636
#
# Coordination Sequence:
#
# PCOD9084554 Si02
#       8
#     2   2   2   2   2   2   2   2
#     4  10  20  34  57  81 108 139 181 232 276 327
#     4   9  20  33  53  79 118 143 181 228 276 337
#     4   9  20  39  56  84 111 143 190 231 273 333
#     4  10  19  35  54  83 114 148 178 225 289 325
#     4  10  20  35  62  81 107 150 188 229 275 329
#     4   9  19  32  52  76 111 140 185 226 265 327
#     4  11  19  31  53  81 111 139 182 230 276 325
#     4  10  20  32  55  81 110 146 184 227 276 323
#
# _framework density 25.626463999999999
#
# number of rings (size 3 to 8) (size 9 to 14) (size 15 to 20)
#    0.750    1.500    0.000    4.875    1.750    0.500 
#    2.250    0.625    0.000   15.000    0.000    0.000 
#    0.000    0.000    0.000    0.000    0.000    0.000 
#
# Total GULP energy -89138.571974 kJ/mol
# GULP energy per Si atom -5571.160748 kJ/mol
# Density = 2.556814 g / cm^3
# Si number density = 25.626464 Si / 1000 Ang^3
#
#
#
# Elastic Constant Matrix: (Units=GPa)
#
#
# Indices 1 2 3 4 5 6 
#
# 1 123.6016 42.4067 19.5583 -10.1575 40.3010 -25.8195
# 2 42.4067 159.8801 25.8201 -34.3164 12.5773 -27.2759
# 3 19.5583 25.8201 57.9239 -2.9983 21.7535 -14.7460
# 4 -10.1575 -34.3164 -2.9983 30.7017 -11.7745 19.3570
# 5 40.3010 12.5773 21.7535 -11.7745 38.4096 -13.6995
# 6 -25.8195 -27.2759 -14.7460 19.3570 -13.6995 34.3380
#
#
#
# Elastic Compliance Matrix: (Units=1/GPa)
#
#
# Indices 1 2 3 4 5 6 
#
# 1 0.016183 -0.004810 0.005920 -0.013685 -0.019025 0.011014
# 2 -0.004810 0.010529 -0.006252 0.014596 0.008646 -0.002716
# 3 0.005920 -0.006252 0.028650 -0.019344 -0.021251 0.014215
# 4 -0.013685 0.014596 -0.019344 0.079031 0.030750 -0.039287
# 5 -0.019025 0.008646 -0.021251 0.030750 0.061253 -0.009460
# 6 0.011014 -0.002716 0.014215 -0.039287 -0.009460 0.059724
#
#
# Mechanical properties :
#
#
# Convention : Reuss Voigt Hill
#
# Bulk Modulus (GPa) = 22.18349 57.44176 39.81263
# Shear Modulus (GPa) = 17.81372 37.59789 27.70581
#
# Velocity S-wave (km/s) = 2.63939 3.83450 3.29164
# Velocity P-wave (km/s) = 4.23837 6.48600 5.47868
#
# Compressibility (1/GPa) = 0.04507856
#
# Stress axis : x y z
#
# Youngs Moduli (GPa) = 61.79176 94.97142 34.90363
#
# Poissons Ratio (x) = 0.45683 -0.20664
# Poissons Ratio (y) = 0.29723 0.21823
# Poissons Ratio (z) = -0.36582 0.59380
#
# Static dielectric constant tensor:
#      x y z
#    x 2.102470 -0.070100 0.022670 
#    y -0.070100 1.981510 0.022810 
#    z 0.022670 0.022810 2.057340 
# 
# From -- ./inp_files/444762.got.cif
#   From: 2010.05.17/outbox.cif.g08.bks.cpg/sg2_223_cif.got.tgz:444762.got - 2010.06.03 11:33:40.
