data_PCOD9084253
_publ_section_title
;
Structure prediction by ZEFSAII (Michael W. Deem and Ramdas Pophale) SiO2 
 PCOD9084253
Probable space group: P -1
;
_chemical_formula_sum "Si O2"
_cell_formula_units_Z 14
_cell_length_a 11.357732
_cell_length_b 8.067462
_cell_length_c 12.524475
_cell_angle_alpha 88.681277
_cell_angle_beta 55.889610
_cell_angle_gamma 131.452621
_cell_volume 549.951962
_symmetry_space_group_name_H-M "P -1"
_symmetry_group_IT_number 2
_symmetry_cell_setting 'triclinic'
loop_
_space_group_symop_operation_xyz
x,y,z
-x,-y,-z
loop_
_atom_site_type_symbol
_atom_site_label
_atom_site_fract_x
_atom_site_fract_y
_atom_site_fract_z
Si Si1 0.404609 0.694283 0.757580
Si Si2 0.347255 0.550994 0.460014
Si Si3 0.658631 0.982119 0.925887
Si Si4 0.882339 0.417216 0.260147
Si Si5 0.789223 0.575652 0.909734
Si Si6 0.801824 0.806334 0.265161
Si Si7 0.926493 0.239249 0.557744
O O1 0.288680 0.739777 0.754023
O O2 0.284520 0.423819 0.763290
O O3 0.700915 0.974494 0.600832
O O4 0.315132 0.600940 0.925322
O O5 0.272246 0.641577 0.565939
O O6 0.637295 0.801948 0.305561
O O7 0.265766 0.319344 0.579726
O O8 0.188734 0.397282 0.434612
O O9 0.805738 0.099701 0.738522
O O10 0.442652 0.641896 0.048893
O O11 0.881409 0.236629 0.887578
O O12 0.500000 0.000000 0.000000
O O13 0.002654 0.358006 0.234209
O O14 0.919903 0.869968 0.870270
O O15 0.000000 0.500000 0.500000
#
# Coordination Sequence:
#
# PCOD9084253 Si02
#       7
#     2   2   2   2   2   2   2
#     4  10  21  37  56  86 121 145 189 240 285 340
#     4   9  21  41  55  81 120 148 195 232 280 342
#     4   8  17  37  54  85 116 141 189 239 281 337
#     4   9  18  36  60  82 114 147 190 243 277 327
#     4  10  19  34  62  84 114 148 192 237 289 333
#     4  10  21  39  57  82 118 157 187 227 286 353
#     4  10  21  38  61  84 115 150 193 242 288 334
#
# _framework density 25.456769000000001
#
# number of rings (size 3 to 8) (size 9 to 14) (size 15 to 20)
#    0.000    2.571    0.000    0.857    2.000    1.143 
#   20.571   12.857    0.000    0.000    0.000    0.000 
#    0.000    0.000    0.000    0.000    0.000    0.000 
#
# Total GULP energy -78154.048513 kJ/mol
# GULP energy per Si atom -5582.432037 kJ/mol
# Density = 2.539883 g / cm^3
# Si number density = 25.456769 Si / 1000 Ang^3
#
#
#
# Elastic Constant Matrix: (Units=GPa)
#
#
# Indices 1 2 3 4 5 6 
#
# 1 106.0566 30.2142 21.7961 -21.3549 -28.6929 20.6664
# 2 30.2142 117.8882 33.6650 -40.1762 -13.0559 7.2410
# 3 21.7961 33.6650 62.7174 -19.1972 -7.9858 9.7734
# 4 -21.3549 -40.1762 -19.1972 48.7690 5.9549 -14.1050
# 5 -28.6929 -13.0559 -7.9858 5.9549 32.7254 -7.0354
# 6 20.6664 7.2410 9.7734 -14.1050 -7.0354 42.3637
#
#
#
# Elastic Compliance Matrix: (Units=1/GPa)
#
#
# Indices 1 2 3 4 5 6 
#
# 1 0.014047 -0.000928 -0.001768 0.002337 0.010272 -0.003802
# 2 -0.000928 0.013129 -0.003986 0.009313 0.002319 0.002614
# 3 -0.001768 -0.003986 0.020071 0.003201 0.000768 -0.001893
# 4 0.002337 0.009313 0.003201 0.032407 0.002304 0.007702
# 5 0.010272 0.002319 0.000768 0.002304 0.040673 0.001937
# 6 -0.003802 0.002614 -0.001893 0.007702 0.001937 0.028336
#
#
# Mechanical properties :
#
#
# Convention : Reuss Voigt Hill
#
# Bulk Modulus (GPa) = 29.51318 50.89032 40.20175
# Shear Modulus (GPa) = 28.84806 38.17075 33.50940
#
# Velocity S-wave (km/s) = 3.36998 3.87645 3.63206
# Velocity P-wave (km/s) = 5.17310 6.33010 5.78062
#
# Compressibility (1/GPa) = 0.03388316
#
# Stress axis : x y z
#
# Youngs Moduli (GPa) = 71.18942 76.16781 49.82215
#
# Poissons Ratio (x) = 0.07067 0.08809
# Poissons Ratio (y) = 0.06605 0.19860
# Poissons Ratio (z) = 0.12587 0.30362
#
# Static dielectric constant tensor:
#      x y z
#    x 2.066910 0.018410 -0.042480 
#    y 0.018410 2.102130 -0.020590 
#    z -0.042480 -0.020590 2.046870 
# 
# From -- ./inp_files/155532.got.cif
#   From: 2010.05.17/outbox.cif.g08.bks.cpg/sg2_78_cif.got.tgz:155532.got - 2010.06.03 11:33:40.
