data_PCOD9084768
_publ_section_title
;
Structure prediction by ZEFSAII (Michael W. Deem and Ramdas Pophale) SiO2 
 PCOD9084768
Probable space group: P -1
;
_chemical_formula_sum "Si O2"
_cell_formula_units_Z 16
_cell_length_a 6.734632
_cell_length_b 19.072374
_cell_length_c 9.070663
_cell_angle_alpha 66.317141
_cell_angle_beta 129.844098
_cell_angle_gamma 89.057381
_cell_volume 754.542177
_symmetry_space_group_name_H-M "P -1"
_symmetry_group_IT_number 2
_symmetry_cell_setting 'triclinic'
loop_
_space_group_symop_operation_xyz
x,y,z
-x,-y,-z
loop_
_atom_site_type_symbol
_atom_site_label
_atom_site_fract_x
_atom_site_fract_y
_atom_site_fract_z
Si Si1 0.451163 0.089070 0.080386
Si Si2 0.064671 0.180399 0.390988
Si Si3 0.847248 0.914753 0.782361
Si Si4 0.972932 0.945795 0.307223
Si Si5 0.687265 0.506490 0.219448
Si Si6 0.519668 0.207968 0.786844
Si Si7 0.682868 0.337218 0.887613
Si Si8 0.805216 0.440977 0.632050
O O1 0.376468 0.096176 0.207423
O O2 0.747364 0.016633 0.243226
O O3 0.213934 0.066640 0.903429
O O4 0.448717 0.172197 0.935127
O O5 0.177925 0.114691 0.368505
O O6 0.924079 0.138509 0.477658
O O7 0.312683 0.196911 0.577392
O O8 0.862190 0.263915 0.144840
O O9 0.836652 0.007881 0.701145
O O10 0.157575 0.852817 0.038504
O O11 0.508342 0.587145 0.164819
O O12 0.772067 0.433212 0.445760
O O13 0.963084 0.518841 0.282083
O O14 0.500000 0.500000 0.000000
O O15 0.504003 0.299706 0.732331
O O16 0.872647 0.363267 0.839727
O O17 0.500000 0.500000 0.500000
#
# Coordination Sequence:
#
# PCOD9084768 Si02
#       8
#     2   2   2   2   2   2   2   2
#     4   9  18  34  56  77 108 152 199 249 297 345
#     4  10  21  36  54  81 116 152 193 244 298 350
#     4  10  19  35  57  78 105 152 206 251 296 346
#     4   9  18  34  53  78 111 150 197 249 300 347
#     4  10  22  41  68  98 120 150 198 241 288 354
#     4   9  21  39  53  78 119 154 192 243 297 349
#     4  10  22  39  60  85 121 158 187 235 295 357
#     4   9  21  41  63  89 122 155 189 235 289 349
#
# _framework density 21.204912
#
# number of rings (size 3 to 8) (size 9 to 14) (size 15 to 20)
#    0.000    2.500    0.000    1.500    0.000    8.500 
#    0.000   13.750    0.000    0.000    0.000    0.000 
#    0.000    0.000    0.000    0.000    0.000    0.000 
#
# Total GULP energy -89335.302625 kJ/mol
# GULP energy per Si atom -5583.456414 kJ/mol
# Density = 2.115665 g / cm^3
# Si number density = 21.204912 Si / 1000 Ang^3
#
#
#
# Elastic Constant Matrix: (Units=GPa)
#
#
# Indices 1 2 3 4 5 6 
#
# 1 92.7399 27.5056 21.6992 5.9992 -6.9306 21.4039
# 2 27.5056 78.8984 31.1257 10.2854 -2.8502 16.2978
# 3 21.6992 31.1257 99.1844 11.3306 -9.1559 14.2255
# 4 5.9992 10.2854 11.3306 38.8059 9.0270 0.3983
# 5 -6.9306 -2.8502 -9.1559 9.0270 22.1796 -3.7253
# 6 21.4039 16.2978 14.2255 0.3983 -3.7253 19.1383
#
#
#
# Elastic Compliance Matrix: (Units=1/GPa)
#
#
# Indices 1 2 3 4 5 6 
#
# 1 0.015092 -0.001777 -0.000097 -0.002369 0.002947 -0.014669
# 2 -0.001777 0.017044 -0.003146 -0.003206 -0.000061 -0.010133
# 3 -0.000097 -0.003146 0.012893 -0.004171 0.005643 -0.005610
# 4 -0.002369 -0.003206 -0.004171 0.031623 -0.014918 0.004917
# 5 0.002947 -0.000061 0.005643 -0.014918 0.055002 0.003578
# 6 -0.014669 -0.010133 -0.005610 0.004917 0.003578 0.082051
#
#
# Mechanical properties :
#
#
# Convention : Reuss Voigt Hill
#
# Bulk Modulus (GPa) = 28.58160 47.94263 38.26212
# Shear Modulus (GPa) = 21.23975 28.72425 24.98200
#
# Velocity S-wave (km/s) = 3.16831 3.68449 3.43610
# Velocity P-wave (km/s) = 5.18577 6.38427 5.81598
#
# Compressibility (1/GPa) = 0.03498754
#
# Stress axis : x y z
#
# Youngs Moduli (GPa) = 66.26055 58.67077 77.56329
#
# Poissons Ratio (x) = 0.10429 0.00755
# Poissons Ratio (y) = 0.11778 0.24401
# Poissons Ratio (z) = 0.00645 0.18457
#
# Static dielectric constant tensor:
#      x y z
#    x 1.756100 0.021580 0.005800 
#    y 0.021580 1.783010 -0.031830 
#    z 0.005800 -0.031830 1.830060 
# 
# From -- ./inp_files/141313.got.cif
#   From: 2010.05.17/outbox.cif.g08.bks.cpg/sg2_71_cif.got.tgz:141313.got - 2010.06.03 11:33:40.
