data_PCOD9084778
_publ_section_title
;
Structure prediction by ZEFSAII (Michael W. Deem and Ramdas Pophale) SiO2 
 PCOD9084778
Probable space group: P -1
;
_chemical_formula_sum "Si O2"
_cell_formula_units_Z 14
_cell_length_a 27.816465
_cell_length_b 5.194612
_cell_length_c 9.501207
_cell_angle_alpha 112.466349
_cell_angle_beta 34.576171
_cell_angle_gamma 96.214854
_cell_volume 661.883238
_symmetry_space_group_name_H-M "P -1"
_symmetry_group_IT_number 2
_symmetry_cell_setting 'triclinic'
loop_
_space_group_symop_operation_xyz
x,y,z
-x,-y,-z
loop_
_atom_site_type_symbol
_atom_site_label
_atom_site_fract_x
_atom_site_fract_y
_atom_site_fract_z
Si Si1 0.554901 0.639985 0.298435
Si Si2 0.178372 0.175224 0.158890
Si Si3 0.004389 0.622256 0.172717
Si Si4 0.937700 0.802268 0.806880
Si Si5 0.708477 0.440627 0.102137
Si Si6 0.594152 0.431555 0.845681
Si Si7 0.389658 0.173751 0.322654
O O1 0.500000 0.500000 0.500000
O O2 0.655451 0.518000 0.099270
O O3 0.500000 0.000000 0.500000
O O4 0.564742 0.523971 0.092887
O O5 0.094063 0.298867 0.497378
O O6 0.146815 0.055214 0.068426
O O7 0.210972 0.436342 0.083099
O O8 0.255955 0.899110 0.996451
O O9 0.072485 0.351425 0.053318
O O10 0.024778 0.931208 0.197737
O O11 0.000000 0.500000 0.000000
O O12 0.000000 0.500000 0.500000
O O13 0.635240 0.638966 0.436275
O O14 0.643883 0.619857 0.689532
O O15 0.651685 0.077743 0.622034
O O16 0.500000 0.500000 0.000000
O O17 0.500000 0.000000 0.000000
#
# Coordination Sequence:
#
# PCOD9084778 Si02
#       7
#     2   2   2   2   2   2   2
#     4  12  23  39  61  86 117 165 216 257 317 389
#     4  11  23  42  63  95 129 162 208 256 317 384
#     4  11  22  41  71 100 132 170 210 257 309 384
#     4  10  20  40  68  96 128 176 216 245 303 401
#     4  12  24  40  62  90 125 163 204 274 324 360
#     4  10  19  35  57  80 105 142 201 261 294 356
#     4  10  20  37  57  79 109 152 204 246 298 362
#
# _framework density 21.151769000000002
#
# number of rings (size 3 to 8) (size 9 to 14) (size 15 to 20)
#    0.000    1.143    0.000   10.714    0.000    0.000 
#    0.000    8.571    0.000    0.000    0.000    0.000 
#    0.000    0.000    0.000    0.000    0.000    0.000 
#
# Total GULP energy -78106.347465 kJ/mol
# GULP energy per Si atom -5579.024819 kJ/mol
# Density = 2.110363 g / cm^3
# Si number density = 21.151769 Si / 1000 Ang^3
#
#
#
# Elastic Constant Matrix: (Units=GPa)
#
#
# Indices 1 2 3 4 5 6 
#
# 1 129.3467 18.8900 34.2228 0.3177 38.1251 -17.4398
# 2 18.8900 139.8690 6.6294 -3.4920 10.0052 -24.2362
# 3 34.2228 6.6294 67.1942 -2.7052 24.1494 -2.7559
# 4 0.3177 -3.4920 -2.7052 29.3363 -3.6940 -2.7676
# 5 38.1251 10.0052 24.1494 -3.6940 38.8632 -4.4886
# 6 -17.4398 -24.2362 -2.7559 -2.7676 -4.4886 37.6515
#
#
#
# Elastic Compliance Matrix: (Units=1/GPa)
#
#
# Indices 1 2 3 4 5 6 
#
# 1 0.011774 -0.000129 -0.002387 -0.001211 -0.009693 0.003951
# 2 -0.000129 0.008183 -0.000032 0.001302 -0.001241 0.005153
# 3 -0.002387 -0.000032 0.019648 0.000508 -0.009907 -0.000832
# 4 -0.001211 0.001302 0.000508 0.035162 0.004273 0.003409
# 5 -0.009693 -0.001241 -0.009907 0.004273 0.042042 -0.000688
# 6 0.003951 0.005153 -0.000832 0.003409 -0.000688 0.031814
#
#
# Mechanical properties :
#
#
# Convention : Reuss Voigt Hill
#
# Bulk Modulus (GPa) = 28.97796 50.65493 39.81644
# Shear Modulus (GPa) = 30.26221 39.61472 34.93847
#
# Velocity S-wave (km/s) = 3.78659 4.33237 4.06864
# Velocity P-wave (km/s) = 5.73127 7.00187 6.39819
#
# Compressibility (1/GPa) = 0.03450899
#
# Stress axis : x y z
#
# Youngs Moduli (GPa) = 84.93059 122.20966 50.89558
#
# Poissons Ratio (x) = 0.01579 0.12150
# Poissons Ratio (y) = 0.01098 0.00161
# Poissons Ratio (z) = 0.20275 0.00386
#
# Static dielectric constant tensor:
#      x y z
#    x 1.468400 0.225370 -0.334450 
#    y 0.225370 1.671020 0.226080 
#    z -0.334450 0.226080 1.537380 
# 
# From -- ./inp_files/356054.got.cif
#   From: 2010.05.17/outbox.cif.g08.bks.cpg/sg2_179_cif.got.tgz:356054.got - 2010.06.03 11:33:40.
