data_PCOD9084832
_publ_section_title
;
Structure prediction by ZEFSAII (Michael W. Deem and Ramdas Pophale) SiO2 
 PCOD9084832
Probable space group: P -1
;
_chemical_formula_sum "Si O2"
_cell_formula_units_Z 16
_cell_length_a 9.970551
_cell_length_b 16.107510
_cell_length_c 7.168158
_cell_angle_alpha 44.973119
_cell_angle_beta 120.509201
_cell_angle_gamma 132.773119
_cell_volume 596.431889
_symmetry_space_group_name_H-M "P -1"
_symmetry_group_IT_number 2
_symmetry_cell_setting 'triclinic'
loop_
_space_group_symop_operation_xyz
x,y,z
-x,-y,-z
loop_
_atom_site_type_symbol
_atom_site_label
_atom_site_fract_x
_atom_site_fract_y
_atom_site_fract_z
Si Si1 0.251208 0.154617 0.169732
Si Si2 0.654269 0.339402 0.274768
Si Si3 0.047768 0.428593 0.367013
Si Si4 0.974039 0.226123 0.979461
Si Si5 0.745201 0.698544 0.379063
Si Si6 0.601608 0.438808 0.438628
Si Si7 0.253342 0.885195 0.669956
Si Si8 0.650345 0.085353 0.740615
O O1 0.472434 0.254557 0.159660
O O2 0.145955 0.207543 0.137861
O O3 0.211487 0.008225 0.440199
O O4 0.183826 0.160834 0.904051
O O5 0.635935 0.440121 0.242518
O O6 0.632242 0.213717 0.587819
O O7 0.858461 0.418380 0.205969
O O8 0.102853 0.340128 0.414934
O O9 0.240254 0.568832 0.322416
O O10 0.015058 0.350315 0.670362
O O11 0.894292 0.228834 0.116718
O O12 0.806195 0.092635 0.966664
O O13 0.632274 0.579308 0.328774
O O14 0.604791 0.675028 0.476532
O O15 0.280670 0.869003 0.496597
O O16 0.454564 0.948339 0.804399
#
# Coordination Sequence:
#
# PCOD9084832 Si02
#       8
#     2   2   2   2   2   2   2   2
#     4  10  21  37  52  87 119 141 194 243 274 348
#     4  10  19  35  57  83 116 145 190 240 280 335
#     4   8  17  35  59  81 114 149 191 229 282 351
#     4  10  19  38  59  83 118 154 189 230 295 338
#     4   8  18  36  57  81 110 149 190 232 288 343
#     4   9  17  36  63  78 111 154 190 233 288 340
#     4  10  20  39  60  83 119 147 194 239 284 333
#     4   9  21  39  58  85 114 155 191 236 281 349
#
# _framework density 26.826198999999999
#
# number of rings (size 3 to 8) (size 9 to 14) (size 15 to 20)
#    0.750    2.000    0.000    1.125    0.000    1.000 
#   24.750    0.625    0.000    0.000    0.000    0.000 
#    0.000    0.000    0.000    0.000    0.000    0.000 
#
# Total GULP energy -89298.199132 kJ/mol
# GULP energy per Si atom -5581.137446 kJ/mol
# Density = 2.676514 g / cm^3
# Si number density = 26.826199 Si / 1000 Ang^3
#
#
#
# Elastic Constant Matrix: (Units=GPa)
#
#
# Indices 1 2 3 4 5 6 
#
# 1 151.7573 29.9141 39.7062 7.4649 1.4686 42.8061
# 2 29.9141 59.4495 25.3006 11.8695 -3.8138 7.1772
# 3 39.7062 25.3006 78.4225 9.3950 12.0173 6.7576
# 4 7.4649 11.8695 9.3950 20.4603 -1.2976 -3.2389
# 5 1.4686 -3.8138 12.0173 -1.2976 35.0742 -3.7484
# 6 42.8061 7.1772 6.7576 -3.2389 -3.7484 37.9436
#
#
#
# Elastic Compliance Matrix: (Units=1/GPa)
#
#
# Indices 1 2 3 4 5 6 
#
# 1 0.011653 -0.002238 -0.003552 -0.003358 -0.000971 -0.012473
# 2 -0.002238 0.022632 -0.005504 -0.009727 0.003950 -0.001216
# 3 -0.003552 -0.005504 0.017724 -0.003923 -0.006571 0.000908
# 4 -0.003358 -0.009727 -0.003923 0.059661 0.003896 0.011805
# 5 -0.000971 0.003950 -0.006571 0.003896 0.031911 0.005004
# 6 -0.012473 -0.001216 0.000908 0.011805 0.005004 0.041997
#
#
# Mechanical properties :
#
#
# Convention : Reuss Voigt Hill
#
# Bulk Modulus (GPa) = 33.98856 53.27457 43.63157
# Shear Modulus (GPa) = 22.93885 31.67619 27.30752
#
# Velocity S-wave (km/s) = 2.92737 3.44000 3.19398
# Velocity P-wave (km/s) = 4.91156 5.97330 5.46826
#
# Compressibility (1/GPa) = 0.02942166
#
# Stress axis : x y z
#
# Youngs Moduli (GPa) = 85.81684 44.18590 56.42061
#
# Poissons Ratio (x) = 0.09888 0.20040
# Poissons Ratio (y) = 0.19204 0.31051
# Poissons Ratio (z) = 0.30482 0.24318
#
# Static dielectric constant tensor:
#      x y z
#    x 2.135530 0.029110 -0.011600 
#    y 0.029110 2.209060 0.023150 
#    z -0.011600 0.023150 2.127840 
# 
# From -- ./inp_files/221868.got.cif
#   From: 2010.05.17/outbox.cif.g08.bks.cpg/sg2_111_cif.got.tgz:221868.got - 2010.06.03 11:33:40.
