data_PCOD9084220
_publ_section_title
;
Structure prediction by ZEFSAII (Michael W. Deem and Ramdas Pophale) SiO2 
 PCOD9084220
Probable space group: P -1
;
_chemical_formula_sum "Si O2"
_cell_formula_units_Z 14
_cell_length_a 12.045799
_cell_length_b 11.508254
_cell_length_c 16.348374
_cell_angle_alpha 152.606349
_cell_angle_beta 40.355627
_cell_angle_gamma 120.490998
_cell_volume 555.767784
_symmetry_space_group_name_H-M "P -1"
_symmetry_group_IT_number 2
_symmetry_cell_setting 'triclinic'
loop_
_space_group_symop_operation_xyz
x,y,z
-x,-y,-z
loop_
_atom_site_type_symbol
_atom_site_label
_atom_site_fract_x
_atom_site_fract_y
_atom_site_fract_z
Si Si1 0.283578 0.415867 0.360317
Si Si2 0.883906 0.039137 0.478306
Si Si3 0.990152 0.931543 0.059072
Si Si4 0.149172 0.484126 0.073494
Si Si5 0.832947 0.549558 0.729572
Si Si6 0.501419 0.002276 0.333289
Si Si7 0.398942 0.636588 0.731283
O O1 0.294169 0.321488 0.202364
O O2 0.474965 0.268868 0.224318
O O3 0.068744 0.463714 0.542834
O O4 0.223996 0.762027 0.604349
O O5 0.888466 0.260005 0.680518
O O6 0.862955 0.225729 0.526792
O O7 0.679890 0.044862 0.611570
O O8 0.074867 0.683427 0.157104
O O9 0.167905 0.900515 0.997303
O O10 0.991882 0.635068 0.894073
O O11 0.000000 0.000000 0.000000
O O12 0.381972 0.186125 0.767358
O O13 0.686467 0.805435 0.039418
O O14 0.410103 0.357535 0.596477
O O15 0.500000 0.500000 0.500000
#
# Coordination Sequence:
#
# PCOD9084220 Si02
#       7
#     2   2   2   2   2   2   2
#     4  11  24  44  62  95 136 161 212 261 323 382
#     4  10  21  38  63  94 124 164 219 252 311 380
#     4  12  21  39  63  92 124 163 213 262 314 368
#     4  10  19  34  61  93 121 159 209 262 306 361
#     4  10  23  43  66  91 134 174 197 270 322 371
#     4  11  21  40  66  96 121 159 222 261 309 372
#     4  12  23  36  68  97 120 167 214 266 313 373
#
# _framework density 25.190376000000001
#
# number of rings (size 3 to 8) (size 9 to 14) (size 15 to 20)
#    0.000    1.143    4.286    4.286    0.000    0.000 
#    0.000   16.429    0.000    0.000    0.000    0.000 
#    0.000    0.000    0.000    0.000    0.000    0.000 
#
# Total GULP energy -78191.339643 kJ/mol
# GULP energy per Si atom -5585.095689 kJ/mol
# Density = 2.513304 g / cm^3
# Si number density = 25.190376 Si / 1000 Ang^3
#
#
#
# Elastic Constant Matrix: (Units=GPa)
#
#
# Indices 1 2 3 4 5 6 
#
# 1 172.9144 61.8059 34.8739 10.0041 -34.2473 7.8921
# 2 61.8059 129.5119 40.7698 45.8391 -9.5467 16.0195
# 3 34.8739 40.7698 51.0350 33.1743 -32.0300 -22.4254
# 4 10.0041 45.8391 33.1743 50.7925 -17.2503 -5.3105
# 5 -34.2473 -9.5467 -32.0300 -17.2503 41.2434 7.1504
# 6 7.8921 16.0195 -22.4254 -5.3105 7.1504 43.2109
#
#
#
# Elastic Compliance Matrix: (Units=1/GPa)
#
#
# Indices 1 2 3 4 5 6 
#
# 1 0.009501 -0.005858 -0.001597 0.007244 0.008480 -0.000905
# 2 -0.005858 0.032270 -0.054999 -0.008429 -0.037698 -0.034234
# 3 -0.001597 -0.054999 0.198889 -0.032188 0.109280 0.101861
# 4 0.007244 -0.008429 -0.032188 0.045877 -0.000143 -0.009241
# 5 0.008480 -0.037698 0.109280 -0.000143 0.098204 0.052873
# 6 -0.000905 -0.034234 0.101861 -0.009241 0.052873 0.078977
#
#
# Mechanical properties :
#
#
# Convention : Reuss Voigt Hill
#
# Bulk Modulus (GPa) = 8.63918 69.81782 39.22850
# Shear Modulus (GPa) = 7.97181 41.45013 24.71097
#
# Velocity S-wave (km/s) = 1.78087 4.06085 3.13544
# Velocity P-wave (km/s) = 2.76869 7.05433 5.35860
#
# Compressibility (1/GPa) = 0.11575172
#
# Stress axis : x y z
#
# Youngs Moduli (GPa) = 105.25271 30.98892 5.02792
#
# Poissons Ratio (x) = 0.18154 0.00803
# Poissons Ratio (y) = 0.61660 0.27653
# Poissons Ratio (z) = 0.16806 1.70436
#
# Static dielectric constant tensor:
#      x y z
#    x 2.087890 -0.040050 -0.018770 
#    y -0.040050 2.059520 0.009170 
#    z -0.018770 0.009170 2.017580 
# 
# From -- ./inp_files/568943.got.cif
#   From: 2010.05.17/outbox.cif.g08.bks.cpg/sg2_285_cif.got.tgz:568943.got - 2010.06.03 11:33:40.
