data_PCOD9084695
_publ_section_title
;
Structure prediction by ZEFSAII (Michael W. Deem and Ramdas Pophale) SiO2 
 PCOD9084695
Probable space group: P -1
;
_chemical_formula_sum "Si O2"
_cell_formula_units_Z 16
_cell_length_a 10.160802
_cell_length_b 15.249106
_cell_length_c 9.180407
_cell_angle_alpha 40.052515
_cell_angle_beta 96.080375
_cell_angle_gamma 116.031635
_cell_volume 754.592353
_symmetry_space_group_name_H-M "P -1"
_symmetry_group_IT_number 2
_symmetry_cell_setting 'triclinic'
loop_
_space_group_symop_operation_xyz
x,y,z
-x,-y,-z
loop_
_atom_site_type_symbol
_atom_site_label
_atom_site_fract_x
_atom_site_fract_y
_atom_site_fract_z
Si Si1 0.149991 0.289025 0.668999
Si Si2 0.383792 0.757489 0.702499
Si Si3 0.405476 0.522817 0.589373
Si Si4 0.883052 0.013661 0.831795
Si Si5 0.646611 0.555985 0.789168
Si Si6 0.732808 0.037408 0.502027
Si Si7 0.514608 0.872515 0.257352
Si Si8 0.185673 0.072009 0.616646
O O1 0.220187 0.402568 0.675130
O O2 0.242509 0.396331 0.402038
O O3 0.966364 0.171285 0.747605
O O4 0.192168 0.154021 0.875233
O O5 0.264076 0.796981 0.710785
O O6 0.406077 0.808307 0.471633
O O7 0.555244 0.886061 0.632775
O O8 0.346321 0.578272 0.950189
O O9 0.500000 0.500000 0.500000
O O10 0.471631 0.490822 0.785497
O O11 0.458548 0.709231 0.367248
O O12 0.770548 0.012247 0.700891
O O13 0.026973 0.025427 0.741226
O O14 0.715994 0.731016 0.651363
O O15 0.843216 0.028078 0.407154
O O16 0.692646 0.947012 0.246250
O O17 0.500000 0.000000 0.000000
#
# Coordination Sequence:
#
# PCOD9084695 Si02
#       8
#     2   2   2   2   2   2   2   2
#     4   9  19  31  53  82 108 143 185 226 268 321
#     4  10  22  36  56  84 112 143 180 230 289 334
#     4   9  18  33  58  85 110 145 184 230 277 322
#     4  10  19  35  56  82 115 149 190 231 271 322
#     4   9  18  35  54  80 114 140 180 234 276 323
#     4  10  21  36  57  82 109 147 186 227 278 335
#     4  10  22  38  58  86 117 143 178 233 289 334
#     4   9  20  36  58  84 109 146 189 229 272 330
#
# _framework density 21.203500999999999
#
# number of rings (size 3 to 8) (size 9 to 14) (size 15 to 20)
#    0.000    2.500    0.000    1.875    0.000   16.500 
#    0.000    2.500    0.000    6.750    0.000    0.000 
#    0.000    0.000    0.000    0.000    0.000    0.000 
#
# Total GULP energy -89269.401367 kJ/mol
# GULP energy per Si atom -5579.337585 kJ/mol
# Density = 2.115524 g / cm^3
# Si number density = 21.203501 Si / 1000 Ang^3
#
#
#
# Elastic Constant Matrix: (Units=GPa)
#
#
# Indices 1 2 3 4 5 6 
#
# 1 41.5582 25.4537 36.3208 0.4768 11.5201 -23.9190
# 2 25.4537 109.1842 45.0805 -5.0309 14.2946 -2.8381
# 3 36.3208 45.0805 146.4895 7.8621 33.2930 -1.7670
# 4 0.4768 -5.0309 7.8621 16.6709 -0.4812 3.1708
# 5 11.5201 14.2946 33.2930 -0.4812 37.3363 -1.1535
# 6 -23.9190 -2.8381 -1.7670 3.1708 -1.1535 23.3088
#
#
#
# Elastic Compliance Matrix: (Units=1/GPa)
#
#
# Indices 1 2 3 4 5 6 
#
# 1 0.149221 -0.020378 -0.024686 -0.028029 -0.011892 0.151999
# 2 -0.020378 0.013705 0.000011 0.008606 0.000512 -0.020388
# 3 -0.024686 0.000011 0.014011 -0.001429 -0.005652 -0.024354
# 4 -0.028029 0.008606 -0.001429 0.071319 0.006398 -0.037208
# 5 -0.011892 0.000512 -0.005652 0.006398 0.035018 -0.011707
# 6 0.151999 -0.020388 -0.024354 -0.037208 -0.011707 0.199034
#
#
# Mechanical properties :
#
#
# Convention : Reuss Voigt Hill
#
# Bulk Modulus (GPa) = 11.51679 56.77133 34.14406
# Shear Modulus (GPa) = 8.31450 28.15497 18.23474
#
# Velocity S-wave (km/s) = 1.98237 3.64791 2.93574
# Velocity P-wave (km/s) = 3.26850 6.67650 5.25637
#
# Compressibility (1/GPa) = 0.08682972
#
# Stress axis : x y z
#
# Youngs Moduli (GPa) = 6.70147 72.96842 71.37088
#
# Poissons Ratio (x) = 1.48697 1.76189
# Poissons Ratio (y) = 0.13656 -0.00079
# Poissons Ratio (z) = 0.16543 -0.00081
#
# Static dielectric constant tensor:
#      x y z
#    x 1.830800 -0.000190 -0.051770 
#    y -0.000190 1.822340 0.026560 
#    z -0.051770 0.026560 1.777570 
# 
# From -- ./inp_files/269486.got.cif
#   From: 2010.05.17/outbox.cif.g08.bks.cpg/sg2_135_cif.got.tgz:269486.got - 2010.06.03 11:33:40.
