data_PCOD9084189
_publ_section_title
;
Structure prediction by ZEFSAII (Michael W. Deem and Ramdas Pophale) SiO2 
 PCOD9084189
Probable space group: P -1
;
_chemical_formula_sum "Si O2"
_cell_formula_units_Z 16
_cell_length_a 17.184381
_cell_length_b 12.159680
_cell_length_c 9.931586
_cell_angle_alpha 49.671946
_cell_angle_beta 136.030233
_cell_angle_gamma 150.272805
_cell_volume 712.975341
_symmetry_space_group_name_H-M "P -1"
_symmetry_group_IT_number 2
_symmetry_cell_setting 'triclinic'
loop_
_space_group_symop_operation_xyz
x,y,z
-x,-y,-z
loop_
_atom_site_type_symbol
_atom_site_label
_atom_site_fract_x
_atom_site_fract_y
_atom_site_fract_z
Si Si1 0.636270 0.457106 0.147074
Si Si2 0.212688 0.326648 0.405422
Si Si3 0.930508 0.255570 0.019826
Si Si4 0.032530 0.140586 0.613686
Si Si5 0.086163 0.938248 0.101231
Si Si6 0.889448 0.299049 0.217787
Si Si7 0.541177 0.635953 0.725115
Si Si8 0.846244 0.439408 0.284813
O O1 0.816420 0.713017 0.206240
O O2 0.532944 0.358674 0.236610
O O3 0.692720 0.353993 0.251163
O O4 0.553886 0.480336 0.912810
O O5 0.120364 0.384083 0.201307
O O6 0.134394 0.210276 0.546557
O O7 0.414014 0.528231 0.525692
O O8 0.129738 0.124667 0.365698
O O9 0.826137 0.178104 0.089847
O O10 0.959675 0.437729 0.841155
O O11 0.867676 0.068456 0.990251
O O12 0.963424 0.234251 0.438864
O O13 0.946859 0.678418 0.166558
O O14 0.270495 0.115640 0.263608
O O15 0.000000 0.000000 0.000000
O O16 0.777364 0.278499 0.200766
O O17 0.000000 0.500000 0.500000
#
# Coordination Sequence:
#
# PCOD9084189 Si02
#       8
#     2   2   2   2   2   2   2   2
#     4  10  19  34  61  89 125 154 202 248 303 353
#     4   9  18  31  57  85 115 148 200 247 287 345
#     4   9  19  35  59  86 116 158 200 241 296 367
#     4   9  16  31  56  87 111 155 199 236 288 358
#     4  11  22  39  65  90 118 159 211 253 302 358
#     4   9  18  33  58  86 117 153 206 237 289 362
#     4  10  21  37  59  93 125 155 200 260 305 354
#     4  11  21  36  64  91 122 158 206 249 300 365
#
# _framework density 22.441168999999999
#
# number of rings (size 3 to 8) (size 9 to 14) (size 15 to 20)
#    0.000    2.250    2.500    0.750    0.000    3.000 
#    0.000    1.250    2.750    3.000    0.000    0.000 
#    0.000    0.000    0.000    0.000    0.000    0.000 
#
# Total GULP energy -89152.745779 kJ/mol
# GULP energy per Si atom -5572.046611 kJ/mol
# Density = 2.239009 g / cm^3
# Si number density = 22.441169 Si / 1000 Ang^3
#
#
#
# Elastic Constant Matrix: (Units=GPa)
#
#
# Indices 1 2 3 4 5 6 
#
# 1 141.9138 24.8954 20.1672 0.1106 14.8419 -34.2994
# 2 24.8954 60.1613 26.0560 16.5572 8.2357 -17.6980
# 3 20.1672 26.0560 65.1142 3.6953 18.8396 -15.4892
# 4 0.1106 16.5572 3.6953 35.7877 -1.5773 3.6616
# 5 14.8419 8.2357 18.8396 -1.5773 24.6255 -3.4743
# 6 -34.2994 -17.6980 -15.4892 3.6616 -3.4743 34.1002
#
#
#
# Elastic Compliance Matrix: (Units=1/GPa)
#
#
# Indices 1 2 3 4 5 6 
#
# 1 0.009904 -0.000732 0.001107 -0.001027 -0.005275 0.009658
# 2 -0.000732 0.027086 -0.006212 -0.013210 -0.003073 0.011604
# 3 0.001107 -0.006212 0.023881 -0.001036 -0.015906 0.007227
# 4 -0.001027 -0.013210 -0.001036 0.035629 0.006485 -0.011524
# 5 -0.005275 -0.003073 -0.015906 0.006485 0.056115 -0.009105
# 6 0.009658 0.011604 0.007227 -0.011524 -0.009105 0.048655
#
#
# Mechanical properties :
#
#
# Convention : Reuss Voigt Hill
#
# Bulk Modulus (GPa) = 20.32684 45.49182 32.90933
# Shear Modulus (GPa) = 21.80131 31.97406 26.88768
#
# Velocity S-wave (km/s) = 3.12025 3.77874 3.46517
# Velocity P-wave (km/s) = 4.69668 6.27328 5.54134
#
# Compressibility (1/GPa) = 0.04919603
#
# Stress axis : x y z
#
# Youngs Moduli (GPa) = 100.96597 36.91972 41.87463
#
# Poissons Ratio (x) = 0.02704 -0.04637
# Poissons Ratio (y) = 0.07394 0.26014
# Poissons Ratio (z) = -0.11180 0.22936
#
# Static dielectric constant tensor:
#      x y z
#    x 1.942930 -0.002180 -0.059960 
#    y -0.002180 1.837970 -0.012520 
#    z -0.059960 -0.012520 1.904030 
# 
# From -- ./inp_files/354427.got.cif
#   From: 2010.05.17/outbox.cif.g08.bks.cpg/sg2_178_cif.got.tgz:354427.got - 2010.06.03 11:33:40.
