data_PCOD9084529
_publ_section_title
;
Structure prediction by ZEFSAII (Michael W. Deem and Ramdas Pophale) SiO2 
 PCOD9084529
Probable space group: P -1
;
_chemical_formula_sum "Si O2"
_cell_formula_units_Z 12
_cell_length_a 10.204392
_cell_length_b 14.345491
_cell_length_c 9.089204
_cell_angle_alpha 149.763168
_cell_angle_beta 58.396441
_cell_angle_gamma 104.731274
_cell_volume 505.891097
_symmetry_space_group_name_H-M "P -1"
_symmetry_group_IT_number 2
_symmetry_cell_setting 'triclinic'
loop_
_space_group_symop_operation_xyz
x,y,z
-x,-y,-z
loop_
_atom_site_type_symbol
_atom_site_label
_atom_site_fract_x
_atom_site_fract_y
_atom_site_fract_z
Si Si1 0.686383 0.989145 0.889121
Si Si2 0.817529 0.212472 0.931199
Si Si3 0.158861 0.046110 0.936518
Si Si4 0.747868 0.715695 0.015998
Si Si5 0.407533 0.806771 0.222863
Si Si6 0.058109 0.385962 0.964759
O O1 0.799027 0.832288 0.482185
O O2 0.716501 0.186615 0.095247
O O3 0.766144 0.918588 0.907202
O O4 0.500000 0.000000 0.000000
O O5 0.688209 0.260180 0.934586
O O6 0.892345 0.376318 0.119162
O O7 0.000000 0.000000 0.500000
O O8 0.304358 0.846783 0.491717
O O9 0.128455 0.233330 0.095661
O O10 0.000000 0.000000 0.000000
O O11 0.610595 0.670676 0.946069
O O12 0.843179 0.570316 0.899473
O O13 0.628461 0.956095 0.474135
O O14 0.000000 0.500000 0.000000
#
# Coordination Sequence:
#
# PCOD9084529 Si02
#       6
#     2   2   2   2   2   2
#     4  11  19  32  57  85  99 130 182 225 252 304
#     4  10  17  33  54  78 105 140 181 213 250 318
#     4  10  16  25  48  80 100 120 164 225 258 283
#     4   9  17  32  49  73 105 134 166 211 265 306
#     4   9  16  30  52  75 102 129 174 218 255 295
#     4  11  22  37  53  75 110 147 174 209 266 321
#
# _framework density 23.720517999999998
#
# number of rings (size 3 to 8) (size 9 to 14) (size 15 to 20)
#    1.000    1.000    3.333    5.000    0.000    0.000 
#    0.000    2.500    0.000    0.000    0.000    0.000 
#    0.000    0.000    0.000    0.000    0.000    0.000 
#
# Total GULP energy -66869.361070 kJ/mol
# GULP energy per Si atom -5572.446756 kJ/mol
# Density = 2.366653 g / cm^3
# Si number density = 23.720518 Si / 1000 Ang^3
#
#
#
# Elastic Constant Matrix: (Units=GPa)
#
#
# Indices 1 2 3 4 5 6 
#
# 1 181.0031 66.3051 14.3117 -6.0394 -33.0023 -25.7022
# 2 66.3051 130.5946 18.0957 -30.9216 -26.4653 -10.7071
# 3 14.3117 18.0957 37.5322 -10.8726 -3.5134 5.7093
# 4 -6.0394 -30.9216 -10.8726 21.2402 5.8003 -2.8845
# 5 -33.0023 -26.4653 -3.5134 5.8003 23.6426 -17.2517
# 6 -25.7022 -10.7071 5.7093 -2.8845 -17.2517 53.5003
#
#
#
# Elastic Compliance Matrix: (Units=1/GPa)
#
#
# Indices 1 2 3 4 5 6 
#
# 1 0.015165 0.001479 -0.007470 -0.004904 0.037710 0.020274
# 2 0.001479 0.019938 -0.003536 0.021550 0.030238 0.015990
# 3 -0.007470 -0.003536 0.035729 0.015482 -0.023776 -0.014941
# 4 -0.004904 0.021550 0.015482 0.084958 0.003009 0.005856
# 5 0.037710 0.030238 -0.023776 0.003009 0.188460 0.087638
# 6 0.020274 0.015990 -0.014941 0.005856 0.087638 0.061802
#
#
# Mechanical properties :
#
#
# Convention : Reuss Voigt Hill
#
# Bulk Modulus (GPa) = 19.31339 60.72833 40.02086
# Shear Modulus (GPa) = 11.30292 36.37111 23.83702
#
# Velocity S-wave (km/s) = 2.18527 3.92001 3.17347
# Velocity P-wave (km/s) = 3.81142 6.79307 5.50785
#
# Compressibility (1/GPa) = 0.05177754
#
# Stress axis : x y z
#
# Youngs Moduli (GPa) = 65.94301 50.15633 27.98856
#
# Poissons Ratio (x) = -0.07418 0.20908
# Poissons Ratio (y) = -0.09753 0.09896
# Poissons Ratio (z) = 0.49260 0.17734
#
# Static dielectric constant tensor:
#      x y z
#    x 2.076140 -0.005160 0.034710 
#    y -0.005160 2.056080 0.151780 
#    z 0.034710 0.151780 2.053550 
# 
# From -- ./inp_files/209158.got.cif
#   From: 2010.05.17/outbox.cif.g08.bks.cpg/sg2_105_cif.got.tgz:209158.got - 2010.06.03 11:33:40.
