data_PCOD9084331
_publ_section_title
;
Structure prediction by ZEFSAII (Michael W. Deem and Ramdas Pophale) SiO2 
 PCOD9084331
Probable space group: P -1
;
_chemical_formula_sum "Si O2"
_cell_formula_units_Z 16
_cell_length_a 5.558136
_cell_length_b 18.709632
_cell_length_c 8.638588
_cell_angle_alpha 122.786198
_cell_angle_beta 69.965479
_cell_angle_gamma 78.603546
_cell_volume 620.466658
_symmetry_space_group_name_H-M "P -1"
_symmetry_group_IT_number 2
_symmetry_cell_setting 'triclinic'
loop_
_space_group_symop_operation_xyz
x,y,z
-x,-y,-z
loop_
_atom_site_type_symbol
_atom_site_label
_atom_site_fract_x
_atom_site_fract_y
_atom_site_fract_z
Si Si1 0.454315 0.432725 0.808869
Si Si2 0.386821 0.249038 0.629768
Si Si3 0.912460 0.707151 0.558512
Si Si4 0.993111 0.124436 0.163128
Si Si5 0.152067 0.964229 0.177242
Si Si6 0.754897 0.611804 0.721029
Si Si7 0.573441 0.084974 0.626743
Si Si8 0.739987 0.428018 0.238598
O O1 0.405884 0.345598 0.778718
O O2 0.221871 0.504803 0.820199
O O3 0.759095 0.376573 0.582507
O O4 0.500000 0.500000 0.000000
O O5 0.125032 0.282028 0.604333
O O6 0.671968 0.180115 0.380172
O O7 0.376527 0.184222 0.695195
O O8 0.704578 0.673286 0.647852
O O9 0.874350 0.805546 0.752064
O O10 0.184270 0.024066 0.096930
O O11 0.951071 0.103384 0.970355
O O12 0.395657 0.910410 0.190564
O O13 0.892796 0.046962 0.434041
O O14 0.445067 0.621207 0.848978
O O15 0.000000 0.500000 0.500000
O O16 0.947995 0.637301 0.826609
O O17 0.500000 0.000000 0.500000
O O18 0.500000 0.500000 0.500000
#
# Coordination Sequence:
#
# PCOD9084331 Si02
#       8
#     2   2   2   2   2   2   2   2
#     4  11  24  41  60  83 121 166 208 263 320 382
#     4  10  22  39  59  88 118 160 209 254 313 377
#     4  11  21  37  63  87 120 157 211 263 317 373
#     4   9  20  37  62  91 117 158 201 258 303 374
#     4   9  19  39  62  88 125 157 200 243 312 371
#     4  10  19  34  63  87 114 157 206 264 313 372
#     4  10  20  37  64  89 126 163 194 244 310 382
#     4  10  19  38  61  85 111 159 210 257 319 369
#
# _framework density 25.787043000000001
#
# number of rings (size 3 to 8) (size 9 to 14) (size 15 to 20)
#    0.000    2.000    2.500    2.250    1.750    2.500 
#    2.250    5.000    0.000    0.000    0.000    0.000 
#    0.000    0.000    0.000    0.000    0.000    0.000 
#
# Total GULP energy -89504.763997 kJ/mol
# GULP energy per Si atom -5594.047750 kJ/mol
# Density = 2.572835 g / cm^3
# Si number density = 25.787043 Si / 1000 Ang^3
#
#
#
# Elastic Constant Matrix: (Units=GPa)
#
#
# Indices 1 2 3 4 5 6 
#
# 1 100.5787 36.6380 29.1776 -3.4299 25.4406 -13.0080
# 2 36.6380 191.3077 50.4802 -3.1250 43.2182 -19.6587
# 3 29.1776 50.4802 126.7423 -1.6362 32.2898 -3.3153
# 4 -3.4299 -3.1250 -1.6362 31.9076 1.5148 16.7817
# 5 25.4406 43.2182 32.2898 1.5148 55.4180 -5.7927
# 6 -13.0080 -19.6587 -3.3153 16.7817 -5.7927 35.4603
#
#
#
# Elastic Compliance Matrix: (Units=1/GPa)
#
#
# Indices 1 2 3 4 5 6 
#
# 1 0.012002 -0.000726 -0.001440 -0.000521 -0.003724 0.003504
# 2 -0.000726 0.006963 -0.001562 -0.001040 -0.003812 0.003318
# 3 -0.001440 -0.001562 0.009855 0.001319 -0.004083 -0.001764
# 4 -0.000521 -0.001040 0.001319 0.042610 -0.003111 -0.021318
# 5 -0.003724 -0.003812 -0.004083 -0.003111 0.025375 0.001756
# 6 0.003504 0.003318 -0.001764 -0.021318 0.001756 0.041536
#
#
# Mechanical properties :
#
#
# Convention : Reuss Voigt Hill
#
# Bulk Modulus (GPa) = 46.80607 72.35781 59.58194
# Shear Modulus (GPa) = 32.69721 44.71272 38.70496
#
# Velocity S-wave (km/s) = 3.56472 4.16856 3.87841
# Velocity P-wave (km/s) = 5.92734 7.16169 6.57355
#
# Compressibility (1/GPa) = 0.02136475
#
# Stress axis : x y z
#
# Youngs Moduli (GPa) = 83.31939 143.60808 101.47315
#
# Poissons Ratio (x) = 0.10421 0.14615
# Poissons Ratio (y) = 0.06046 0.15848
# Poissons Ratio (z) = 0.12000 0.22429
#
# Static dielectric constant tensor:
#      x y z
#    x 2.395960 -0.184870 -0.038050 
#    y -0.184870 2.195850 0.005430 
#    z -0.038050 0.005430 2.052650 
# 
# From -- ./inp_files/139557.got.cif
#   From: 2010.05.17/outbox.cif.g08.bks.cpg/sg2_70_cif.got.tgz:139557.got - 2010.06.03 11:33:40.
