data_PCOD9084958
_publ_section_title
;
Structure prediction by ZEFSAII (Michael W. Deem and Ramdas Pophale) SiO2 
 PCOD9084958
Probable space group: P -1
;
_chemical_formula_sum "Si O2"
_cell_formula_units_Z 16
_cell_length_a 12.359774
_cell_length_b 7.331280
_cell_length_c 14.884207
_cell_angle_alpha 114.308757
_cell_angle_beta 47.877379
_cell_angle_gamma 87.846393
_cell_volume 807.548494
_symmetry_space_group_name_H-M "P -1"
_symmetry_group_IT_number 2
_symmetry_cell_setting 'triclinic'
loop_
_space_group_symop_operation_xyz
x,y,z
-x,-y,-z
loop_
_atom_site_type_symbol
_atom_site_label
_atom_site_fract_x
_atom_site_fract_y
_atom_site_fract_z
Si Si1 0.003798 0.990256 0.662289
Si Si2 0.688411 0.306964 0.820465
Si Si3 0.594003 0.745629 0.067196
Si Si4 0.530543 0.952531 0.339666
Si Si5 0.307170 0.877471 0.581783
Si Si6 0.766343 0.490753 0.648755
Si Si7 0.118711 0.276691 0.220211
Si Si8 0.734901 0.563413 0.479539
O O1 0.894358 0.945416 0.788331
O O2 0.142277 0.022790 0.645123
O O3 0.100435 0.754047 0.509206
O O4 0.884103 0.168825 0.695258
O O5 0.595225 0.153656 0.842702
O O6 0.655748 0.435931 0.769258
O O7 0.641047 0.485862 0.963935
O O8 0.586414 0.821644 0.188545
O O9 0.732260 0.779810 0.942953
O O10 0.670453 0.990713 0.319965
O O11 0.380649 0.205094 0.458426
O O12 0.459167 0.829829 0.421354
O O13 0.304088 0.645032 0.562110
O O14 0.839680 0.619790 0.693931
O O15 0.696395 0.611476 0.617646
O O16 0.932346 0.459730 0.332513
#
# Coordination Sequence:
#
# PCOD9084958 Si02
#       8
#     2   2   2   2   2   2   2   2
#     4  10  19  35  58  81 113 156 186 236 287 322
#     4  10  21  35  55  80 127 150 179 239 286 334
#     4  10  22  37  51  87 118 149 189 228 287 354
#     4  11  22  39  66  82 113 154 188 244 292 323
#     4   9  22  41  60  90 109 139 211 243 268 343
#     4   9  18  33  54  88 111 144 197 227 270 357
#     4   9  20  35  51  86 121 145 189 227 277 363
#     4  10  20  37  62  85 116 148 191 239 286 328
#
# _framework density 19.813048999999999
#
# number of rings (size 3 to 8) (size 9 to 14) (size 15 to 20)
#    0.000    2.500    0.000    3.750    7.000    0.500 
#    6.750    3.125    0.000    0.000    0.000    0.000 
#    0.000    0.000    0.000    0.000    0.000    0.000 
#
# Total GULP energy -89137.413936 kJ/mol
# GULP energy per Si atom -5571.088371 kJ/mol
# Density = 1.976795 g / cm^3
# Si number density = 19.813049 Si / 1000 Ang^3
#
#
#
# Elastic Constant Matrix: (Units=GPa)
#
#
# Indices 1 2 3 4 5 6 
#
# 1 112.4002 21.6681 44.5705 -10.6574 17.8436 27.0428
# 2 21.6681 48.2338 21.1127 -15.1269 -2.7749 15.3455
# 3 44.5705 21.1127 64.2291 -21.6561 18.4560 17.8683
# 4 -10.6574 -15.1269 -21.6561 23.9048 5.8558 -9.4909
# 5 17.8436 -2.7749 18.4560 5.8558 29.6589 2.2076
# 6 27.0428 15.3455 17.8683 -9.4909 2.2076 33.2095
#
#
#
# Elastic Compliance Matrix: (Units=1/GPa)
#
#
# Indices 1 2 3 4 5 6 
#
# 1 0.014185 -0.002088 -0.007985 -0.004632 -0.002291 -0.007462
# 2 -0.002088 0.029143 -0.004794 0.008990 0.005712 -0.006997
# 3 -0.007985 -0.004794 0.048156 0.044554 -0.034245 -0.002183
# 4 -0.004632 0.008990 0.044554 0.099442 -0.044252 0.007006
# 5 -0.002291 0.005712 -0.034245 -0.044252 0.065628 0.000642
# 6 -0.007462 -0.006997 -0.002183 0.007006 0.000642 0.042556
#
#
# Mechanical properties :
#
#
# Convention : Reuss Voigt Hill
#
# Bulk Modulus (GPa) = 16.19427 44.39618 30.29523
# Shear Modulus (GPa) = 14.30910 26.52209 20.41560
#
# Velocity S-wave (km/s) = 2.69030 3.66268 3.21349
# Velocity P-wave (km/s) = 4.22393 6.35163 5.39374
#
# Compressibility (1/GPa) = 0.06175022
#
# Stress axis : x y z
#
# Youngs Moduli (GPa) = 70.49534 34.31345 20.76574
#
# Poissons Ratio (x) = 0.07164 0.16582
# Poissons Ratio (y) = 0.14719 0.09955
# Poissons Ratio (z) = 0.56292 0.16450
#
# Static dielectric constant tensor:
#      x y z
#    x 1.742890 -0.015020 -0.066180 
#    y -0.015020 1.754820 -0.020170 
#    z -0.066180 -0.020170 1.749810 
# 
# From -- ./inp_files/514594.got.cif
#   From: 2010.05.17/outbox.cif.g08.bks.cpg/sg2_258_cif.got.tgz:514594.got - 2010.06.03 11:33:40.
