data_PCOD9084879
_publ_section_title
;
Structure prediction by ZEFSAII (Michael W. Deem and Ramdas Pophale) SiO2 
 PCOD9084879
Probable space group: P -1
;
_chemical_formula_sum "Si O2"
_cell_formula_units_Z 14
_cell_length_a 15.046704
_cell_length_b 8.877311
_cell_length_c 13.766787
_cell_angle_alpha 106.929834
_cell_angle_beta 28.557102
_cell_angle_gamma 124.121783
_cell_volume 626.313721
_symmetry_space_group_name_H-M "P -1"
_symmetry_group_IT_number 2
_symmetry_cell_setting 'triclinic'
loop_
_space_group_symop_operation_xyz
x,y,z
-x,-y,-z
loop_
_atom_site_type_symbol
_atom_site_label
_atom_site_fract_x
_atom_site_fract_y
_atom_site_fract_z
Si Si1 0.471512 0.556013 0.246626
Si Si2 0.887787 0.250184 0.904508
Si Si3 0.960904 0.448469 0.347743
Si Si4 0.223446 0.349625 0.194665
Si Si5 0.572321 0.394001 0.478888
Si Si6 0.150434 0.102387 0.527183
Si Si7 0.391972 0.027239 0.448895
O O1 0.255237 0.550315 0.414204
O O2 0.510766 0.619973 0.333554
O O3 0.354871 0.314624 0.310652
O O4 0.721736 0.700425 0.972439
O O5 0.862853 0.362547 0.862302
O O6 0.126958 0.441428 0.773091
O O7 0.975807 0.140071 0.747166
O O8 0.644423 0.098111 0.174288
O O9 0.106746 0.450824 0.296769
O O10 0.809480 0.224560 0.395579
O O11 0.500000 0.500000 0.000000
O O12 0.021319 0.127071 0.400644
O O13 0.500000 0.500000 0.500000
O O14 0.457323 0.168883 0.505671
O O15 0.289688 0.090101 0.477697
#
# Coordination Sequence:
#
# PCOD9084879 Si02
#       7
#     2   2   2   2   2   2   2
#     4  10  21  40  57  80 124 143 184 240 275 325
#     4  10  20  35  59  81 119 152 184 226 277 326
#     4   9  22  37  57  88 111 145 193 233 274 336
#     4  11  23  40  62  84 107 148 193 235 292 338
#     4  10  19  35  57  87 115 156 188 219 273 337
#     4   9  20  38  58  83 116 146 187 233 282 333
#     4  11  18  35  57  81 118 154 187 222 270 333
#
# _framework density 22.353014999999999
#
# number of rings (size 3 to 8) (size 9 to 14) (size 15 to 20)
#    0.000    2.286    2.857    2.143    0.000    3.429 
#    0.000    8.571    0.000    0.000    0.000    0.000 
#    0.000    0.000    0.000    0.000    0.000    0.000 
#
# Total GULP energy -78216.565458 kJ/mol
# GULP energy per Si atom -5586.897533 kJ/mol
# Density = 2.230214 g / cm^3
# Si number density = 22.353015 Si / 1000 Ang^3
#
#
#
# Elastic Constant Matrix: (Units=GPa)
#
#
# Indices 1 2 3 4 5 6 
#
# 1 73.3089 16.7351 7.3987 2.5147 -22.0635 -13.3676
# 2 16.7351 47.0521 -2.1623 -10.2258 -12.9040 -22.2324
# 3 7.3987 -2.1623 51.1921 6.1524 -0.1451 -3.7852
# 4 2.5147 -10.2258 6.1524 36.4683 0.5343 -3.3960
# 5 -22.0635 -12.9040 -0.1451 0.5343 35.1239 2.1256
# 6 -13.3676 -22.2324 -3.7852 -3.3960 2.1256 32.6288
#
#
#
# Elastic Compliance Matrix: (Units=1/GPa)
#
#
# Indices 1 2 3 4 5 6 
#
# 1 0.018456 -0.001192 -0.002161 -0.000870 0.010814 0.005703
# 2 -0.001192 0.042067 0.002455 0.013986 0.012744 0.029086
# 3 -0.002161 0.002455 0.020447 -0.002330 -0.000514 0.002950
# 4 -0.000870 0.013986 -0.002330 0.032874 0.003350 0.012106
# 5 0.010814 0.012744 -0.000514 0.003350 0.039236 0.010847
# 6 0.005703 0.029086 0.002950 0.012106 0.010847 0.053698
#
#
# Mechanical properties :
#
#
# Convention : Reuss Voigt Hill
#
# Bulk Modulus (GPa) = 12.63027 23.94399 18.28713
# Shear Modulus (GPa) = 21.27978 30.81632 26.04805
#
# Velocity S-wave (km/s) = 3.08878 3.71701 3.41736
# Velocity P-wave (km/s) = 4.28758 5.39968 4.87544
#
# Compressibility (1/GPa) = 0.07917490
#
# Stress axis : x y z
#
# Youngs Moduli (GPa) = 54.18391 23.77147 48.90702
#
# Poissons Ratio (x) = 0.02833 0.10568
# Poissons Ratio (y) = 0.06457 -0.12007
# Poissons Ratio (z) = 0.11708 -0.05836
#
# Static dielectric constant tensor:
#      x y z
#    x 1.862010 0.014580 -0.005410 
#    y 0.014580 1.862170 0.001310 
#    z -0.005410 0.001310 1.773280 
# 
# From -- ./inp_files/307556.got.cif
#   From: 2010.05.17/outbox.cif.g08.bks.cpg/sg2_154_cif.got.tgz:307556.got - 2010.06.03 11:33:40.
