data_PCOD9084026
_publ_section_title
;
Structure prediction by ZEFSAII (Michael W. Deem and Ramdas Pophale) SiO2 
 PCOD9084026
Probable space group: P -1
;
_chemical_formula_sum "Si O2"
_cell_formula_units_Z 14
_cell_length_a 11.454213
_cell_length_b 10.474993
_cell_length_c 7.410661
_cell_angle_alpha 133.270688
_cell_angle_beta 91.421253
_cell_angle_gamma 109.263226
_cell_volume 568.981737
_symmetry_space_group_name_H-M "P -1"
_symmetry_group_IT_number 2
_symmetry_cell_setting 'triclinic'
loop_
_space_group_symop_operation_xyz
x,y,z
-x,-y,-z
loop_
_atom_site_type_symbol
_atom_site_label
_atom_site_fract_x
_atom_site_fract_y
_atom_site_fract_z
Si Si1 0.316527 0.409645 0.400128
Si Si2 0.311969 0.985702 0.337738
Si Si3 0.427744 0.845487 0.683943
Si Si4 0.852851 0.467005 0.013897
Si Si5 0.651846 0.611051 0.182309
Si Si6 0.956825 0.660182 0.584391
Si Si7 0.238322 0.987151 0.918110
O O1 0.398701 0.627158 0.530703
O O2 0.349897 0.421328 0.628593
O O3 0.161392 0.347299 0.309603
O O4 0.323441 0.224522 0.128178
O O5 0.469403 0.075995 0.398747
O O6 0.291053 0.151302 0.602060
O O7 0.240083 0.768052 0.203553
O O8 0.253296 0.960964 0.108100
O O9 0.294865 0.865077 0.687677
O O10 0.500000 0.000000 0.000000
O O11 0.749676 0.545077 0.017912
O O12 0.888343 0.576088 0.311861
O O13 0.000000 0.500000 0.000000
O O14 0.500000 0.500000 0.000000
O O15 0.000000 0.500000 0.500000
O O16 0.081338 0.876607 0.775635
#
# Coordination Sequence:
#
# PCOD9084026 Si02
#       7
#     2   2   2   2   2   2   2
#     4  10  21  36  61  96 129 165 210 267 322 374
#     4  10  22  40  64  89 129 164 209 270 321 372
#     4  10  19  34  59  91 127 161 202 261 326 372
#     4  11  25  45  68  92 129 172 215 264 321 382
#     4  10  23  43  64  90 129 173 216 257 313 385
#     4  11  18  38  66  93 126 165 212 263 318 379
#     4  10  19  34  60  95 129 160 205 264 323 373
#
# _framework density 24.605360000000001
#
# number of rings (size 3 to 8) (size 9 to 14) (size 15 to 20)
#    0.000    1.714    2.857    3.000    0.000    8.571 
#    0.000    4.286    0.000    0.000    0.000    0.000 
#    0.000    0.000    0.000    0.000    0.000    0.000 
#
# Total GULP energy -78263.713234 kJ/mol
# GULP energy per Si atom -5590.265231 kJ/mol
# Density = 2.454936 g / cm^3
# Si number density = 24.605360 Si / 1000 Ang^3
#
#
#
# Elastic Constant Matrix: (Units=GPa)
#
#
# Indices 1 2 3 4 5 6 
#
# 1 174.2928 42.3939 51.6971 27.0495 -9.0098 15.1707
# 2 42.3939 80.1768 75.3615 29.3948 -6.7037 9.8745
# 3 51.6971 75.3615 136.4544 38.3660 -4.0410 -3.4947
# 4 27.0495 29.3948 38.3660 49.4658 -8.3872 13.6423
# 5 -9.0098 -6.7037 -4.0410 -8.3872 52.6044 1.6647
# 6 15.1707 9.8745 -3.4947 13.6423 1.6647 31.3186
#
#
#
# Elastic Compliance Matrix: (Units=1/GPa)
#
#
# Indices 1 2 3 4 5 6 
#
# 1 0.006994 -0.001376 -0.001736 -0.000720 0.000866 -0.002880
# 2 -0.001376 0.030134 -0.015822 -0.001718 0.002431 -0.009981
# 3 -0.001736 -0.015822 0.019269 -0.008250 -0.002519 0.011707
# 4 -0.000720 -0.001718 -0.008250 0.032855 0.004724 -0.014593
# 5 0.000866 0.002431 -0.002519 0.004724 0.020173 -0.004597
# 6 -0.002880 -0.009981 0.011707 -0.014593 -0.004597 0.044379
#
#
# Mechanical properties :
#
#
# Convention : Reuss Voigt Hill
#
# Bulk Modulus (GPa) = 53.96520 81.09211 67.52865
# Shear Modulus (GPa) = 25.27209 41.44252 33.35730
#
# Velocity S-wave (km/s) = 3.20831 4.10846 3.68597
# Velocity P-wave (km/s) = 5.97530 7.45215 6.75421
#
# Compressibility (1/GPa) = 0.01853046
#
# Stress axis : x y z
#
# Youngs Moduli (GPa) = 142.97784 33.18549 51.89718
#
# Poissons Ratio (x) = 0.04565 0.09009
# Poissons Ratio (y) = 0.19667 0.82110
# Poissons Ratio (z) = 0.24819 0.52505
#
# Static dielectric constant tensor:
#      x y z
#    x 2.148400 -0.023030 -0.006590 
#    y -0.023030 1.982300 -0.043520 
#    z -0.006590 -0.043520 1.911560 
# 
# From -- ./inp_files/261056.got.cif
#   From: 2010.05.17/outbox.cif.g08.bks.cpg/sg2_131_cif.got.tgz:261056.got - 2010.06.03 11:33:40.
