data_PCOD9084131
_publ_section_title
;
Structure prediction by ZEFSAII (Michael W. Deem and Ramdas Pophale) SiO2 
 PCOD9084131
Probable space group: P -1
;
_chemical_formula_sum "Si O2"
_cell_formula_units_Z 16
_cell_length_a 9.786071
_cell_length_b 17.089492
_cell_length_c 18.375585
_cell_angle_alpha 143.710399
_cell_angle_beta 27.429402
_cell_angle_gamma 126.287955
_cell_volume 746.867766
_symmetry_space_group_name_H-M "P -1"
_symmetry_group_IT_number 2
_symmetry_cell_setting 'triclinic'
loop_
_space_group_symop_operation_xyz
x,y,z
-x,-y,-z
loop_
_atom_site_type_symbol
_atom_site_label
_atom_site_fract_x
_atom_site_fract_y
_atom_site_fract_z
Si Si1 0.163698 0.378568 0.001130
Si Si2 0.353707 0.890982 0.828204
Si Si3 0.368381 0.951623 0.454137
Si Si4 0.741695 0.569145 0.463934
Si Si5 0.397041 0.885776 0.634925
Si Si6 0.499250 0.610834 0.757318
Si Si7 0.377026 0.943956 0.086481
Si Si8 0.392668 0.418711 0.774726
O O1 0.375663 0.215463 0.810092
O O2 0.381219 0.407847 0.858716
O O3 0.045440 0.496078 0.210166
O O4 0.840995 0.378042 0.112059
O O5 0.549648 0.745237 0.674253
O O6 0.432935 0.844533 0.671925
O O7 0.464049 0.016308 0.889648
O O8 0.962960 0.970945 0.091195
O O9 0.500000 0.000000 0.500000
O O10 0.347398 0.061945 0.481788
O O11 0.016295 0.963619 0.650407
O O12 0.500000 0.500000 0.500000
O O13 0.782113 0.539636 0.508527
O O14 0.435157 0.745526 0.464516
O O15 0.548749 0.513796 0.732921
O O16 0.456252 0.773481 0.916093
O O17 0.500000 0.000000 0.000000
O O18 0.000000 0.500000 0.000000
#
# Coordination Sequence:
#
# PCOD9084131 Si02
#       8
#     2   2   2   2   2   2   2   2
#     4  10  20  35  64  93 118 159 211 259 301 372
#     4  11  24  40  63  95 127 164 205 267 314 368
#     4  12  21  39  66  93 122 166 215 252 307 379
#     4  10  19  35  60  89 124 160 210 251 306 372
#     4  11  22  40  66  93 124 160 217 259 307 379
#     4  10  19  36  61  90 120 164 204 251 315 370
#     4  12  24  40  64  89 128 165 210 260 317 368
#     4  10  19  34  60  93 121 154 211 263 304 363
#
# _framework density 21.422801
#
# number of rings (size 3 to 8) (size 9 to 14) (size 15 to 20)
#    0.000    1.250    3.750    5.250    0.000    1.500 
#    0.000    1.250    0.000    0.000    0.000    0.000 
#    0.000    0.000    0.000    0.000    0.000    0.000 
#
# Total GULP energy -89408.609377 kJ/mol
# GULP energy per Si atom -5588.038086 kJ/mol
# Density = 2.137404 g / cm^3
# Si number density = 21.422801 Si / 1000 Ang^3
#
#
#
# Elastic Constant Matrix: (Units=GPa)
#
#
# Indices 1 2 3 4 5 6 
#
# 1 32.6313 28.3193 29.6593 -11.3126 23.9699 -6.7414
# 2 28.3193 127.7668 44.4380 -3.9398 18.6595 -33.1972
# 3 29.6593 44.4380 93.7181 -8.1084 35.5093 -16.4618
# 4 -11.3126 -3.9398 -8.1084 36.2751 -0.5958 1.4456
# 5 23.9699 18.6595 35.5093 -0.5958 30.9854 -7.4246
# 6 -6.7414 -33.1972 -16.4618 1.4456 -7.4246 29.0375
#
#
#
# Elastic Compliance Matrix: (Units=1/GPa)
#
#
# Indices 1 2 3 4 5 6 
#
# 1 0.111086 -0.016570 0.005243 0.033162 -0.084551 -0.013451
# 2 -0.016570 0.014665 -0.004303 -0.004888 0.012137 0.013826
# 3 0.005243 -0.004303 0.021534 0.005493 -0.025636 0.001678
# 4 0.033162 -0.004888 0.005493 0.038291 -0.029268 -0.004164
# 5 -0.084551 0.012137 -0.025636 -0.029268 0.122160 0.012404
# 6 -0.013451 0.013826 0.001678 -0.004164 0.012404 0.051453
#
#
# Mechanical properties :
#
#
# Convention : Reuss Voigt Hill
#
# Bulk Modulus (GPa) = 8.61864 50.99437 29.80651
# Shear Modulus (GPa) = 11.65164 29.37289 20.51227
#
# Velocity S-wave (km/s) = 2.33467 3.70686 3.09770
# Velocity P-wave (km/s) = 3.36147 6.49435 5.17088
#
# Compressibility (1/GPa) = 0.11602757
#
# Stress axis : x y z
#
# Youngs Moduli (GPa) = 9.00205 68.18873 46.43717
#
# Poissons Ratio (x) = 1.12987 -0.24349
# Poissons Ratio (y) = 0.14916 0.19980
# Poissons Ratio (z) = -0.04720 0.29339
#
# Static dielectric constant tensor:
#      x y z
#    x 1.856940 0.051290 -0.100350 
#    y 0.051290 1.799870 -0.102620 
#    z -0.100350 -0.102620 1.929040 
# 
# From -- ./inp_files/345179.got.cif
#   From: 2010.05.17/outbox.cif.g08.bks.cpg/sg2_173_cif.got.tgz:345179.got - 2010.06.03 11:33:40.
