data_PCOD9084796
_publ_section_title
;
Structure prediction by ZEFSAII (Michael W. Deem and Ramdas Pophale) SiO2 
 PCOD9084796
Probable space group: P -1
;
_chemical_formula_sum "Si O2"
_cell_formula_units_Z 14
_cell_length_a 21.750931
_cell_length_b 12.588040
_cell_length_c 9.320882
_cell_angle_alpha 113.888902
_cell_angle_beta 116.308481
_cell_angle_gamma 18.233025
_cell_volume 714.627024
_symmetry_space_group_name_H-M "P -1"
_symmetry_group_IT_number 2
_symmetry_cell_setting 'triclinic'
loop_
_space_group_symop_operation_xyz
x,y,z
-x,-y,-z
loop_
_atom_site_type_symbol
_atom_site_label
_atom_site_fract_x
_atom_site_fract_y
_atom_site_fract_z
Si Si1 0.309168 0.836043 0.888595
Si Si2 0.267555 0.863916 0.414997
Si Si3 0.812136 0.228688 0.356993
Si Si4 0.928017 0.772527 0.875081
Si Si5 0.740368 0.925004 0.287748
Si Si6 0.643173 0.528743 0.631040
Si Si7 0.010228 0.907553 0.102004
O O1 0.210984 0.875917 0.737327
O O2 0.360045 0.847256 0.824807
O O3 0.500000 0.500000 0.000000
O O4 0.156279 0.134430 0.008959
O O5 0.500000 0.500000 0.500000
O O6 0.225969 0.795671 0.368003
O O7 0.238291 0.950482 0.269994
O O8 0.156599 0.135480 0.546741
O O9 0.636472 0.542274 0.458665
O O10 0.000000 0.000000 0.500000
O O11 0.838175 0.216890 0.209276
O O12 0.103816 0.414483 0.797857
O O13 0.990038 0.806283 0.984205
O O14 0.570008 0.141025 0.331109
O O15 0.778062 0.414840 0.774107
O O16 0.000000 0.000000 0.000000
#
# Coordination Sequence:
#
# PCOD9084796 Si02
#       7
#     2   2   2   2   2   2   2
#     4  11  22  37  62  90 119 155 202 248 292 356
#     4  10  19  35  57  81 111 154 196 234 280 353
#     4   9  20  36  58  86 111 153 202 246 283 346
#     4  11  23  38  56  91 120 154 194 248 307 344
#     4  11  23  36  59  87 126 155 186 249 305 353
#     4  10  19  37  60  83 113 154 203 235 288 357
#     4  10  20  36  62  84 111 152 205 249 281 350
#
# _framework density 19.590637999999998
#
# number of rings (size 3 to 8) (size 9 to 14) (size 15 to 20)
#    0.000    1.714    2.857    2.571    4.000    0.571 
#    0.000    0.000    0.000    0.857    0.000    0.000 
#    0.000    0.000    0.000    0.000    0.000    0.000 
#
# Total GULP energy -77960.971686 kJ/mol
# GULP energy per Si atom -5568.640835 kJ/mol
# Density = 1.954605 g / cm^3
# Si number density = 19.590638 Si / 1000 Ang^3
#
#
#
# Elastic Constant Matrix: (Units=GPa)
#
#
# Indices 1 2 3 4 5 6 
#
# 1 62.0406 23.6793 37.1956 7.2515 -16.2603 -12.9789
# 2 23.6793 75.9665 47.6676 23.9249 -3.3339 -7.0603
# 3 37.1956 47.6676 136.7421 22.7220 -5.4910 -2.9564
# 4 7.2515 23.9249 22.7220 36.2278 -9.6518 -7.3197
# 5 -16.2603 -3.3339 -5.4910 -9.6518 39.0903 4.6496
# 6 -12.9789 -7.0603 -2.9564 -7.3197 4.6496 21.1722
#
#
#
# Elastic Compliance Matrix: (Units=1/GPa)
#
#
# Indices 1 2 3 4 5 6 
#
# 1 0.026175 -0.005010 -0.005871 0.007155 0.009751 0.013888
# 2 -0.005010 0.020642 -0.004156 -0.010942 -0.003638 0.000248
# 3 -0.005871 -0.004156 0.010906 -0.004319 -0.001788 -0.004562
# 4 0.007155 -0.010942 -0.004319 0.041277 0.010181 0.012169
# 5 0.009751 -0.003638 -0.001788 0.010181 0.031456 0.001126
# 6 0.013888 0.000248 -0.004562 0.012169 0.001126 0.059150
#
#
# Mechanical properties :
#
#
# Convention : Reuss Voigt Hill
#
# Bulk Modulus (GPa) = 36.16536 54.64825 45.40681
# Shear Modulus (GPa) = 21.84401 30.37851 26.11126
#
# Velocity S-wave (km/s) = 3.34282 3.94212 3.65477
# Velocity P-wave (km/s) = 5.77926 6.97682 6.40609
#
# Compressibility (1/GPa) = 0.02765077
#
# Stress axis : x y z
#
# Youngs Moduli (GPa) = 38.20461 48.44380 91.69502
#
# Poissons Ratio (x) = 0.24270 0.53830
# Poissons Ratio (y) = 0.19141 0.38104
# Poissons Ratio (z) = 0.22428 0.20131
#
# Static dielectric constant tensor:
#      x y z
#    x 1.750490 -0.025150 0.006850 
#    y -0.025150 1.692190 0.012940 
#    z 0.006850 0.012940 1.747040 
# 
# From -- ./inp_files/171310.got.cif
#   From: 2010.05.17/outbox.cif.g08.bks.cpg/sg2_86_cif.got.tgz:171310.got - 2010.06.03 11:33:40.
