data_PCOD9084516
_publ_section_title
;
Structure prediction by ZEFSAII (Michael W. Deem and Ramdas Pophale) SiO2 
 PCOD9084516
Probable space group: P -1
;
_chemical_formula_sum "Si O2"
_cell_formula_units_Z 14
_cell_length_a 12.381438
_cell_length_b 9.295962
_cell_length_c 14.336741
_cell_angle_alpha 119.598790
_cell_angle_beta 61.782684
_cell_angle_gamma 148.168629
_cell_volume 751.633247
_symmetry_space_group_name_H-M "P -1"
_symmetry_group_IT_number 2
_symmetry_cell_setting 'triclinic'
loop_
_space_group_symop_operation_xyz
x,y,z
-x,-y,-z
loop_
_atom_site_type_symbol
_atom_site_label
_atom_site_fract_x
_atom_site_fract_y
_atom_site_fract_z
Si Si1 0.204386 0.992667 0.412183
Si Si2 0.965974 0.442461 0.242784
Si Si3 0.614367 0.304037 0.296316
Si Si4 0.022223 0.039700 0.653419
Si Si5 0.361705 0.837876 0.096983
Si Si6 0.955487 0.048249 0.175492
Si Si7 0.682132 0.595130 0.998855
O O1 0.444103 0.210259 0.399783
O O2 0.158099 0.057527 0.360063
O O3 0.087514 0.693098 0.345078
O O4 0.101115 0.979666 0.534514
O O5 0.743805 0.285716 0.271388
O O6 0.942239 0.230363 0.220603
O O7 0.114719 0.605638 0.140916
O O8 0.476630 0.087857 0.199080
O O9 0.791626 0.627441 0.305387
O O10 0.985040 0.930315 0.736477
O O11 0.372882 0.657232 0.060324
O O12 0.500000 0.000000 0.000000
O O13 0.753307 0.737007 0.117025
O O14 0.133978 0.178212 0.076507
O O15 0.500000 0.500000 0.000000
#
# Coordination Sequence:
#
# PCOD9084516 Si02
#       7
#     2   2   2   2   2   2   2
#     4   9  20  37  55  79 106 139 178 222 264 308
#     4   9  20  36  52  75 108 139 172 219 265 313
#     4  10  19  35  54  74 106 139 173 220 266 310
#     4  10  20  35  57  80 106 138 179 221 263 314
#     4  10  20  33  52  77 102 137 179 215 261 312
#     4  10  21  36  54  79 108 141 175 215 267 315
#     4  10  21  36  53  77 110 140 173 217 262 314
#
# _framework density 18.626106
#
# number of rings (size 3 to 8) (size 9 to 14) (size 15 to 20)
#    0.000    2.286    0.000    2.143    0.000    5.714 
#    0.000    0.714    0.000    0.000    0.000    0.000 
#    0.000    0.000    0.000    0.000    0.000    0.000 
#
# Total GULP energy -77935.197199 kJ/mol
# GULP energy per Si atom -5566.799800 kJ/mol
# Density = 1.858371 g / cm^3
# Si number density = 18.626106 Si / 1000 Ang^3
#
#
#
# Elastic Constant Matrix: (Units=GPa)
#
#
# Indices 1 2 3 4 5 6 
#
# 1 33.5391 -10.9144 46.4290 -23.8612 -32.8080 40.1169
# 2 -10.9144 16.9869 18.7200 -6.8525 -15.5186 18.8198
# 3 46.4290 18.7200 86.0438 0.7752 -0.6208 -8.8517
# 4 -23.8612 -6.8525 0.7752 19.4601 -5.9848 -5.0809
# 5 -32.8080 -15.5186 -0.6208 -5.9848 30.7444 0.1375
# 6 40.1169 18.8198 -8.8517 -5.0809 0.1375 16.0188
#
#
#
# Elastic Compliance Matrix: (Units=1/GPa)
#
#
# Indices 1 2 3 4 5 6 
#
# 1 0.003840 -0.016359 0.002610 0.000535 -0.004053 0.011249
# 2 -0.016359 0.027969 0.003501 -0.010182 -0.005281 0.006859
# 3 0.002610 0.003501 0.009016 0.004716 0.005672 -0.004221
# 4 0.000535 -0.010182 0.004716 0.058658 0.006803 0.031777
# 5 -0.004053 -0.005281 0.005672 0.006803 0.026879 0.021415
# 6 0.011249 0.006859 -0.004221 0.031777 0.021415 0.033761
#
#
# Mechanical properties :
#
#
# Convention : Reuss Voigt Hill
#
# Bulk Modulus (GPa) = 49.18686 27.22655 38.20671
# Shear Modulus (GPa) = 26.68173 18.73366 22.70770
#
# Velocity S-wave (km/s) = 3.78893 3.17484 3.49540
# Velocity P-wave (km/s) = 6.75323 5.29987 6.07020
#
# Compressibility (1/GPa) = 0.02033063
#
# Stress axis : x y z
#
# Youngs Moduli (GPa) = 260.41261 35.75377 110.91292
#
# Poissons Ratio (x) = 0.58488 -0.28949
# Poissons Ratio (y) = 4.25998 -0.38833
# Poissons Ratio (z) = -0.67970 -0.12518
#
# Static dielectric constant tensor:
#      x y z
#    x 1.651070 0.053640 0.014820 
#    y 0.053640 1.782600 0.116250 
#    z 0.014820 0.116250 1.832140 
# 
# From -- ./inp_files/27685.got.cif
#   From: 2010.05.17/outbox.cif.g08.bks.cpg/sg2_14_cif.got.tgz:27685.got - 2010.06.03 11:33:40.
