data_PCOD9084436
_publ_section_title
;
Structure prediction by ZEFSAII (Michael W. Deem and Ramdas Pophale) SiO2 
 PCOD9084436
Probable space group: P -1
;
_chemical_formula_sum "Si O2"
_cell_formula_units_Z 16
_cell_length_a 17.197971
_cell_length_b 9.248874
_cell_length_c 10.742350
_cell_angle_alpha 102.027307
_cell_angle_beta 136.811334
_cell_angle_gamma 45.738402
_cell_volume 661.655875
_symmetry_space_group_name_H-M "P -1"
_symmetry_group_IT_number 2
_symmetry_cell_setting 'triclinic'
loop_
_space_group_symop_operation_xyz
x,y,z
-x,-y,-z
loop_
_atom_site_type_symbol
_atom_site_label
_atom_site_fract_x
_atom_site_fract_y
_atom_site_fract_z
Si Si1 0.069862 0.131956 0.037616
Si Si2 0.826816 0.233617 0.427963
Si Si3 0.220114 0.454988 0.407355
Si Si4 0.650778 0.602663 0.087861
Si Si5 0.239737 0.171089 0.697395
Si Si6 0.060124 0.451729 0.779729
Si Si7 0.020765 0.872130 0.800822
Si Si8 0.629440 0.950845 0.743457
O O1 0.855484 0.413341 0.790763
O O2 0.757425 0.716327 0.945227
O O3 0.098314 0.942279 0.970598
O O4 0.227418 0.081265 0.158390
O O5 0.882049 0.326003 0.577502
O O6 0.658159 0.468368 0.178978
O O7 0.000000 0.000000 0.500000
O O8 0.843705 0.102953 0.539939
O O9 0.114309 0.416075 0.309609
O O10 0.450472 0.218714 0.654876
O O11 0.715422 0.698104 0.232742
O O12 0.795402 0.392919 0.108984
O O13 0.431605 0.874021 0.839569
O O14 0.066392 0.320395 0.426228
O O15 0.164279 0.230116 0.760872
O O16 0.939471 0.870605 0.825358
O O17 0.500000 0.000000 0.500000
#
# Coordination Sequence:
#
# PCOD9084436 Si02
#       8
#     2   2   2   2   2   2   2   2
#     4   9  21  43  67  98 134 181 239 294 348 399
#     4   9  17  34  62  97 129 173 219 271 347 415
#     4  10  20  40  65  90 136 177 220 293 341 412
#     4  10  19  34  67 103 139 178 224 282 365 425
#     4  10  21  37  63 105 144 178 222 289 358 428
#     4  10  22  40  64  96 140 181 227 281 359 409
#     4   9  19  39  70  98 140 185 232 292 342 415
#     4  11  25  42  69 101 137 186 238 289 352 422
#
# _framework density 24.181756
#
# number of rings (size 3 to 8) (size 9 to 14) (size 15 to 20)
#    0.000    2.250    1.250    0.750    1.750    4.000 
#    0.000    6.875    2.750    6.000    0.000    0.000 
#    0.000    0.000    0.000    0.000    0.000    0.000 
#
# Total GULP energy -89199.578455 kJ/mol
# GULP energy per Si atom -5574.973653 kJ/mol
# Density = 2.412672 g / cm^3
# Si number density = 24.181756 Si / 1000 Ang^3
#
#
#
# Elastic Constant Matrix: (Units=GPa)
#
#
# Indices 1 2 3 4 5 6 
#
# 1 122.4449 50.0474 71.1941 -6.7546 -22.5964 -2.5572
# 2 50.0474 132.7550 62.7100 -10.3554 -8.8099 -16.7766
# 3 71.1941 62.7100 186.4361 -21.9473 -19.3823 -0.1429
# 4 -6.7546 -10.3554 -21.9473 42.3931 0.0402 -3.0175
# 5 -22.5964 -8.8099 -19.3823 0.0402 42.3703 4.4192
# 6 -2.5572 -16.7766 -0.1429 -3.0175 4.4192 37.9807
#
#
#
# Elastic Compliance Matrix: (Units=1/GPa)
#
#
# Indices 1 2 3 4 5 6 
#
# 1 0.011975 -0.002877 -0.003208 -0.000534 0.004429 -0.001035
# 2 -0.002877 0.010324 -0.002328 0.001184 -0.000929 0.004560
# 3 -0.003208 -0.002328 0.007872 0.002912 0.001525 -0.001161
# 4 -0.000534 0.001184 0.002912 0.025470 0.001019 0.002403
# 5 0.004429 -0.000929 0.001525 0.001019 0.026794 -0.003143
# 6 -0.001035 0.004560 -0.001161 0.002403 -0.003143 0.028826
#
#
# Mechanical properties :
#
#
# Convention : Reuss Voigt Hill
#
# Bulk Modulus (GPa) = 74.93697 89.94878 82.44287
# Shear Modulus (GPa) = 37.72583 41.72778 39.72681
#
# Velocity S-wave (km/s) = 3.95409 4.15853 4.05760
# Velocity P-wave (km/s) = 7.20436 7.76759 7.49127
#
# Compressibility (1/GPa) = 0.01334455
#
# Stress axis : x y z
#
# Youngs Moduli (GPa) = 83.51046 96.86383 127.03114
#
# Poissons Ratio (x) = 0.27871 0.40752
# Poissons Ratio (y) = 0.24029 0.29567
# Poissons Ratio (z) = 0.26791 0.22545
#
# Static dielectric constant tensor:
#      x y z
#    x 2.024110 0.044220 -0.016330 
#    y 0.044220 2.132800 -0.017070 
#    z -0.016330 -0.017070 1.912030 
# 
# From -- ./inp_files/540276.got.cif
#   From: 2010.05.17/outbox.cif.g08.bks.cpg/sg2_271_cif.got.tgz:540276.got - 2010.06.03 11:33:40.
