data_PCOD9084859
_publ_section_title
;
Structure prediction by ZEFSAII (Michael W. Deem and Ramdas Pophale) SiO2 
 PCOD9084859
Probable space group: P -1
;
_chemical_formula_sum "Si O2"
_cell_formula_units_Z 16
_cell_length_a 15.149837
_cell_length_b 15.199769
_cell_length_c 14.805352
_cell_angle_alpha 48.858805
_cell_angle_beta 136.371122
_cell_angle_gamma 161.113750
_cell_volume 755.875691
_symmetry_space_group_name_H-M "P -1"
_symmetry_group_IT_number 2
_symmetry_cell_setting 'triclinic'
loop_
_space_group_symop_operation_xyz
x,y,z
-x,-y,-z
loop_
_atom_site_type_symbol
_atom_site_label
_atom_site_fract_x
_atom_site_fract_y
_atom_site_fract_z
Si Si1 0.694471 0.424059 0.626211
Si Si2 0.787543 0.871051 0.220761
Si Si3 0.602553 0.840576 0.744736
Si Si4 0.257819 0.984711 0.070394
Si Si5 0.867643 0.018898 0.369027
Si Si6 0.936615 0.337189 0.625283
Si Si7 0.574912 0.666492 0.672959
Si Si8 0.938798 0.497261 0.196197
O O1 0.631828 0.415966 0.482545
O O2 0.907509 0.487394 0.744374
O O3 0.859342 0.665803 0.636059
O O4 0.378220 0.143889 0.630328
O O5 0.593933 0.594139 0.260046
O O6 0.719619 0.887813 0.249284
O O7 0.760414 0.927871 0.074141
O O8 0.133599 0.118548 0.315462
O O9 0.765231 0.984057 0.865475
O O10 0.254830 0.533303 0.719251
O O11 0.680260 0.809328 0.748886
O O12 0.676969 0.027855 0.626660
O O13 0.585914 0.196585 0.158029
O O14 0.012332 0.680988 0.078247
O O15 0.000000 0.000000 0.500000
O O16 0.000000 0.500000 0.500000
O O17 0.902421 0.355557 0.688578
#
# Coordination Sequence:
#
# PCOD9084859 Si02
#       8
#     2   2   2   2   2   2   2   2
#     4  12  23  40  66  95 123 150 203 261 309 363
#     4  12  25  41  65  87 122 168 203 254 302 366
#     4  10  22  36  58  88 124 162 198 249 293 358
#     4  10  23  44  60  87 128 168 206 235 299 367
#     4  12  23  43  63  92 125 155 199 253 324 359
#     4  10  19  35  57  85 124 163 201 240 302 355
#     4  12  23  38  63  97 121 155 209 253 309 355
#     4  10  22  40  63  88 124 165 199 251 299 358
#
# _framework density 21.167501999999999
#
# number of rings (size 3 to 8) (size 9 to 14) (size 15 to 20)
#    0.000    1.000    2.500    4.500    0.000    4.000 
#    0.000    3.750    0.000    0.000    0.000    0.000 
#    0.000    0.000    0.000    0.000    0.000    0.000 
#
# Total GULP energy -89408.960703 kJ/mol
# GULP energy per Si atom -5588.060044 kJ/mol
# Density = 2.111932 g / cm^3
# Si number density = 21.167502 Si / 1000 Ang^3
#
#
#
# Elastic Constant Matrix: (Units=GPa)
#
#
# Indices 1 2 3 4 5 6 
#
# 1 145.1257 -14.6739 -53.6617 55.1104 6.7369 3.7543
# 2 -14.6739 83.1762 16.3433 -32.9119 1.6574 -1.8310
# 3 -53.6617 16.3433 148.0772 -73.4085 -31.2763 -15.2154
# 4 55.1104 -32.9119 -73.4085 71.7462 14.1709 2.9797
# 5 6.7369 1.6574 -31.2763 14.1709 24.4761 0.8396
# 6 3.7543 -1.8310 -15.2154 2.9797 0.8396 27.9090
#
#
#
# Elastic Compliance Matrix: (Units=1/GPa)
#
#
# Indices 1 2 3 4 5 6 
#
# 1 0.010047 -0.001961 -0.000433 -0.009489 0.002334 -0.000774
# 2 -0.001961 0.016335 0.003360 0.013138 -0.003944 0.001883
# 3 -0.000433 0.003360 0.018932 0.018293 0.013209 0.008249
# 4 -0.009489 0.013138 0.018293 0.046025 -0.001798 0.007252
# 5 0.002334 -0.003944 0.013209 -0.001798 0.058227 0.005069
# 6 -0.000774 0.001883 0.008249 0.007252 0.005069 0.039629
#
#
# Mechanical properties :
#
#
# Convention : Reuss Voigt Hill
#
# Bulk Modulus (GPa) = 21.16533 30.26604 25.71569
# Shear Modulus (GPa) = 24.62923 53.38435 39.00679
#
# Velocity S-wave (km/s) = 3.41477 5.02740 4.29740
# Velocity P-wave (km/s) = 5.05650 6.93030 6.06619
#
# Compressibility (1/GPa) = 0.04724708
#
# Stress axis : x y z
#
# Youngs Moduli (GPa) = 99.52996 61.21724 52.82173
#
# Poissons Ratio (x) = 0.12002 0.02289
# Poissons Ratio (y) = 0.19514 -0.17750
# Poissons Ratio (z) = 0.04312 -0.20571
#
# Static dielectric constant tensor:
#      x y z
#    x 1.748390 0.009880 -0.002000 
#    y 0.009880 1.731470 0.010990 
#    z -0.002000 0.010990 1.803720 
# 
# From -- ./inp_files/474905.got.cif
#   From: 2010.05.17/outbox.cif.g08.bks.cpg/sg2_238_cif.got.tgz:474905.got - 2010.06.03 11:33:40.
