data_PCOD9084448
_publ_section_title
;
Structure prediction by ZEFSAII (Michael W. Deem and Ramdas Pophale) SiO2 
 PCOD9084448
Probable space group: P -1
;
_chemical_formula_sum "Si O2"
_cell_formula_units_Z 16
_cell_length_a 16.471051
_cell_length_b 13.123316
_cell_length_c 26.587821
_cell_angle_alpha 157.761391
_cell_angle_beta 21.817334
_cell_angle_gamma 145.761507
_cell_volume 786.330316
_symmetry_space_group_name_H-M "P -1"
_symmetry_group_IT_number 2
_symmetry_cell_setting 'triclinic'
loop_
_space_group_symop_operation_xyz
x,y,z
-x,-y,-z
loop_
_atom_site_type_symbol
_atom_site_label
_atom_site_fract_x
_atom_site_fract_y
_atom_site_fract_z
Si Si1 0.538424 0.925903 0.002604
Si Si2 0.018939 0.883297 0.718589
Si Si3 0.748272 0.915940 0.411129
Si Si4 0.019913 0.885997 0.046330
Si Si5 0.293984 0.394378 0.613509
Si Si6 0.826261 0.253340 0.243396
Si Si7 0.511518 0.535479 0.304079
Si Si8 0.353778 0.437830 0.874559
O O1 0.510264 0.226186 0.180951
O O2 0.377567 0.725179 0.016172
O O3 0.798804 0.765149 0.785236
O O4 0.500000 0.000000 0.000000
O O5 0.256141 0.680253 0.502077
O O6 0.056480 0.042952 0.719339
O O7 0.968251 0.082638 0.886853
O O8 0.812354 0.785129 0.368639
O O9 0.609935 0.721050 0.371939
O O10 0.583285 0.211591 0.648572
O O11 0.836242 0.704536 0.060703
O O12 0.920974 0.185148 0.214124
O O13 0.245263 0.701225 0.807726
O O14 0.560458 0.255922 0.395636
O O15 0.182820 0.467894 0.656223
O O16 0.000000 0.000000 0.000000
O O17 0.650605 0.532793 0.170617
#
# Coordination Sequence:
#
# PCOD9084448 Si02
#       8
#     2   2   2   2   2   2   2   2
#     4  10  24  35  47  75 121 155 191 222 270 333
#     4  11  21  35  57  80 115 158 181 226 279 324
#     4  11  19  33  59  85 114 144 196 227 271 335
#     4  11  19  34  59  82 111 145 190 231 273 322
#     4  10  20  30  53  85 110 142 180 230 290 327
#     4   9  19  36  51  79 117 139 175 239 288 323
#     4  10  19  35  51  76 112 153 191 225 264 329
#     4  10  19  35  50  78 116 150 183 236 265 318
#
# _framework density 20.347683
#
# number of rings (size 3 to 8) (size 9 to 14) (size 15 to 20)
#    0.000    1.750    3.750    1.500    3.500    5.500 
#    0.000    0.000    0.000    0.000    0.000   14.875 
#    0.000    1.625    0.000    0.000    0.000    0.000 
#
# Total GULP energy -89155.421962 kJ/mol
# GULP energy per Si atom -5572.213873 kJ/mol
# Density = 2.030137 g / cm^3
# Si number density = 20.347683 Si / 1000 Ang^3
#
#
#
# Elastic Constant Matrix: (Units=GPa)
#
#
# Indices 1 2 3 4 5 6 
#
# 1 37.3022 47.9321 15.4684 -5.4045 -8.5277 -20.4745
# 2 47.9321 75.5804 12.5361 9.5331 -4.7569 -5.1217
# 3 15.4684 12.5361 104.3431 -7.5629 -18.5010 -2.4086
# 4 -5.4045 9.5331 -7.5629 33.2459 -1.6059 -3.0794
# 5 -8.5277 -4.7569 -18.5010 -1.6059 24.8573 -1.4773
# 6 -20.4745 -5.1217 -2.4086 -3.0794 -1.4773 33.4618
#
#
#
# Elastic Compliance Matrix: (Units=1/GPa)
#
#
# Indices 1 2 3 4 5 6 
#
# 1 -0.109484 0.069347 -0.002686 -0.045648 -0.032936 -0.062225
# 2 0.069347 -0.029668 -0.000061 0.024644 0.022104 0.041130
# 3 -0.002686 -0.000061 0.011556 0.002565 0.007820 -0.000240
# 4 -0.045648 0.024644 0.002565 0.013571 -0.009534 -0.023146
# 5 -0.032936 0.022104 0.007820 -0.009534 0.037448 -0.015431
# 6 -0.062225 0.041130 -0.000240 -0.023146 -0.015431 -0.004722
#
#
# Mechanical properties :
#
#
# Convention : Reuss Voigt Hill
#
# Bulk Modulus (GPa) = 178.43269 41.01099 109.72184
# Shear Modulus (GPa) = -23.51474 27.73228 2.10877
#
# Velocity S-wave (km/s) = -3.40317 3.69578 1.01913
# Velocity P-wave (km/s) = 8.51118 6.19763 7.44482
#
# Compressibility (1/GPa) = 0.00560435
#
# Stress axis : x y z
#
# Youngs Moduli (GPa) = -9.13372 -33.70636 86.53412
#
# Poissons Ratio (x) = 2.33744 0.23241
# Poissons Ratio (y) = 0.63340 0.00529
# Poissons Ratio (z) = -0.02453 -0.00206
#
# Static dielectric constant tensor:
#      x y z
#    x 1.801820 -0.043850 -0.015840 
#    y -0.043850 1.738350 -0.002830 
#    z -0.015840 -0.002830 1.809820 
# 
# From -- ./inp_files/503378.got.cif
#   From: 2010.05.17/outbox.cif.g08.bks.cpg/sg2_252_cif.got.tgz:503378.got - 2010.06.03 11:33:40.
