data_PCOD9084584
_publ_section_title
;
Structure prediction by ZEFSAII (Michael W. Deem and Ramdas Pophale) SiO2 
 PCOD9084584
Probable space group: P -1
;
_chemical_formula_sum "Si O2"
_cell_formula_units_Z 16
_cell_length_a 10.806529
_cell_length_b 8.162626
_cell_length_c 16.788472
_cell_angle_alpha 108.164175
_cell_angle_beta 24.195722
_cell_angle_gamma 108.178178
_cell_volume 575.257832
_symmetry_space_group_name_H-M "P -1"
_symmetry_group_IT_number 2
_symmetry_cell_setting 'triclinic'
loop_
_space_group_symop_operation_xyz
x,y,z
-x,-y,-z
loop_
_atom_site_type_symbol
_atom_site_label
_atom_site_fract_x
_atom_site_fract_y
_atom_site_fract_z
Si Si1 0.756146 0.147505 0.399754
Si Si2 0.540744 0.561942 0.895671
Si Si3 0.461304 0.067789 0.771382
Si Si4 0.001107 0.316774 0.552985
Si Si5 0.001043 0.695371 0.883941
Si Si6 0.394659 0.785048 0.892407
Si Si7 0.741854 0.629166 0.273453
Si Si8 0.177225 0.146448 0.583355
O O1 0.555492 0.294271 0.576595
O O2 0.917088 0.230928 0.240656
O O3 0.500000 0.000000 0.500000
O O4 0.951910 0.029093 0.322423
O O5 0.866099 0.501649 0.669986
O O6 0.465837 0.750660 0.938504
O O7 0.500000 0.500000 0.000000
O O8 0.283454 0.444096 0.983416
O O9 0.763277 0.195923 0.622152
O O10 0.428633 0.971681 0.861152
O O11 0.527896 0.927945 0.644053
O O12 0.159388 0.163495 0.949864
O O13 0.337834 0.313874 0.321364
O O14 0.001868 0.225507 0.625625
O O15 0.247052 0.576002 0.758601
O O16 0.053110 0.709573 0.065138
O O17 0.757016 0.705679 0.366797
#
# Coordination Sequence:
#
# PCOD9084584 Si02
#       8
#     2   2   2   2   2   2   2   2
#     4  10  21  39  62  85 112 152 197 246 291 332
#     4  10  21  35  57  88 119 154 193 232 287 351
#     4  10  21  37  57  85 119 152 188 238 292 346
#     4  10  20  36  56  84 120 154 188 237 291 345
#     4  10  21  38  59  84 117 151 189 239 292 345
#     4  10  19  35  55  78 112 153 187 229 285 340
#     4  10  21  39  59  82 113 152 195 241 286 337
#     4  10  20  37  58  84 113 148 196 236 282 346
#
# _framework density 27.813616
#
# number of rings (size 3 to 8) (size 9 to 14) (size 15 to 20)
#    0.000    2.000    0.000    5.250    0.000    2.000 
#    0.000   23.125    0.000    0.000    0.000    0.000 
#    0.000    0.000    0.000    0.000    0.000    0.000 
#
# Total GULP energy -89608.068736 kJ/mol
# GULP energy per Si atom -5600.504296 kJ/mol
# Density = 2.775031 g / cm^3
# Si number density = 27.813616 Si / 1000 Ang^3
#
#
#
# Elastic Constant Matrix: (Units=GPa)
#
#
# Indices 1 2 3 4 5 6 
#
# 1 108.7170 57.7217 25.0099 0.8248 5.2630 -23.3596
# 2 57.7217 141.4794 56.4792 20.7790 -6.8241 -24.9945
# 3 25.0099 56.4792 164.9682 5.2896 -5.9997 0.3425
# 4 0.8248 20.7790 5.2896 63.4476 -1.2517 -6.4634
# 5 5.2630 -6.8241 -5.9997 -1.2517 35.6138 -5.6890
# 6 -23.3596 -24.9945 0.3425 -6.4634 -5.6890 53.7154
#
#
#
# Elastic Compliance Matrix: (Units=1/GPa)
#
#
# Indices 1 2 3 4 5 6 
#
# 1 0.012621 -0.004770 -0.000425 0.001718 -0.002273 0.003238
# 2 -0.004770 0.011332 -0.002965 -0.003027 0.002773 0.003147
# 3 -0.000425 -0.002965 0.007154 0.000233 0.000463 -0.001533
# 4 0.001718 -0.003027 0.000233 0.016850 0.000016 0.001367
# 5 -0.002273 0.002773 0.000463 0.000016 0.029573 0.003433
# 6 0.003238 0.003147 -0.001533 0.001367 0.003433 0.022027
#
#
# Mechanical properties :
#
#
# Convention : Reuss Voigt Hill
#
# Bulk Modulus (GPa) = 67.62445 77.06514 72.34479
# Shear Modulus (GPa) = 41.38867 48.95228 45.17047
#
# Velocity S-wave (km/s) = 3.86174 4.19980 4.03431
# Velocity P-wave (km/s) = 6.65209 7.16140 6.91143
#
# Compressibility (1/GPa) = 0.01478755
#
# Stress axis : x y z
#
# Youngs Moduli (GPa) = 79.23305 88.24483 139.78288
#
# Poissons Ratio (x) = 0.42089 0.05940
# Poissons Ratio (y) = 0.37790 0.41449
# Poissons Ratio (z) = 0.03367 0.26167
#
# Static dielectric constant tensor:
#      x y z
#    x 2.176260 -0.044070 0.028150 
#    y -0.044070 2.193500 0.001080 
#    z 0.028150 0.001080 2.195960 
# 
# From -- ./inp_files/596990.got.cif
#   From: 2010.05.17/outbox.cif.g08.bks.cpg/sg2_299_cif.got.tgz:596990.got - 2010.06.03 11:33:40.
