data_PCOD9084339
_publ_section_title
;
Structure prediction by ZEFSAII (Michael W. Deem and Ramdas Pophale) SiO2 
 PCOD9084339
Probable space group: P -1
;
_chemical_formula_sum "Si O2"
_cell_formula_units_Z 16
_cell_length_a 8.951558
_cell_length_b 14.362347
_cell_length_c 6.571247
_cell_angle_alpha 73.065805
_cell_angle_beta 107.419401
_cell_angle_gamma 124.400091
_cell_volume 657.061449
_symmetry_space_group_name_H-M "P -1"
_symmetry_group_IT_number 2
_symmetry_cell_setting 'triclinic'
loop_
_space_group_symop_operation_xyz
x,y,z
-x,-y,-z
loop_
_atom_site_type_symbol
_atom_site_label
_atom_site_fract_x
_atom_site_fract_y
_atom_site_fract_z
Si Si1 0.800885 0.525383 0.116441
Si Si2 0.616001 0.969976 0.913328
Si Si3 0.229470 0.785419 0.256006
Si Si4 0.799853 0.720834 0.732234
Si Si5 0.837167 0.352335 0.055150
Si Si6 0.139850 0.970367 0.673015
Si Si7 0.105260 0.369995 0.519491
Si Si8 0.561570 0.836218 0.597323
O O1 0.713509 0.403066 0.045182
O O2 0.781221 0.520864 0.355546
O O3 0.762024 0.617134 0.934996
O O4 0.012624 0.570381 0.108342
O O5 0.714058 0.086824 0.754190
O O6 0.527498 0.867661 0.786083
O O7 0.773683 0.971551 0.112833
O O8 0.500000 0.000000 0.000000
O O9 0.025977 0.716021 0.306433
O O10 0.370155 0.763826 0.449575
O O11 0.253849 0.761638 0.045968
O O12 0.672506 0.771730 0.688957
O O13 0.011186 0.832976 0.744281
O O14 0.773385 0.667008 0.530567
O O15 0.961423 0.359124 0.294021
O O16 0.315728 0.042531 0.550808
O O17 0.000000 0.000000 0.500000
#
# Coordination Sequence:
#
# PCOD9084339 Si02
#       8
#     2   2   2   2   2   2   2   2
#     4   9  18  36  59  91 120 154 195 250 297 356
#     4  12  24  38  64  86 119 162 205 246 297 358
#     4  11  23  38  61  90 120 159 201 252 293 361
#     4  10  22  38  60  86 125 156 200 243 301 360
#     4   9  19  35  61  90 120 151 202 246 298 352
#     4  10  22  39  59  87 121 159 198 246 295 355
#     4  10  19  34  63  88 120 153 198 245 303 347
#     4  11  25  40  58  88 124 162 199 245 303 357
#
# _framework density 24.350842
#
# number of rings (size 3 to 8) (size 9 to 14) (size 15 to 20)
#    0.000    1.750    1.250    3.750    3.500    5.000 
#    0.000    0.625    0.000    1.500    0.000    0.000 
#    0.000    0.000    0.000    0.000    0.000    0.000 
#
# Total GULP energy -89132.554106 kJ/mol
# GULP energy per Si atom -5570.784632 kJ/mol
# Density = 2.429542 g / cm^3
# Si number density = 24.350842 Si / 1000 Ang^3
#
#
#
# Elastic Constant Matrix: (Units=GPa)
#
#
# Indices 1 2 3 4 5 6 
#
# 1 71.3879 19.2162 49.8087 6.5848 -1.8537 -24.4671
# 2 19.2162 94.9948 49.6788 7.6193 -5.2855 -39.2958
# 3 49.8087 49.6788 130.5413 30.1340 -4.5484 -47.6006
# 4 6.5848 7.6193 30.1340 38.4044 -10.5009 -11.2649
# 5 -1.8537 -5.2855 -4.5484 -10.5009 40.8572 -1.5198
# 6 -24.4671 -39.2958 -47.6006 -11.2649 -1.5198 34.4601
#
#
#
# Elastic Compliance Matrix: (Units=1/GPa)
#
#
# Indices 1 2 3 4 5 6 
#
# 1 0.021106 0.003965 -0.005723 0.004657 0.002523 0.013235
# 2 0.003965 0.021914 -0.000034 0.005201 0.005452 0.029698
# 3 -0.005723 -0.000034 0.018679 -0.007923 0.000491 0.019131
# 4 0.004657 0.005201 -0.007923 0.036167 0.009690 0.010544
# 5 0.002523 0.005452 0.000491 0.009690 0.028328 0.013104
# 6 0.013235 0.029698 0.019131 0.010544 0.013104 0.102732
#
#
# Mechanical properties :
#
#
# Convention : Reuss Voigt Hill
#
# Bulk Modulus (GPa) = 17.20737 59.37016 38.28877
# Shear Modulus (GPa) = 19.85064 34.62568 27.23816
#
# Velocity S-wave (km/s) = 2.85826 3.77497 3.34813
# Velocity P-wave (km/s) = 4.23965 6.59049 5.54117
#
# Compressibility (1/GPa) = 0.05811462
#
# Stress axis : x y z
#
# Youngs Moduli (GPa) = 47.38025 45.63371 53.53617
#
# Poissons Ratio (x) = -0.18095 0.30639
# Poissons Ratio (y) = -0.18788 0.00183
# Poissons Ratio (z) = 0.27116 0.00156
#
# Static dielectric constant tensor:
#      x y z
#    x 1.952500 0.080130 0.001520 
#    y 0.080130 2.286080 0.025640 
#    z 0.001520 0.025640 1.982680 
# 
# From -- ./inp_files/38916.got.cif
#   From: 2010.05.17/outbox.cif.g08.bks.cpg/sg2_20_cif.got.tgz:38916.got - 2010.06.03 11:33:40.
