data_PCOD9084419
_publ_section_title
;
Structure prediction by ZEFSAII (Michael W. Deem and Ramdas Pophale) SiO2 
 PCOD9084419
Probable space group: P -1
;
_chemical_formula_sum "Si O2"
_cell_formula_units_Z 16
_cell_length_a 15.826878
_cell_length_b 10.385715
_cell_length_c 15.124849
_cell_angle_alpha 123.246108
_cell_angle_beta 149.098464
_cell_angle_gamma 34.746274
_cell_volume 614.456085
_symmetry_space_group_name_H-M "P -1"
_symmetry_group_IT_number 2
_symmetry_cell_setting 'triclinic'
loop_
_space_group_symop_operation_xyz
x,y,z
-x,-y,-z
loop_
_atom_site_type_symbol
_atom_site_label
_atom_site_fract_x
_atom_site_fract_y
_atom_site_fract_z
Si Si1 0.880532 0.335536 0.199530
Si Si2 0.781839 0.841311 0.860670
Si Si3 0.415204 0.759363 0.372255
Si Si4 0.967130 0.524893 0.739316
Si Si5 0.628210 0.632557 0.695776
Si Si6 0.516712 0.313385 0.891594
Si Si7 0.789745 0.990342 0.202247
Si Si8 0.604394 0.317345 0.320775
O O1 0.914403 0.479052 0.241056
O O2 0.641162 0.381590 0.998171
O O3 0.815557 0.420540 0.277549
O O4 0.140158 0.050720 0.276085
O O5 0.597714 0.833416 0.717015
O O6 0.930098 0.681767 0.841711
O O7 0.045279 0.647564 0.091844
O O8 0.596274 0.132976 0.819116
O O9 0.559015 0.592111 0.530645
O O10 0.379037 0.631942 0.235892
O O11 0.645699 0.698173 0.512359
O O12 0.164239 0.228866 0.832660
O O13 0.448854 0.739476 0.661092
O O14 0.677059 0.128294 0.056324
O O15 0.593712 0.216149 0.188167
O O16 0.092427 0.831682 0.445515
#
# Coordination Sequence:
#
# PCOD9084419 Si02
#       8
#     2   2   2   2   2   2   2   2
#     4  11  25  42  64  89 132 175 201 254 319 378
#     4  10  21  38  61  96 121 161 215 256 314 366
#     4  10  20  41  63  92 127 166 211 254 313 377
#     4  10  23  42  68  95 125 163 210 268 309 369
#     4  10  19  34  65  93 122 160 208 267 306 361
#     4  11  24  43  61  91 131 171 207 256 313 377
#     4  10  22  40  64  96 126 155 215 268 311 358
#     4  10  20  35  65  96 120 163 208 267 312 360
#
# _framework density 26.039287999999999
#
# number of rings (size 3 to 8) (size 9 to 14) (size 15 to 20)
#    0.000    1.750    0.000    5.250    3.500    1.000 
#    4.500    2.500    5.500    0.000    0.000    0.000 
#    0.000    0.000    0.000    0.000    0.000    0.000 
#
# Total GULP energy -89398.814607 kJ/mol
# GULP energy per Si atom -5587.425913 kJ/mol
# Density = 2.598002 g / cm^3
# Si number density = 26.039288 Si / 1000 Ang^3
#
#
#
# Elastic Constant Matrix: (Units=GPa)
#
#
# Indices 1 2 3 4 5 6 
#
# 1 167.1821 57.8781 47.2898 15.4941 22.2948 1.2168
# 2 57.8781 191.1927 34.3837 2.1716 4.4650 -20.6361
# 3 47.2898 34.3837 54.3228 -2.7912 6.5660 -5.5786
# 4 15.4941 2.1716 -2.7912 24.4490 -7.5853 -5.8609
# 5 22.2948 4.4650 6.5660 -7.5853 47.4608 11.3697
# 6 1.2168 -20.6361 -5.5786 -5.8609 11.3697 20.1343
#
#
#
# Elastic Compliance Matrix: (Units=1/GPa)
#
#
# Indices 1 2 3 4 5 6 
#
# 1 0.010638 -0.002119 -0.008601 -0.010152 -0.003790 -0.006012
# 2 -0.002119 0.007024 -0.001528 0.002166 -0.001056 0.008131
# 3 -0.008601 -0.001528 0.028561 0.011192 -0.000468 0.010389
# 4 -0.010152 0.002166 0.011192 0.055007 0.007576 0.017668
# 5 -0.003790 -0.001056 -0.000468 0.007576 0.027676 -0.014406
# 6 -0.006012 0.008131 0.010389 0.017668 -0.014406 0.074520
#
#
# Mechanical properties :
#
#
# Convention : Reuss Voigt Hill
#
# Bulk Modulus (GPa) = 46.02112 76.86672 61.44392
# Shear Modulus (GPa) = 21.26192 36.61855 28.94023
#
# Velocity S-wave (km/s) = 2.86060 3.75411 3.33739
# Velocity P-wave (km/s) = 5.35003 6.95519 6.20474
#
# Compressibility (1/GPa) = 0.02172915
#
# Stress axis : x y z
#
# Youngs Moduli (GPa) = 94.00349 142.36824 35.01288
#
# Poissons Ratio (x) = 0.30164 0.30113
# Poissons Ratio (y) = 0.19917 0.05349
# Poissons Ratio (z) = 0.80848 0.21749
#
# Static dielectric constant tensor:
#      x y z
#    x 2.034130 -0.022180 -0.040290 
#    y -0.022180 2.139380 -0.064750 
#    z -0.040290 -0.064750 2.160770 
# 
# From -- ./inp_files/575970.got.cif
#   From: 2010.05.17/outbox.cif.g08.bks.cpg/sg2_288_cif.got.tgz:575970.got - 2010.06.03 11:33:40.
