data_PCOD9084939
_publ_section_title
;
Structure prediction by ZEFSAII (Michael W. Deem and Ramdas Pophale) SiO2 
 PCOD9084939
Probable space group: P -1
;
_chemical_formula_sum "Si O2"
_cell_formula_units_Z 16
_cell_length_a 9.026157
_cell_length_b 14.370254
_cell_length_c 11.754295
_cell_angle_alpha 113.929705
_cell_angle_beta 42.893637
_cell_angle_gamma 84.316989
_cell_volume 731.325259
_symmetry_space_group_name_H-M "P -1"
_symmetry_group_IT_number 2
_symmetry_cell_setting 'triclinic'
loop_
_space_group_symop_operation_xyz
x,y,z
-x,-y,-z
loop_
_atom_site_type_symbol
_atom_site_label
_atom_site_fract_x
_atom_site_fract_y
_atom_site_fract_z
Si Si1 0.934329 0.835126 0.349188
Si Si2 0.371990 0.473836 0.685241
Si Si3 0.242706 0.738836 0.887787
Si Si4 0.373054 0.788622 0.515761
Si Si5 0.297755 0.014901 0.801867
Si Si6 0.058168 0.100997 0.380128
Si Si7 0.035362 0.392634 0.816772
Si Si8 0.473607 0.880639 0.873382
O O1 0.610611 0.957127 0.558214
O O2 0.002172 0.881953 0.443747
O O3 0.952594 0.710713 0.317804
O O4 0.129008 0.776219 0.100331
O O5 0.636954 0.318926 0.470516
O O6 0.138924 0.471097 0.752034
O O7 0.381874 0.588826 0.704938
O O8 0.247110 0.515164 0.906138
O O9 0.452446 0.772743 0.783811
O O10 0.960777 0.841841 0.024258
O O11 0.253598 0.916546 0.721365
O O12 0.709888 0.708360 0.286431
O O13 0.220911 0.828216 0.501806
O O14 0.337286 0.989572 0.902283
O O15 0.225442 0.157638 0.291232
O O16 0.277883 0.954174 0.130710
#
# Coordination Sequence:
#
# PCOD9084939 Si02
#       8
#     2   2   2   2   2   2   2   2
#     4   9  19  33  56  84 107 134 177 225 264 312
#     4   8  16  31  56  79 111 130 173 224 271 303
#     4  11  19  33  56  85 108 131 175 235 266 298
#     4   9  16  32  57  77  98 146 184 207 250 335
#     4  10  19  35  58  78 104 139 185 217 264 319
#     4  10  20  36  55  73 108 153 178 206 263 331
#     4   7  14  32  54  75 109 137 168 212 270 320
#     4  10  22  36  53  76 111 147 177 216 266 316
#
# _framework density 21.878091999999999
#
# number of rings (size 3 to 8) (size 9 to 14) (size 15 to 20)
#    0.750    2.000    1.250    0.750    0.000    0.500 
#    0.000    3.750    0.000    0.000    0.000    0.000 
#    0.000    0.000    0.000    0.000    0.000    0.000 
#
# Total GULP energy -89134.215877 kJ/mol
# GULP energy per Si atom -5570.888492 kJ/mol
# Density = 2.182830 g / cm^3
# Si number density = 21.878092 Si / 1000 Ang^3
#
#
#
# Elastic Constant Matrix: (Units=GPa)
#
#
# Indices 1 2 3 4 5 6 
#
# 1 105.8411 30.5862 9.2641 11.4921 23.0846 -4.2783
# 2 30.5862 81.8152 13.8061 12.0890 13.8118 22.0807
# 3 9.2641 13.8061 59.1201 11.0789 20.6979 -12.1877
# 4 11.4921 12.0890 11.0789 33.0317 6.8471 10.5919
# 5 23.0846 13.8118 20.6979 6.8471 30.6056 0.2787
# 6 -4.2783 22.0807 -12.1877 10.5919 0.2787 31.2419
#
#
#
# Elastic Compliance Matrix: (Units=1/GPa)
#
#
# Indices 1 2 3 4 5 6 
#
# 1 0.014419 -0.006919 0.006826 -0.006242 -0.011080 0.011742
# 2 -0.006919 0.021272 -0.009504 0.004335 0.001269 -0.021170
# 3 0.006826 -0.009504 0.033029 -0.013920 -0.020313 0.025438
# 4 -0.006242 0.004335 -0.013920 0.042569 0.002859 -0.023807
# 5 -0.011080 0.001269 -0.020313 0.002859 0.053663 -0.011787
# 6 0.011742 -0.021170 0.025438 -0.023807 -0.011787 0.066679
#
#
# Mechanical properties :
#
#
# Convention : Reuss Voigt Hill
#
# Bulk Modulus (GPa) = 20.19172 39.34324 29.76748
# Shear Modulus (GPa) = 18.70322 31.85050 25.27686
#
# Velocity S-wave (km/s) = 2.92701 3.81966 3.40273
# Velocity P-wave (km/s) = 4.54669 6.12168 5.39201
#
# Compressibility (1/GPa) = 0.04952524
#
# Stress axis : x y z
#
# Youngs Moduli (GPa) = 69.35270 47.01086 30.27649
#
# Poissons Ratio (x) = 0.32525 -0.20666
# Poissons Ratio (y) = 0.47982 0.28776
# Poissons Ratio (z) = -0.47339 0.44681
#
# Static dielectric constant tensor:
#      x y z
#    x 1.776450 0.056860 0.009220 
#    y 0.056860 1.920730 -0.062950 
#    z 0.009220 -0.062950 1.871270 
# 
# From -- ./inp_files/397535.got.cif
#   From: 2010.05.17/outbox.cif.g08.bks.cpg/sg2_199_cif.got.tgz:397535.got - 2010.06.03 11:33:40.
