data_PCOD9084639
_publ_section_title
;
Structure prediction by ZEFSAII (Michael W. Deem and Ramdas Pophale) SiO2 
 PCOD9084639
Probable space group: P -1
;
_chemical_formula_sum "Si O2"
_cell_formula_units_Z 16
_cell_length_a 12.069984
_cell_length_b 10.521186
_cell_length_c 19.830355
_cell_angle_alpha 36.487857
_cell_angle_beta 136.035705
_cell_angle_gamma 108.315534
_cell_volume 798.291768
_symmetry_space_group_name_H-M "P -1"
_symmetry_group_IT_number 2
_symmetry_cell_setting 'triclinic'
loop_
_space_group_symop_operation_xyz
x,y,z
-x,-y,-z
loop_
_atom_site_type_symbol
_atom_site_label
_atom_site_fract_x
_atom_site_fract_y
_atom_site_fract_z
Si Si1 0.615914 0.602625 0.699586
Si Si2 0.041604 0.520225 0.748025
Si Si3 0.454963 0.356031 0.986129
Si Si4 0.563238 0.970821 0.312576
Si Si5 0.357493 0.508987 0.088851
Si Si6 0.295096 0.915512 0.305859
Si Si7 0.003790 0.439648 0.127040
Si Si8 0.052401 0.029014 0.934922
O O1 0.564894 0.593516 0.758051
O O2 0.429411 0.777603 0.490515
O O3 0.757262 0.697765 0.718733
O O4 0.766263 0.281776 0.878014
O O5 0.208961 0.548006 0.784379
O O6 0.039232 0.524152 0.826955
O O7 0.105720 0.230886 0.874382
O O8 0.807749 0.756926 0.521463
O O9 0.579183 0.321681 0.989329
O O10 0.500000 0.500000 0.000000
O O11 0.514816 0.086953 0.166008
O O12 0.450765 0.853072 0.340046
O O13 0.468443 0.233038 0.209142
O O14 0.110081 0.671285 0.905313
O O15 0.154274 0.836822 0.256867
O O16 0.129188 0.251798 0.094868
O O17 0.000000 0.000000 0.000000
#
# Coordination Sequence:
#
# PCOD9084639 Si02
#       8
#     2   2   2   2   2   2   2   2
#     4  11  22  38  58  87 120 154 183 230 294 346
#     4  12  20  37  58  88 113 144 193 239 284 326
#     4  10  20  39  58  83 116 147 196 235 278 335
#     4  10  20  35  59  87 113 147 192 237 285 329
#     4  10  22  40  57  84 122 152 186 235 288 345
#     4  10  19  35  55  88 113 147 189 228 289 338
#     4  10  19  37  56  87 117 147 182 239 288 337
#     4  11  21  37  58  84 118 150 190 239 280 338
#
# _framework density 20.042797
#
# number of rings (size 3 to 8) (size 9 to 14) (size 15 to 20)
#    0.000    1.500    7.500    0.375    0.000    7.000 
#    4.500    0.625    0.000    1.500    0.000    0.000 
#    0.000    0.000    0.000    0.000    0.000    0.000 
#
# Total GULP energy -89353.801022 kJ/mol
# GULP energy per Si atom -5584.612564 kJ/mol
# Density = 1.999718 g / cm^3
# Si number density = 20.042797 Si / 1000 Ang^3
#
#
#
# Elastic Constant Matrix: (Units=GPa)
#
#
# Indices 1 2 3 4 5 6 
#
# 1 108.9206 27.8787 33.3911 25.3047 -14.0499 5.5809
# 2 27.8787 37.3993 17.8681 11.1704 3.6534 12.3475
# 3 33.3911 17.8681 116.5103 36.3868 4.5691 0.8673
# 4 25.3047 11.1704 36.3868 31.2351 -1.1326 8.5549
# 5 -14.0499 3.6534 4.5691 -1.1326 33.7456 11.4022
# 6 5.5809 12.3475 0.8673 8.5549 11.4022 24.7541
#
#
#
# Elastic Compliance Matrix: (Units=1/GPa)
#
#
# Indices 1 2 3 4 5 6 
#
# 1 0.014207 -0.008993 -0.000537 -0.007725 0.006348 0.001047
# 2 -0.008993 0.040991 -0.004415 0.002852 -0.001165 -0.018713
# 3 -0.000537 -0.004415 0.015739 -0.019719 -0.006442 0.011554
# 4 -0.007725 0.002852 -0.019719 0.068138 0.010715 -0.027474
# 5 0.006348 -0.001165 -0.006442 0.010715 0.041566 -0.023473
# 6 0.001047 -0.018713 0.011554 -0.027474 -0.023473 0.069398
#
#
# Mechanical properties :
#
#
# Convention : Reuss Voigt Hill
#
# Bulk Modulus (GPa) = 23.22932 46.78953 35.00942
# Shear Modulus (GPa) = 17.10702 30.19311 23.65007
#
# Velocity S-wave (km/s) = 2.92468 3.88549 3.43881
# Velocity P-wave (km/s) = 4.79792 6.59734 5.76823
#
# Compressibility (1/GPa) = 0.04304904
#
# Stress axis : x y z
#
# Youngs Moduli (GPa) = 70.38688 24.39535 63.53711
#
# Poissons Ratio (x) = 0.21938 0.03410
# Poissons Ratio (y) = 0.63295 0.28051
# Poissons Ratio (z) = 0.03778 0.10770
#
# Static dielectric constant tensor:
#      x y z
#    x 1.745730 0.011740 0.019310 
#    y 0.011740 1.732200 -0.006600 
#    z 0.019310 -0.006600 1.740650 
# 
# From -- ./inp_files/568596.got.cif
#   From: 2010.05.17/outbox.cif.g08.bks.cpg/sg2_285_cif.got.tgz:568596.got - 2010.06.03 11:33:40.
