data_PCOD9084247
_publ_section_title
;
Structure prediction by ZEFSAII (Michael W. Deem and Ramdas Pophale) SiO2 
 PCOD9084247
Probable space group: P -1
;
_chemical_formula_sum "Si O2"
_cell_formula_units_Z 14
_cell_length_a 13.905842
_cell_length_b 9.344654
_cell_length_c 9.834316
_cell_angle_alpha 44.791980
_cell_angle_beta 42.130112
_cell_angle_gamma 56.390193
_cell_volume 602.960737
_symmetry_space_group_name_H-M "P -1"
_symmetry_group_IT_number 2
_symmetry_cell_setting 'triclinic'
loop_
_space_group_symop_operation_xyz
x,y,z
-x,-y,-z
loop_
_atom_site_type_symbol
_atom_site_label
_atom_site_fract_x
_atom_site_fract_y
_atom_site_fract_z
Si Si1 0.228338 0.974931 0.655306
Si Si2 0.721947 0.777744 0.815114
Si Si3 0.723263 0.060083 0.868715
Si Si4 0.967078 0.788310 0.939321
Si Si5 0.952300 0.356510 0.341916
Si Si6 0.448430 0.584751 0.643274
Si Si7 0.377564 0.073140 0.684518
O O1 0.066689 0.940633 0.805329
O O2 0.323343 0.767476 0.655368
O O3 0.279068 0.152953 0.385457
O O4 0.242203 0.025974 0.764801
O O5 0.889556 0.714674 0.719660
O O6 0.682479 0.969280 0.828040
O O7 0.618351 0.599548 0.081271
O O8 0.823022 0.247348 0.622109
O O9 0.823048 0.884664 0.958768
O O10 0.603570 0.066213 0.105731
O O11 0.053176 0.709688 0.766198
O O12 0.941299 0.597851 0.189213
O O13 0.500000 0.500000 0.500000
O O14 0.586703 0.694605 0.480826
O O15 0.500000 0.000000 0.500000
#
# Coordination Sequence:
#
# PCOD9084247 Si02
#       7
#     2   2   2   2   2   2   2
#     4  11  22  41  64  92 129 161 200 262 324 353
#     4  11  20  37  68  95 121 161 210 260 304 368
#     4  11  20  39  64  93 123 161 211 249 307 376
#     4  10  19  34  63  97 125 158 197 263 314 360
#     4  10  19  34  62 101 125 151 208 260 307 362
#     4  11  23  42  65  88 123 168 216 250 296 371
#     4  10  25  45  61  87 132 170 199 260 312 366
#
# _framework density 23.218758999999999
#
# number of rings (size 3 to 8) (size 9 to 14) (size 15 to 20)
#    0.000    1.429    5.714    0.857    0.000    1.714 
#    0.000    3.571    0.000    0.000    0.000    0.000 
#    0.000    0.000    0.000    0.000    0.000    0.000 
#
# Total GULP energy -78222.556996 kJ/mol
# GULP energy per Si atom -5587.325500 kJ/mol
# Density = 2.316591 g / cm^3
# Si number density = 23.218759 Si / 1000 Ang^3
#
#
#
# Elastic Constant Matrix: (Units=GPa)
#
#
# Indices 1 2 3 4 5 6 
#
# 1 56.2939 6.7424 -1.3010 -5.0490 -15.3165 12.0303
# 2 6.7424 60.5453 19.9877 -0.0502 3.3723 13.5028
# 3 -1.3010 19.9877 182.9938 -26.3759 -7.9023 4.9649
# 4 -5.0490 -0.0502 -26.3759 33.3923 4.0038 -1.9701
# 5 -15.3165 3.3723 -7.9023 4.0038 41.9907 -0.8291
# 6 12.0303 13.5028 4.9649 -1.9701 -0.8291 36.9995
#
#
#
# Elastic Compliance Matrix: (Units=1/GPa)
#
#
# Indices 1 2 3 4 5 6 
#
# 1 0.021781 -0.001909 0.001308 0.003005 0.007935 -0.006223
# 2 -0.001909 0.019025 -0.002348 -0.002170 -0.002581 -0.006181
# 3 0.001308 -0.002348 0.006542 0.005186 0.001400 -0.000139
# 4 0.003005 -0.002170 0.005186 0.034675 -0.001041 0.000942
# 5 0.007935 -0.002581 0.001400 -0.001041 0.027254 -0.001271
# 6 -0.006223 -0.006181 -0.000139 0.000942 -0.001271 0.031347
#
#
# Mechanical properties :
#
#
# Convention : Reuss Voigt Hill
#
# Bulk Modulus (GPa) = 24.12558 38.96569 31.54564
# Shear Modulus (GPa) = 31.18408 40.77008 35.97708
#
# Velocity S-wave (km/s) = 3.66875 4.19491 3.94062
# Velocity P-wave (km/s) = 5.32535 6.34676 5.85836
#
# Compressibility (1/GPa) = 0.04144979
#
# Stress axis : x y z
#
# Youngs Moduli (GPa) = 45.91115 52.56327 152.85640
#
# Poissons Ratio (x) = 0.10034 -0.19994
# Poissons Ratio (y) = 0.08764 0.35892
# Poissons Ratio (z) = -0.06005 0.12342
#
# Static dielectric constant tensor:
#      x y z
#    x 1.981950 -0.091290 -0.076160 
#    y -0.091290 2.008800 0.200770 
#    z -0.076160 0.200770 2.100800 
# 
# From -- ./inp_files/178284.got.cif
#   From: 2010.05.17/outbox.cif.g08.bks.cpg/sg2_90_cif.got.tgz:178284.got - 2010.06.03 11:33:40.
