data_PCOD9084788
_publ_section_title
;
Structure prediction by ZEFSAII (Michael W. Deem and Ramdas Pophale) SiO2 
 PCOD9084788
Probable space group: P -1
;
_chemical_formula_sum "Si O2"
_cell_formula_units_Z 16
_cell_length_a 8.929552
_cell_length_b 10.548402
_cell_length_c 13.035218
_cell_angle_alpha 138.760197
_cell_angle_beta 99.308332
_cell_angle_gamma 59.503489
_cell_volume 643.059263
_symmetry_space_group_name_H-M "P -1"
_symmetry_group_IT_number 2
_symmetry_cell_setting 'triclinic'
loop_
_space_group_symop_operation_xyz
x,y,z
-x,-y,-z
loop_
_atom_site_type_symbol
_atom_site_label
_atom_site_fract_x
_atom_site_fract_y
_atom_site_fract_z
Si Si1 0.933562 0.983251 0.271796
Si Si2 0.101711 0.559186 0.452700
Si Si3 0.161708 0.465560 0.888186
Si Si4 0.283502 0.891752 0.949617
Si Si5 0.109133 0.613720 0.758037
Si Si6 0.541819 0.632177 0.000997
Si Si7 0.477879 0.742194 0.674288
Si Si8 0.106168 0.673198 0.280917
O O1 0.986623 0.928016 0.363831
O O2 0.951487 0.188245 0.358303
O O3 0.721172 0.067525 0.286336
O O4 0.074782 0.736610 0.077189
O O5 0.945811 0.507832 0.403568
O O6 0.313260 0.337325 0.371814
O O7 0.116048 0.605940 0.359514
O O8 0.218587 0.438462 0.759123
O O9 0.996894 0.433194 0.849609
O O10 0.341772 0.298794 0.878740
O O11 0.365182 0.832635 0.037329
O O12 0.431725 0.831614 0.841471
O O13 0.222377 0.720033 0.809378
O O14 0.096283 0.159994 0.088263
O O15 0.685716 0.454660 0.820020
O O16 0.500000 0.500000 0.000000
O O17 0.500000 0.500000 0.500000
#
# Coordination Sequence:
#
# PCOD9084788 Si02
#       8
#     2   2   2   2   2   2   2   2
#     4  10  19  35  57  80 118 145 184 236 283 331
#     4  10  21  37  56  87 112 149 194 233 279 342
#     4  10  20  37  57  87 112 147 193 234 277 342
#     4  11  21  39  59  82 118 151 186 240 288 329
#     4  10  22  36  60  86 112 151 194 229 290 336
#     4  11  20  33  56  88 112 142 186 235 285 331
#     4  10  21  37  59  84 114 150 189 231 285 340
#     4  10  21  35  59  84 112 149 192 230 286 328
#
# _framework density 24.881067000000002
#
# number of rings (size 3 to 8) (size 9 to 14) (size 15 to 20)
#    0.000    1.750    3.750    1.875    0.000    2.500 
#    0.000    2.500    0.000   12.000    0.000    0.000 
#    0.000    0.000    0.000    0.000    0.000    0.000 
#
# Total GULP energy -89370.082961 kJ/mol
# GULP energy per Si atom -5585.630185 kJ/mol
# Density = 2.482444 g / cm^3
# Si number density = 24.881067 Si / 1000 Ang^3
#
#
#
# Elastic Constant Matrix: (Units=GPa)
#
#
# Indices 1 2 3 4 5 6 
#
# 1 109.3896 -1.7569 28.2171 14.6034 2.4816 -2.8036
# 2 -1.7569 88.1311 5.1211 -9.6001 4.1523 -38.2755
# 3 28.2171 5.1211 37.9869 -7.5943 12.1037 -4.6685
# 4 14.6034 -9.6001 -7.5943 35.8623 3.5145 12.9462
# 5 2.4816 4.1523 12.1037 3.5145 42.6929 -1.1358
# 6 -2.8036 -38.2755 -4.6685 12.9462 -1.1358 40.4840
#
#
#
# Elastic Compliance Matrix: (Units=1/GPa)
#
#
# Indices 1 2 3 4 5 6 
#
# 1 0.013927 0.001647 -0.013209 -0.009936 0.003707 0.004280
# 2 0.001647 0.019597 -0.001792 -0.002687 -0.000760 0.019274
# 3 -0.013209 -0.001792 0.043356 0.016506 -0.012795 -0.003246
# 4 -0.009936 -0.002687 0.016506 0.040703 -0.007579 -0.014554
# 5 0.003707 -0.000760 -0.012795 -0.007579 0.027566 0.001260
# 6 0.004280 0.019274 -0.003246 -0.014554 0.001260 0.047535
#
#
# Mechanical properties :
#
#
# Convention : Reuss Voigt Hill
#
# Bulk Modulus (GPa) = 19.93101 33.18557 26.55829
# Shear Modulus (GPa) = 21.17600 37.40294 29.28947
#
# Velocity S-wave (km/s) = 2.92051 3.88141 3.43473
# Velocity P-wave (km/s) = 4.40459 5.78392 5.14073
#
# Compressibility (1/GPa) = 0.05017306
#
# Stress axis : x y z
#
# Youngs Moduli (GPa) = 71.80132 51.02722 23.06503
#
# Poissons Ratio (x) = -0.08404 0.30466
# Poissons Ratio (y) = -0.11825 0.04132
# Poissons Ratio (z) = 0.94841 0.09142
#
# Static dielectric constant tensor:
#      x y z
#    x 1.980930 0.038170 0.035920 
#    y 0.038170 2.043640 -0.071460 
#    z 0.035920 -0.071460 2.030910 
# 
# From -- ./inp_files/261642.got.cif
#   From: 2010.05.17/outbox.cif.g08.bks.cpg/sg2_131_cif.got.tgz:261642.got - 2010.06.03 11:33:40.
