data_PCOD9084714
_publ_section_title
;
Structure prediction by ZEFSAII (Michael W. Deem and Ramdas Pophale) SiO2 
 PCOD9084714
Probable space group: P -1
;
_chemical_formula_sum "Si O2"
_cell_formula_units_Z 16
_cell_length_a 11.136616
_cell_length_b 9.509387
_cell_length_c 9.084306
_cell_angle_alpha 60.110309
_cell_angle_beta 95.543907
_cell_angle_gamma 63.841796
_cell_volume 684.026553
_symmetry_space_group_name_H-M "P -1"
_symmetry_group_IT_number 2
_symmetry_cell_setting 'triclinic'
loop_
_space_group_symop_operation_xyz
x,y,z
-x,-y,-z
loop_
_atom_site_type_symbol
_atom_site_label
_atom_site_fract_x
_atom_site_fract_y
_atom_site_fract_z
Si Si1 0.794755 0.654622 0.540880
Si Si2 0.825195 0.646522 0.876755
Si Si3 0.116534 0.832049 0.486011
Si Si4 0.373152 0.660273 0.792225
Si Si5 0.569885 0.556002 0.606355
Si Si6 0.928393 0.771757 0.272877
Si Si7 0.791582 0.302025 0.000840
Si Si8 0.860674 0.937107 0.878833
O O1 0.789042 0.735351 0.660845
O O2 0.656116 0.644404 0.510024
O O3 0.808222 0.760517 0.349237
O O4 0.949321 0.437553 0.679761
O O5 0.760347 0.513351 0.946112
O O6 0.786165 0.821489 0.890927
O O7 0.000000 0.500000 0.000000
O O8 0.254353 0.651752 0.683699
O O9 0.025587 0.776739 0.408856
O O10 0.186563 0.900282 0.336830
O O11 0.000000 0.000000 0.500000
O O12 0.459917 0.685306 0.660197
O O13 0.500000 0.500000 0.000000
O O14 0.259501 0.794878 0.837824
O O15 0.500000 0.500000 0.500000
O O16 0.699364 0.361196 0.809716
O O17 0.862168 0.940115 0.054281
O O18 0.964085 0.180532 0.067076
#
# Coordination Sequence:
#
# PCOD9084714 Si02
#       8
#     2   2   2   2   2   2   2   2
#     4  10  20  35  58  90 120 156 213 258 301 349
#     4   9  16  31  56  82 121 156 190 254 301 352
#     4  12  24  38  61  91 127 163 202 252 318 366
#     4  10  22  38  60  85 118 159 207 246 301 364
#     4  10  19  35  56  85 121 155 200 255 297 355
#     4  11  22  35  58  91 126 160 200 263 309 358
#     4   9  18  34  56  87 117 155 202 248 290 356
#     4  11  20  36  56  90 130 155 193 252 317 358
#
# _framework density 23.390906999999999
#
# number of rings (size 3 to 8) (size 9 to 14) (size 15 to 20)
#    0.000    1.750    5.000    1.875    1.750    1.000 
#    0.000    0.000    0.000   12.750    0.000    0.000 
#    0.000    0.000    0.000    0.000    0.000    0.000 
#
# Total GULP energy -89083.385640 kJ/mol
# GULP energy per Si atom -5567.711602 kJ/mol
# Density = 2.333767 g / cm^3
# Si number density = 23.390907 Si / 1000 Ang^3
#
#
#
# Elastic Constant Matrix: (Units=GPa)
#
#
# Indices 1 2 3 4 5 6 
#
# 1 142.1941 29.0948 74.3934 17.2278 -7.0111 0.9782
# 2 29.0948 46.8956 31.3593 23.1204 0.7455 4.8334
# 3 74.3934 31.3593 149.4795 24.9506 7.6228 -3.2797
# 4 17.2278 23.1204 24.9506 36.3031 1.2151 5.0408
# 5 -7.0111 0.7455 7.6228 1.2151 58.7267 15.0567
# 6 0.9782 4.8334 -3.2797 5.0408 15.0567 26.2965
#
#
#
# Elastic Compliance Matrix: (Units=1/GPa)
#
#
# Indices 1 2 3 4 5 6 
#
# 1 0.010197 -0.003427 -0.004628 0.000694 0.002303 -0.001779
# 2 -0.003427 0.034455 -0.002626 -0.018050 0.000768 -0.003513
# 3 -0.004628 -0.002626 0.010422 -0.003801 -0.002908 0.004349
# 4 0.000694 -0.018050 -0.003801 0.042123 0.001502 -0.006117
# 5 0.002303 0.000768 -0.002908 0.001502 0.020938 -0.012866
# 6 -0.001779 -0.003513 0.004349 -0.006117 -0.012866 0.047822
#
#
# Mechanical properties :
#
#
# Convention : Reuss Voigt Hill
#
# Bulk Modulus (GPa) = 29.66336 67.58491 48.62414
# Shear Modulus (GPa) = 25.18152 37.84669 31.51411
#
# Velocity S-wave (km/s) = 3.28464 4.02681 3.67451
# Velocity P-wave (km/s) = 5.20522 7.11173 6.23181
#
# Compressibility (1/GPa) = 0.03371162
#
# Stress axis : x y z
#
# Youngs Moduli (GPa) = 98.06829 29.02312 95.94756
#
# Poissons Ratio (x) = 0.09946 0.44407
# Poissons Ratio (y) = 0.33609 0.25197
# Poissons Ratio (z) = 0.45389 0.07622
#
# Static dielectric constant tensor:
#      x y z
#    x 1.886290 -0.011800 -0.050140 
#    y -0.011800 2.063590 -0.030260 
#    z -0.050140 -0.030260 1.931970 
# 
# From -- ./inp_files/256933.got.cif
#   From: 2010.05.17/outbox.cif.g08.bks.cpg/sg2_129_cif.got.tgz:256933.got - 2010.06.03 11:33:40.
