data_PCOD9084909
_publ_section_title
;
Structure prediction by ZEFSAII (Michael W. Deem and Ramdas Pophale) SiO2 
 PCOD9084909
Probable space group: P -1
;
_chemical_formula_sum "Si O2"
_cell_formula_units_Z 16
_cell_length_a 14.101754
_cell_length_b 9.285515
_cell_length_c 18.628583
_cell_angle_alpha 148.681545
_cell_angle_beta 148.875589
_cell_angle_gamma 36.302081
_cell_volume 629.619404
_symmetry_space_group_name_H-M "P -1"
_symmetry_group_IT_number 2
_symmetry_cell_setting 'triclinic'
loop_
_space_group_symop_operation_xyz
x,y,z
-x,-y,-z
loop_
_atom_site_type_symbol
_atom_site_label
_atom_site_fract_x
_atom_site_fract_y
_atom_site_fract_z
Si Si1 0.347830 0.658314 0.525872
Si Si2 0.317095 0.671609 0.825001
Si Si3 0.704793 0.254414 0.927068
Si Si4 0.047225 0.813147 0.196321
Si Si5 0.081075 0.351467 0.143392
Si Si6 0.140461 0.170006 0.536306
Si Si7 0.697091 0.008651 0.666805
Si Si8 0.266321 0.598587 0.598055
O O1 0.500000 0.500000 0.500000
O O2 0.175958 0.527619 0.335936
O O3 0.397217 0.611162 0.620761
O O4 0.295492 0.993327 0.616456
O O5 0.519812 0.529128 0.935493
O O6 0.185653 0.465183 0.673142
O O7 0.356628 0.620265 0.742897
O O8 0.172773 0.993367 0.874919
O O9 0.792599 0.987037 0.924693
O O10 0.653286 0.083050 0.752474
O O11 0.883374 0.353050 0.054444
O O12 0.063579 0.524795 0.130476
O O13 0.145526 0.999021 0.392602
O O14 0.182001 0.796866 0.207402
O O15 0.935583 0.164121 0.432010
O O16 0.809180 0.680207 0.584273
O O17 0.500000 0.000000 0.500000
#
# Coordination Sequence:
#
# PCOD9084909 Si02
#       8
#     2   2   2   2   2   2   2   2
#     4  11  23  36  61  90 120 154 203 248 294 359
#     4  11  20  38  63  92 117 156 196 251 301 356
#     4  11  23  40  61  82 121 161 205 243 300 355
#     4  10  21  38  60  87 124 152 201 247 297 358
#     4  10  24  40  57  85 119 164 199 246 297 355
#     4  10  19  35  57  90 123 152 188 249 305 353
#     4  12  21  36  63  91 119 153 201 251 301 353
#     4  11  20  35  57  91 120 149 192 248 304 345
#
# _framework density 25.412178999999998
#
# number of rings (size 3 to 8) (size 9 to 14) (size 15 to 20)
#    0.000    1.250    5.000    1.875    3.500    1.000 
#    0.000    0.000    0.000    8.250    0.000    0.000 
#    0.000    0.000    0.000    0.000    0.000    0.000 
#
# Total GULP energy -89383.226004 kJ/mol
# GULP energy per Si atom -5586.451625 kJ/mol
# Density = 2.535434 g / cm^3
# Si number density = 25.412179 Si / 1000 Ang^3
#
#
#
# Elastic Constant Matrix: (Units=GPa)
#
#
# Indices 1 2 3 4 5 6 
#
# 1 116.0594 61.3638 4.9652 -11.7848 2.6180 25.1110
# 2 61.3638 188.3468 17.9854 -12.9422 19.7977 23.5413
# 3 4.9652 17.9854 54.9320 -4.8445 3.6480 -0.7820
# 4 -11.7848 -12.9422 -4.8445 30.2498 -3.4879 9.4869
# 5 2.6180 19.7977 3.6480 -3.4879 21.6714 -3.2825
# 6 25.1110 23.5413 -0.7820 9.4869 -3.2825 36.6739
#
#
#
# Elastic Compliance Matrix: (Units=1/GPa)
#
#
# Indices 1 2 3 4 5 6 
#
# 1 0.012485 -0.002645 0.000146 0.006485 0.000645 -0.008467
# 2 -0.002645 0.007794 -0.001692 0.002671 -0.006771 -0.004524
# 3 0.000146 -0.001692 0.019014 0.001996 -0.001236 0.000764
# 4 0.006485 0.002671 0.001996 0.042470 0.000695 -0.017037
# 5 0.000645 -0.006771 -0.001236 0.000695 0.053861 0.008519
# 6 -0.008467 -0.004524 0.000764 -0.017037 0.008519 0.041155
#
#
# Mechanical properties :
#
#
# Convention : Reuss Voigt Hill
#
# Bulk Modulus (GPa) = 32.35171 58.66301 45.50736
# Shear Modulus (GPa) = 25.58016 36.05395 30.81706
#
# Velocity S-wave (km/s) = 3.17615 3.77074 3.48615
# Velocity P-wave (km/s) = 5.11948 6.48789 5.84387
#
# Compressibility (1/GPa) = 0.03091026
#
# Stress axis : x y z
#
# Youngs Moduli (GPa) = 80.09863 128.31167 52.59284
#
# Poissons Ratio (x) = 0.33943 -0.00769
# Poissons Ratio (y) = 0.21189 0.08898
# Poissons Ratio (z) = -0.01171 0.21707
#
# Static dielectric constant tensor:
#      x y z
#    x 2.279880 -0.318390 -0.266660 
#    y -0.318390 2.561540 0.247380 
#    z -0.266660 0.247380 2.293370 
# 
# From -- ./inp_files/597461.got.cif
#   From: 2010.05.17/outbox.cif.g08.bks.cpg/sg2_299_cif.got.tgz:597461.got - 2010.06.03 11:33:40.
