data_PCOD9084817
_publ_section_title
;
Structure prediction by ZEFSAII (Michael W. Deem and Ramdas Pophale) SiO2 
 PCOD9084817
Probable space group: P -1
;
_chemical_formula_sum "Si O2"
_cell_formula_units_Z 16
_cell_length_a 12.652605
_cell_length_b 19.595151
_cell_length_c 5.944981
_cell_angle_alpha 78.275426
_cell_angle_beta 106.754445
_cell_angle_gamma 150.464792
_cell_volume 692.198201
_symmetry_space_group_name_H-M "P -1"
_symmetry_group_IT_number 2
_symmetry_cell_setting 'triclinic'
loop_
_space_group_symop_operation_xyz
x,y,z
-x,-y,-z
loop_
_atom_site_type_symbol
_atom_site_label
_atom_site_fract_x
_atom_site_fract_y
_atom_site_fract_z
Si Si1 0.784261 0.645012 0.831139
Si Si2 0.642150 0.251579 0.299737
Si Si3 0.401812 0.355668 0.661757
Si Si4 0.719392 0.921069 0.175905
Si Si5 0.502704 0.707170 0.548142
Si Si6 0.810976 0.224871 0.162777
Si Si7 0.565620 0.960354 0.316339
Si Si8 0.148690 0.177704 0.007050
O O1 0.562249 0.480218 0.855290
O O2 0.712559 0.651078 0.565351
O O3 0.855692 0.742097 0.988799
O O4 0.972062 0.692975 0.851358
O O5 0.674129 0.336681 0.421406
O O6 0.829309 0.306407 0.261726
O O7 0.499128 0.119449 0.452152
O O8 0.491234 0.195136 0.039393
O O9 0.555952 0.388247 0.589199
O O10 0.205053 0.206462 0.760712
O O11 0.666372 0.843415 0.405676
O O12 0.729981 0.003679 0.236475
O O13 0.930239 0.025877 0.079766
O O14 0.647122 0.748685 0.798435
O O15 0.683648 0.098588 0.325454
O O16 0.650066 0.148953 0.900484
#
# Coordination Sequence:
#
# PCOD9084817 Si02
#       8
#     2   2   2   2   2   2   2   2
#     4  10  22  40  59  85 115 146 193 242 277 326
#     4  10  21  34  56  83 116 151 183 225 287 346
#     4  10  23  39  59  83 113 155 195 231 276 330
#     4  10  20  34  57  89 115 147 184 231 293 341
#     4  10  22  38  54  81 122 149 188 234 275 338
#     4  10  19  35  57  82 115 149 184 233 287 331
#     4   9  19  34  53  86 119 144 182 233 285 341
#     4  11  21  36  61  84 113 150 189 235 289 338
#
# _framework density 23.114768999999999
#
# number of rings (size 3 to 8) (size 9 to 14) (size 15 to 20)
#    0.000    2.000    1.250    1.875    1.750    4.000 
#    0.000    0.625    0.000   10.500    0.000    0.000 
#    0.000    0.000    0.000    0.000    0.000    0.000 
#
# Total GULP energy -89322.894667 kJ/mol
# GULP energy per Si atom -5582.680917 kJ/mol
# Density = 2.306216 g / cm^3
# Si number density = 23.114769 Si / 1000 Ang^3
#
#
#
# Elastic Constant Matrix: (Units=GPa)
#
#
# Indices 1 2 3 4 5 6 
#
# 1 180.8688 19.0610 19.5053 4.3628 -28.0202 13.2959
# 2 19.0610 32.0182 1.8977 -5.6181 3.6269 6.7735
# 3 19.5053 1.8977 46.2539 -21.2505 4.8032 2.4070
# 4 4.3628 -5.6181 -21.2505 20.5541 -10.0290 -8.4844
# 5 -28.0202 3.6269 4.8032 -10.0290 31.5234 -7.1940
# 6 13.2959 6.7735 2.4070 -8.4844 -7.1940 22.8847
#
#
#
# Elastic Compliance Matrix: (Units=1/GPa)
#
#
# Indices 1 2 3 4 5 6 
#
# 1 0.008778 -0.006317 -0.010626 -0.015572 0.003657 -0.006736
# 2 -0.006317 0.039255 0.009253 0.015406 -0.007943 -0.005707
# 3 -0.010626 0.009253 0.068862 0.103383 0.021294 0.041214
# 4 -0.015572 0.015406 0.103383 0.239352 0.068489 0.103882
# 5 0.003657 -0.007943 0.021294 0.068489 0.064386 0.043619
# 6 -0.006736 -0.005707 0.041214 0.103882 0.043619 0.097191
#
#
# Mechanical properties :
#
#
# Convention : Reuss Voigt Hill
#
# Bulk Modulus (GPa) = 9.85075 37.78544 23.81809
# Shear Modulus (GPa) = 8.81767 29.57090 19.19429
#
# Velocity S-wave (km/s) = 1.95525 3.58062 2.88478
# Velocity P-wave (km/s) = 3.06076 5.78592 4.62845
#
# Compressibility (1/GPa) = 0.10151512
#
# Stress axis : x y z
#
# Youngs Moduli (GPa) = 113.92252 25.47450 14.52170
#
# Poissons Ratio (x) = 0.16093 0.15431
# Poissons Ratio (y) = 0.71969 -0.13437
# Poissons Ratio (z) = 1.21055 -0.23572
#
# Static dielectric constant tensor:
#      x y z
#    x 1.921760 -0.040070 -0.042700 
#    y -0.040070 1.837220 0.010840 
#    z -0.042700 0.010840 1.845750 
# 
# From -- ./inp_files/69872.got.cif
#   From: 2010.05.17/outbox.cif.g08.bks.cpg/sg2_35_cif.got.tgz:69872.got - 2010.06.03 11:33:40.
