data_PCOD9084039
_publ_section_title
;
Structure prediction by ZEFSAII (Michael W. Deem and Ramdas Pophale) SiO2 
 PCOD9084039
Probable space group: P -1
;
_chemical_formula_sum "Si O2"
_cell_formula_units_Z 16
_cell_length_a 10.864043
_cell_length_b 19.768795
_cell_length_c 15.743217
_cell_angle_alpha 20.343490
_cell_angle_beta 143.949313
_cell_angle_gamma 135.446811
_cell_volume 674.454453
_symmetry_space_group_name_H-M "P -1"
_symmetry_group_IT_number 2
_symmetry_cell_setting 'triclinic'
loop_
_space_group_symop_operation_xyz
x,y,z
-x,-y,-z
loop_
_atom_site_type_symbol
_atom_site_label
_atom_site_fract_x
_atom_site_fract_y
_atom_site_fract_z
Si Si1 0.194236 0.354617 0.331000
Si Si2 0.464770 0.423382 0.164276
Si Si3 0.265212 0.081640 0.232681
Si Si4 0.704956 0.888900 0.485322
Si Si5 0.252257 0.437396 0.701661
Si Si6 0.884122 0.398654 0.739018
Si Si7 0.044052 0.725446 0.556808
Si Si8 0.783495 0.266980 0.009099
O O1 0.330847 0.221764 0.492001
O O2 0.113859 0.217102 0.518907
O O3 0.282531 0.514991 0.244868
O O4 0.000000 0.500000 0.000000
O O5 0.638059 0.458148 0.287015
O O6 0.243263 0.571701 0.892156
O O7 0.500000 0.500000 0.000000
O O8 0.427006 0.201296 0.411778
O O9 0.500000 0.000000 0.500000
O O10 0.138472 0.904073 0.360580
O O11 0.305847 0.203414 0.028459
O O12 0.958129 0.817272 0.734124
O O13 0.668805 0.118549 0.170337
O O14 0.269825 0.518068 0.522837
O O15 0.000000 0.500000 0.500000
O O16 0.101358 0.244441 0.008697
O O17 0.952554 0.588391 0.599561
O O18 0.767276 0.290650 0.871260
#
# Coordination Sequence:
#
# PCOD9084039 Si02
#       8
#     2   2   2   2   2   2   2   2
#     4   9  16  33  53  89 120 150 195 260 314 346
#     4  12  22  38  61  94 127 166 211 262 311 369
#     4  11  22  35  59  92 121 165 221 262 299 370
#     4  10  19  34  59  95 119 155 211 263 300 367
#     4  10  23  41  59  85 132 177 204 255 323 378
#     4  10  21  41  61  89 129 166 203 259 330 376
#     4  11  21  36  65  90 124 163 213 262 306 375
#     4   9  18  33  62  91 119 158 205 254 313 373
#
# _framework density 23.722875999999999
#
# number of rings (size 3 to 8) (size 9 to 14) (size 15 to 20)
#    0.000    1.750    5.000    2.250    0.000    0.500 
#    0.000    1.875    0.000    3.000    0.000    0.000 
#    0.000    0.000    0.000    0.000    0.000    0.000 
#
# Total GULP energy -89399.175230 kJ/mol
# GULP energy per Si atom -5587.448452 kJ/mol
# Density = 2.366888 g / cm^3
# Si number density = 23.722876 Si / 1000 Ang^3
#
#
#
# Elastic Constant Matrix: (Units=GPa)
#
#
# Indices 1 2 3 4 5 6 
#
# 1 86.5132 34.9415 51.3114 4.6237 -31.4197 -0.9344
# 2 34.9415 105.6720 65.3139 5.4201 -24.0972 0.8417
# 3 51.3114 65.3139 161.0303 -8.4356 -43.5004 5.0256
# 4 4.6237 5.4201 -8.4356 50.1504 6.0639 -8.9155
# 5 -31.4197 -24.0972 -43.5004 6.0639 48.2409 -5.5588
# 6 -0.9344 0.8417 5.0256 -8.9155 -5.5588 28.8838
#
#
#
# Elastic Compliance Matrix: (Units=1/GPa)
#
#
# Indices 1 2 3 4 5 6 
#
# 1 0.017075 -0.002067 -0.002542 -0.002447 0.008324 0.001902
# 2 -0.002067 0.013373 -0.004449 -0.002206 0.001593 -0.000057
# 3 -0.002542 -0.004449 0.010325 0.001790 0.005185 -0.000199
# 4 -0.002447 -0.002206 0.001790 0.022138 -0.003185 0.005894
# 5 0.008324 0.001593 0.005185 -0.003185 0.032552 0.004602
# 6 0.001902 -0.000057 -0.000199 0.005894 0.004602 0.037424
#
#
# Mechanical properties :
#
#
# Convention : Reuss Voigt Hill
#
# Bulk Modulus (GPa) = 44.13302 72.92768 58.53035
# Shear Modulus (GPa) = 31.53448 38.89828 35.21638
#
# Velocity S-wave (km/s) = 3.64989 4.05371 3.85709
# Velocity P-wave (km/s) = 6.03376 7.26074 6.67550
#
# Compressibility (1/GPa) = 0.02265877
#
# Stress axis : x y z
#
# Youngs Moduli (GPa) = 58.56354 74.77511 96.85209
#
# Poissons Ratio (x) = 0.15454 0.24617
# Poissons Ratio (y) = 0.12103 0.43091
# Poissons Ratio (z) = 0.14885 0.33269
#
# Static dielectric constant tensor:
#      x y z
#    x 2.015370 0.009030 -0.027910 
#    y 0.009030 1.909100 -0.029910 
#    z -0.027910 -0.029910 1.867930 
# 
# From -- ./inp_files/523722.got.cif
#   From: 2010.05.17/outbox.cif.g08.bks.cpg/sg2_262_cif.got.tgz:523722.got - 2010.06.03 11:33:40.
