data_PCOD9084015
_publ_section_title
;
Structure prediction by ZEFSAII (Michael W. Deem and Ramdas Pophale) SiO2 
 PCOD9084015
Probable space group: P -1
;
_chemical_formula_sum "Si O2"
_cell_formula_units_Z 16
_cell_length_a 7.116447
_cell_length_b 11.693976
_cell_length_c 8.495251
_cell_angle_alpha 76.326361
_cell_angle_beta 73.537779
_cell_angle_gamma 85.244218
_cell_volume 658.678295
_symmetry_space_group_name_H-M "P -1"
_symmetry_group_IT_number 2
_symmetry_cell_setting 'triclinic'
loop_
_space_group_symop_operation_xyz
x,y,z
-x,-y,-z
loop_
_atom_site_type_symbol
_atom_site_label
_atom_site_fract_x
_atom_site_fract_y
_atom_site_fract_z
Si Si1 0.945315 0.029151 0.826100
Si Si2 0.443017 0.743819 0.744404
Si Si3 0.800935 0.800638 0.442028
Si Si4 0.403510 0.118507 0.048853
Si Si5 0.667032 0.256773 0.766646
Si Si6 0.791277 0.567759 0.349971
Si Si7 0.114293 0.685775 0.618410
Si Si8 0.574881 0.495560 0.746551
O O1 0.810489 0.147924 0.808035
O O2 0.133982 0.070483 0.670507
O O3 0.813961 0.919432 0.840046
O O4 0.000000 0.000000 0.000000
O O5 0.578777 0.792567 0.554783
O O6 0.475414 0.830722 0.851518
O O7 0.224541 0.724975 0.737102
O O8 0.531988 0.614445 0.812363
O O9 0.853491 0.700527 0.329231
O O10 0.930831 0.760128 0.575214
O O11 0.450012 0.208378 0.867424
O O12 0.500000 0.000000 0.000000
O O13 0.723013 0.293964 0.564615
O O14 0.685246 0.378611 0.819072
O O15 0.933416 0.453766 0.326002
O O16 0.685784 0.539534 0.550077
O O17 0.632277 0.550486 0.256465
#
# Coordination Sequence:
#
# PCOD9084015 Si02
#       8
#     2   2   2   2   2   2   2   2
#     4  10  23  38  57  85 114 161 211 240 285 347
#     4  10  21  38  62  90 125 149 191 255 305 348
#     4  10  19  34  59  90 120 154 200 248 288 346
#     4  10  23  43  59  80 115 163 207 241 295 354
#     4   9  18  37  62  83 119 153 201 234 291 361
#     4   8  14  27  54  91 125 150 181 238 297 359
#     4   9  18  34  60  95 119 152 193 237 304 363
#     4   8  15  29  58  93 115 151 191 234 303 361
#
# _framework density 24.291070000000001
#
# number of rings (size 3 to 8) (size 9 to 14) (size 15 to 20)
#    0.000    2.750    0.000    2.625    3.500    2.000 
#    4.500    5.625    0.000    0.750    0.000    0.000 
#    0.000    0.000    0.000    0.000    0.000    0.125 
#
# Total GULP energy -89232.720735 kJ/mol
# GULP energy per Si atom -5577.045046 kJ/mol
# Density = 2.423578 g / cm^3
# Si number density = 24.291070 Si / 1000 Ang^3
#
#
#
# Elastic Constant Matrix: (Units=GPa)
#
#
# Indices 1 2 3 4 5 6 
#
# 1 55.5770 20.0844 3.2498 6.3366 10.3330 19.2540
# 2 20.0844 117.9721 37.2198 10.0271 2.9746 29.6737
# 3 3.2498 37.2198 22.8571 9.5836 4.3652 -0.3663
# 4 6.3366 10.0271 9.5836 48.4855 13.1480 2.2798
# 5 10.3330 2.9746 4.3652 13.1480 34.1087 -7.3115
# 6 19.2540 29.6737 -0.3663 2.2798 -7.3115 35.7608
#
#
#
# Elastic Compliance Matrix: (Units=1/GPa)
#
#
# Indices 1 2 3 4 5 6 
#
# 1 0.025931 0.002346 -0.006142 0.001401 -0.011773 -0.018468
# 2 0.002346 0.033710 -0.057627 0.007159 -0.005779 -0.031463
# 3 -0.006142 -0.057627 0.146638 -0.021098 0.008181 0.055645
# 4 0.001401 0.007159 -0.021098 0.026604 -0.010928 -0.010841
# 5 -0.011773 -0.005779 0.008181 -0.010928 0.040901 0.020277
# 6 -0.018468 -0.031463 0.055645 -0.010841 0.020277 0.069421
#
#
# Mechanical properties :
#
#
# Convention : Reuss Voigt Hill
#
# Bulk Modulus (GPa) = 11.98582 35.27935 23.63258
# Shear Modulus (GPa) = 10.12428 32.72782 21.42605
#
# Velocity S-wave (km/s) = 2.04376 3.67457 2.97316
# Velocity P-wave (km/s) = 3.24257 5.70599 4.64072
#
# Compressibility (1/GPa) = 0.08343194
#
# Stress axis : x y z
#
# Youngs Moduli (GPa) = 38.56322 29.66516 6.81953
#
# Poissons Ratio (x) = -0.06960 0.04189
# Poissons Ratio (y) = -0.09047 0.39299
# Poissons Ratio (z) = 0.23686 1.70952
#
# Static dielectric constant tensor:
#      x y z
#    x 2.041270 0.006110 -0.046030 
#    y 0.006110 1.978840 -0.010870 
#    z -0.046030 -0.010870 1.973330 
# 
# From -- ./inp_files/169617.got.cif
#   From: 2010.05.17/outbox.cif.g08.bks.cpg/sg2_85_cif.got.tgz:169617.got - 2010.06.03 11:33:40.
