data_PCOD9084754
_publ_section_title
;
Structure prediction by ZEFSAII (Michael W. Deem and Ramdas Pophale) SiO2 
 PCOD9084754
Probable space group: P -1
;
_chemical_formula_sum "Si O2"
_cell_formula_units_Z 14
_cell_length_a 14.347781
_cell_length_b 7.385074
_cell_length_c 13.317647
_cell_angle_alpha 120.112182
_cell_angle_beta 47.336662
_cell_angle_gamma 81.690690
_cell_volume 581.627032
_symmetry_space_group_name_H-M "P -1"
_symmetry_group_IT_number 2
_symmetry_cell_setting 'triclinic'
loop_
_space_group_symop_operation_xyz
x,y,z
-x,-y,-z
loop_
_atom_site_type_symbol
_atom_site_label
_atom_site_fract_x
_atom_site_fract_y
_atom_site_fract_z
Si Si1 0.315022 0.019142 0.660746
Si Si2 0.500958 0.507020 0.850135
Si Si3 0.733806 0.351080 0.104020
Si Si4 0.290916 0.652399 0.664788
Si Si5 0.758727 0.763249 0.432607
Si Si6 0.771870 0.336278 0.751495
Si Si7 0.840366 0.547003 0.921935
O O1 0.544303 0.728213 0.382639
O O2 0.230718 0.889766 0.689039
O O3 0.201651 0.279602 0.728280
O O4 0.280856 0.150960 0.832774
O O5 0.380053 0.687518 0.885656
O O6 0.671123 0.446139 0.747045
O O7 0.601496 0.147769 0.670720
O O8 0.339946 0.695453 0.107808
O O9 0.825507 0.182293 0.097831
O O10 0.855052 0.324608 0.924077
O O11 0.500000 0.500000 0.500000
O O12 0.294952 0.409429 0.556223
O O13 0.956602 0.597156 0.291099
O O14 0.745253 0.586910 0.900050
O O15 0.000000 0.000000 0.500000
#
# Coordination Sequence:
#
# PCOD9084754 Si02
#       7
#     2   2   2   2   2   2   2
#     4  10  21  35  56  86 119 157 190 235 292 352
#     4   9  20  34  60  84 117 154 193 249 288 343
#     4   9  19  35  55  82 115 156 190 233 294 349
#     4  10  22  34  56  86 121 155 196 232 290 363
#     4  11  21  37  57  90 123 151 196 236 297 358
#     4  10  19  35  56  92 111 149 210 240 287 348
#     4  11  20  33  60  83 122 158 188 250 292 344
#
# _framework density 24.070408
#
# number of rings (size 3 to 8) (size 9 to 14) (size 15 to 20)
#    0.000    2.000    2.857    0.857   10.000    0.571 
#    0.000    0.000    0.000    0.857   11.143   14.000 
#    0.000    0.000    0.000    0.000    0.000    0.000 
#
# Total GULP energy -78043.379292 kJ/mol
# GULP energy per Si atom -5574.527092 kJ/mol
# Density = 2.401562 g / cm^3
# Si number density = 24.070408 Si / 1000 Ang^3
#
#
#
# Elastic Constant Matrix: (Units=GPa)
#
#
# Indices 1 2 3 4 5 6 
#
# 1 154.6535 22.2515 10.1334 -1.7253 1.8783 20.7734
# 2 22.2515 85.8716 -9.7086 -3.7629 0.7162 25.9280
# 3 10.1334 -9.7086 74.2014 -5.3770 -4.4439 9.4663
# 4 -1.7253 -3.7629 -5.3770 17.2008 7.5897 -3.0170
# 5 1.8783 0.7162 -4.4439 7.5897 38.5465 -5.1885
# 6 20.7734 25.9280 9.4663 -3.0170 -5.1885 29.1215
#
#
#
# Elastic Compliance Matrix: (Units=1/GPa)
#
#
# Indices 1 2 3 4 5 6 
#
# 1 0.007218 -0.000485 -0.000502 0.000097 -0.001057 -0.004732
# 2 -0.000485 0.017581 0.004615 0.003477 -0.002735 -0.016934
# 3 -0.000502 0.004615 0.015526 0.004465 -0.000279 -0.008385
# 4 0.000097 0.003477 0.004465 0.065822 -0.012518 -0.000027
# 5 -0.001057 -0.002735 -0.000279 -0.012518 0.029451 0.007230
# 6 -0.004732 -0.016934 -0.008385 -0.000027 0.007230 0.056803
#
#
# Mechanical properties :
#
#
# Convention : Reuss Voigt Hill
#
# Bulk Modulus (GPa) = 21.01671 40.00879 30.51275
# Shear Modulus (GPa) = 24.87505 36.44377 30.65941
#
# Velocity S-wave (km/s) = 3.21819 3.89530 3.57282
# Velocity P-wave (km/s) = 4.74966 6.07361 5.45197
#
# Compressibility (1/GPa) = 0.04758119
#
# Stress axis : x y z
#
# Youngs Moduli (GPa) = 138.53649 56.87932 64.40899
#
# Poissons Ratio (x) = 0.02760 0.03232
# Poissons Ratio (y) = 0.06723 -0.29726
# Poissons Ratio (z) = 0.06952 -0.26251
#
# Static dielectric constant tensor:
#      x y z
#    x 2.090530 -0.013600 -0.033220 
#    y -0.013600 2.071750 0.036070 
#    z -0.033220 0.036070 2.008920 
# 
# From -- ./inp_files/318633.got.cif
#   From: 2010.05.17/outbox.cif.g08.bks.cpg/sg2_160_cif.got.tgz:318633.got - 2010.06.03 11:33:40.
