data_PCOD9084614
_publ_section_title
;
Structure prediction by ZEFSAII (Michael W. Deem and Ramdas Pophale) SiO2 
 PCOD9084614
Probable space group: P -1
;
_chemical_formula_sum "Si O2"
_cell_formula_units_Z 14
_cell_length_a 6.869382
_cell_length_b 13.298880
_cell_length_c 9.614522
_cell_angle_alpha 71.165532
_cell_angle_beta 86.064000
_cell_angle_gamma 42.980053
_cell_volume 547.298502
_symmetry_space_group_name_H-M "P -1"
_symmetry_group_IT_number 2
_symmetry_cell_setting 'triclinic'
loop_
_space_group_symop_operation_xyz
x,y,z
-x,-y,-z
loop_
_atom_site_type_symbol
_atom_site_label
_atom_site_fract_x
_atom_site_fract_y
_atom_site_fract_z
Si Si1 0.621009 0.963089 0.268669
Si Si2 0.963772 0.337779 0.441625
Si Si3 0.530006 0.640242 0.957536
Si Si4 0.490730 0.669118 0.461283
Si Si5 0.134759 0.842175 0.136010
Si Si6 0.706654 0.141338 0.363694
Si Si7 0.086941 0.301173 0.123115
O O1 0.741458 0.819081 0.420403
O O2 0.862191 0.878790 0.174365
O O3 0.649455 0.054738 0.326890
O O4 0.286982 0.115813 0.165235
O O5 0.787429 0.503415 0.452831
O O6 0.730001 0.335619 0.476761
O O7 0.017605 0.331198 0.278479
O O8 0.296092 0.764640 0.793369
O O9 0.719232 0.674024 0.940016
O O10 0.367061 0.694509 0.087075
O O11 0.770832 0.451009 0.000593
O O12 0.307645 0.800484 0.288066
O O13 0.531685 0.719512 0.575750
O O14 0.000000 0.000000 0.000000
O O15 0.000000 0.000000 0.500000
#
# Coordination Sequence:
#
# PCOD9084614 Si02
#       7
#     2   2   2   2   2   2   2
#     4  10  21  33  62  84 107 146 187 228 271 323
#     4  10  19  35  56  80 112 149 182 221 273 335
#     4  10  21  33  58  85 111 141 186 231 277 314
#     4  10  21  33  58  82 110 143 188 228 271 323
#     4  11  16  33  55  84 104 140 190 225 264 316
#     4  11  18  36  55  86 112 136 187 238 267 317
#     4  10  19  35  55  83 111 144 187 225 269 333
#
# _framework density 25.580190999999999
#
# number of rings (size 3 to 8) (size 9 to 14) (size 15 to 20)
#    0.000    1.714    7.143    0.429    0.000    0.000 
#    0.000    3.571    0.000    0.857    0.000    0.000 
#    0.000    0.000    0.000    0.000    0.000    0.000 
#
# Total GULP energy -78354.904371 kJ/mol
# GULP energy per Si atom -5596.778884 kJ/mol
# Density = 2.552197 g / cm^3
# Si number density = 25.580191 Si / 1000 Ang^3
#
#
#
# Elastic Constant Matrix: (Units=GPa)
#
#
# Indices 1 2 3 4 5 6 
#
# 1 75.5037 14.2130 24.6261 2.1903 -11.1495 -16.3933
# 2 14.2130 140.2672 41.4013 -7.2836 -7.0107 -39.5044
# 3 24.6261 41.4013 118.1493 3.7914 -9.1538 -9.5355
# 4 2.1903 -7.2836 3.7914 60.2813 -16.4494 2.3470
# 5 -11.1495 -7.0107 -9.1538 -16.4494 35.0203 2.9816
# 6 -16.3933 -39.5044 -9.5355 2.3470 2.9816 30.6716
#
#
#
# Elastic Compliance Matrix: (Units=1/GPa)
#
#
# Indices 1 2 3 4 5 6 
#
# 1 0.016776 0.002525 -0.003194 0.000684 0.004418 0.010744
# 2 0.002525 0.012678 -0.003569 0.001502 0.001728 0.016286
# 3 -0.003194 -0.003569 0.010215 -0.000578 0.000937 -0.003175
# 4 0.000684 0.001502 -0.000578 0.019384 0.009497 -0.000286
# 5 0.004418 0.001728 0.000937 0.009497 0.034949 0.000754
# 6 0.010744 0.016286 -0.003175 -0.000286 0.000754 0.058283
#
#
# Mechanical properties :
#
#
# Convention : Reuss Voigt Hill
#
# Bulk Modulus (GPa) = 32.05781 54.93343 43.49562
# Shear Modulus (GPa) = 29.21260 42.10664 35.65962
#
# Velocity S-wave (km/s) = 3.38302 4.06157 3.73773
# Velocity P-wave (km/s) = 5.27439 6.59672 5.97227
#
# Compressibility (1/GPa) = 0.03119365
#
# Stress axis : x y z
#
# Youngs Moduli (GPa) = 59.60860 78.87795 97.89424
#
# Poissons Ratio (x) = -0.19917 0.31268
# Poissons Ratio (y) = -0.15052 0.34936
# Poissons Ratio (z) = 0.19039 0.28149
#
# Static dielectric constant tensor:
#      x y z
#    x 2.132430 -0.034960 0.030890 
#    y -0.034960 2.008100 -0.036310 
#    z 0.030890 -0.036310 1.995800 
# 
# From -- ./inp_files/206296.got.cif
#   From: 2010.05.17/outbox.cif.g08.bks.cpg/sg2_104_cif.got.tgz:206296.got - 2010.06.03 11:33:40.
