data_PCOD9084540
_publ_section_title
;
Structure prediction by ZEFSAII (Michael W. Deem and Ramdas Pophale) SiO2 
 PCOD9084540
Probable space group: P -1
;
_chemical_formula_sum "Si O2"
_cell_formula_units_Z 14
_cell_length_a 28.042402
_cell_length_b 9.455626
_cell_length_c 9.290304
_cell_angle_alpha 68.459546
_cell_angle_beta 140.575101
_cell_angle_gamma 142.906957
_cell_volume 716.933711
_symmetry_space_group_name_H-M "P -1"
_symmetry_group_IT_number 2
_symmetry_cell_setting 'triclinic'
loop_
_space_group_symop_operation_xyz
x,y,z
-x,-y,-z
loop_
_atom_site_type_symbol
_atom_site_label
_atom_site_fract_x
_atom_site_fract_y
_atom_site_fract_z
Si Si1 0.123244 0.100128 0.316720
Si Si2 0.662695 0.123485 0.223901
Si Si3 0.114707 0.751923 0.951696
Si Si4 0.634501 0.242539 0.395880
Si Si5 0.066893 0.287180 0.538425
Si Si6 0.159262 0.538280 0.961834
Si Si7 0.797775 0.057004 0.599162
O O1 0.263103 0.449249 0.560380
O O2 0.197208 0.107815 0.378059
O O3 0.016432 0.821414 0.281773
O O4 0.000000 0.000000 0.000000
O O5 0.627279 0.092891 0.320822
O O6 0.824746 0.487494 0.429303
O O7 0.679653 0.973097 0.293647
O O8 0.529632 0.973158 0.883527
O O9 0.173986 0.737224 0.977120
O O10 0.069278 0.831439 0.746807
O O11 0.960521 0.405507 0.788640
O O12 0.212039 0.949680 0.248616
O O13 0.724620 0.351008 0.707885
O O14 0.171942 0.521473 0.830981
O O15 0.000000 0.000000 0.500000
#
# Coordination Sequence:
#
# PCOD9084540 Si02
#       7
#     2   2   2   2   2   2   2
#     4   9  19  30  55  84 108 130 179 225 267 304
#     4  10  21  37  54  81 107 147 180 214 269 320
#     4   9  18  32  54  78 106 138 177 220 269 315
#     4  10  20  35  57  78 110 142 181 223 260 314
#     4  11  23  33  55  82 110 137 179 224 270 320
#     4  10  19  35  54  81 109 143 173 221 268 320
#     4   9  17  32  55  80 106 137 178 227 260 312
#
# _framework density 19.527608000000001
#
# number of rings (size 3 to 8) (size 9 to 14) (size 15 to 20)
#    0.000    2.286    1.429    1.286   10.000    1.143 
#    0.000    0.000    0.000    0.857    0.000    0.000 
#    0.000    0.000    0.000    0.000    0.000    0.000 
#
# Total GULP energy -77948.158273 kJ/mol
# GULP energy per Si atom -5567.725591 kJ/mol
# Density = 1.948316 g / cm^3
# Si number density = 19.527608 Si / 1000 Ang^3
#
#
#
# Elastic Constant Matrix: (Units=GPa)
#
#
# Indices 1 2 3 4 5 6 
#
# 1 103.1029 20.2933 30.8404 -18.1339 5.1825 -29.9272
# 2 20.2933 49.9332 13.4444 -15.9172 8.6409 -26.0332
# 3 30.8404 13.4444 72.0435 -22.1090 12.1617 -12.9283
# 4 -18.1339 -15.9172 -22.1090 25.6793 2.8274 6.4213
# 5 5.1825 8.6409 12.1617 2.8274 28.3162 -6.7898
# 6 -29.9272 -26.0332 -12.9283 6.4213 -6.7898 30.8706
#
#
#
# Elastic Compliance Matrix: (Units=1/GPa)
#
#
# Indices 1 2 3 4 5 6 
#
# 1 0.015851 0.006509 -0.001810 0.009242 -0.000712 0.018018
# 2 0.006509 0.050044 0.007841 0.033308 -0.013088 0.041989
# 3 -0.001810 0.007841 0.024007 0.023924 -0.013068 0.007060
# 4 0.009242 0.033308 0.023924 0.083342 -0.024622 0.024316
# 5 -0.000712 -0.013088 -0.013068 -0.024622 0.047099 -0.001719
# 6 0.018018 0.041989 0.007060 0.024316 -0.001719 0.082791
#
#
# Mechanical properties :
#
#
# Convention : Reuss Voigt Hill
#
# Bulk Modulus (GPa) = 8.69714 39.35953 24.02834
# Shear Modulus (GPa) = 15.80363 27.67333 21.73848
#
# Velocity S-wave (km/s) = 2.84790 3.76857 3.34011
# Velocity P-wave (km/s) = 3.90864 6.25586 5.21600
#
# Compressibility (1/GPa) = 0.11498033
#
# Stress axis : x y z
#
# Youngs Moduli (GPa) = 63.08860 19.98235 41.65387
#
# Poissons Ratio (x) = -0.13006 0.07540
# Poissons Ratio (y) = -0.41062 -0.32659
# Poissons Ratio (z) = 0.11421 -0.15667
#
# Static dielectric constant tensor:
#      x y z
#    x 1.764270 -0.011210 0.000320 
#    y -0.011210 1.701970 -0.009570 
#    z 0.000320 -0.009570 1.692490 
# 
# From -- ./inp_files/171309.got.cif
#   From: 2010.05.17/outbox.cif.g08.bks.cpg/sg2_86_cif.got.tgz:171309.got - 2010.06.03 11:33:40.
